MODEL 1
REMARK VINA RESULT:      -4.4      0.000      0.000
REMARK  3 active torsions:
REMARK  status: ('A' for Active; 'I' for Inactive)
REMARK    1  A    between atoms: C6_6  and  N10_10 
REMARK    2  A    between atoms: C7_7  and  C8_8 
REMARK    3  A    between atoms: C8_8  and  N10_10 
ROOT
HETATM    1  C1  UNL     1     -34.809  17.581   0.622  1.00 20.00     0.013 C 
HETATM    2  C2  UNL     1     -34.744  16.953  -0.399  1.00 20.00    -0.087 C 
HETATM    3  C6  UNL     1     -34.661  16.185  -1.644  1.00 20.00     0.364 C 
ENDROOT
BRANCH   3   4
HETATM    4  N10 UNL     1     -35.892  16.318  -2.415  1.00 20.00     0.117 N 
HETATM    5  H22 UNL     1     -36.685  16.078  -1.818  1.00 20.00     0.319 HD
BRANCH   4   6
HETATM    6  C8  UNL     1     -35.880  15.451  -3.577  1.00 20.00     0.241 C 
HETATM    7  C3  UNL     1     -37.200  14.802  -3.713  1.00 20.00     0.101 C 
HETATM    8  N9  UNL     1     -38.238  14.293  -3.822  1.00 20.00    -0.195 NA
HETATM    9  C5  UNL     1     -35.618  16.311  -4.824  1.00 20.00     0.066 C 
BRANCH   6  10
HETATM   10  C7  UNL     1     -34.762  14.391  -3.451  1.00 20.00     0.052 C 
HETATM   11  C4  UNL     1     -34.780  13.311  -4.529  1.00 20.00     0.009 C 
ENDBRANCH   6  10
ENDBRANCH   4   6
ENDBRANCH   3   4
TORSDOF 3
ENDMDL
MODEL 2
REMARK VINA RESULT:      -4.3      1.490      1.992
REMARK  3 active torsions:
REMARK  status: ('A' for Active; 'I' for Inactive)
REMARK    1  A    between atoms: C6_6  and  N10_10 
REMARK    2  A    between atoms: C7_7  and  C8_8 
REMARK    3  A    between atoms: C8_8  and  N10_10 
ROOT
HETATM    1  C1  UNL     1     -34.792  17.168   0.080  1.00 20.00     0.013 C 
HETATM    2  C2  UNL     1     -34.699  16.611  -0.980  1.00 20.00    -0.087 C 
HETATM    3  C6  UNL     1     -34.581  15.931  -2.273  1.00 20.00     0.364 C 
ENDROOT
BRANCH   3   4
HETATM    4  N10 UNL     1     -35.888  15.484  -2.741  1.00 20.00     0.117 N 
HETATM    5  H22 UNL     1     -36.172  14.666  -2.199  1.00 20.00     0.319 HD
BRANCH   4   6
HETATM    6  C8  UNL     1     -35.851  15.143  -4.150  1.00 20.00     0.241 C 
HETATM    7  C3  UNL     1     -35.337  13.765  -4.303  1.00 20.00     0.101 C 
HETATM    8  N9  UNL     1     -34.936  12.683  -4.424  1.00 20.00    -0.195 NA
HETATM    9  C5  UNL     1     -37.283  15.202  -4.703  1.00 20.00     0.066 C 
BRANCH   6  10
HETATM   10  C7  UNL     1     -34.967  16.144  -4.928  1.00 20.00     0.052 C 
HETATM   11  C4  UNL     1     -34.584  15.699  -6.337  1.00 20.00     0.009 C 
ENDBRANCH   6  10
ENDBRANCH   4   6
ENDBRANCH   3   4
TORSDOF 3
ENDMDL
MODEL 3
REMARK VINA RESULT:      -4.1      2.020      2.682
REMARK  3 active torsions:
REMARK  status: ('A' for Active; 'I' for Inactive)
REMARK    1  A    between atoms: C6_6  and  N10_10 
REMARK    2  A    between atoms: C7_7  and  C8_8 
REMARK    3  A    between atoms: C8_8  and  N10_10 
ROOT
HETATM    1  C1  UNL     1     -34.814  16.924  -0.467  1.00 20.00     0.013 C 
HETATM    2  C2  UNL     1     -34.314  16.534  -1.487  1.00 20.00    -0.087 C 
HETATM    3  C6  UNL     1     -33.700  16.057  -2.729  1.00 20.00     0.364 C 
ENDROOT
BRANCH   3   4
HETATM    4  N10 UNL     1     -34.696  15.954  -3.789  1.00 20.00     0.117 N 
HETATM    5  H22 UNL     1     -35.624  16.100  -3.388  1.00 20.00     0.319 HD
BRANCH   4   6
HETATM    6  C8  UNL     1     -34.645  14.655  -4.431  1.00 20.00     0.241 C 
HETATM    7  C3  UNL     1     -34.453  14.838  -5.885  1.00 20.00     0.101 C 
HETATM    8  N9  UNL     1     -34.300  14.982  -7.027  1.00 20.00    -0.195 NA
HETATM    9  C5  UNL     1     -33.446  13.878  -3.867  1.00 20.00     0.066 C 
BRANCH   6  10
HETATM   10  C7  UNL     1     -35.940  13.859  -4.149  1.00 20.00     0.052 C 
HETATM   11  C4  UNL     1     -37.197  14.712  -4.006  1.00 20.00     0.009 C 
ENDBRANCH   6  10
ENDBRANCH   4   6
ENDBRANCH   3   4
TORSDOF 3
ENDMDL
MODEL 4
REMARK VINA RESULT:      -4.1      2.344      4.015
REMARK  3 active torsions:
REMARK  status: ('A' for Active; 'I' for Inactive)
REMARK    1  A    between atoms: C6_6  and  N10_10 
REMARK    2  A    between atoms: C7_7  and  C8_8 
REMARK    3  A    between atoms: C8_8  and  N10_10 
ROOT
HETATM    1  C1  UNL     1     -34.052  19.158  -6.302  1.00 20.00     0.013 C 
HETATM    2  C2  UNL     1     -33.737  18.101  -5.828  1.00 20.00    -0.087 C 
HETATM    3  C6  UNL     1     -33.346  16.812  -5.249  1.00 20.00     0.364 C 
ENDROOT
BRANCH   3   4
HETATM    4  N10 UNL     1     -34.516  15.969  -5.035  1.00 20.00     0.117 N 
HETATM    5  H22 UNL     1     -35.336  16.565  -4.904  1.00 20.00     0.319 HD
BRANCH   4   6
HETATM    6  C8  UNL     1     -34.344  15.120  -3.871  1.00 20.00     0.241 C 
HETATM    7  C3  UNL     1     -34.750  13.740  -4.211  1.00 20.00     0.101 C 
HETATM    8  N9  UNL     1     -35.067  12.656  -4.479  1.00 20.00    -0.195 NA
HETATM    9  C5  UNL     1     -32.858  15.119  -3.484  1.00 20.00     0.066 C 
BRANCH   6  10
HETATM   10  C7  UNL     1     -35.175  15.655  -2.682  1.00 20.00     0.052 C 
HETATM   11  C4  UNL     1     -34.365  16.373  -1.606  1.00 20.00     0.009 C 
ENDBRANCH   6  10
ENDBRANCH   4   6
ENDBRANCH   3   4
TORSDOF 3
ENDMDL
MODEL 5
REMARK VINA RESULT:      -4.0      1.766      4.261
REMARK  3 active torsions:
REMARK  status: ('A' for Active; 'I' for Inactive)
REMARK    1  A    between atoms: C6_6  and  N10_10 
REMARK    2  A    between atoms: C7_7  and  C8_8 
REMARK    3  A    between atoms: C8_8  and  N10_10 
ROOT
HETATM    1  C1  UNL     1     -35.103  14.743  -7.918  1.00 20.00     0.013 C 
HETATM    2  C2  UNL     1     -34.646  15.086  -6.862  1.00 20.00    -0.087 C 
HETATM    3  C6  UNL     1     -34.082  15.502  -5.575  1.00 20.00     0.364 C 
ENDROOT
BRANCH   3   4
HETATM    4  N10 UNL     1     -35.092  16.170  -4.762  1.00 20.00     0.117 N 
HETATM    5  H22 UNL     1     -34.749  17.096  -4.500  1.00 20.00     0.319 HD
BRANCH   4   6
HETATM    6  C8  UNL     1     -35.391  15.407  -3.566  1.00 20.00     0.241 C 
HETATM    7  C3  UNL     1     -36.721  14.778  -3.710  1.00 20.00     0.101 C 
HETATM    8  N9  UNL     1     -37.764  14.283  -3.823  1.00 20.00    -0.195 NA
HETATM    9  C5  UNL     1     -34.334  14.302  -3.416  1.00 20.00     0.066 C 
BRANCH   6  10
HETATM   10  C7  UNL     1     -35.351  16.318  -2.318  1.00 20.00     0.052 C 
HETATM   11  C4  UNL     1     -33.952  16.616  -1.787  1.00 20.00     0.009 C 
ENDBRANCH   6  10
ENDBRANCH   4   6
ENDBRANCH   3   4
TORSDOF 3
ENDMDL
MODEL 6
REMARK VINA RESULT:      -4.0      1.810      3.593
REMARK  3 active torsions:
REMARK  status: ('A' for Active; 'I' for Inactive)
REMARK    1  A    between atoms: C6_6  and  N10_10 
REMARK    2  A    between atoms: C7_7  and  C8_8 
REMARK    3  A    between atoms: C8_8  and  N10_10 
ROOT
HETATM    1  C1  UNL     1     -40.014  16.175  -2.980  1.00 20.00     0.013 C 
HETATM    2  C2  UNL     1     -39.007  15.636  -3.351  1.00 20.00    -0.087 C 
HETATM    3  C6  UNL     1     -37.781  14.977  -3.809  1.00 20.00     0.364 C 
ENDROOT
BRANCH   3   4
HETATM    4  N10 UNL     1     -36.666  15.291  -2.923  1.00 20.00     0.117 N 
HETATM    5  H22 UNL     1     -36.798  16.231  -2.544  1.00 20.00     0.319 HD
BRANCH   4   6
HETATM    6  C8  UNL     1     -35.401  15.226  -3.629  1.00 20.00     0.241 C 
HETATM    7  C3  UNL     1     -35.158  13.835  -4.064  1.00 20.00     0.101 C 
HETATM    8  N9  UNL     1     -34.968  12.743  -4.408  1.00 20.00    -0.195 NA
HETATM    9  C5  UNL     1     -35.489  16.126  -4.871  1.00 20.00     0.066 C 
BRANCH   6  10
HETATM   10  C7  UNL     1     -34.249  15.723  -2.725  1.00 20.00     0.052 C 
HETATM   11  C4  UNL     1     -34.695  16.364  -1.414  1.00 20.00     0.009 C 
ENDBRANCH   6  10
ENDBRANCH   4   6
ENDBRANCH   3   4
TORSDOF 3
ENDMDL
MODEL 7
REMARK VINA RESULT:      -3.9     12.162     14.139
REMARK  3 active torsions:
REMARK  status: ('A' for Active; 'I' for Inactive)
REMARK    1  A    between atoms: C6_6  and  N10_10 
REMARK    2  A    between atoms: C7_7  and  C8_8 
REMARK    3  A    between atoms: C8_8  and  N10_10 
ROOT
HETATM    1  C1  UNL     1     -41.606   0.053  -4.091  1.00 20.00     0.013 C 
HETATM    2  C2  UNL     1     -42.025   1.042  -3.553  1.00 20.00    -0.087 C 
HETATM    3  C6  UNL     1     -42.542   2.246  -2.896  1.00 20.00     0.364 C 
ENDROOT
BRANCH   3   4
HETATM    4  N10 UNL     1     -41.447   3.108  -2.468  1.00 20.00     0.117 N 
HETATM    5  H22 UNL     1     -40.827   2.577  -1.853  1.00 20.00     0.319 HD
BRANCH   4   6
HETATM    6  C8  UNL     1     -41.943   4.275  -1.765  1.00 20.00     0.241 C 
HETATM    7  C3  UNL     1     -42.588   5.188  -2.732  1.00 20.00     0.101 C 
HETATM    8  N9  UNL     1     -43.096   5.904  -3.491  1.00 20.00    -0.195 NA
HETATM    9  C5  UNL     1     -42.992   3.818  -0.740  1.00 20.00     0.066 C 
BRANCH   6  10
HETATM   10  C7  UNL     1     -40.791   4.992  -1.023  1.00 20.00     0.052 C 
HETATM   11  C4  UNL     1     -41.141   6.376  -0.483  1.00 20.00     0.009 C 
ENDBRANCH   6  10
ENDBRANCH   4   6
ENDBRANCH   3   4
TORSDOF 3
ENDMDL
MODEL 8
REMARK VINA RESULT:      -3.9      2.373      4.635
REMARK  3 active torsions:
REMARK  status: ('A' for Active; 'I' for Inactive)
REMARK    1  A    between atoms: C6_6  and  N10_10 
REMARK    2  A    between atoms: C7_7  and  C8_8 
REMARK    3  A    between atoms: C8_8  and  N10_10 
ROOT
HETATM    1  C1  UNL     1     -36.200  15.259  -7.759  1.00 20.00     0.013 C 
HETATM    2  C2  UNL     1     -35.589  15.761  -6.856  1.00 20.00    -0.087 C 
HETATM    3  C6  UNL     1     -34.846  16.377  -5.753  1.00 20.00     0.364 C 
ENDROOT
BRANCH   3   4
HETATM    4  N10 UNL     1     -33.663  15.590  -5.426  1.00 20.00     0.117 N 
HETATM    5  H22 UNL     1     -33.511  14.898  -6.161  1.00 20.00     0.319 HD
BRANCH   4   6
HETATM    6  C8  UNL     1     -33.818  14.917  -4.151  1.00 20.00     0.241 C 
HETATM    7  C3  UNL     1     -34.468  13.607  -4.368  1.00 20.00     0.101 C 
HETATM    8  N9  UNL     1     -34.976  12.578  -4.538  1.00 20.00    -0.195 NA
HETATM    9  C5  UNL     1     -32.423  14.684  -3.550  1.00 20.00     0.066 C 
BRANCH   6  10
HETATM   10  C7  UNL     1     -34.649  15.782  -3.177  1.00 20.00     0.052 C 
HETATM   11  C4  UNL     1     -33.829  16.570  -2.159  1.00 20.00     0.009 C 
ENDBRANCH   6  10
ENDBRANCH   4   6
ENDBRANCH   3   4
TORSDOF 3
ENDMDL
MODEL 9
REMARK VINA RESULT:      -3.9     11.594     12.263
REMARK  3 active torsions:
REMARK  status: ('A' for Active; 'I' for Inactive)
REMARK    1  A    between atoms: C6_6  and  N10_10 
REMARK    2  A    between atoms: C7_7  and  C8_8 
REMARK    3  A    between atoms: C8_8  and  N10_10 
ROOT
HETATM    1  C1  UNL     1     -32.048   8.486   1.532  1.00 20.00     0.013 C 
HETATM    2  C2  UNL     1     -32.156   7.749   2.474  1.00 20.00    -0.087 C 
HETATM    3  C6  UNL     1     -32.285   6.854   3.627  1.00 20.00     0.364 C 
ENDROOT
BRANCH   3   4
HETATM    4  N10 UNL     1     -33.169   5.737   3.315  1.00 20.00     0.117 N 
HETATM    5  H22 UNL     1     -33.517   5.846   2.361  1.00 20.00     0.319 HD
BRANCH   4   6
HETATM    6  C8  UNL     1     -34.288   5.682   4.236  1.00 20.00     0.241 C 
HETATM    7  C3  UNL     1     -33.930   6.393   5.481  1.00 20.00     0.101 C 
HETATM    8  N9  UNL     1     -33.650   6.954   6.458  1.00 20.00    -0.195 NA
HETATM    9  C5  UNL     1     -35.488   6.389   3.588  1.00 20.00     0.066 C 
BRANCH   6  10
HETATM   10  C7  UNL     1     -34.670   4.215   4.538  1.00 20.00     0.052 C 
HETATM   11  C4  UNL     1     -35.095   3.947   5.980  1.00 20.00     0.009 C 
ENDBRANCH   6  10
ENDBRANCH   4   6
ENDBRANCH   3   4
TORSDOF 3
ENDMDL
