MODEL 1
REMARK VINA RESULT:      -4.0      0.000      0.000
REMARK  2 active torsions:
REMARK  status: ('A' for Active; 'I' for Inactive)
REMARK    1  A    between atoms: C1_1  and  C3_3 
REMARK    2  A    between atoms: C2_2  and  C4_4 
ROOT
HETATM    1  C1  UNL     1     -33.607   5.845   2.965  1.00 20.00    -0.015 C 
HETATM    2  C2  UNL     1     -34.521   5.468   3.870  1.00 20.00    -0.015 C 
ENDROOT
BRANCH   1   3
HETATM    3  C3  UNL     1     -32.315   6.503   3.319  1.00 20.00     0.141 C 
HETATM    4 CL5  UNL     1     -32.056   7.924   2.283  1.00 20.00    -0.126 Cl
ENDBRANCH   1   3
BRANCH   2   5
HETATM    5  C4  UNL     1     -34.357   5.660   5.342  1.00 20.00     0.141 C 
HETATM    6 CL6  UNL     1     -35.108   4.309   6.217  1.00 20.00    -0.126 Cl
ENDBRANCH   2   5
TORSDOF 2
ENDMDL
MODEL 2
REMARK VINA RESULT:      -4.0      0.057      4.030
REMARK  2 active torsions:
REMARK  status: ('A' for Active; 'I' for Inactive)
REMARK    1  A    between atoms: C1_1  and  C3_3 
REMARK    2  A    between atoms: C2_2  and  C4_4 
ROOT
HETATM    1  C1  UNL     1     -34.500   5.508   3.844  1.00 20.00    -0.015 C 
HETATM    2  C2  UNL     1     -33.582   5.901   2.950  1.00 20.00    -0.015 C 
ENDROOT
BRANCH   1   3
HETATM    3  C3  UNL     1     -34.346   5.680   5.319  1.00 20.00     0.141 C 
HETATM    4 CL5  UNL     1     -35.075   4.299   6.169  1.00 20.00    -0.126 Cl
ENDBRANCH   1   3
BRANCH   2   5
HETATM    5  C4  UNL     1     -32.294   6.561   3.323  1.00 20.00     0.141 C 
HETATM    6 CL6  UNL     1     -32.006   7.963   2.271  1.00 20.00    -0.126 Cl
ENDBRANCH   2   5
TORSDOF 2
ENDMDL
MODEL 3
REMARK VINA RESULT:      -3.9      1.084      3.641
REMARK  2 active torsions:
REMARK  status: ('A' for Active; 'I' for Inactive)
REMARK    1  A    between atoms: C1_1  and  C3_3 
REMARK    2  A    between atoms: C2_2  and  C4_4 
ROOT
HETATM    1  C1  UNL     1     -34.902   5.288   4.158  1.00 20.00    -0.015 C 
HETATM    2  C2  UNL     1     -34.115   5.786   3.194  1.00 20.00    -0.015 C 
ENDROOT
BRANCH   1   3
HETATM    3  C3  UNL     1     -34.414   4.935   5.525  1.00 20.00     0.141 C 
HETATM    4 CL5  UNL     1     -34.180   6.413   6.484  1.00 20.00    -0.126 Cl
ENDBRANCH   1   3
BRANCH   2   5
HETATM    5  C4  UNL     1     -32.656   6.050   3.371  1.00 20.00     0.141 C 
HETATM    6 CL6  UNL     1     -32.215   7.576   2.576  1.00 20.00    -0.126 Cl
ENDBRANCH   2   5
TORSDOF 2
ENDMDL
MODEL 4
REMARK VINA RESULT:      -3.9      1.083      1.083
REMARK  2 active torsions:
REMARK  status: ('A' for Active; 'I' for Inactive)
REMARK    1  A    between atoms: C1_1  and  C3_3 
REMARK    2  A    between atoms: C2_2  and  C4_4 
ROOT
HETATM    1  C1  UNL     1     -34.099   5.783   3.195  1.00 20.00    -0.015 C 
HETATM    2  C2  UNL     1     -34.889   5.283   4.155  1.00 20.00    -0.015 C 
ENDROOT
BRANCH   1   3
HETATM    3  C3  UNL     1     -32.642   6.057   3.381  1.00 20.00     0.141 C 
HETATM    4 CL5  UNL     1     -32.208   7.585   2.584  1.00 20.00    -0.126 Cl
ENDBRANCH   1   3
BRANCH   2   5
HETATM    5  C4  UNL     1     -34.408   4.940   5.527  1.00 20.00     0.141 C 
HETATM    6 CL6  UNL     1     -34.181   6.422   6.479  1.00 20.00    -0.126 Cl
ENDBRANCH   2   5
TORSDOF 2
ENDMDL
MODEL 5
REMARK VINA RESULT:      -3.6      2.243      3.456
REMARK  2 active torsions:
REMARK  status: ('A' for Active; 'I' for Inactive)
REMARK    1  A    between atoms: C1_1  and  C3_3 
REMARK    2  A    between atoms: C2_2  and  C4_4 
ROOT
HETATM    1  C1  UNL     1     -34.732   4.379   5.964  1.00 20.00    -0.015 C 
HETATM    2  C2  UNL     1     -34.856   4.228   4.639  1.00 20.00    -0.015 C 
ENDROOT
BRANCH   1   3
HETATM    3  C3  UNL     1     -34.836   5.696   6.661  1.00 20.00     0.141 C 
HETATM    4 CL5  UNL     1     -33.366   6.652   6.369  1.00 20.00    -0.126 Cl
ENDBRANCH   1   3
BRANCH   2   5
HETATM    5  C4  UNL     1     -35.114   5.359   3.697  1.00 20.00     0.141 C 
HETATM    6 CL6  UNL     1     -33.591   5.885   2.951  1.00 20.00    -0.126 Cl
ENDBRANCH   2   5
TORSDOF 2
ENDMDL
MODEL 6
REMARK VINA RESULT:      -3.4      1.386      1.922
REMARK  2 active torsions:
REMARK  status: ('A' for Active; 'I' for Inactive)
REMARK    1  A    between atoms: C1_1  and  C3_3 
REMARK    2  A    between atoms: C2_2  and  C4_4 
ROOT
HETATM    1  C1  UNL     1     -33.506   6.689   5.328  1.00 20.00    -0.015 C 
HETATM    2  C2  UNL     1     -34.158   6.071   6.322  1.00 20.00    -0.015 C 
ENDROOT
BRANCH   1   3
HETATM    3  C3  UNL     1     -33.767   6.432   3.880  1.00 20.00     0.141 C 
HETATM    4 CL5  UNL     1     -32.233   6.138   3.032  1.00 20.00    -0.126 Cl
ENDBRANCH   1   3
BRANCH   2   5
HETATM    5  C4  UNL     1     -35.226   5.050   6.102  1.00 20.00     0.141 C 
HETATM    6 CL6  UNL     1     -34.504   3.531   5.529  1.00 20.00    -0.126 Cl
ENDBRANCH   2   5
TORSDOF 2
ENDMDL
MODEL 7
REMARK VINA RESULT:      -3.4      1.811      4.395
REMARK  2 active torsions:
REMARK  status: ('A' for Active; 'I' for Inactive)
REMARK    1  A    between atoms: C1_1  and  C3_3 
REMARK    2  A    between atoms: C2_2  and  C4_4 
ROOT
HETATM    1  C1  UNL     1     -32.539   6.631   3.670  1.00 20.00    -0.015 C 
HETATM    2  C2  UNL     1     -31.862   7.661   3.145  1.00 20.00    -0.015 C 
ENDROOT
BRANCH   1   3
HETATM    3  C3  UNL     1     -33.527   5.813   2.905  1.00 20.00     0.141 C 
HETATM    4 CL5  UNL     1     -34.941   5.464   3.922  1.00 20.00    -0.126 Cl
ENDBRANCH   1   3
BRANCH   2   5
HETATM    5  C4  UNL     1     -32.012   8.116   1.730  1.00 20.00     0.141 C 
HETATM    6 CL6  UNL     1     -32.524   9.816   1.691  1.00 20.00    -0.126 Cl
ENDBRANCH   2   5
TORSDOF 2
ENDMDL
MODEL 8
REMARK VINA RESULT:      -3.4      1.771      2.336
REMARK  2 active torsions:
REMARK  status: ('A' for Active; 'I' for Inactive)
REMARK    1  A    between atoms: C1_1  and  C3_3 
REMARK    2  A    between atoms: C2_2  and  C4_4 
ROOT
HETATM    1  C1  UNL     1     -31.889   7.608   3.194  1.00 20.00    -0.015 C 
HETATM    2  C2  UNL     1     -32.606   6.600   3.710  1.00 20.00    -0.015 C 
ENDROOT
BRANCH   1   3
HETATM    3  C3  UNL     1     -32.000   8.061   1.776  1.00 20.00     0.141 C 
HETATM    4 CL5  UNL     1     -32.538   9.754   1.722  1.00 20.00    -0.126 Cl
ENDBRANCH   1   3
BRANCH   2   5
HETATM    5  C4  UNL     1     -33.603   5.809   2.928  1.00 20.00     0.141 C 
HETATM    6 CL6  UNL     1     -35.008   5.429   3.946  1.00 20.00    -0.126 Cl
ENDBRANCH   2   5
TORSDOF 2
ENDMDL
MODEL 9
REMARK VINA RESULT:      -3.4      1.418      3.965
REMARK  2 active torsions:
REMARK  status: ('A' for Active; 'I' for Inactive)
REMARK    1  A    between atoms: C1_1  and  C3_3 
REMARK    2  A    between atoms: C2_2  and  C4_4 
ROOT
HETATM    1  C1  UNL     1     -34.213   6.029   6.337  1.00 20.00    -0.015 C 
HETATM    2  C2  UNL     1     -33.574   6.684   5.357  1.00 20.00    -0.015 C 
ENDROOT
BRANCH   1   3
HETATM    3  C3  UNL     1     -35.244   4.977   6.094  1.00 20.00     0.141 C 
HETATM    4 CL5  UNL     1     -34.475   3.514   5.442  1.00 20.00    -0.126 Cl
ENDBRANCH   1   3
BRANCH   2   5
HETATM    5  C4  UNL     1     -33.816   6.439   3.904  1.00 20.00     0.141 C 
HETATM    6 CL6  UNL     1     -32.276   6.114   3.080  1.00 20.00    -0.126 Cl
ENDBRANCH   2   5
TORSDOF 2
ENDMDL
