MODEL 1
REMARK VINA RESULT:      -4.4      0.000      0.000
REMARK  1 active torsions:
REMARK  status: ('A' for Active; 'I' for Inactive)
REMARK    1  A    between atoms: C1_1  and  C6_6 
ROOT
HETATM    1  C2  UNL     1     -34.743  15.560  -2.230  1.00 20.00     0.021 C 
HETATM    2  C3  UNL     1     -33.113  15.784  -4.237  1.00 20.00     0.027 A 
HETATM    3  C4  UNL     1     -34.883  16.886  -1.503  1.00 20.00     0.075 C 
HETATM    4  C5  UNL     1     -35.396  17.020  -4.143  1.00 20.00     0.084 C 
HETATM    5  C6  UNL     1     -34.162  14.801  -4.687  1.00 20.00     0.097 A 
HETATM    6  C7  UNL     1     -34.515  15.888  -3.683  1.00 20.00    -0.017 A 
HETATM    7  S10 UNL     1     -35.875  17.903  -2.624  1.00 20.00    -0.168 SA
ENDROOT
BRANCH   5   8
HETATM    8  C1  UNL     1     -34.042  13.431  -4.225  1.00 20.00     0.177 C 
HETATM    9  O8  UNL     1     -35.085  12.730  -4.342  1.00 20.00    -0.648 OA
HETATM   10  O9  UNL     1     -32.906  13.123  -3.768  1.00 20.00    -0.648 OA
ENDBRANCH   5   8
TORSDOF 1
ENDMDL
MODEL 2
REMARK VINA RESULT:      -4.4      0.055      1.025
REMARK  1 active torsions:
REMARK  status: ('A' for Active; 'I' for Inactive)
REMARK    1  A    between atoms: C1_1  and  C6_6 
ROOT
HETATM    1  C2  UNL     1     -34.667  15.573  -2.240  1.00 20.00     0.021 C 
HETATM    2  C3  UNL     1     -33.087  15.781  -4.288  1.00 20.00     0.027 A 
HETATM    3  C4  UNL     1     -34.786  16.903  -1.519  1.00 20.00     0.075 C 
HETATM    4  C5  UNL     1     -35.364  17.023  -4.145  1.00 20.00     0.084 C 
HETATM    5  C6  UNL     1     -34.149  14.797  -4.706  1.00 20.00     0.097 A 
HETATM    6  C7  UNL     1     -34.475  15.891  -3.701  1.00 20.00    -0.017 A 
HETATM    7  S10 UNL     1     -35.803  17.916  -2.621  1.00 20.00    -0.168 SA
ENDROOT
BRANCH   5   8
HETATM    8  C1  UNL     1     -34.021  13.430  -4.239  1.00 20.00     0.177 C 
HETATM    9  O8  UNL     1     -32.884  13.117  -3.790  1.00 20.00    -0.648 OA
HETATM   10  O9  UNL     1     -35.070  12.734  -4.344  1.00 20.00    -0.648 OA
ENDBRANCH   5   8
TORSDOF 1
ENDMDL
MODEL 3
REMARK VINA RESULT:      -4.4      1.611      2.466
REMARK  1 active torsions:
REMARK  status: ('A' for Active; 'I' for Inactive)
REMARK    1  A    between atoms: C1_1  and  C6_6 
ROOT
HETATM    1  C2  UNL     1     -34.089  15.699  -5.728  1.00 20.00     0.021 C 
HETATM    2  C3  UNL     1     -35.671  15.357  -3.699  1.00 20.00     0.027 A 
HETATM    3  C4  UNL     1     -34.355  17.037  -6.395  1.00 20.00     0.075 C 
HETATM    4  C5  UNL     1     -33.846  17.206  -3.756  1.00 20.00     0.084 C 
HETATM    5  C6  UNL     1     -34.372  14.703  -3.304  1.00 20.00     0.097 A 
HETATM    6  C7  UNL     1     -34.370  15.886  -4.259  1.00 20.00    -0.017 A 
HETATM    7  S10 UNL     1     -33.677  18.251  -5.238  1.00 20.00    -0.168 SA
ENDROOT
BRANCH   5   8
HETATM    8  C1  UNL     1     -34.099  13.378  -3.826  1.00 20.00     0.177 C 
HETATM    9  O8  UNL     1     -35.102  12.760  -4.280  1.00 20.00    -0.648 OA
HETATM   10  O9  UNL     1     -32.890  13.020  -3.756  1.00 20.00    -0.648 OA
ENDBRANCH   5   8
TORSDOF 1
ENDMDL
MODEL 4
REMARK VINA RESULT:      -4.4      1.275      1.412
REMARK  1 active torsions:
REMARK  status: ('A' for Active; 'I' for Inactive)
REMARK    1  A    between atoms: C1_1  and  C6_6 
ROOT
HETATM    1  C2  UNL     1     -34.763  15.902  -2.036  1.00 20.00     0.021 C 
HETATM    2  C3  UNL     1     -33.058  14.931  -3.735  1.00 20.00     0.027 A 
HETATM    3  C4  UNL     1     -34.097  16.928  -1.137  1.00 20.00     0.075 C 
HETATM    4  C5  UNL     1     -33.806  17.419  -3.768  1.00 20.00     0.084 C 
HETATM    5  C6  UNL     1     -34.369  14.984  -4.476  1.00 20.00     0.097 A 
HETATM    6  C7  UNL     1     -34.074  15.990  -3.373  1.00 20.00    -0.017 A 
HETATM    7  S10 UNL     1     -33.846  18.362  -2.211  1.00 20.00    -0.168 SA
ENDROOT
BRANCH   5   8
HETATM    8  C1  UNL     1     -35.329  13.927  -4.223  1.00 20.00     0.177 C 
HETATM    9  O8  UNL     1     -36.540  14.284  -4.233  1.00 20.00    -0.648 OA
HETATM   10  O9  UNL     1     -34.822  12.786  -4.027  1.00 20.00    -0.648 OA
ENDBRANCH   5   8
TORSDOF 1
ENDMDL
MODEL 5
REMARK VINA RESULT:      -4.1      2.357      3.480
REMARK  1 active torsions:
REMARK  status: ('A' for Active; 'I' for Inactive)
REMARK    1  A    between atoms: C1_1  and  C6_6 
ROOT
HETATM    1  C2  UNL     1     -34.564  14.574  -6.402  1.00 20.00     0.021 C 
HETATM    2  C3  UNL     1     -35.545  13.397  -4.308  1.00 20.00     0.027 A 
HETATM    3  C4  UNL     1     -35.583  14.599  -7.528  1.00 20.00     0.075 C 
HETATM    4  C5  UNL     1     -36.477  15.646  -5.215  1.00 20.00     0.084 C 
HETATM    5  C6  UNL     1     -34.657  14.488  -3.769  1.00 20.00     0.097 A 
HETATM    6  C7  UNL     1     -35.344  14.659  -5.115  1.00 20.00    -0.017 A 
HETATM    7  S10 UNL     1     -36.801  15.827  -6.998  1.00 20.00    -0.168 SA
ENDROOT
BRANCH   5   8
HETATM    8  C1  UNL     1     -33.228  14.239  -3.737  1.00 20.00     0.177 C 
HETATM    9  O8  UNL     1     -32.501  15.271  -3.720  1.00 20.00    -0.648 OA
HETATM   10  O9  UNL     1     -32.903  13.018  -3.728  1.00 20.00    -0.648 OA
ENDBRANCH   5   8
TORSDOF 1
ENDMDL
MODEL 6
REMARK VINA RESULT:      -3.9      3.162      3.951
REMARK  1 active torsions:
REMARK  status: ('A' for Active; 'I' for Inactive)
REMARK    1  A    between atoms: C1_1  and  C6_6 
ROOT
HETATM    1  C2  UNL     1     -35.812  15.364  -3.407  1.00 20.00     0.021 C 
HETATM    2  C3  UNL     1     -33.743  16.886  -3.778  1.00 20.00     0.027 A 
HETATM    3  C4  UNL     1     -36.102  14.543  -4.651  1.00 20.00     0.075 C 
HETATM    4  C5  UNL     1     -33.583  14.294  -3.733  1.00 20.00     0.084 C 
HETATM    5  C6  UNL     1     -33.679  16.477  -2.330  1.00 20.00     0.097 A 
HETATM    6  C7  UNL     1     -34.317  15.554  -3.356  1.00 20.00    -0.017 A 
HETATM    7  S10 UNL     1     -34.782  13.306  -4.684  1.00 20.00    -0.168 SA
ENDROOT
BRANCH   5   8
HETATM    8  C1  UNL     1     -34.531  17.182  -1.392  1.00 20.00     0.177 C 
HETATM    9  O8  UNL     1     -34.745  16.583  -0.302  1.00 20.00    -0.648 OA
HETATM   10  O9  UNL     1     -34.945  18.306  -1.794  1.00 20.00    -0.648 OA
ENDBRANCH   5   8
TORSDOF 1
ENDMDL
MODEL 7
REMARK VINA RESULT:      -3.8      1.101      1.151
REMARK  1 active torsions:
REMARK  status: ('A' for Active; 'I' for Inactive)
REMARK    1  A    between atoms: C1_1  and  C6_6 
ROOT
HETATM    1  C2  UNL     1     -34.403  16.328  -1.585  1.00 20.00     0.021 C 
HETATM    2  C3  UNL     1     -33.599  16.827  -4.001  1.00 20.00     0.027 A 
HETATM    3  C4  UNL     1     -34.828  17.608  -0.887  1.00 20.00     0.075 C 
HETATM    4  C5  UNL     1     -36.059  17.181  -3.243  1.00 20.00     0.084 C 
HETATM    5  C6  UNL     1     -34.278  15.485  -4.079  1.00 20.00     0.097 A 
HETATM    6  C7  UNL     1     -34.726  16.507  -3.046  1.00 20.00    -0.017 A 
HETATM    7  S10 UNL     1     -36.397  18.043  -1.675  1.00 20.00    -0.168 SA
ENDROOT
BRANCH   5   8
HETATM    8  C1  UNL     1     -33.528  14.324  -3.639  1.00 20.00     0.177 C 
HETATM    9  O8  UNL     1     -34.219  13.294  -3.401  1.00 20.00    -0.648 OA
HETATM   10  O9  UNL     1     -32.280  14.500  -3.555  1.00 20.00    -0.648 OA
ENDBRANCH   5   8
TORSDOF 1
ENDMDL
MODEL 8
REMARK VINA RESULT:      -3.8      2.085      2.610
REMARK  1 active torsions:
REMARK  status: ('A' for Active; 'I' for Inactive)
REMARK    1  A    between atoms: C1_1  and  C6_6 
ROOT
HETATM    1  C2  UNL     1     -34.265  16.234  -4.478  1.00 20.00     0.021 C 
HETATM    2  C3  UNL     1     -34.498  14.580  -6.463  1.00 20.00     0.027 A 
HETATM    3  C4  UNL     1     -33.429  17.437  -4.878  1.00 20.00     0.075 C 
HETATM    4  C5  UNL     1     -35.525  16.966  -6.501  1.00 20.00     0.084 C 
HETATM    5  C6  UNL     1     -35.810  14.503  -5.728  1.00 20.00     0.097 A 
HETATM    6  C7  UNL     1     -35.003  15.791  -5.715  1.00 20.00    -0.017 A 
HETATM    7  S10 UNL     1     -34.513  18.385  -5.974  1.00 20.00    -0.168 SA
ENDROOT
BRANCH   5   8
HETATM    8  C1  UNL     1     -35.862  13.694  -4.525  1.00 20.00     0.177 C 
HETATM    9  O8  UNL     1     -36.796  13.976  -3.725  1.00 20.00    -0.648 OA
HETATM   10  O9  UNL     1     -34.961  12.812  -4.441  1.00 20.00    -0.648 OA
ENDBRANCH   5   8
TORSDOF 1
ENDMDL
MODEL 9
REMARK VINA RESULT:      -3.8      2.201      2.704
REMARK  1 active torsions:
REMARK  status: ('A' for Active; 'I' for Inactive)
REMARK    1  A    between atoms: C1_1  and  C6_6 
ROOT
HETATM    1  C2  UNL     1     -36.119  15.989  -4.483  1.00 20.00     0.021 C 
HETATM    2  C3  UNL     1     -34.106  15.641  -6.084  1.00 20.00     0.027 A 
HETATM    3  C4  UNL     1     -36.816  17.305  -4.778  1.00 20.00     0.075 C 
HETATM    4  C5  UNL     1     -36.567  15.690  -6.918  1.00 20.00     0.084 C 
HETATM    5  C6  UNL     1     -34.674  14.264  -5.856  1.00 20.00     0.097 A 
HETATM    6  C7  UNL     1     -35.582  15.483  -5.797  1.00 20.00    -0.017 A 
HETATM    7  S10 UNL     1     -37.682  17.008  -6.339  1.00 20.00    -0.168 SA
ENDROOT
BRANCH   5   8
HETATM    8  C1  UNL     1     -34.324  13.588  -4.621  1.00 20.00     0.177 C 
HETATM    9  O8  UNL     1     -33.314  14.048  -4.021  1.00 20.00    -0.648 OA
HETATM   10  O9  UNL     1     -35.082  12.626  -4.311  1.00 20.00    -0.648 OA
ENDBRANCH   5   8
TORSDOF 1
ENDMDL
