MODEL 1
REMARK VINA RESULT:      -5.3      0.000      0.000
REMARK  1 active torsions:
REMARK  status: ('A' for Active; 'I' for Inactive)
REMARK    1  A    between atoms: C3_3  and  C8_8 
ROOT
HETATM    1  C1  UNL     1     -32.077   8.416   1.786  1.00 20.00     0.087 C 
HETATM    2  C2  UNL     1     -32.204   7.388   2.759  1.00 20.00     0.090 C 
HETATM    3  C3  UNL     1     -33.402   6.986   3.204  1.00 20.00    -0.011 C 
HETATM    4  N9  UNL     1     -31.969   9.255   0.992  1.00 20.00    -0.192 NA
ENDROOT
BRANCH   3   5
HETATM    5  C8  UNL     1     -33.591   5.895   4.240  1.00 20.00     0.013 C 
HETATM    6  C4  UNL     1     -33.813   6.557   5.594  1.00 20.00     0.035 C 
HETATM    7  C6  UNL     1     -34.249   5.522   6.625  1.00 20.00     0.168 C 
HETATM    8  O10 UNL     1     -35.414   4.826   6.180  1.00 20.00    -0.391 OA
HETATM    9  C7  UNL     1     -35.184   4.108   4.966  1.00 20.00     0.168 C 
HETATM   10  C5  UNL     1     -34.802   5.062   3.841  1.00 20.00     0.035 C 
ENDBRANCH   3   5
TORSDOF 1
ENDMDL
MODEL 2
REMARK VINA RESULT:      -4.8     11.321     11.789
REMARK  1 active torsions:
REMARK  status: ('A' for Active; 'I' for Inactive)
REMARK    1  A    between atoms: C3_3  and  C8_8 
ROOT
HETATM    1  C1  UNL     1     -34.369  17.428  -0.138  1.00 20.00     0.087 C 
HETATM    2  C2  UNL     1     -34.771  16.603  -1.223  1.00 20.00     0.090 C 
HETATM    3  C3  UNL     1     -33.975  16.398  -2.281  1.00 20.00    -0.011 C 
HETATM    4  N9  UNL     1     -34.045  18.100   0.750  1.00 20.00    -0.192 NA
ENDROOT
BRANCH   3   5
HETATM    5  C8  UNL     1     -34.356  15.528  -3.463  1.00 20.00     0.013 C 
HETATM    6  C4  UNL     1     -33.398  14.344  -3.513  1.00 20.00     0.035 C 
HETATM    7  C6  UNL     1     -33.882  13.313  -4.527  1.00 20.00     0.168 C 
HETATM    8  O10 UNL     1     -35.216  12.900  -4.229  1.00 20.00    -0.391 OA
HETATM    9  C7  UNL     1     -36.144  13.985  -4.290  1.00 20.00     0.168 C 
HETATM   10  C5  UNL     1     -35.790  15.053  -3.263  1.00 20.00     0.035 C 
ENDBRANCH   3   5
TORSDOF 1
ENDMDL
MODEL 3
REMARK VINA RESULT:      -4.7     11.543     12.509
REMARK  1 active torsions:
REMARK  status: ('A' for Active; 'I' for Inactive)
REMARK    1  A    between atoms: C3_3  and  C8_8 
ROOT
HETATM    1  C1  UNL     1     -34.334  13.591  -4.172  1.00 20.00     0.087 C 
HETATM    2  C2  UNL     1     -33.713  14.638  -3.440  1.00 20.00     0.090 C 
HETATM    3  C3  UNL     1     -34.427  15.496  -2.698  1.00 20.00    -0.011 C 
HETATM    4  N9  UNL     1     -34.837  12.734  -4.771  1.00 20.00    -0.192 NA
ENDROOT
BRANCH   3   5
HETATM    5  C8  UNL     1     -33.813  16.629  -1.900  1.00 20.00     0.013 C 
HETATM    6  C4  UNL     1     -33.877  17.896  -2.744  1.00 20.00     0.035 C 
HETATM    7  C6  UNL     1     -33.499  19.112  -1.905  1.00 20.00     0.168 C 
HETATM    8  O10 UNL     1     -34.332  19.206  -0.749  1.00 20.00    -0.391 OA
HETATM    9  C7  UNL     1     -34.196  18.071   0.108  1.00 20.00     0.168 C 
HETATM   10  C5  UNL     1     -34.614  16.797  -0.615  1.00 20.00     0.035 C 
ENDBRANCH   3   5
TORSDOF 1
ENDMDL
MODEL 4
REMARK VINA RESULT:      -4.6     11.420     12.413
REMARK  1 active torsions:
REMARK  status: ('A' for Active; 'I' for Inactive)
REMARK    1  A    between atoms: C3_3  and  C8_8 
ROOT
HETATM    1  C1  UNL     1     -34.714  16.879  -0.575  1.00 20.00     0.087 C 
HETATM    2  C2  UNL     1     -34.691  16.072  -1.745  1.00 20.00     0.090 C 
HETATM    3  C3  UNL     1     -33.660  16.104  -2.600  1.00 20.00    -0.011 C 
HETATM    4  N9  UNL     1     -34.737  17.536   0.381  1.00 20.00    -0.192 NA
ENDROOT
BRANCH   3   5
HETATM    5  C8  UNL     1     -33.588  15.264  -3.860  1.00 20.00     0.013 C 
HETATM    6  C4  UNL     1     -34.334  13.959  -3.607  1.00 20.00     0.035 C 
HETATM    7  C6  UNL     1     -34.504  13.184  -4.909  1.00 20.00     0.168 C 
HETATM    8  O10 UNL     1     -35.161  13.986  -5.891  1.00 20.00    -0.391 OA
HETATM    9  C7  UNL     1     -34.414  15.158  -6.219  1.00 20.00     0.168 C 
HETATM   10  C5  UNL     1     -34.240  16.046  -4.993  1.00 20.00     0.035 C 
ENDBRANCH   3   5
TORSDOF 1
ENDMDL
MODEL 5
REMARK VINA RESULT:      -4.5     11.345     12.448
REMARK  1 active torsions:
REMARK  status: ('A' for Active; 'I' for Inactive)
REMARK    1  A    between atoms: C3_3  and  C8_8 
ROOT
HETATM    1  C1  UNL     1     -34.646  13.682  -3.846  1.00 20.00     0.087 C 
HETATM    2  C2  UNL     1     -34.343  14.855  -3.103  1.00 20.00     0.090 C 
HETATM    3  C3  UNL     1     -35.267  15.799  -2.873  1.00 20.00    -0.011 C 
HETATM    4  N9  UNL     1     -34.888  12.724  -4.453  1.00 20.00    -0.192 NA
ENDROOT
BRANCH   3   5
HETATM    5  C8  UNL     1     -34.995  17.066  -2.088  1.00 20.00     0.013 C 
HETATM    6  C4  UNL     1     -34.616  16.673  -0.665  1.00 20.00     0.035 C 
HETATM    7  C6  UNL     1     -34.096  17.886   0.100  1.00 20.00     0.168 C 
HETATM    8  O10 UNL     1     -33.000  18.487  -0.591  1.00 20.00    -0.391 OA
HETATM    9  C7  UNL     1     -33.373  18.961  -1.886  1.00 20.00     0.168 C 
HETATM   10  C5  UNL     1     -33.850  17.811  -2.764  1.00 20.00     0.035 C 
ENDBRANCH   3   5
TORSDOF 1
ENDMDL
MODEL 6
REMARK VINA RESULT:      -4.4     11.905     12.734
REMARK  1 active torsions:
REMARK  status: ('A' for Active; 'I' for Inactive)
REMARK    1  A    between atoms: C3_3  and  C8_8 
ROOT
HETATM    1  C1  UNL     1     -35.035  17.474   0.502  1.00 20.00     0.087 C 
HETATM    2  C2  UNL     1     -34.286  17.111  -0.650  1.00 20.00     0.090 C 
HETATM    3  C3  UNL     1     -34.735  16.196  -1.520  1.00 20.00    -0.011 C 
HETATM    4  N9  UNL     1     -35.643  17.773   1.443  1.00 20.00    -0.192 NA
ENDROOT
BRANCH   3   5
HETATM    5  C8  UNL     1     -33.974  15.774  -2.762  1.00 20.00     0.013 C 
HETATM    6  C4  UNL     1     -34.787  14.703  -3.478  1.00 20.00     0.035 C 
HETATM    7  C6  UNL     1     -34.194  14.418  -4.853  1.00 20.00     0.168 C 
HETATM    8  O10 UNL     1     -34.106  15.617  -5.624  1.00 20.00    -0.391 OA
HETATM    9  C7  UNL     1     -33.254  16.589  -5.015  1.00 20.00     0.168 C 
HETATM   10  C5  UNL     1     -33.794  16.998  -3.650  1.00 20.00     0.035 C 
ENDBRANCH   3   5
TORSDOF 1
ENDMDL
MODEL 7
REMARK VINA RESULT:      -4.4     11.554     12.283
REMARK  1 active torsions:
REMARK  status: ('A' for Active; 'I' for Inactive)
REMARK    1  A    between atoms: C3_3  and  C8_8 
ROOT
HETATM    1  C1  UNL     1     -33.973  17.557  -0.460  1.00 20.00     0.087 C 
HETATM    2  C2  UNL     1     -34.689  16.602  -1.232  1.00 20.00     0.090 C 
HETATM    3  C3  UNL     1     -34.188  16.100  -2.369  1.00 20.00    -0.011 C 
HETATM    4  N9  UNL     1     -33.393  18.336   0.173  1.00 20.00    -0.192 NA
ENDROOT
BRANCH   3   5
HETATM    5  C8  UNL     1     -34.912  15.081  -3.227  1.00 20.00     0.013 C 
HETATM    6  C4  UNL     1     -35.552  15.814  -4.400  1.00 20.00     0.035 C 
HETATM    7  C6  UNL     1     -36.083  14.816  -5.423  1.00 20.00     0.168 C 
HETATM    8  O10 UNL     1     -35.045  13.935  -5.855  1.00 20.00    -0.391 OA
HETATM    9  C7  UNL     1     -34.513  13.160  -4.779  1.00 20.00     0.168 C 
HETATM   10  C5  UNL     1     -33.892  14.062  -3.720  1.00 20.00     0.035 C 
ENDBRANCH   3   5
TORSDOF 1
ENDMDL
MODEL 8
REMARK VINA RESULT:      -4.3     11.368     12.266
REMARK  1 active torsions:
REMARK  status: ('A' for Active; 'I' for Inactive)
REMARK    1  A    between atoms: C3_3  and  C8_8 
ROOT
HETATM    1  C1  UNL     1     -34.187  14.504  -3.224  1.00 20.00     0.087 C 
HETATM    2  C2  UNL     1     -34.017  15.779  -2.620  1.00 20.00     0.090 C 
HETATM    3  C3  UNL     1     -34.759  16.163  -1.572  1.00 20.00    -0.011 C 
HETATM    4  N9  UNL     1     -34.323  13.465  -3.722  1.00 20.00    -0.192 NA
ENDROOT
BRANCH   3   5
HETATM    5  C8  UNL     1     -34.616  17.510  -0.891  1.00 20.00     0.013 C 
HETATM    6  C4  UNL     1     -35.057  17.361   0.560  1.00 20.00     0.035 C 
HETATM    7  C6  UNL     1     -34.707  18.616   1.352  1.00 20.00     0.168 C 
HETATM    8  O10 UNL     1     -33.311  18.903   1.252  1.00 20.00    -0.391 OA
HETATM    9  C7  UNL     1     -32.908  19.156  -0.095  1.00 20.00     0.168 C 
HETATM   10  C5  UNL     1     -33.155  17.933  -0.970  1.00 20.00     0.035 C 
ENDBRANCH   3   5
TORSDOF 1
ENDMDL
MODEL 9
REMARK VINA RESULT:      -4.2     10.425     11.544
REMARK  1 active torsions:
REMARK  status: ('A' for Active; 'I' for Inactive)
REMARK    1  A    between atoms: C3_3  and  C8_8 
ROOT
HETATM    1  C1  UNL     1     -42.097   1.370  -4.393  1.00 20.00     0.087 C 
HETATM    2  C2  UNL     1     -41.837   2.371  -3.418  1.00 20.00     0.090 C 
HETATM    3  C3  UNL     1     -42.705   3.365  -3.185  1.00 20.00    -0.011 C 
HETATM    4  N9  UNL     1     -42.305   0.551  -5.189  1.00 20.00    -0.192 NA
ENDROOT
BRANCH   3   5
HETATM    5  C8  UNL     1     -42.474   4.456  -2.157  1.00 20.00     0.013 C 
HETATM    6  C4  UNL     1     -41.084   4.265  -1.563  1.00 20.00     0.035 C 
HETATM    7  C6  UNL     1     -40.704   5.468  -0.706  1.00 20.00     0.168 C 
HETATM    8  O10 UNL     1     -40.793   6.675  -1.464  1.00 20.00    -0.391 OA
HETATM    9  C7  UNL     1     -42.120   6.922  -1.933  1.00 20.00     0.168 C 
HETATM   10  C5  UNL     1     -42.580   5.804  -2.859  1.00 20.00     0.035 C 
ENDBRANCH   3   5
TORSDOF 1
ENDMDL
