MODEL 1
REMARK VINA RESULT:      -4.6      0.000      0.000
REMARK  3 active torsions:
REMARK  status: ('A' for Active; 'I' for Inactive)
REMARK    1  A    between atoms: C2_2  and  C9_9 
REMARK    2  A    between atoms: C6_6  and  C9_9 
REMARK    3  A    between atoms: C7_7  and  O10_10 
ROOT
HETATM    1  C3  UNL     1     -33.843   6.200   6.633  1.00 20.00     0.003 C 
HETATM    2  C4  UNL     1     -34.314   7.016   5.429  1.00 20.00     0.008 C 
HETATM    3  C5  UNL     1     -34.383   4.784   6.432  1.00 20.00     0.032 C 
HETATM    4  C6  UNL     1     -34.655   5.984   4.354  1.00 20.00     0.022 C 
HETATM    5  C7  UNL     1     -35.264   4.855   5.190  1.00 20.00     0.122 C 
ENDROOT
BRANCH   4   6
HETATM    6  C9  UNL     1     -33.425   5.567   3.547  1.00 20.00     0.010 C 
HETATM    7  C8  UNL     1     -33.813   5.221   2.107  1.00 20.00     0.014 C 
BRANCH   6   8
HETATM    8  C2  UNL     1     -32.392   6.668   3.551  1.00 20.00    -0.032 C 
HETATM    9  C1  UNL     1     -32.167   7.489   2.518  1.00 20.00     0.007 C 
ENDBRANCH   6   8
ENDBRANCH   4   6
BRANCH   5  10
HETATM   10  O10 UNL     1     -35.296   3.612   4.517  1.00 20.00    -0.395 OA
HETATM   11  H26 UNL     1     -34.927   3.764   3.632  1.00 20.00     0.210 HD
ENDBRANCH   5  10
TORSDOF 3
ENDMDL
MODEL 2
REMARK VINA RESULT:      -4.6      1.887      3.990
REMARK  3 active torsions:
REMARK  status: ('A' for Active; 'I' for Inactive)
REMARK    1  A    between atoms: C2_2  and  C9_9 
REMARK    2  A    between atoms: C6_6  and  C9_9 
REMARK    3  A    between atoms: C7_7  and  O10_10 
ROOT
HETATM    1  C3  UNL     1     -34.022   4.974   2.573  1.00 20.00     0.003 C 
HETATM    2  C4  UNL     1     -34.980   5.919   3.299  1.00 20.00     0.008 C 
HETATM    3  C5  UNL     1     -32.636   5.614   2.662  1.00 20.00     0.032 C 
HETATM    4  C6  UNL     1     -34.091   6.778   4.199  1.00 20.00     0.022 C 
HETATM    5  C7  UNL     1     -32.855   6.973   3.317  1.00 20.00     0.122 C 
ENDROOT
BRANCH   4   6
HETATM    6  C9  UNL     1     -33.801   6.099   5.537  1.00 20.00     0.010 C 
HETATM    7  C8  UNL     1     -33.635   7.138   6.648  1.00 20.00     0.014 C 
BRANCH   6   8
HETATM    8  C2  UNL     1     -34.908   5.136   5.893  1.00 20.00    -0.032 C 
HETATM    9  C1  UNL     1     -34.753   3.809   5.963  1.00 20.00     0.007 C 
ENDBRANCH   6   8
ENDBRANCH   4   6
BRANCH   5  10
HETATM   10  O10 UNL     1     -31.709   7.381   4.038  1.00 20.00    -0.395 OA
HETATM   11  H26 UNL     1     -30.949   6.933   3.632  1.00 20.00     0.210 HD
ENDBRANCH   5  10
TORSDOF 3
ENDMDL
MODEL 3
REMARK VINA RESULT:      -4.3     11.937     13.180
REMARK  3 active torsions:
REMARK  status: ('A' for Active; 'I' for Inactive)
REMARK    1  A    between atoms: C2_2  and  C9_9 
REMARK    2  A    between atoms: C6_6  and  C9_9 
REMARK    3  A    between atoms: C7_7  and  O10_10 
ROOT
HETATM    1  C3  UNL     1     -34.943  13.822  -3.520  1.00 20.00     0.003 C 
HETATM    2  C4  UNL     1     -35.731  15.132  -3.490  1.00 20.00     0.008 C 
HETATM    3  C5  UNL     1     -33.674  14.100  -4.326  1.00 20.00     0.032 C 
HETATM    4  C6  UNL     1     -34.709  16.222  -3.815  1.00 20.00     0.022 C 
HETATM    5  C7  UNL     1     -33.829  15.522  -4.854  1.00 20.00     0.122 C 
ENDROOT
BRANCH   4   6
HETATM    6  C9  UNL     1     -33.952  16.689  -2.571  1.00 20.00     0.010 C 
HETATM    7  C8  UNL     1     -33.705  18.199  -2.622  1.00 20.00     0.014 C 
BRANCH   6   8
HETATM    8  C2  UNL     1     -34.720  16.334  -1.321  1.00 20.00    -0.032 C 
HETATM    9  C1  UNL     1     -34.714  17.071  -0.203  1.00 20.00     0.007 C 
ENDBRANCH   6   8
ENDBRANCH   4   6
BRANCH   5  10
HETATM   10  O10 UNL     1     -32.570  16.139  -5.031  1.00 20.00    -0.395 OA
HETATM   11  H26 UNL     1     -32.269  16.418  -4.151  1.00 20.00     0.210 HD
ENDBRANCH   5  10
TORSDOF 3
ENDMDL
MODEL 4
REMARK VINA RESULT:      -4.3     12.008     12.717
REMARK  3 active torsions:
REMARK  status: ('A' for Active; 'I' for Inactive)
REMARK    1  A    between atoms: C2_2  and  C9_9 
REMARK    2  A    between atoms: C6_6  and  C9_9 
REMARK    3  A    between atoms: C7_7  and  O10_10 
ROOT
HETATM    1  C3  UNL     1     -36.867  16.000  -3.964  1.00 20.00     0.003 C 
HETATM    2  C4  UNL     1     -35.568  16.351  -4.690  1.00 20.00     0.008 C 
HETATM    3  C5  UNL     1     -36.921  14.474  -3.892  1.00 20.00     0.032 C 
HETATM    4  C6  UNL     1     -34.689  15.106  -4.565  1.00 20.00     0.022 C 
HETATM    5  C7  UNL     1     -35.722  13.983  -4.696  1.00 20.00     0.122 C 
ENDROOT
BRANCH   4   6
HETATM    6  C9  UNL     1     -33.908  15.083  -3.251  1.00 20.00     0.010 C 
HETATM    7  C8  UNL     1     -32.473  14.604  -3.481  1.00 20.00     0.014 C 
BRANCH   6   8
HETATM    8  C2  UNL     1     -33.899  16.453  -2.617  1.00 20.00    -0.032 C 
HETATM    9  C1  UNL     1     -34.264  16.696  -1.352  1.00 20.00     0.007 C 
ENDBRANCH   6   8
ENDBRANCH   4   6
BRANCH   5  10
HETATM   10  O10 UNL     1     -35.262  12.736  -4.214  1.00 20.00    -0.395 OA
HETATM   11  H26 UNL     1     -34.292  12.767  -4.242  1.00 20.00     0.210 HD
ENDBRANCH   5  10
TORSDOF 3
ENDMDL
MODEL 5
REMARK VINA RESULT:      -4.3     11.662     13.473
REMARK  3 active torsions:
REMARK  status: ('A' for Active; 'I' for Inactive)
REMARK    1  A    between atoms: C2_2  and  C9_9 
REMARK    2  A    between atoms: C6_6  and  C9_9 
REMARK    3  A    between atoms: C7_7  and  O10_10 
ROOT
HETATM    1  C3  UNL     1     -33.287  15.430  -3.533  1.00 20.00     0.003 C 
HETATM    2  C4  UNL     1     -34.589  15.989  -4.108  1.00 20.00     0.008 C 
HETATM    3  C5  UNL     1     -33.378  13.909  -3.663  1.00 20.00     0.032 C 
HETATM    4  C6  UNL     1     -35.151  14.873  -4.990  1.00 20.00     0.022 C 
HETATM    5  C7  UNL     1     -34.783  13.626  -4.183  1.00 20.00     0.122 C 
ENDROOT
BRANCH   4   6
HETATM    6  C9  UNL     1     -34.557  14.901  -6.399  1.00 20.00     0.010 C 
HETATM    7  C8  UNL     1     -35.581  14.416  -7.428  1.00 20.00     0.014 C 
BRANCH   6   8
HETATM    8  C2  UNL     1     -34.092  16.293  -6.750  1.00 20.00    -0.032 C 
HETATM    9  C1  UNL     1     -34.668  17.063  -7.681  1.00 20.00     0.007 C 
ENDBRANCH   6   8
ENDBRANCH   4   6
BRANCH   5  10
HETATM   10  O10 UNL     1     -34.814  12.435  -4.943  1.00 20.00    -0.395 OA
HETATM   11  H26 UNL     1     -34.571  11.713  -4.341  1.00 20.00     0.210 HD
ENDBRANCH   5  10
TORSDOF 3
ENDMDL
MODEL 6
REMARK VINA RESULT:      -4.1     11.399     13.099
REMARK  3 active torsions:
REMARK  status: ('A' for Active; 'I' for Inactive)
REMARK    1  A    between atoms: C2_2  and  C9_9 
REMARK    2  A    between atoms: C6_6  and  C9_9 
REMARK    3  A    between atoms: C7_7  and  O10_10 
ROOT
HETATM    1  C3  UNL     1     -32.856  15.197  -3.656  1.00 20.00     0.003 C 
HETATM    2  C4  UNL     1     -34.152  15.951  -3.354  1.00 20.00     0.008 C 
HETATM    3  C5  UNL     1     -33.246  13.731  -3.849  1.00 20.00     0.032 C 
HETATM    4  C6  UNL     1     -35.272  15.046  -3.867  1.00 20.00     0.022 C 
HETATM    5  C7  UNL     1     -34.733  13.656  -3.518  1.00 20.00     0.122 C 
ENDROOT
BRANCH   4   6
HETATM    6  C9  UNL     1     -35.540  15.253  -5.358  1.00 20.00     0.010 C 
HETATM    7  C8  UNL     1     -37.041  15.190  -5.654  1.00 20.00     0.014 C 
BRANCH   6   8
HETATM    8  C2  UNL     1     -34.980  16.578  -5.817  1.00 20.00    -0.032 C 
HETATM    9  C1  UNL     1     -34.424  16.781  -7.018  1.00 20.00     0.007 C 
ENDBRANCH   6   8
ENDBRANCH   4   6
BRANCH   5  10
HETATM   10  O10 UNL     1     -35.361  12.613  -4.235  1.00 20.00    -0.395 OA
HETATM   11  H26 UNL     1     -34.670  11.967  -4.452  1.00 20.00     0.210 HD
ENDBRANCH   5  10
TORSDOF 3
ENDMDL
MODEL 7
REMARK VINA RESULT:      -4.0     12.296     13.165
REMARK  3 active torsions:
REMARK  status: ('A' for Active; 'I' for Inactive)
REMARK    1  A    between atoms: C2_2  and  C9_9 
REMARK    2  A    between atoms: C6_6  and  C9_9 
REMARK    3  A    between atoms: C7_7  and  O10_10 
ROOT
HETATM    1  C3  UNL     1     -34.929  17.327  -2.570  1.00 20.00     0.003 C 
HETATM    2  C4  UNL     1     -34.842  15.884  -2.072  1.00 20.00     0.008 C 
HETATM    3  C5  UNL     1     -33.881  17.466  -3.674  1.00 20.00     0.032 C 
HETATM    4  C6  UNL     1     -34.147  15.113  -3.194  1.00 20.00     0.022 C 
HETATM    5  C7  UNL     1     -33.125  16.141  -3.689  1.00 20.00     0.122 C 
ENDROOT
BRANCH   4   6
HETATM    6  C9  UNL     1     -35.131  14.647  -4.267  1.00 20.00     0.010 C 
HETATM    7  C8  UNL     1     -34.745  13.263  -4.794  1.00 20.00     0.014 C 
BRANCH   6   8
HETATM    8  C2  UNL     1     -36.537  14.616  -3.717  1.00 20.00    -0.032 C 
HETATM    9  C1  UNL     1     -37.624  14.956  -4.419  1.00 20.00     0.007 C 
ENDBRANCH   6   8
ENDBRANCH   4   6
BRANCH   5  10
HETATM   10  O10 UNL     1     -32.622  15.857  -4.979  1.00 20.00    -0.395 OA
HETATM   11  H26 UNL     1     -33.376  15.557  -5.513  1.00 20.00     0.210 HD
ENDBRANCH   5  10
TORSDOF 3
ENDMDL
MODEL 8
REMARK VINA RESULT:      -4.0     12.126     13.204
REMARK  3 active torsions:
REMARK  status: ('A' for Active; 'I' for Inactive)
REMARK    1  A    between atoms: C2_2  and  C9_9 
REMARK    2  A    between atoms: C6_6  and  C9_9 
REMARK    3  A    between atoms: C7_7  and  O10_10 
ROOT
HETATM    1  C3  UNL     1     -35.027  14.790  -5.855  1.00 20.00     0.003 C 
HETATM    2  C4  UNL     1     -34.147  14.389  -4.671  1.00 20.00     0.008 C 
HETATM    3  C5  UNL     1     -36.459  14.857  -5.323  1.00 20.00     0.032 C 
HETATM    4  C6  UNL     1     -34.969  14.724  -3.427  1.00 20.00     0.022 C 
HETATM    5  C7  UNL     1     -36.385  14.360  -3.884  1.00 20.00     0.122 C 
ENDROOT
BRANCH   4   6
HETATM    6  C9  UNL     1     -34.807  16.185  -3.007  1.00 20.00     0.010 C 
HETATM    7  C8  UNL     1     -34.638  16.299  -1.490  1.00 20.00     0.014 C 
BRANCH   6   8
HETATM    8  C2  UNL     1     -33.621  16.807  -3.705  1.00 20.00    -0.032 C 
HETATM    9  C1  UNL     1     -33.652  17.996  -4.319  1.00 20.00     0.007 C 
ENDBRANCH   6   8
ENDBRANCH   4   6
BRANCH   5  10
HETATM   10  O10 UNL     1     -37.399  14.944  -3.091  1.00 20.00    -0.395 OA
HETATM   11  H26 UNL     1     -37.795  14.226  -2.571  1.00 20.00     0.210 HD
ENDBRANCH   5  10
TORSDOF 3
ENDMDL
MODEL 9
REMARK VINA RESULT:      -4.0     12.389     13.586
REMARK  3 active torsions:
REMARK  status: ('A' for Active; 'I' for Inactive)
REMARK    1  A    between atoms: C2_2  and  C9_9 
REMARK    2  A    between atoms: C6_6  and  C9_9 
REMARK    3  A    between atoms: C7_7  and  O10_10 
ROOT
HETATM    1  C3  UNL     1     -35.214  15.854  -2.532  1.00 20.00     0.003 C 
HETATM    2  C4  UNL     1     -35.551  14.662  -3.427  1.00 20.00     0.008 C 
HETATM    3  C5  UNL     1     -33.759  16.218  -2.828  1.00 20.00     0.032 C 
HETATM    4  C6  UNL     1     -34.506  14.689  -4.543  1.00 20.00     0.022 C 
HETATM    5  C7  UNL     1     -33.255  15.142  -3.785  1.00 20.00     0.122 C 
ENDROOT
BRANCH   4   6
HETATM    6  C9  UNL     1     -34.911  15.619  -5.687  1.00 20.00     0.010 C 
HETATM    7  C8  UNL     1     -34.416  15.075  -7.029  1.00 20.00     0.014 C 
BRANCH   6   8
HETATM    8  C2  UNL     1     -36.410  15.792  -5.722  1.00 20.00    -0.032 C 
HETATM    9  C1  UNL     1     -37.187  15.393  -6.737  1.00 20.00     0.007 C 
ENDBRANCH   6   8
ENDBRANCH   4   6
BRANCH   5  10
HETATM   10  O10 UNL     1     -32.238  15.646  -4.627  1.00 20.00    -0.395 OA
HETATM   11  H26 UNL     1     -32.440  15.334  -5.525  1.00 20.00     0.210 HD
ENDBRANCH   5  10
TORSDOF 3
ENDMDL
