MODEL 1
REMARK VINA RESULT:      -4.0      0.000      0.000
REMARK  1 active torsions:
REMARK  status: ('A' for Active; 'I' for Inactive)
REMARK    1  A    between atoms: C4_4  and  N6_6 
ROOT
HETATM    1  C1  UNL     1     -32.595   6.837   3.281  1.00 20.00     0.158 C 
HETATM    2  N6  UNL     1     -33.029   6.021   4.011  1.00 20.00    -0.270 NA
HETATM    3  S7  UNL     1     -31.990   7.930   2.294  1.00 20.00    -0.055 SA
ENDROOT
BRANCH   2   4
HETATM    4  C4  UNL     1     -34.410   6.230   4.425  1.00 20.00     0.114 A 
HETATM    5  C2  UNL     1     -35.451   5.286   3.885  1.00 20.00     0.034 A 
HETATM    6  C3  UNL     1     -35.066   5.228   5.338  1.00 20.00     0.008 A 
HETATM    7  C5  UNL     1     -34.329   4.046   5.869  1.00 20.00     0.012 C 
ENDBRANCH   2   4
TORSDOF 1
ENDMDL
MODEL 2
REMARK VINA RESULT:      -3.7      1.090      1.373
REMARK  1 active torsions:
REMARK  status: ('A' for Active; 'I' for Inactive)
REMARK    1  A    between atoms: C4_4  and  N6_6 
ROOT
HETATM    1  C1  UNL     1     -33.052   6.867   3.248  1.00 20.00     0.158 C 
HETATM    2  N6  UNL     1     -33.813   6.193   3.842  1.00 20.00    -0.270 NA
HETATM    3  S7  UNL     1     -32.035   7.778   2.428  1.00 20.00    -0.055 SA
ENDROOT
BRANCH   2   4
HETATM    4  C4  UNL     1     -33.423   5.874   5.210  1.00 20.00     0.114 A 
HETATM    5  C2  UNL     1     -34.374   6.254   6.313  1.00 20.00     0.034 A 
HETATM    6  C3  UNL     1     -34.174   4.805   5.960  1.00 20.00     0.008 A 
HETATM    7  C5  UNL     1     -35.280   4.030   5.330  1.00 20.00     0.012 C 
ENDBRANCH   2   4
TORSDOF 1
ENDMDL
MODEL 3
REMARK VINA RESULT:      -3.2     12.314     13.008
REMARK  1 active torsions:
REMARK  status: ('A' for Active; 'I' for Inactive)
REMARK    1  A    between atoms: C4_4  and  N6_6 
ROOT
HETATM    1  C1  UNL     1     -33.435  17.208  -4.926  1.00 20.00     0.158 C 
HETATM    2  N6  UNL     1     -33.235  16.050  -5.012  1.00 20.00    -0.270 NA
HETATM    3  S7  UNL     1     -33.705  18.774  -4.830  1.00 20.00    -0.055 SA
ENDROOT
BRANCH   2   4
HETATM    4  C4  UNL     1     -33.182  15.334  -3.743  1.00 20.00     0.114 A 
HETATM    5  C2  UNL     1     -34.469  15.171  -2.981  1.00 20.00     0.034 A 
HETATM    6  C3  UNL     1     -33.829  13.978  -3.635  1.00 20.00     0.008 A 
HETATM    7  C5  UNL     1     -34.486  13.323  -4.802  1.00 20.00     0.012 C 
ENDBRANCH   2   4
TORSDOF 1
ENDMDL
MODEL 4
REMARK VINA RESULT:      -3.2     11.745     12.358
REMARK  1 active torsions:
REMARK  status: ('A' for Active; 'I' for Inactive)
REMARK    1  A    between atoms: C4_4  and  N6_6 
ROOT
HETATM    1  C1  UNL     1     -33.895  15.912  -2.680  1.00 20.00     0.158 C 
HETATM    2  N6  UNL     1     -33.435  15.365  -3.617  1.00 20.00    -0.270 NA
HETATM    3  S7  UNL     1     -34.506  16.667  -1.419  1.00 20.00    -0.055 SA
ENDROOT
BRANCH   2   4
HETATM    4  C4  UNL     1     -33.927  14.013  -3.850  1.00 20.00     0.114 A 
HETATM    5  C2  UNL     1     -35.413  13.826  -3.992  1.00 20.00     0.034 A 
HETATM    6  C3  UNL     1     -34.519  13.664  -5.191  1.00 20.00     0.008 A 
HETATM    7  C5  UNL     1     -34.577  14.651  -6.306  1.00 20.00     0.012 C 
ENDBRANCH   2   4
TORSDOF 1
ENDMDL
MODEL 5
REMARK VINA RESULT:      -3.1      9.546     10.114
REMARK  1 active torsions:
REMARK  status: ('A' for Active; 'I' for Inactive)
REMARK    1  A    between atoms: C4_4  and  N6_6 
ROOT
HETATM    1  C1  UNL     1     -41.941   3.463  -2.646  1.00 20.00     0.158 C 
HETATM    2  N6  UNL     1     -42.132   4.482  -2.085  1.00 20.00    -0.270 NA
HETATM    3  S7  UNL     1     -41.700   2.089  -3.413  1.00 20.00    -0.055 SA
ENDROOT
BRANCH   2   4
HETATM    4  C4  UNL     1     -41.049   4.925  -1.215  1.00 20.00     0.114 A 
HETATM    5  C2  UNL     1     -40.955   6.396  -0.914  1.00 20.00     0.034 A 
HETATM    6  C3  UNL     1     -41.373   5.434   0.165  1.00 20.00     0.008 A 
HETATM    7  C5  UNL     1     -42.769   5.458   0.688  1.00 20.00     0.012 C 
ENDBRANCH   2   4
TORSDOF 1
ENDMDL
MODEL 6
REMARK VINA RESULT:      -3.1     11.971     12.414
REMARK  1 active torsions:
REMARK  status: ('A' for Active; 'I' for Inactive)
REMARK    1  A    between atoms: C4_4  and  N6_6 
ROOT
HETATM    1  C1  UNL     1     -37.287  14.797  -3.820  1.00 20.00     0.158 C 
HETATM    2  N6  UNL     1     -36.131  14.772  -3.594  1.00 20.00    -0.270 NA
HETATM    3  S7  UNL     1     -38.851  14.848  -4.115  1.00 20.00    -0.055 SA
ENDROOT
BRANCH   2   4
HETATM    4  C4  UNL     1     -35.413  13.636  -4.157  1.00 20.00     0.114 A 
HETATM    5  C2  UNL     1     -34.711  13.838  -5.473  1.00 20.00     0.034 A 
HETATM    6  C3  UNL     1     -33.908  13.670  -4.213  1.00 20.00     0.008 A 
HETATM    7  C5  UNL     1     -33.125  14.815  -3.667  1.00 20.00     0.012 C 
ENDBRANCH   2   4
TORSDOF 1
ENDMDL
MODEL 7
REMARK VINA RESULT:      -3.1     11.721     12.230
REMARK  1 active torsions:
REMARK  status: ('A' for Active; 'I' for Inactive)
REMARK    1  A    between atoms: C4_4  and  N6_6 
ROOT
HETATM    1  C1  UNL     1     -34.785  16.338  -1.569  1.00 20.00     0.158 C 
HETATM    2  N6  UNL     1     -35.018  15.596  -2.453  1.00 20.00    -0.270 NA
HETATM    3  S7  UNL     1     -34.485  17.333  -0.363  1.00 20.00    -0.055 SA
ENDROOT
BRANCH   2   4
HETATM    4  C4  UNL     1     -34.149  15.723  -3.616  1.00 20.00     0.114 A 
HETATM    5  C2  UNL     1     -32.906  14.876  -3.653  1.00 20.00     0.034 A 
HETATM    6  C3  UNL     1     -34.045  14.577  -4.588  1.00 20.00     0.008 A 
HETATM    7  C5  UNL     1     -34.841  13.328  -4.421  1.00 20.00     0.012 C 
ENDBRANCH   2   4
TORSDOF 1
ENDMDL
MODEL 8
REMARK VINA RESULT:      -3.0     11.956     12.503
REMARK  1 active torsions:
REMARK  status: ('A' for Active; 'I' for Inactive)
REMARK    1  A    between atoms: C4_4  and  N6_6 
ROOT
HETATM    1  C1  UNL     1     -34.869  14.576  -3.830  1.00 20.00     0.158 C 
HETATM    2  N6  UNL     1     -35.004  15.328  -2.933  1.00 20.00    -0.270 NA
HETATM    3  S7  UNL     1     -34.703  13.552  -5.038  1.00 20.00    -0.055 SA
ENDROOT
BRANCH   2   4
HETATM    4  C4  UNL     1     -33.941  16.313  -2.782  1.00 20.00     0.114 A 
HETATM    5  C2  UNL     1     -34.335  17.765  -2.753  1.00 20.00     0.034 A 
HETATM    6  C3  UNL     1     -33.838  17.097  -1.500  1.00 20.00     0.008 A 
HETATM    7  C5  UNL     1     -34.768  16.864  -0.358  1.00 20.00     0.012 C 
ENDBRANCH   2   4
TORSDOF 1
ENDMDL
MODEL 9
REMARK VINA RESULT:      -3.0      2.424      4.048
REMARK  1 active torsions:
REMARK  status: ('A' for Active; 'I' for Inactive)
REMARK    1  A    between atoms: C4_4  and  N6_6 
ROOT
HETATM    1  C1  UNL     1     -34.496   5.628   4.636  1.00 20.00     0.158 C 
HETATM    2  N6  UNL     1     -34.036   6.524   4.025  1.00 20.00    -0.270 NA
HETATM    3  S7  UNL     1     -35.136   4.424   5.458  1.00 20.00    -0.055 SA
ENDROOT
BRANCH   2   4
HETATM    4  C4  UNL     1     -32.581   6.605   4.042  1.00 20.00     0.114 A 
HETATM    5  C2  UNL     1     -31.835   5.985   2.891  1.00 20.00     0.034 A 
HETATM    6  C3  UNL     1     -31.880   7.481   3.037  1.00 20.00     0.008 A 
HETATM    7  C5  UNL     1     -32.633   8.306   2.050  1.00 20.00     0.012 C 
ENDBRANCH   2   4
TORSDOF 1
ENDMDL
