MODEL 1
REMARK VINA RESULT:      -5.1      0.000      0.000
REMARK  3 active torsions:
REMARK  status: ('A' for Active; 'I' for Inactive)
REMARK    1  A    between atoms: C2_2  and  C8_8 
REMARK    2  A    between atoms: C5_5  and  N9_9 
REMARK    3  A    between atoms: C8_8  and  N9_9 
ROOT
HETATM    1  C1  UNL     1     -32.222   8.532   1.836  1.00 20.00    -0.109 C 
HETATM    2  C2  UNL     1     -32.205   7.531   2.498  1.00 20.00    -0.077 C 
HETATM    3  C6  UNL     1     -32.244   9.751   1.028  1.00 20.00     0.112 C 
ENDROOT
BRANCH   2   4
HETATM    4  C8  UNL     1     -32.184   6.305   3.302  1.00 20.00     0.363 C 
BRANCH   4   5
HETATM    5  N9  UNL     1     -32.957   6.472   4.523  1.00 20.00     0.099 N 
HETATM    6  H22 UNL     1     -32.800   7.401   4.903  1.00 20.00     0.317 HD
BRANCH   5   7
HETATM    7  C5  UNL     1     -34.389   6.311   4.252  1.00 20.00     0.225 A 
HETATM    8  C3  UNL     1     -34.882   5.165   3.406  1.00 20.00     0.042 A 
HETATM    9  C4  UNL     1     -35.208   5.207   4.874  1.00 20.00     0.016 A 
HETATM   10  C7  UNL     1     -34.619   4.199   5.800  1.00 20.00     0.012 C 
ENDBRANCH   5   7
ENDBRANCH   4   5
ENDBRANCH   2   4
TORSDOF 3
ENDMDL
MODEL 2
REMARK VINA RESULT:      -4.5      1.283      1.689
REMARK  3 active torsions:
REMARK  status: ('A' for Active; 'I' for Inactive)
REMARK    1  A    between atoms: C2_2  and  C8_8 
REMARK    2  A    between atoms: C5_5  and  N9_9 
REMARK    3  A    between atoms: C8_8  and  N9_9 
ROOT
HETATM    1  C1  UNL     1     -32.287   7.809   2.194  1.00 20.00    -0.109 C 
HETATM    2  C2  UNL     1     -32.713   6.878   2.821  1.00 20.00    -0.077 C 
HETATM    3  C6  UNL     1     -31.769   8.944   1.431  1.00 20.00     0.112 C 
ENDROOT
BRANCH   2   4
HETATM    4  C8  UNL     1     -33.240   5.743   3.584  1.00 20.00     0.363 C 
BRANCH   4   5
HETATM    5  N9  UNL     1     -34.688   5.817   3.693  1.00 20.00     0.099 N 
HETATM    6  H22 UNL     1     -35.113   5.474   2.836  1.00 20.00     0.317 HD
BRANCH   5   7
HETATM    7  C5  UNL     1     -35.164   4.999   4.813  1.00 20.00     0.225 A 
HETATM    8  C3  UNL     1     -34.196   4.174   5.621  1.00 20.00     0.042 A 
HETATM    9  C4  UNL     1     -34.878   5.358   6.251  1.00 20.00     0.016 A 
HETATM   10  C7  UNL     1     -34.087   6.561   6.633  1.00 20.00     0.012 C 
ENDBRANCH   5   7
ENDBRANCH   4   5
ENDBRANCH   2   4
TORSDOF 3
ENDMDL
MODEL 3
REMARK VINA RESULT:      -4.0     11.237     12.562
REMARK  3 active torsions:
REMARK  status: ('A' for Active; 'I' for Inactive)
REMARK    1  A    between atoms: C2_2  and  C8_8 
REMARK    2  A    between atoms: C5_5  and  N9_9 
REMARK    3  A    between atoms: C8_8  and  N9_9 
ROOT
HETATM    1  C1  UNL     1     -34.160  16.765  -2.338  1.00 20.00    -0.109 C 
HETATM    2  C2  UNL     1     -33.801  16.955  -3.468  1.00 20.00    -0.077 C 
HETATM    3  C6  UNL     1     -34.599  16.533  -0.963  1.00 20.00     0.112 C 
ENDROOT
BRANCH   2   4
HETATM    4  C8  UNL     1     -33.367  17.191  -4.848  1.00 20.00     0.363 C 
BRANCH   4   5
HETATM    5  N9  UNL     1     -33.348  15.950  -5.606  1.00 20.00     0.099 N 
HETATM    6  H22 UNL     1     -32.946  15.209  -5.038  1.00 20.00     0.317 HD
BRANCH   5   7
HETATM    7  C5  UNL     1     -34.707  15.561  -5.993  1.00 20.00     0.225 A 
HETATM    8  C3  UNL     1     -34.929  14.473  -7.011  1.00 20.00     0.042 A 
HETATM    9  C4  UNL     1     -35.319  14.247  -5.576  1.00 20.00     0.016 A 
HETATM   10  C7  UNL     1     -34.584  13.249  -4.749  1.00 20.00     0.012 C 
ENDBRANCH   5   7
ENDBRANCH   4   5
ENDBRANCH   2   4
TORSDOF 3
ENDMDL
MODEL 4
REMARK VINA RESULT:      -3.9      1.153      4.911
REMARK  3 active torsions:
REMARK  status: ('A' for Active; 'I' for Inactive)
REMARK    1  A    between atoms: C2_2  and  C8_8 
REMARK    2  A    between atoms: C5_5  and  N9_9 
REMARK    3  A    between atoms: C8_8  and  N9_9 
ROOT
HETATM    1  C1  UNL     1     -34.880   4.904   5.265  1.00 20.00    -0.109 C 
HETATM    2  C2  UNL     1     -34.663   5.143   4.108  1.00 20.00    -0.077 C 
HETATM    3  C6  UNL     1     -35.142   4.615   6.674  1.00 20.00     0.112 C 
ENDROOT
BRANCH   2   4
HETATM    4  C8  UNL     1     -34.394   5.429   2.695  1.00 20.00     0.363 C 
BRANCH   4   5
HETATM    5  N9  UNL     1     -33.019   5.863   2.506  1.00 20.00     0.099 N 
HETATM    6  H22 UNL     1     -32.844   6.021   1.517  1.00 20.00     0.317 HD
BRANCH   5   7
HETATM    7  C5  UNL     1     -32.768   7.112   3.233  1.00 20.00     0.225 A 
HETATM    8  C3  UNL     1     -31.358   7.551   3.530  1.00 20.00     0.042 A 
HETATM    9  C4  UNL     1     -32.197   8.335   2.559  1.00 20.00     0.016 A 
HETATM   10  C7  UNL     1     -31.842   8.359   1.112  1.00 20.00     0.012 C 
ENDBRANCH   5   7
ENDBRANCH   4   5
ENDBRANCH   2   4
TORSDOF 3
ENDMDL
MODEL 5
REMARK VINA RESULT:      -3.9     10.652     11.584
REMARK  3 active torsions:
REMARK  status: ('A' for Active; 'I' for Inactive)
REMARK    1  A    between atoms: C2_2  and  C8_8 
REMARK    2  A    between atoms: C5_5  and  N9_9 
REMARK    3  A    between atoms: C8_8  and  N9_9 
ROOT
HETATM    1  C1  UNL     1     -34.399  17.273  -0.390  1.00 20.00    -0.109 C 
HETATM    2  C2  UNL     1     -34.690  16.575  -1.322  1.00 20.00    -0.077 C 
HETATM    3  C6  UNL     1     -34.047  18.125   0.746  1.00 20.00     0.112 C 
ENDROOT
BRANCH   2   4
HETATM    4  C8  UNL     1     -35.044  15.727  -2.464  1.00 20.00     0.363 C 
BRANCH   4   5
HETATM    5  N9  UNL     1     -33.851  15.234  -3.135  1.00 20.00     0.099 N 
HETATM    6  H22 UNL     1     -33.089  15.160  -2.466  1.00 20.00     0.317 HD
BRANCH   5   7
HETATM    7  C5  UNL     1     -34.096  13.911  -3.716  1.00 20.00     0.225 A 
HETATM    8  C3  UNL     1     -35.480  13.520  -4.167  1.00 20.00     0.042 A 
HETATM    9  C4  UNL     1     -34.389  13.717  -5.184  1.00 20.00     0.016 A 
HETATM   10  C7  UNL     1     -34.457  14.855  -6.142  1.00 20.00     0.012 C 
ENDBRANCH   5   7
ENDBRANCH   4   5
ENDBRANCH   2   4
TORSDOF 3
ENDMDL
MODEL 6
REMARK VINA RESULT:      -3.8     11.520     12.435
REMARK  3 active torsions:
REMARK  status: ('A' for Active; 'I' for Inactive)
REMARK    1  A    between atoms: C2_2  and  C8_8 
REMARK    2  A    between atoms: C5_5  and  N9_9 
REMARK    3  A    between atoms: C8_8  and  N9_9 
ROOT
HETATM    1  C1  UNL     1     -34.204  16.393  -1.838  1.00 20.00    -0.109 C 
HETATM    2  C2  UNL     1     -33.618  15.816  -2.714  1.00 20.00    -0.077 C 
HETATM    3  C6  UNL     1     -34.919  17.096  -0.774  1.00 20.00     0.112 C 
ENDROOT
BRANCH   2   4
HETATM    4  C8  UNL     1     -32.896  15.116  -3.780  1.00 20.00     0.363 C 
BRANCH   4   5
HETATM    5  N9  UNL     1     -33.517  15.357  -5.073  1.00 20.00     0.099 N 
HETATM    6  H22 UNL     1     -32.818  15.282  -5.807  1.00 20.00     0.317 HD
BRANCH   5   7
HETATM    7  C5  UNL     1     -34.574  14.375  -5.329  1.00 20.00     0.225 A 
HETATM    8  C3  UNL     1     -36.008  14.816  -5.469  1.00 20.00     0.042 A 
HETATM    9  C4  UNL     1     -35.273  14.271  -6.662  1.00 20.00     0.016 A 
HETATM   10  C7  UNL     1     -34.943  15.163  -7.809  1.00 20.00     0.012 C 
ENDBRANCH   5   7
ENDBRANCH   4   5
ENDBRANCH   2   4
TORSDOF 3
ENDMDL
MODEL 7
REMARK VINA RESULT:      -3.8     10.655     11.964
REMARK  3 active torsions:
REMARK  status: ('A' for Active; 'I' for Inactive)
REMARK    1  A    between atoms: C2_2  and  C8_8 
REMARK    2  A    between atoms: C5_5  and  N9_9 
REMARK    3  A    between atoms: C8_8  and  N9_9 
ROOT
HETATM    1  C1  UNL     1     -34.586  14.557  -6.363  1.00 20.00    -0.109 C 
HETATM    2  C2  UNL     1     -34.389  14.243  -5.220  1.00 20.00    -0.077 C 
HETATM    3  C6  UNL     1     -34.826  14.937  -7.754  1.00 20.00     0.112 C 
ENDROOT
BRANCH   2   4
HETATM    4  C8  UNL     1     -34.141  13.865  -3.826  1.00 20.00     0.363 C 
BRANCH   4   5
HETATM    5  N9  UNL     1     -34.661  14.872  -2.914  1.00 20.00     0.099 N 
HETATM    6  H22 UNL     1     -34.772  14.469  -1.988  1.00 20.00     0.317 HD
BRANCH   5   7
HETATM    7  C5  UNL     1     -33.741  16.010  -2.825  1.00 20.00     0.225 A 
HETATM    8  C3  UNL     1     -34.248  17.417  -3.003  1.00 20.00     0.042 A 
HETATM    9  C4  UNL     1     -33.751  16.965  -1.657  1.00 20.00     0.016 A 
HETATM   10  C7  UNL     1     -34.701  16.824  -0.518  1.00 20.00     0.012 C 
ENDBRANCH   5   7
ENDBRANCH   4   5
ENDBRANCH   2   4
TORSDOF 3
ENDMDL
MODEL 8
REMARK VINA RESULT:      -3.8     11.234     12.751
REMARK  3 active torsions:
REMARK  status: ('A' for Active; 'I' for Inactive)
REMARK    1  A    between atoms: C2_2  and  C8_8 
REMARK    2  A    between atoms: C5_5  and  N9_9 
REMARK    3  A    between atoms: C8_8  and  N9_9 
ROOT
HETATM    1  C1  UNL     1     -34.678  16.611  -0.947  1.00 20.00    -0.109 C 
HETATM    2  C2  UNL     1     -34.573  15.930  -1.931  1.00 20.00    -0.077 C 
HETATM    3  C6  UNL     1     -34.805  17.440   0.251  1.00 20.00     0.112 C 
ENDROOT
BRANCH   2   4
HETATM    4  C8  UNL     1     -34.447  15.093  -3.128  1.00 20.00     0.363 C 
BRANCH   4   5
HETATM    5  N9  UNL     1     -35.353  15.542  -4.173  1.00 20.00     0.099 N 
HETATM    6  H22 UNL     1     -36.201  15.915  -3.753  1.00 20.00     0.317 HD
BRANCH   5   7
HETATM    7  C5  UNL     1     -34.728  16.594  -4.980  1.00 20.00     0.225 A 
HETATM    8  C3  UNL     1     -33.260  16.531  -5.311  1.00 20.00     0.042 A 
HETATM    9  C4  UNL     1     -34.280  16.360  -6.402  1.00 20.00     0.016 A 
HETATM   10  C7  UNL     1     -34.436  15.043  -7.082  1.00 20.00     0.012 C 
ENDBRANCH   5   7
ENDBRANCH   4   5
ENDBRANCH   2   4
TORSDOF 3
ENDMDL
MODEL 9
REMARK VINA RESULT:      -3.7      9.529     11.146
REMARK  3 active torsions:
REMARK  status: ('A' for Active; 'I' for Inactive)
REMARK    1  A    between atoms: C2_2  and  C8_8 
REMARK    2  A    between atoms: C5_5  and  N9_9 
REMARK    3  A    between atoms: C8_8  and  N9_9 
ROOT
HETATM    1  C1  UNL     1     -41.692   0.878  -3.719  1.00 20.00    -0.109 C 
HETATM    2  C2  UNL     1     -41.803   2.020  -3.362  1.00 20.00    -0.077 C 
HETATM    3  C6  UNL     1     -41.558  -0.511  -4.154  1.00 20.00     0.112 C 
ENDROOT
BRANCH   2   4
HETATM    4  C8  UNL     1     -41.942   3.411  -2.921  1.00 20.00     0.363 C 
BRANCH   4   5
HETATM    5  N9  UNL     1     -41.843   3.509  -1.474  1.00 20.00     0.099 N 
HETATM    6  H22 UNL     1     -41.440   2.654  -1.100  1.00 20.00     0.317 HD
BRANCH   5   7
HETATM    7  C5  UNL     1     -40.988   4.638  -1.092  1.00 20.00     0.225 A 
HETATM    8  C3  UNL     1     -41.362   6.044  -1.481  1.00 20.00     0.042 A 
HETATM    9  C4  UNL     1     -41.395   5.635  -0.035  1.00 20.00     0.016 A 
HETATM   10  C7  UNL     1     -42.694   5.548   0.689  1.00 20.00     0.012 C 
ENDBRANCH   5   7
ENDBRANCH   4   5
ENDBRANCH   2   4
TORSDOF 3
ENDMDL
