MODEL 1
REMARK VINA RESULT:      -4.5      0.000      0.000
REMARK  2 active torsions:
REMARK  status: ('A' for Active; 'I' for Inactive)
REMARK    1  A    between atoms: C4_4  and  N9_9 
REMARK    2  A    between atoms: C7_7  and  N9_9 
ROOT
HETATM    1  C1  UNL     1     -32.187   7.904   2.362  1.00 20.00     0.094 C 
HETATM    2  C6  UNL     1     -31.969   5.495   2.844  1.00 20.00     0.059 C 
HETATM    3  C7  UNL     1     -32.316   6.871   3.398  1.00 20.00     0.322 C 
HETATM    4  N8  UNL     1     -32.081   8.721   1.544  1.00 20.00    -0.195 NA
ENDROOT
BRANCH   3   5
HETATM    5  N9  UNL     1     -33.664   6.881   3.941  1.00 20.00     0.106 N 
HETATM    6  H21 UNL     1     -33.627   7.055   4.942  1.00 20.00     0.318 HD
BRANCH   5   7
HETATM    7  C4  UNL     1     -34.322   5.591   3.711  1.00 20.00     0.226 A 
HETATM    8  C2  UNL     1     -35.811   5.462   3.903  1.00 20.00     0.042 A 
HETATM    9  C3  UNL     1     -34.872   4.771   4.853  1.00 20.00     0.016 A 
HETATM   10  C5  UNL     1     -34.777   5.221   6.270  1.00 20.00     0.012 C 
ENDBRANCH   5   7
ENDBRANCH   3   5
TORSDOF 2
ENDMDL
MODEL 2
REMARK VINA RESULT:      -4.2     11.089     12.019
REMARK  2 active torsions:
REMARK  status: ('A' for Active; 'I' for Inactive)
REMARK    1  A    between atoms: C4_4  and  N9_9 
REMARK    2  A    between atoms: C7_7  and  N9_9 
ROOT
HETATM    1  C1  UNL     1     -35.618  13.658  -4.238  1.00 20.00     0.094 C 
HETATM    2  C6  UNL     1     -36.509  15.777  -5.131  1.00 20.00     0.059 C 
HETATM    3  C7  UNL     1     -36.517  14.788  -3.972  1.00 20.00     0.322 C 
HETATM    4  N8  UNL     1     -34.909  12.763  -4.449  1.00 20.00    -0.195 NA
ENDROOT
BRANCH   3   5
HETATM    5  N9  UNL     1     -36.134  15.445  -2.734  1.00 20.00     0.106 N 
HETATM    6  H21 UNL     1     -36.942  15.914  -2.332  1.00 20.00     0.318 HD
BRANCH   5   7
HETATM    7  C4  UNL     1     -35.086  16.440  -2.981  1.00 20.00     0.226 A 
HETATM    8  C2  UNL     1     -33.650  16.115  -2.663  1.00 20.00     0.042 A 
HETATM    9  C3  UNL     1     -34.382  17.144  -1.846  1.00 20.00     0.016 A 
HETATM   10  C5  UNL     1     -34.710  16.869  -0.418  1.00 20.00     0.012 C 
ENDBRANCH   5   7
ENDBRANCH   3   5
TORSDOF 2
ENDMDL
MODEL 3
REMARK VINA RESULT:      -4.0      1.546      4.475
REMARK  2 active torsions:
REMARK  status: ('A' for Active; 'I' for Inactive)
REMARK    1  A    between atoms: C4_4  and  N9_9 
REMARK    2  A    between atoms: C7_7  and  N9_9 
ROOT
HETATM    1  C1  UNL     1     -34.642   4.771   4.946  1.00 20.00     0.094 C 
HETATM    2  C6  UNL     1     -33.967   6.732   6.279  1.00 20.00     0.059 C 
HETATM    3  C7  UNL     1     -33.688   5.884   5.046  1.00 20.00     0.322 C 
HETATM    4  N8  UNL     1     -35.394   3.890   4.868  1.00 20.00    -0.195 NA
ENDROOT
BRANCH   3   5
HETATM    5  N9  UNL     1     -33.746   6.694   3.841  1.00 20.00     0.106 N 
HETATM    6  H21 UNL     1     -34.472   6.338   3.225  1.00 20.00     0.318 HD
BRANCH   5   7
HETATM    7  C4  UNL     1     -32.464   6.654   3.131  1.00 20.00     0.226 A 
HETATM    8  C2  UNL     1     -31.322   7.523   3.589  1.00 20.00     0.042 A 
HETATM    9  C3  UNL     1     -31.998   7.808   2.276  1.00 20.00     0.016 A 
HETATM   10  C5  UNL     1     -32.810   9.046   2.106  1.00 20.00     0.012 C 
ENDBRANCH   5   7
ENDBRANCH   3   5
TORSDOF 2
ENDMDL
MODEL 4
REMARK VINA RESULT:      -4.0     10.875     13.321
REMARK  2 active torsions:
REMARK  status: ('A' for Active; 'I' for Inactive)
REMARK    1  A    between atoms: C4_4  and  N9_9 
REMARK    2  A    between atoms: C7_7  and  N9_9 
ROOT
HETATM    1  C1  UNL     1     -34.108  13.778  -3.996  1.00 20.00     0.094 C 
HETATM    2  C6  UNL     1     -33.935  15.855  -2.679  1.00 20.00     0.059 C 
HETATM    3  C7  UNL     1     -33.285  14.964  -3.729  1.00 20.00     0.322 C 
HETATM    4  N8  UNL     1     -34.758  12.839  -4.204  1.00 20.00    -0.195 NA
ENDROOT
BRANCH   3   5
HETATM    5  N9  UNL     1     -33.064  15.700  -4.962  1.00 20.00     0.106 N 
HETATM    6  H21 UNL     1     -32.579  16.570  -4.758  1.00 20.00     0.318 HD
BRANCH   5   7
HETATM    7  C4  UNL     1     -34.340  16.014  -5.612  1.00 20.00     0.226 A 
HETATM    8  C2  UNL     1     -34.388  16.261  -7.097  1.00 20.00     0.042 A 
HETATM    9  C3  UNL     1     -34.638  17.396  -6.141  1.00 20.00     0.016 A 
HETATM   10  C5  UNL     1     -33.659  18.513  -6.036  1.00 20.00     0.012 C 
ENDBRANCH   5   7
ENDBRANCH   3   5
TORSDOF 2
ENDMDL
MODEL 5
REMARK VINA RESULT:      -4.0     11.228     12.200
REMARK  2 active torsions:
REMARK  status: ('A' for Active; 'I' for Inactive)
REMARK    1  A    between atoms: C4_4  and  N9_9 
REMARK    2  A    between atoms: C7_7  and  N9_9 
ROOT
HETATM    1  C1  UNL     1     -36.900  14.788  -3.752  1.00 20.00     0.094 C 
HETATM    2  C6  UNL     1     -34.498  14.364  -3.393  1.00 20.00     0.059 C 
HETATM    3  C7  UNL     1     -35.561  15.392  -3.756  1.00 20.00     0.322 C 
HETATM    4  N8  UNL     1     -37.958  14.311  -3.752  1.00 20.00    -0.195 NA
ENDROOT
BRANCH   3   5
HETATM    5  N9  UNL     1     -35.523  16.516  -2.837  1.00 20.00     0.106 N 
HETATM    6  H21 UNL     1     -35.218  17.351  -3.331  1.00 20.00     0.318 HD
BRANCH   5   7
HETATM    7  C4  UNL     1     -34.588  16.253  -1.738  1.00 20.00     0.226 A 
HETATM    8  C2  UNL     1     -34.799  16.910  -0.398  1.00 20.00     0.042 A 
HETATM    9  C3  UNL     1     -33.625  17.308  -1.250  1.00 20.00     0.016 A 
HETATM   10  C5  UNL     1     -33.568  18.669  -1.854  1.00 20.00     0.012 C 
ENDBRANCH   5   7
ENDBRANCH   3   5
TORSDOF 2
ENDMDL
MODEL 6
REMARK VINA RESULT:      -3.8     11.447     12.441
REMARK  2 active torsions:
REMARK  status: ('A' for Active; 'I' for Inactive)
REMARK    1  A    between atoms: C4_4  and  N9_9 
REMARK    2  A    between atoms: C7_7  and  N9_9 
ROOT
HETATM    1  C1  UNL     1     -34.585  13.733  -5.038  1.00 20.00     0.094 C 
HETATM    2  C6  UNL     1     -34.238  15.430  -6.794  1.00 20.00     0.059 C 
HETATM    3  C7  UNL     1     -34.423  15.169  -5.305  1.00 20.00     0.322 C 
HETATM    4  N8  UNL     1     -34.716  12.600  -4.827  1.00 20.00    -0.195 NA
ENDROOT
BRANCH   3   5
HETATM    5  N9  UNL     1     -33.298  15.689  -4.548  1.00 20.00     0.106 N 
HETATM    6  H21 UNL     1     -32.455  15.174  -4.792  1.00 20.00     0.318 HD
BRANCH   5   7
HETATM    7  C4  UNL     1     -33.534  15.548  -3.108  1.00 20.00     0.226 A 
HETATM    8  C2  UNL     1     -34.899  15.834  -2.538  1.00 20.00     0.042 A 
HETATM    9  C3  UNL     1     -33.749  16.750  -2.221  1.00 20.00     0.016 A 
HETATM   10  C5  UNL     1     -33.733  18.141  -2.755  1.00 20.00     0.012 C 
ENDBRANCH   5   7
ENDBRANCH   3   5
TORSDOF 2
ENDMDL
MODEL 7
REMARK VINA RESULT:      -3.8     11.084     12.259
REMARK  2 active torsions:
REMARK  status: ('A' for Active; 'I' for Inactive)
REMARK    1  A    between atoms: C4_4  and  N9_9 
REMARK    2  A    between atoms: C7_7  and  N9_9 
ROOT
HETATM    1  C1  UNL     1     -34.159  14.298  -4.003  1.00 20.00     0.094 C 
HETATM    2  C6  UNL     1     -33.177  16.373  -4.904  1.00 20.00     0.059 C 
HETATM    3  C7  UNL     1     -34.439  15.684  -4.401  1.00 20.00     0.322 C 
HETATM    4  N8  UNL     1     -33.939  13.202  -3.692  1.00 20.00    -0.195 NA
ENDROOT
BRANCH   3   5
HETATM    5  N9  UNL     1     -35.011  16.413  -3.282  1.00 20.00     0.106 N 
HETATM    6  H21 UNL     1     -35.065  17.403  -3.512  1.00 20.00     0.318 HD
BRANCH   5   7
HETATM    7  C4  UNL     1     -34.183  16.253  -2.083  1.00 20.00     0.226 A 
HETATM    8  C2  UNL     1     -34.717  16.671  -0.738  1.00 20.00     0.042 A 
HETATM    9  C3  UNL     1     -33.589  17.442  -1.368  1.00 20.00     0.016 A 
HETATM   10  C5  UNL     1     -33.809  18.839  -1.837  1.00 20.00     0.012 C 
ENDBRANCH   5   7
ENDBRANCH   3   5
TORSDOF 2
ENDMDL
MODEL 8
REMARK VINA RESULT:      -3.8     11.641     13.809
REMARK  2 active torsions:
REMARK  status: ('A' for Active; 'I' for Inactive)
REMARK    1  A    between atoms: C4_4  and  N9_9 
REMARK    2  A    between atoms: C7_7  and  N9_9 
ROOT
HETATM    1  C1  UNL     1     -34.841  13.669  -5.261  1.00 20.00     0.094 C 
HETATM    2  C6  UNL     1     -35.401  14.461  -7.528  1.00 20.00     0.059 C 
HETATM    3  C7  UNL     1     -34.943  14.850  -6.129  1.00 20.00     0.322 C 
HETATM    4  N8  UNL     1     -34.764  12.736  -4.575  1.00 20.00    -0.195 NA
ENDROOT
BRANCH   3   5
HETATM    5  N9  UNL     1     -33.664  15.538  -6.179  1.00 20.00     0.106 N 
HETATM    6  H21 UNL     1     -32.910  14.856  -6.186  1.00 20.00     0.318 HD
BRANCH   5   7
HETATM    7  C4  UNL     1     -33.500  16.408  -5.010  1.00 20.00     0.226 A 
HETATM    8  C2  UNL     1     -34.676  17.187  -4.481  1.00 20.00     0.042 A 
HETATM    9  C3  UNL     1     -33.531  17.912  -5.135  1.00 20.00     0.016 A 
HETATM   10  C5  UNL     1     -33.729  18.595  -6.444  1.00 20.00     0.012 C 
ENDBRANCH   5   7
ENDBRANCH   3   5
TORSDOF 2
ENDMDL
MODEL 9
REMARK VINA RESULT:      -3.7     10.919     12.031
REMARK  2 active torsions:
REMARK  status: ('A' for Active; 'I' for Inactive)
REMARK    1  A    between atoms: C4_4  and  N9_9 
REMARK    2  A    between atoms: C7_7  and  N9_9 
ROOT
HETATM    1  C1  UNL     1     -34.100  15.459  -5.403  1.00 20.00     0.094 C 
HETATM    2  C6  UNL     1     -34.482  13.699  -3.718  1.00 20.00     0.059 C 
HETATM    3  C7  UNL     1     -33.583  14.840  -4.175  1.00 20.00     0.322 C 
HETATM    4  N8  UNL     1     -34.506  15.945  -6.375  1.00 20.00    -0.195 NA
ENDROOT
BRANCH   3   5
HETATM    5  N9  UNL     1     -33.456  15.844  -3.132  1.00 20.00     0.106 N 
HETATM    6  H21 UNL     1     -32.620  15.660  -2.582  1.00 20.00     0.318 HD
BRANCH   5   7
HETATM    7  C4  UNL     1     -34.621  15.814  -2.242  1.00 20.00     0.226 A 
HETATM    8  C2  UNL     1     -35.583  16.972  -2.223  1.00 20.00     0.042 A 
HETATM    9  C3  UNL     1     -34.710  16.706  -1.028  1.00 20.00     0.016 A 
HETATM   10  C5  UNL     1     -33.627  17.662  -0.666  1.00 20.00     0.012 C 
ENDBRANCH   5   7
ENDBRANCH   3   5
TORSDOF 2
ENDMDL
