MODEL 1
REMARK VINA RESULT:      -4.4      0.000      0.000
REMARK  2 active torsions:
REMARK  status: ('A' for Active; 'I' for Inactive)
REMARK    1  A    between atoms: C4_4  and  N9_9 
REMARK    2  A    between atoms: C7_7  and  N9_9 
ROOT
HETATM    1  C1  UNL     1     -32.187   7.990   2.242  1.00 20.00     0.094 C 
HETATM    2  C6  UNL     1     -32.231   5.550   2.601  1.00 20.00     0.059 C 
HETATM    3  C7  UNL     1     -32.260   6.927   3.253  1.00 20.00     0.322 C 
HETATM    4  N8  UNL     1     -32.124   8.830   1.444  1.00 20.00    -0.195 NA
ENDROOT
BRANCH   3   5
HETATM    5  N9  UNL     1     -33.461   7.090   4.054  1.00 20.00     0.106 N 
HETATM    6  H21 UNL     1     -33.439   7.991   4.525  1.00 20.00     0.318 HD
BRANCH   5   7
HETATM    7  C4  UNL     1     -33.553   6.033   5.067  1.00 20.00     0.226 A 
HETATM    8  C2  UNL     1     -34.213   6.305   6.393  1.00 20.00     0.042 A 
HETATM    9  C3  UNL     1     -34.883   5.404   5.393  1.00 20.00     0.016 A 
HETATM   10  C5  UNL     1     -34.977   3.940   5.649  1.00 20.00     0.012 C 
ENDBRANCH   5   7
ENDBRANCH   3   5
TORSDOF 2
ENDMDL
MODEL 2
REMARK VINA RESULT:      -4.2     11.060     13.263
REMARK  2 active torsions:
REMARK  status: ('A' for Active; 'I' for Inactive)
REMARK    1  A    between atoms: C4_4  and  N9_9 
REMARK    2  A    between atoms: C7_7  and  N9_9 
ROOT
HETATM    1  C1  UNL     1     -34.106  13.769  -3.968  1.00 20.00     0.094 C 
HETATM    2  C6  UNL     1     -33.954  15.901  -2.739  1.00 20.00     0.059 C 
HETATM    3  C7  UNL     1     -33.287  14.967  -3.740  1.00 20.00     0.322 C 
HETATM    4  N8  UNL     1     -34.751  12.820  -4.146  1.00 20.00    -0.195 NA
ENDROOT
BRANCH   3   5
HETATM    5  N9  UNL     1     -33.049  15.649  -5.000  1.00 20.00     0.106 N 
HETATM    6  H21 UNL     1     -32.713  16.592  -4.822  1.00 20.00     0.318 HD
BRANCH   5   7
HETATM    7  C4  UNL     1     -34.286  15.731  -5.784  1.00 20.00     0.226 A 
HETATM    8  C2  UNL     1     -34.405  16.716  -6.918  1.00 20.00     0.042 A 
HETATM    9  C3  UNL     1     -34.318  15.243  -7.210  1.00 20.00     0.016 A 
HETATM   10  C5  UNL     1     -35.509  14.511  -7.724  1.00 20.00     0.012 C 
ENDBRANCH   5   7
ENDBRANCH   3   5
TORSDOF 2
ENDMDL
MODEL 3
REMARK VINA RESULT:      -4.2      1.680      4.339
REMARK  2 active torsions:
REMARK  status: ('A' for Active; 'I' for Inactive)
REMARK    1  A    between atoms: C4_4  and  N9_9 
REMARK    2  A    between atoms: C7_7  and  N9_9 
ROOT
HETATM    1  C1  UNL     1     -34.145   6.337   5.696  1.00 20.00     0.094 C 
HETATM    2  C6  UNL     1     -35.044   4.304   4.630  1.00 20.00     0.059 C 
HETATM    3  C7  UNL     1     -34.562   5.733   4.424  1.00 20.00     0.322 C 
HETATM    4  N8  UNL     1     -33.819   6.816   6.702  1.00 20.00    -0.195 NA
ENDROOT
BRANCH   3   5
HETATM    5  N9  UNL     1     -33.463   5.774   3.475  1.00 20.00     0.106 N 
HETATM    6  H21 UNL     1     -32.701   5.188   3.807  1.00 20.00     0.318 HD
BRANCH   5   7
HETATM    7  C4  UNL     1     -32.968   7.145   3.317  1.00 20.00     0.226 A 
HETATM    8  C2  UNL     1     -31.524   7.471   3.597  1.00 20.00     0.042 A 
HETATM    9  C3  UNL     1     -32.038   7.494   2.184  1.00 20.00     0.016 A 
HETATM   10  C5  UNL     1     -32.187   8.789   1.463  1.00 20.00     0.012 C 
ENDBRANCH   5   7
ENDBRANCH   3   5
TORSDOF 2
ENDMDL
MODEL 4
REMARK VINA RESULT:      -4.0     11.330     12.145
REMARK  2 active torsions:
REMARK  status: ('A' for Active; 'I' for Inactive)
REMARK    1  A    between atoms: C4_4  and  N9_9 
REMARK    2  A    between atoms: C7_7  and  N9_9 
ROOT
HETATM    1  C1  UNL     1     -36.620  14.436  -3.953  1.00 20.00     0.094 C 
HETATM    2  C6  UNL     1     -34.659  13.256  -4.871  1.00 20.00     0.059 C 
HETATM    3  C7  UNL     1     -35.180  14.532  -4.222  1.00 20.00     0.322 C 
HETATM    4  N8  UNL     1     -37.759  14.363  -3.743  1.00 20.00    -0.195 NA
ENDROOT
BRANCH   3   5
HETATM    5  N9  UNL     1     -34.464  14.810  -2.988  1.00 20.00     0.106 N 
HETATM    6  H21 UNL     1     -34.735  14.136  -2.276  1.00 20.00     0.318 HD
BRANCH   5   7
HETATM    7  C4  UNL     1     -34.777  16.158  -2.504  1.00 20.00     0.226 A 
HETATM    8  C2  UNL     1     -34.761  16.459  -1.028  1.00 20.00     0.042 A 
HETATM    9  C3  UNL     1     -33.693  17.028  -1.921  1.00 20.00     0.016 A 
HETATM   10  C5  UNL     1     -33.664  18.488  -2.217  1.00 20.00     0.012 C 
ENDBRANCH   5   7
ENDBRANCH   3   5
TORSDOF 2
ENDMDL
MODEL 5
REMARK VINA RESULT:      -3.9     11.736     12.648
REMARK  2 active torsions:
REMARK  status: ('A' for Active; 'I' for Inactive)
REMARK    1  A    between atoms: C4_4  and  N9_9 
REMARK    2  A    between atoms: C7_7  and  N9_9 
ROOT
HETATM    1  C1  UNL     1     -34.623  13.756  -4.999  1.00 20.00     0.094 C 
HETATM    2  C6  UNL     1     -34.167  15.335  -6.837  1.00 20.00     0.059 C 
HETATM    3  C7  UNL     1     -34.398  15.166  -5.342  1.00 20.00     0.322 C 
HETATM    4  N8  UNL     1     -34.804  12.642  -4.729  1.00 20.00    -0.195 NA
ENDROOT
BRANCH   3   5
HETATM    5  N9  UNL     1     -33.270  15.684  -4.586  1.00 20.00     0.106 N 
HETATM    6  H21 UNL     1     -32.856  14.937  -4.034  1.00 20.00     0.318 HD
BRANCH   5   7
HETATM    7  C4  UNL     1     -33.704  16.753  -3.681  1.00 20.00     0.226 A 
HETATM    8  C2  UNL     1     -35.125  16.801  -3.184  1.00 20.00     0.042 A 
HETATM    9  C3  UNL     1     -34.011  16.452  -2.236  1.00 20.00     0.016 A 
HETATM   10  C5  UNL     1     -33.608  17.409  -1.169  1.00 20.00     0.012 C 
ENDBRANCH   5   7
ENDBRANCH   3   5
TORSDOF 2
ENDMDL
MODEL 6
REMARK VINA RESULT:      -3.9     11.270     12.038
REMARK  2 active torsions:
REMARK  status: ('A' for Active; 'I' for Inactive)
REMARK    1  A    between atoms: C4_4  and  N9_9 
REMARK    2  A    between atoms: C7_7  and  N9_9 
ROOT
HETATM    1  C1  UNL     1     -35.588  13.668  -4.150  1.00 20.00     0.094 C 
HETATM    2  C6  UNL     1     -37.670  14.921  -4.571  1.00 20.00     0.059 C 
HETATM    3  C7  UNL     1     -36.479  14.721  -3.644  1.00 20.00     0.322 C 
HETATM    4  N8  UNL     1     -34.886  12.834  -4.548  1.00 20.00    -0.195 NA
ENDROOT
BRANCH   3   5
HETATM    5  N9  UNL     1     -35.737  15.960  -3.485  1.00 20.00     0.106 N 
HETATM    6  H21 UNL     1     -35.097  16.079  -4.266  1.00 20.00     0.318 HD
BRANCH   5   7
HETATM    7  C4  UNL     1     -34.962  15.941  -2.240  1.00 20.00     0.226 A 
HETATM    8  C2  UNL     1     -33.628  16.637  -2.163  1.00 20.00     0.042 A 
HETATM    9  C3  UNL     1     -34.810  17.195  -1.418  1.00 20.00     0.016 A 
HETATM   10  C5  UNL     1     -34.857  17.126   0.069  1.00 20.00     0.012 C 
ENDBRANCH   5   7
ENDBRANCH   3   5
TORSDOF 2
ENDMDL
MODEL 7
REMARK VINA RESULT:      -3.8     11.251     11.946
REMARK  2 active torsions:
REMARK  status: ('A' for Active; 'I' for Inactive)
REMARK    1  A    between atoms: C4_4  and  N9_9 
REMARK    2  A    between atoms: C7_7  and  N9_9 
ROOT
HETATM    1  C1  UNL     1     -33.464  15.999  -4.307  1.00 20.00     0.094 C 
HETATM    2  C6  UNL     1     -34.673  13.920  -3.760  1.00 20.00     0.059 C 
HETATM    3  C7  UNL     1     -34.043  15.198  -3.221  1.00 20.00     0.322 C 
HETATM    4  N8  UNL     1     -33.002  16.630  -5.165  1.00 20.00    -0.195 NA
ENDROOT
BRANCH   3   5
HETATM    5  N9  UNL     1     -35.024  15.987  -2.495  1.00 20.00     0.106 N 
HETATM    6  H21 UNL     1     -35.227  16.840  -3.010  1.00 20.00     0.318 HD
BRANCH   5   7
HETATM    7  C4  UNL     1     -34.514  16.349  -1.169  1.00 20.00     0.226 A 
HETATM    8  C2  UNL     1     -33.644  17.566  -0.993  1.00 20.00     0.042 A 
HETATM    9  C3  UNL     1     -35.048  17.563  -0.452  1.00 20.00     0.016 A 
HETATM   10  C5  UNL     1     -35.283  17.522   1.018  1.00 20.00     0.012 C 
ENDBRANCH   5   7
ENDBRANCH   3   5
TORSDOF 2
ENDMDL
MODEL 8
REMARK VINA RESULT:      -3.8      1.560      4.639
REMARK  2 active torsions:
REMARK  status: ('A' for Active; 'I' for Inactive)
REMARK    1  A    between atoms: C4_4  and  N9_9 
REMARK    2  A    between atoms: C7_7  and  N9_9 
ROOT
HETATM    1  C1  UNL     1     -34.638   4.578   5.214  1.00 20.00     0.094 C 
HETATM    2  C6  UNL     1     -34.003   6.671   6.354  1.00 20.00     0.059 C 
HETATM    3  C7  UNL     1     -33.805   5.785   5.132  1.00 20.00     0.322 C 
HETATM    4  N8  UNL     1     -35.294   3.623   5.281  1.00 20.00    -0.195 NA
ENDROOT
BRANCH   3   5
HETATM    5  N9  UNL     1     -34.111   6.514   3.913  1.00 20.00     0.106 N 
HETATM    6  H21 UNL     1     -34.217   5.862   3.140  1.00 20.00     0.318 HD
BRANCH   5   7
HETATM    7  C4  UNL     1     -33.034   7.455   3.590  1.00 20.00     0.226 A 
HETATM    8  C2  UNL     1     -31.615   6.970   3.452  1.00 20.00     0.042 A 
HETATM    9  C3  UNL     1     -32.375   7.423   2.236  1.00 20.00     0.016 A 
HETATM   10  C5  UNL     1     -32.004   8.694   1.552  1.00 20.00     0.012 C 
ENDBRANCH   5   7
ENDBRANCH   3   5
TORSDOF 2
ENDMDL
MODEL 9
REMARK VINA RESULT:      -3.7     10.473     11.115
REMARK  2 active torsions:
REMARK  status: ('A' for Active; 'I' for Inactive)
REMARK    1  A    between atoms: C4_4  and  N9_9 
REMARK    2  A    between atoms: C7_7  and  N9_9 
ROOT
HETATM    1  C1  UNL     1     -41.681   2.001  -3.460  1.00 20.00     0.094 C 
HETATM    2  C6  UNL     1     -43.171   3.960  -3.294  1.00 20.00     0.059 C 
HETATM    3  C7  UNL     1     -42.283   2.977  -2.542  1.00 20.00     0.322 C 
HETATM    4  N8  UNL     1     -41.208   1.228  -4.185  1.00 20.00    -0.195 NA
ENDROOT
BRANCH   3   5
HETATM    5  N9  UNL     1     -41.239   3.680  -1.815  1.00 20.00     0.106 N 
HETATM    6  H21 UNL     1     -40.867   3.080  -1.084  1.00 20.00     0.318 HD
BRANCH   5   7
HETATM    7  C4  UNL     1     -41.771   4.899  -1.199  1.00 20.00     0.226 A 
HETATM    8  C2  UNL     1     -41.598   5.144   0.278  1.00 20.00     0.042 A 
HETATM    9  C3  UNL     1     -40.838   5.979  -0.716  1.00 20.00     0.016 A 
HETATM   10  C5  UNL     1     -41.187   7.414  -0.910  1.00 20.00     0.012 C 
ENDBRANCH   5   7
ENDBRANCH   3   5
TORSDOF 2
ENDMDL
