MODEL 1
REMARK VINA RESULT:      -5.2      0.000      0.000
REMARK  2 active torsions:
REMARK  status: ('A' for Active; 'I' for Inactive)
REMARK    1  A    between atoms: C5_5  and  N8_8 
REMARK    2  A    between atoms: C7_7  and  N8_8 
ROOT
HETATM    1  C1  UNL     1     -32.155   8.891   1.195  1.00 20.00     0.013 C 
HETATM    2  C2  UNL     1     -32.034   8.147   2.129  1.00 20.00    -0.087 C 
HETATM    3  C7  UNL     1     -31.883   7.243   3.272  1.00 20.00     0.362 C 
ENDROOT
BRANCH   3   4
HETATM    4  N8  UNL     1     -32.774   6.103   3.146  1.00 20.00     0.099 N 
HETATM    5  H19 UNL     1     -32.270   5.248   3.368  1.00 20.00     0.317 HD
BRANCH   4   6
HETATM    6  C5  UNL     1     -33.909   6.230   4.065  1.00 20.00     0.225 A 
HETATM    7  C3  UNL     1     -35.196   5.497   3.789  1.00 20.00     0.042 A 
HETATM    8  C4  UNL     1     -34.320   5.069   4.933  1.00 20.00     0.016 A 
HETATM    9  C6  UNL     1     -34.757   5.303   6.338  1.00 20.00     0.012 C 
ENDBRANCH   4   6
ENDBRANCH   3   4
TORSDOF 2
ENDMDL
MODEL 2
REMARK VINA RESULT:      -5.0      0.920      1.250
REMARK  2 active torsions:
REMARK  status: ('A' for Active; 'I' for Inactive)
REMARK    1  A    between atoms: C5_5  and  N8_8 
REMARK    2  A    between atoms: C7_7  and  N8_8 
ROOT
HETATM    1  C1  UNL     1     -32.056   8.945   1.337  1.00 20.00     0.013 C 
HETATM    2  C2  UNL     1     -32.130   8.033   2.114  1.00 20.00    -0.087 C 
HETATM    3  C7  UNL     1     -32.214   6.919   3.062  1.00 20.00     0.362 C 
ENDROOT
BRANCH   3   4
HETATM    4  N8  UNL     1     -33.549   6.828   3.629  1.00 20.00     0.099 N 
HETATM    5  H19 UNL     1     -34.197   6.485   2.924  1.00 20.00     0.317 HD
BRANCH   4   6
HETATM    6  C5  UNL     1     -33.564   5.905   4.768  1.00 20.00     0.225 A 
HETATM    7  C3  UNL     1     -34.082   6.359   6.107  1.00 20.00     0.042 A 
HETATM    8  C4  UNL     1     -34.870   5.368   5.296  1.00 20.00     0.016 A 
HETATM    9  C6  UNL     1     -34.971   3.950   5.740  1.00 20.00     0.012 C 
ENDBRANCH   4   6
ENDBRANCH   3   4
TORSDOF 2
ENDMDL
MODEL 3
REMARK VINA RESULT:      -4.6      0.689      4.442
REMARK  2 active torsions:
REMARK  status: ('A' for Active; 'I' for Inactive)
REMARK    1  A    between atoms: C5_5  and  N8_8 
REMARK    2  A    between atoms: C7_7  and  N8_8 
ROOT
HETATM    1  C1  UNL     1     -34.532   5.375   6.301  1.00 20.00     0.013 C 
HETATM    2  C2  UNL     1     -34.653   5.381   5.108  1.00 20.00    -0.087 C 
HETATM    3  C7  UNL     1     -34.806   5.388   3.651  1.00 20.00     0.362 C 
ENDROOT
BRANCH   3   4
HETATM    4  N8  UNL     1     -33.526   5.614   3.001  1.00 20.00     0.099 N 
HETATM    5  H19 UNL     1     -33.606   5.411   2.008  1.00 20.00     0.317 HD
BRANCH   4   6
HETATM    6  C5  UNL     1     -33.103   7.009   3.163  1.00 20.00     0.225 A 
HETATM    7  C3  UNL     1     -31.711   7.331   3.641  1.00 20.00     0.042 A 
HETATM    8  C4  UNL     1     -32.100   7.616   2.217  1.00 20.00     0.016 A 
HETATM    9  C6  UNL     1     -32.265   9.022   1.753  1.00 20.00     0.012 C 
ENDBRANCH   4   6
ENDBRANCH   3   4
TORSDOF 2
ENDMDL
MODEL 4
REMARK VINA RESULT:      -4.2      1.878      3.994
REMARK  2 active torsions:
REMARK  status: ('A' for Active; 'I' for Inactive)
REMARK    1  A    between atoms: C5_5  and  N8_8 
REMARK    2  A    between atoms: C7_7  and  N8_8 
ROOT
HETATM    1  C1  UNL     1     -33.684   6.963   6.799  1.00 20.00     0.013 C 
HETATM    2  C2  UNL     1     -34.312   5.995   6.470  1.00 20.00    -0.087 C 
HETATM    3  C7  UNL     1     -35.079   4.811   6.074  1.00 20.00     0.362 C 
ENDROOT
BRANCH   3   4
HETATM    4  N8  UNL     1     -35.443   4.882   4.669  1.00 20.00     0.099 N 
HETATM    5  H19 UNL     1     -36.000   5.716   4.502  1.00 20.00     0.317 HD
BRANCH   4   6
HETATM    6  C5  UNL     1     -34.244   4.944   3.828  1.00 20.00     0.225 A 
HETATM    7  C3  UNL     1     -34.365   5.216   2.351  1.00 20.00     0.042 A 
HETATM    8  C4  UNL     1     -33.777   6.259   3.260  1.00 20.00     0.016 A 
HETATM    9  C6  UNL     1     -32.322   6.573   3.197  1.00 20.00     0.012 C 
ENDBRANCH   4   6
ENDBRANCH   3   4
TORSDOF 2
ENDMDL
MODEL 5
REMARK VINA RESULT:      -4.1      1.678      2.414
REMARK  2 active torsions:
REMARK  status: ('A' for Active; 'I' for Inactive)
REMARK    1  A    between atoms: C5_5  and  N8_8 
REMARK    2  A    between atoms: C7_7  and  N8_8 
ROOT
HETATM    1  C1  UNL     1     -32.120   6.812   3.193  1.00 20.00     0.013 C 
HETATM    2  C2  UNL     1     -33.126   6.183   3.011  1.00 20.00    -0.087 C 
HETATM    3  C7  UNL     1     -34.354   5.417   2.784  1.00 20.00     0.362 C 
ENDROOT
BRANCH   3   4
HETATM    4  N8  UNL     1     -34.647   4.567   3.925  1.00 20.00     0.099 N 
HETATM    5  H19 UNL     1     -33.829   4.010   4.156  1.00 20.00     0.317 HD
BRANCH   4   6
HETATM    6  C5  UNL     1     -35.008   5.376   5.093  1.00 20.00     0.225 A 
HETATM    7  C3  UNL     1     -35.185   4.728   6.442  1.00 20.00     0.042 A 
HETATM    8  C4  UNL     1     -34.004   5.623   6.189  1.00 20.00     0.016 A 
HETATM    9  C6  UNL     1     -33.923   6.959   6.843  1.00 20.00     0.012 C 
ENDBRANCH   4   6
ENDBRANCH   3   4
TORSDOF 2
ENDMDL
MODEL 6
REMARK VINA RESULT:      -3.9     10.684     11.437
REMARK  2 active torsions:
REMARK  status: ('A' for Active; 'I' for Inactive)
REMARK    1  A    between atoms: C5_5  and  N8_8 
REMARK    2  A    between atoms: C7_7  and  N8_8 
ROOT
HETATM    1  C1  UNL     1     -35.125  17.617   0.992  1.00 20.00     0.013 C 
HETATM    2  C2  UNL     1     -34.723  17.205  -0.060  1.00 20.00    -0.087 C 
HETATM    3  C7  UNL     1     -34.228  16.704  -1.345  1.00 20.00     0.362 C 
ENDROOT
BRANCH   3   4
HETATM    4  N8  UNL     1     -35.157  15.744  -1.915  1.00 20.00     0.099 N 
HETATM    5  H19 UNL     1     -36.086  16.155  -1.965  1.00 20.00     0.317 HD
BRANCH   4   6
HETATM    6  C5  UNL     1     -34.740  15.360  -3.267  1.00 20.00     0.225 A 
HETATM    7  C3  UNL     1     -33.289  15.089  -3.566  1.00 20.00     0.042 A 
HETATM    8  C4  UNL     1     -34.275  13.955  -3.551  1.00 20.00     0.016 A 
HETATM    9  C6  UNL     1     -34.661  13.282  -4.822  1.00 20.00     0.012 C 
ENDBRANCH   4   6
ENDBRANCH   3   4
TORSDOF 2
ENDMDL
MODEL 7
REMARK VINA RESULT:      -3.8      1.636      4.187
REMARK  2 active torsions:
REMARK  status: ('A' for Active; 'I' for Inactive)
REMARK    1  A    between atoms: C5_5  and  N8_8 
REMARK    2  A    between atoms: C7_7  and  N8_8 
ROOT
HETATM    1  C1  UNL     1     -35.159   4.163   5.975  1.00 20.00     0.013 C 
HETATM    2  C2  UNL     1     -34.669   5.236   6.190  1.00 20.00    -0.087 C 
HETATM    3  C7  UNL     1     -34.073   6.548   6.458  1.00 20.00     0.362 C 
ENDROOT
BRANCH   3   4
HETATM    4  N8  UNL     1     -33.011   6.833   5.508  1.00 20.00     0.099 N 
HETATM    5  H19 UNL     1     -32.280   6.131   5.593  1.00 20.00     0.317 HD
BRANCH   4   6
HETATM    6  C5  UNL     1     -33.526   6.811   4.135  1.00 20.00     0.225 A 
HETATM    7  C3  UNL     1     -32.611   7.109   2.976  1.00 20.00     0.042 A 
HETATM    8  C4  UNL     1     -33.122   5.711   3.188  1.00 20.00     0.016 A 
HETATM    9  C6  UNL     1     -34.121   5.129   2.248  1.00 20.00     0.012 C 
ENDBRANCH   4   6
ENDBRANCH   3   4
TORSDOF 2
ENDMDL
MODEL 8
REMARK VINA RESULT:      -3.8     11.522     13.096
REMARK  2 active torsions:
REMARK  status: ('A' for Active; 'I' for Inactive)
REMARK    1  A    between atoms: C5_5  and  N8_8 
REMARK    2  A    between atoms: C7_7  and  N8_8 
ROOT
HETATM    1  C1  UNL     1     -34.548  16.278  -1.887  1.00 20.00     0.013 C 
HETATM    2  C2  UNL     1     -33.848  15.739  -2.699  1.00 20.00    -0.087 C 
HETATM    3  C7  UNL     1     -32.993  15.076  -3.687  1.00 20.00     0.362 C 
ENDROOT
BRANCH   3   4
HETATM    4  N8  UNL     1     -32.917  15.859  -4.908  1.00 20.00     0.099 N 
HETATM    5  H19 UNL     1     -32.192  15.480  -5.513  1.00 20.00     0.317 HD
BRANCH   4   6
HETATM    6  C5  UNL     1     -34.195  15.820  -5.626  1.00 20.00     0.225 A 
HETATM    7  C3  UNL     1     -34.445  16.753  -6.783  1.00 20.00     0.042 A 
HETATM    8  C4  UNL     1     -34.263  15.282  -7.032  1.00 20.00     0.016 A 
HETATM    9  C6  UNL     1     -35.420  14.446  -7.458  1.00 20.00     0.012 C 
ENDBRANCH   4   6
ENDBRANCH   3   4
TORSDOF 2
ENDMDL
MODEL 9
REMARK VINA RESULT:      -3.8     11.030     11.943
REMARK  2 active torsions:
REMARK  status: ('A' for Active; 'I' for Inactive)
REMARK    1  A    between atoms: C5_5  and  N8_8 
REMARK    2  A    between atoms: C7_7  and  N8_8 
ROOT
HETATM    1  C1  UNL     1     -34.782  17.038  -0.160  1.00 20.00     0.013 C 
HETATM    2  C2  UNL     1     -34.372  16.664  -1.224  1.00 20.00    -0.087 C 
HETATM    3  C7  UNL     1     -33.867  16.211  -2.523  1.00 20.00     0.362 C 
ENDROOT
BRANCH   3   4
HETATM    4  N8  UNL     1     -34.667  15.109  -3.028  1.00 20.00     0.099 N 
HETATM    5  H19 UNL     1     -35.623  15.421  -3.178  1.00 20.00     0.317 HD
BRANCH   4   6
HETATM    6  C5  UNL     1     -34.128  14.620  -4.301  1.00 20.00     0.225 A 
HETATM    7  C3  UNL     1     -34.470  13.237  -4.790  1.00 20.00     0.042 A 
HETATM    8  C4  UNL     1     -35.033  14.441  -5.493  1.00 20.00     0.016 A 
HETATM    9  C6  UNL     1     -34.554  14.804  -6.856  1.00 20.00     0.012 C 
ENDBRANCH   4   6
ENDBRANCH   3   4
TORSDOF 2
ENDMDL
