MODEL 1
REMARK VINA RESULT:      -4.2      0.000      0.000
REMARK  3 active torsions:
REMARK  status: ('A' for Active; 'I' for Inactive)
REMARK    1  A    between atoms: C4_4  and  N10_10 
REMARK    2  A    between atoms: C7_7  and  C8_8 
REMARK    3  A    between atoms: C7_7  and  N10_10 
ROOT
HETATM    1  C1  UNL     1     -36.911  14.523  -3.967  1.00 20.00     0.065 C 
HETATM    2  C6  UNL     1     -34.667  13.499  -4.102  1.00 20.00     0.027 C 
HETATM    3  C8  UNL     1     -35.498  14.766  -4.315  1.00 20.00     0.116 C 
HETATM    4  N9  UNL     1     -38.022  14.333  -3.695  1.00 20.00    -0.197 NA
ENDROOT
BRANCH   3   5
HETATM    5  C7  UNL     1     -34.927  15.967  -3.548  1.00 20.00     0.288 C 
BRANCH   5   6
HETATM    6  N10 UNL     1     -35.592  16.162  -2.271  1.00 20.00     0.089 N 
HETATM    7  H24 UNL     1     -36.152  17.011  -2.303  1.00 20.00     0.316 HD
BRANCH   6   8
HETATM    8  C4  UNL     1     -34.609  16.288  -1.191  1.00 20.00     0.224 A 
HETATM    9  C2  UNL     1     -33.708  17.494  -1.117  1.00 20.00     0.042 A 
HETATM   10  C3  UNL     1     -34.766  17.285  -0.068  1.00 20.00     0.016 A 
HETATM   11  C5  UNL     1     -35.927  18.215   0.018  1.00 20.00     0.012 C 
ENDBRANCH   6   8
ENDBRANCH   5   6
ENDBRANCH   3   5
TORSDOF 3
ENDMDL
MODEL 2
REMARK VINA RESULT:      -4.2      2.530      3.210
REMARK  3 active torsions:
REMARK  status: ('A' for Active; 'I' for Inactive)
REMARK    1  A    between atoms: C4_4  and  N10_10 
REMARK    2  A    between atoms: C7_7  and  C8_8 
REMARK    3  A    between atoms: C7_7  and  N10_10 
ROOT
HETATM    1  C1  UNL     1     -34.973  13.696  -5.385  1.00 20.00     0.065 C 
HETATM    2  C6  UNL     1     -35.540  14.326  -7.705  1.00 20.00     0.027 C 
HETATM    3  C8  UNL     1     -35.232  14.829  -6.294  1.00 20.00     0.116 C 
HETATM    4  N9  UNL     1     -34.772  12.806  -4.669  1.00 20.00    -0.197 NA
ENDROOT
BRANCH   3   5
HETATM    5  C7  UNL     1     -34.075  15.838  -6.279  1.00 20.00     0.288 C 
BRANCH   5   6
HETATM    6  N10 UNL     1     -33.288  15.745  -5.062  1.00 20.00     0.089 N 
HETATM    7  H24 UNL     1     -33.638  14.983  -4.485  1.00 20.00     0.316 HD
BRANCH   6   8
HETATM    8  C4  UNL     1     -33.374  16.991  -4.295  1.00 20.00     0.224 A 
HETATM    9  C2  UNL     1     -34.705  17.666  -4.082  1.00 20.00     0.042 A 
HETATM   10  C3  UNL     1     -33.983  17.050  -2.915  1.00 20.00     0.016 A 
HETATM   11  C5  UNL     1     -34.546  15.848  -2.238  1.00 20.00     0.012 C 
ENDBRANCH   6   8
ENDBRANCH   5   6
ENDBRANCH   3   5
TORSDOF 3
ENDMDL
MODEL 3
REMARK VINA RESULT:      -4.2      1.731      2.075
REMARK  3 active torsions:
REMARK  status: ('A' for Active; 'I' for Inactive)
REMARK    1  A    between atoms: C4_4  and  N10_10 
REMARK    2  A    between atoms: C7_7  and  C8_8 
REMARK    3  A    between atoms: C7_7  and  N10_10 
ROOT
HETATM    1  C1  UNL     1     -35.050  13.702  -4.949  1.00 20.00     0.065 C 
HETATM    2  C6  UNL     1     -34.252  15.501  -6.442  1.00 20.00     0.027 C 
HETATM    3  C8  UNL     1     -35.343  15.053  -5.467  1.00 20.00     0.116 C 
HETATM    4  N9  UNL     1     -34.822  12.640  -4.542  1.00 20.00    -0.197 NA
ENDROOT
BRANCH   3   5
HETATM    5  C7  UNL     1     -35.549  16.060  -4.328  1.00 20.00     0.288 C 
BRANCH   5   6
HETATM    6  N10 UNL     1     -35.021  15.570  -3.066  1.00 20.00     0.089 N 
HETATM    7  H24 UNL     1     -35.725  15.671  -2.339  1.00 20.00     0.316 HD
BRANCH   6   8
HETATM    8  C4  UNL     1     -33.831  16.330  -2.675  1.00 20.00     0.224 A 
HETATM    9  C2  UNL     1     -33.873  17.835  -2.610  1.00 20.00     0.042 A 
HETATM   10  C3  UNL     1     -33.723  17.035  -1.344  1.00 20.00     0.016 A 
HETATM   11  C5  UNL     1     -34.822  17.013  -0.338  1.00 20.00     0.012 C 
ENDBRANCH   6   8
ENDBRANCH   5   6
ENDBRANCH   3   5
TORSDOF 3
ENDMDL
MODEL 4
REMARK VINA RESULT:      -4.2      2.824      5.008
REMARK  3 active torsions:
REMARK  status: ('A' for Active; 'I' for Inactive)
REMARK    1  A    between atoms: C4_4  and  N10_10 
REMARK    2  A    between atoms: C7_7  and  C8_8 
REMARK    3  A    between atoms: C7_7  and  N10_10 
ROOT
HETATM    1  C1  UNL     1     -34.349  13.868  -3.792  1.00 20.00     0.065 C 
HETATM    2  C6  UNL     1     -34.790  15.795  -2.310  1.00 20.00     0.027 C 
HETATM    3  C8  UNL     1     -33.782  15.112  -3.237  1.00 20.00     0.116 C 
HETATM    4  N9  UNL     1     -34.793  12.888  -4.227  1.00 20.00    -0.197 NA
ENDROOT
BRANCH   3   5
HETATM    5  C7  UNL     1     -33.290  16.050  -4.348  1.00 20.00     0.288 C 
BRANCH   5   6
HETATM    6  N10 UNL     1     -33.658  15.569  -5.668  1.00 20.00     0.089 N 
HETATM    7  H24 UNL     1     -32.874  15.689  -6.306  1.00 20.00     0.316 HD
BRANCH   6   8
HETATM    8  C4  UNL     1     -34.806  16.317  -6.189  1.00 20.00     0.224 A 
HETATM    9  C2  UNL     1     -34.789  16.860  -7.595  1.00 20.00     0.042 A 
HETATM   10  C3  UNL     1     -35.735  15.747  -7.233  1.00 20.00     0.016 A 
HETATM   11  C5  UNL     1     -35.547  14.388  -7.814  1.00 20.00     0.012 C 
ENDBRANCH   6   8
ENDBRANCH   5   6
ENDBRANCH   3   5
TORSDOF 3
ENDMDL
MODEL 5
REMARK VINA RESULT:      -4.1     11.519     12.437
REMARK  3 active torsions:
REMARK  status: ('A' for Active; 'I' for Inactive)
REMARK    1  A    between atoms: C4_4  and  N10_10 
REMARK    2  A    between atoms: C7_7  and  C8_8 
REMARK    3  A    between atoms: C7_7  and  N10_10 
ROOT
HETATM    1  C1  UNL     1     -34.334   6.206   6.280  1.00 20.00     0.065 C 
HETATM    2  C6  UNL     1     -34.486   3.784   5.822  1.00 20.00     0.027 C 
HETATM    3  C8  UNL     1     -35.034   5.173   5.493  1.00 20.00     0.116 C 
HETATM    4  N9  UNL     1     -33.785   7.019   6.899  1.00 20.00    -0.197 NA
ENDROOT
BRANCH   3   5
HETATM    5  C7  UNL     1     -34.977   5.476   3.989  1.00 20.00     0.288 C 
BRANCH   5   6
HETATM    6  N10 UNL     1     -34.240   6.696   3.708  1.00 20.00     0.089 N 
HETATM    7  H24 UNL     1     -34.517   7.061   2.800  1.00 20.00     0.316 HD
BRANCH   6   8
HETATM    8  C4  UNL     1     -32.798   6.434   3.688  1.00 20.00     0.224 A 
HETATM    9  C2  UNL     1     -32.146   5.837   2.467  1.00 20.00     0.042 A 
HETATM   10  C3  UNL     1     -31.839   7.256   2.862  1.00 20.00     0.016 A 
HETATM   11  C5  UNL     1     -32.291   8.387   2.003  1.00 20.00     0.012 C 
ENDBRANCH   6   8
ENDBRANCH   5   6
ENDBRANCH   3   5
TORSDOF 3
ENDMDL
MODEL 6
REMARK VINA RESULT:      -4.1      3.169      4.463
REMARK  3 active torsions:
REMARK  status: ('A' for Active; 'I' for Inactive)
REMARK    1  A    between atoms: C4_4  and  N10_10 
REMARK    2  A    between atoms: C7_7  and  C8_8 
REMARK    3  A    between atoms: C7_7  and  N10_10 
ROOT
HETATM    1  C1  UNL     1     -34.513  15.938  -7.039  1.00 20.00     0.065 C 
HETATM    2  C6  UNL     1     -34.202  18.388  -7.105  1.00 20.00     0.027 C 
HETATM    3  C8  UNL     1     -34.448  17.164  -6.221  1.00 20.00     0.116 C 
HETATM    4  N9  UNL     1     -34.567  14.974  -7.682  1.00 20.00    -0.197 NA
ENDROOT
BRANCH   3   5
HETATM    5  C7  UNL     1     -33.403  17.040  -5.103  1.00 20.00     0.288 C 
BRANCH   5   6
HETATM    6  N10 UNL     1     -32.865  15.693  -5.009  1.00 20.00     0.089 N 
HETATM    7  H24 UNL     1     -33.323  15.094  -5.692  1.00 20.00     0.316 HD
BRANCH   6   8
HETATM    8  C4  UNL     1     -33.093  15.139  -3.671  1.00 20.00     0.224 A 
HETATM    9  C2  UNL     1     -34.432  15.298  -2.997  1.00 20.00     0.042 A 
HETATM   10  C3  UNL     1     -33.971  13.934  -3.435  1.00 20.00     0.016 A 
HETATM   11  C5  UNL     1     -34.673  13.227  -4.543  1.00 20.00     0.012 C 
ENDBRANCH   6   8
ENDBRANCH   5   6
ENDBRANCH   3   5
TORSDOF 3
ENDMDL
MODEL 7
REMARK VINA RESULT:      -4.0     11.196     11.991
REMARK  3 active torsions:
REMARK  status: ('A' for Active; 'I' for Inactive)
REMARK    1  A    between atoms: C4_4  and  N10_10 
REMARK    2  A    between atoms: C7_7  and  C8_8 
REMARK    3  A    between atoms: C7_7  and  N10_10 
ROOT
HETATM    1  C1  UNL     1     -32.139   8.394   1.768  1.00 20.00     0.065 C 
HETATM    2  C6  UNL     1     -30.955   7.660   3.808  1.00 20.00     0.027 C 
HETATM    3  C8  UNL     1     -32.297   7.736   3.079  1.00 20.00     0.116 C 
HETATM    4  N9  UNL     1     -32.015   8.913   0.738  1.00 20.00    -0.197 NA
ENDROOT
BRANCH   3   5
HETATM    5  C7  UNL     1     -32.958   6.357   2.940  1.00 20.00     0.288 C 
BRANCH   5   6
HETATM    6  N10 UNL     1     -34.051   6.181   3.881  1.00 20.00     0.089 N 
HETATM    7  H24 UNL     1     -34.627   7.019   3.897  1.00 20.00     0.316 HD
BRANCH   6   8
HETATM    8  C4  UNL     1     -33.535   5.941   5.232  1.00 20.00     0.224 A 
HETATM    9  C2  UNL     1     -34.326   6.372   6.440  1.00 20.00     0.042 A 
HETATM   10  C3  UNL     1     -34.135   4.907   6.154  1.00 20.00     0.016 A 
HETATM   11  C5  UNL     1     -35.299   4.065   5.760  1.00 20.00     0.012 C 
ENDBRANCH   6   8
ENDBRANCH   5   6
ENDBRANCH   3   5
TORSDOF 3
ENDMDL
MODEL 8
REMARK VINA RESULT:      -3.9      3.034      4.137
REMARK  3 active torsions:
REMARK  status: ('A' for Active; 'I' for Inactive)
REMARK    1  A    between atoms: C4_4  and  N10_10 
REMARK    2  A    between atoms: C7_7  and  C8_8 
REMARK    3  A    between atoms: C7_7  and  N10_10 
ROOT
HETATM    1  C1  UNL     1     -35.742  17.558  -5.833  1.00 20.00     0.065 C 
HETATM    2  C6  UNL     1     -34.375  15.950  -7.117  1.00 20.00     0.027 C 
HETATM    3  C8  UNL     1     -34.369  17.202  -6.237  1.00 20.00     0.116 C 
HETATM    4  N9  UNL     1     -36.822  17.840  -5.517  1.00 20.00    -0.197 NA
ENDROOT
BRANCH   3   5
HETATM    5  C7  UNL     1     -33.446  17.047  -5.019  1.00 20.00     0.288 C 
BRANCH   5   6
HETATM    6  N10 UNL     1     -32.824  15.735  -4.971  1.00 20.00     0.089 N 
HETATM    7  H24 UNL     1     -33.203  15.150  -5.713  1.00 20.00     0.316 HD
BRANCH   6   8
HETATM    8  C4  UNL     1     -33.086  15.087  -3.683  1.00 20.00     0.224 A 
HETATM    9  C2  UNL     1     -34.445  15.186  -3.040  1.00 20.00     0.042 A 
HETATM   10  C3  UNL     1     -33.956  13.860  -3.558  1.00 20.00     0.016 A 
HETATM   11  C5  UNL     1     -34.617  13.226  -4.733  1.00 20.00     0.012 C 
ENDBRANCH   6   8
ENDBRANCH   5   6
ENDBRANCH   3   5
TORSDOF 3
ENDMDL
MODEL 9
REMARK VINA RESULT:      -3.9      2.125      4.988
REMARK  3 active torsions:
REMARK  status: ('A' for Active; 'I' for Inactive)
REMARK    1  A    between atoms: C4_4  and  N10_10 
REMARK    2  A    between atoms: C7_7  and  C8_8 
REMARK    3  A    between atoms: C7_7  and  N10_10 
ROOT
HETATM    1  C1  UNL     1     -34.293  16.511  -1.421  1.00 20.00     0.065 C 
HETATM    2  C6  UNL     1     -33.854  17.218  -3.746  1.00 20.00     0.027 C 
HETATM    3  C8  UNL     1     -33.670  16.118  -2.699  1.00 20.00     0.116 C 
HETATM    4  N9  UNL     1     -34.781  16.820  -0.415  1.00 20.00    -0.197 NA
ENDROOT
BRANCH   3   5
HETATM    5  C7  UNL     1     -34.196  14.761  -3.189  1.00 20.00     0.288 C 
BRANCH   5   6
HETATM    6  N10 UNL     1     -33.639  14.397  -4.480  1.00 20.00     0.089 N 
HETATM    7  H24 UNL     1     -33.220  15.215  -4.915  1.00 20.00     0.316 HD
BRANCH   6   8
HETATM    8  C4  UNL     1     -34.686  13.879  -5.366  1.00 20.00     0.224 A 
HETATM    9  C2  UNL     1     -35.987  14.623  -5.526  1.00 20.00     0.042 A 
HETATM   10  C3  UNL     1     -35.028  14.535  -6.682  1.00 20.00     0.016 A 
HETATM   11  C5  UNL     1     -34.331  15.758  -7.169  1.00 20.00     0.012 C 
ENDBRANCH   6   8
ENDBRANCH   5   6
ENDBRANCH   3   5
TORSDOF 3
ENDMDL
