MODEL 1
REMARK VINA RESULT:      -4.5      0.000      0.000
REMARK  1 active torsions:
REMARK  status: ('A' for Active; 'I' for Inactive)
REMARK    1  A    between atoms: C8_8  and  N10_10 
ROOT
HETATM    1  C1  UNL     1     -34.826  13.623  -4.228  1.00 20.00     0.130 C 
HETATM    2  C2  UNL     1     -33.550  14.211  -3.670  1.00 20.00     0.108 C 
HETATM    3  C3  UNL     1     -36.097  14.391  -3.949  1.00 20.00     0.108 C 
HETATM    4  C5  UNL     1     -33.490  15.714  -3.931  1.00 20.00     0.280 C 
HETATM    5  C6  UNL     1     -35.888  15.883  -4.196  1.00 20.00     0.280 C 
HETATM    6  N10 UNL     1     -34.702  16.448  -3.541  1.00 20.00     0.094 N 
HETATM    7  O11 UNL     1     -34.843  12.523  -4.778  1.00 20.00    -0.298 OA
ENDROOT
BRANCH   6   8
HETATM    8  C8  UNL     1     -34.855  16.542  -2.092  1.00 20.00     0.227 A 
HETATM    9  C4  UNL     1     -33.732  17.076  -1.242  1.00 20.00     0.042 A 
HETATM   10  C7  UNL     1     -34.985  17.887  -1.425  1.00 20.00     0.017 A 
HETATM   11  C9  UNL     1     -35.931  18.073  -0.290  1.00 20.00     0.012 C 
ENDBRANCH   6   8
TORSDOF 1
ENDMDL
MODEL 2
REMARK VINA RESULT:      -4.4      1.347      1.417
REMARK  1 active torsions:
REMARK  status: ('A' for Active; 'I' for Inactive)
REMARK    1  A    between atoms: C8_8  and  N10_10 
ROOT
HETATM    1  C1  UNL     1     -34.576  13.600  -4.648  1.00 20.00     0.130 C 
HETATM    2  C2  UNL     1     -33.716  13.833  -3.427  1.00 20.00     0.108 C 
HETATM    3  C3  UNL     1     -35.190  14.827  -5.281  1.00 20.00     0.108 C 
HETATM    4  C5  UNL     1     -32.770  15.011  -3.651  1.00 20.00     0.280 C 
HETATM    5  C6  UNL     1     -34.157  15.945  -5.399  1.00 20.00     0.280 C 
HETATM    6  N10 UNL     1     -33.420  16.226  -4.160  1.00 20.00     0.094 N 
HETATM    7  O11 UNL     1     -34.853  12.466  -5.035  1.00 20.00    -0.298 OA
ENDROOT
BRANCH   6   8
HETATM    8  C8  UNL     1     -34.252  16.877  -3.152  1.00 20.00     0.227 A 
HETATM    9  C4  UNL     1     -33.776  16.983  -1.726  1.00 20.00     0.042 A 
HETATM   10  C7  UNL     1     -33.855  18.215  -2.584  1.00 20.00     0.017 A 
HETATM   11  C9  UNL     1     -34.889  19.252  -2.314  1.00 20.00     0.012 C 
ENDBRANCH   6   8
TORSDOF 1
ENDMDL
MODEL 3
REMARK VINA RESULT:      -4.4      1.457      2.037
REMARK  1 active torsions:
REMARK  status: ('A' for Active; 'I' for Inactive)
REMARK    1  A    between atoms: C8_8  and  N10_10 
ROOT
HETATM    1  C1  UNL     1     -34.919  14.654  -5.667  1.00 20.00     0.130 C 
HETATM    2  C2  UNL     1     -35.215  14.121  -4.285  1.00 20.00     0.108 C 
HETATM    3  C3  UNL     1     -34.193  15.977  -5.736  1.00 20.00     0.108 C 
HETATM    4  C5  UNL     1     -33.992  14.257  -3.381  1.00 20.00     0.280 C 
HETATM    5  C6  UNL     1     -33.028  16.003  -4.749  1.00 20.00     0.280 C 
HETATM    6  N10 UNL     1     -33.378  15.592  -3.384  1.00 20.00     0.094 N 
HETATM    7  O11 UNL     1     -35.345  14.098  -6.678  1.00 20.00    -0.298 OA
ENDROOT
BRANCH   6   8
HETATM    8  C8  UNL     1     -34.198  16.584  -2.695  1.00 20.00     0.227 A 
HETATM    9  C4  UNL     1     -34.708  16.315  -1.303  1.00 20.00     0.042 A 
HETATM   10  C7  UNL     1     -33.642  17.352  -1.524  1.00 20.00     0.017 A 
HETATM   11  C9  UNL     1     -33.958  18.798  -1.358  1.00 20.00     0.012 C 
ENDBRANCH   6   8
TORSDOF 1
ENDMDL
MODEL 4
REMARK VINA RESULT:      -4.1      2.674      4.547
REMARK  1 active torsions:
REMARK  status: ('A' for Active; 'I' for Inactive)
REMARK    1  A    between atoms: C8_8  and  N10_10 
ROOT
HETATM    1  C1  UNL     1     -34.498  16.310  -2.158  1.00 20.00     0.130 C 
HETATM    2  C2  UNL     1     -34.639  17.542  -3.021  1.00 20.00     0.108 C 
HETATM    3  C3  UNL     1     -34.253  15.006  -2.882  1.00 20.00     0.108 C 
HETATM    4  C5  UNL     1     -33.556  17.572  -4.098  1.00 20.00     0.280 C 
HETATM    5  C6  UNL     1     -33.191  15.185  -3.964  1.00 20.00     0.280 C 
HETATM    6  N10 UNL     1     -33.422  16.324  -4.861  1.00 20.00     0.094 N 
HETATM    7  O11 UNL     1     -34.687  16.348  -0.943  1.00 20.00    -0.298 OA
ENDROOT
BRANCH   6   8
HETATM    8  C8  UNL     1     -34.544  16.102  -5.768  1.00 20.00     0.227 A 
HETATM    9  C4  UNL     1     -34.654  16.888  -7.049  1.00 20.00     0.042 A 
HETATM   10  C7  UNL     1     -34.328  15.421  -7.095  1.00 20.00     0.017 A 
HETATM   11  C9  UNL     1     -35.331  14.446  -7.609  1.00 20.00     0.012 C 
ENDBRANCH   6   8
TORSDOF 1
ENDMDL
MODEL 5
REMARK VINA RESULT:      -4.1      2.613      4.424
REMARK  1 active torsions:
REMARK  status: ('A' for Active; 'I' for Inactive)
REMARK    1  A    between atoms: C8_8  and  N10_10 
ROOT
HETATM    1  C1  UNL     1     -34.632  15.839  -2.399  1.00 20.00     0.130 C 
HETATM    2  C2  UNL     1     -33.493  15.517  -3.339  1.00 20.00     0.108 C 
HETATM    3  C3  UNL     1     -36.026  15.741  -2.975  1.00 20.00     0.108 C 
HETATM    4  C5  UNL     1     -33.796  14.252  -4.139  1.00 20.00     0.280 C 
HETATM    5  C6  UNL     1     -36.181  14.462  -3.793  1.00 20.00     0.280 C 
HETATM    6  N10 UNL     1     -35.117  14.240  -4.782  1.00 20.00     0.094 N 
HETATM    7  O11 UNL     1     -34.430  16.267  -1.264  1.00 20.00    -0.298 OA
ENDROOT
BRANCH   6   8
HETATM    8  C8  UNL     1     -35.199  15.166  -5.907  1.00 20.00     0.227 A 
HETATM    9  C4  UNL     1     -34.401  14.913  -7.159  1.00 20.00     0.042 A 
HETATM   10  C7  UNL     1     -35.897  14.759  -7.180  1.00 20.00     0.017 A 
HETATM   11  C9  UNL     1     -36.740  15.740  -7.918  1.00 20.00     0.012 C 
ENDBRANCH   6   8
TORSDOF 1
ENDMDL
MODEL 6
REMARK VINA RESULT:      -4.1      1.553      2.438
REMARK  1 active torsions:
REMARK  status: ('A' for Active; 'I' for Inactive)
REMARK    1  A    between atoms: C8_8  and  N10_10 
ROOT
HETATM    1  C1  UNL     1     -35.443  14.533  -5.968  1.00 20.00     0.130 C 
HETATM    2  C2  UNL     1     -36.554  15.346  -5.344  1.00 20.00     0.108 C 
HETATM    3  C3  UNL     1     -34.194  14.354  -5.136  1.00 20.00     0.108 C 
HETATM    4  C5  UNL     1     -36.776  14.931  -3.892  1.00 20.00     0.280 C 
HETATM    5  C6  UNL     1     -34.554  13.994  -3.697  1.00 20.00     0.280 C 
HETATM    6  N10 UNL     1     -35.552  14.878  -3.080  1.00 20.00     0.094 N 
HETATM    7  O11 UNL     1     -35.507  14.138  -7.131  1.00 20.00    -0.298 OA
ENDROOT
BRANCH   6   8
HETATM    8  C8  UNL     1     -35.018  16.205  -2.788  1.00 20.00     0.227 A 
HETATM    9  C4  UNL     1     -35.911  17.274  -2.213  1.00 20.00     0.042 A 
HETATM   10  C7  UNL     1     -34.836  16.656  -1.362  1.00 20.00     0.017 A 
HETATM   11  C9  UNL     1     -33.637  17.451  -0.976  1.00 20.00     0.012 C 
ENDBRANCH   6   8
TORSDOF 1
ENDMDL
MODEL 7
REMARK VINA RESULT:      -4.0      1.888      2.304
REMARK  1 active torsions:
REMARK  status: ('A' for Active; 'I' for Inactive)
REMARK    1  A    between atoms: C8_8  and  N10_10 
ROOT
HETATM    1  C1  UNL     1     -34.714  13.762  -4.758  1.00 20.00     0.130 C 
HETATM    2  C2  UNL     1     -34.431  14.743  -5.872  1.00 20.00     0.108 C 
HETATM    3  C3  UNL     1     -34.883  14.348  -3.375  1.00 20.00     0.108 C 
HETATM    4  C5  UNL     1     -35.355  15.955  -5.771  1.00 20.00     0.280 C 
HETATM    5  C6  UNL     1     -35.781  15.581  -3.420  1.00 20.00     0.280 C 
HETATM    6  N10 UNL     1     -35.407  16.570  -4.438  1.00 20.00     0.094 N 
HETATM    7  O11 UNL     1     -34.693  12.547  -4.947  1.00 20.00    -0.298 OA
ENDROOT
BRANCH   6   8
HETATM    8  C8  UNL     1     -34.175  17.278  -4.102  1.00 20.00     0.227 A 
HETATM    9  C4  UNL     1     -33.608  18.307  -5.045  1.00 20.00     0.042 A 
HETATM   10  C7  UNL     1     -34.210  18.740  -3.736  1.00 20.00     0.017 A 
HETATM   11  C9  UNL     1     -33.340  19.261  -2.646  1.00 20.00     0.012 C 
ENDBRANCH   6   8
TORSDOF 1
ENDMDL
MODEL 8
REMARK VINA RESULT:      -4.0      1.871      3.478
REMARK  1 active torsions:
REMARK  status: ('A' for Active; 'I' for Inactive)
REMARK    1  A    between atoms: C8_8  and  N10_10 
ROOT
HETATM    1  C1  UNL     1     -33.602  13.760  -3.868  1.00 20.00     0.130 C 
HETATM    2  C2  UNL     1     -34.832  13.401  -4.669  1.00 20.00     0.108 C 
HETATM    3  C3  UNL     1     -33.429  15.222  -3.523  1.00 20.00     0.108 C 
HETATM    4  C5  UNL     1     -36.066  14.103  -4.108  1.00 20.00     0.280 C 
HETATM    5  C6  UNL     1     -34.744  15.816  -3.026  1.00 20.00     0.280 C 
HETATM    6  N10 UNL     1     -35.899  15.547  -3.892  1.00 20.00     0.094 N 
HETATM    7  O11 UNL     1     -32.734  12.928  -3.610  1.00 20.00    -0.298 OA
ENDROOT
BRANCH   6   8
HETATM    8  C8  UNL     1     -35.844  16.295  -5.145  1.00 20.00     0.227 A 
HETATM    9  C4  UNL     1     -36.907  16.100  -6.194  1.00 20.00     0.042 A 
HETATM   10  C7  UNL     1     -36.842  17.390  -5.423  1.00 20.00     0.017 A 
HETATM   11  C9  UNL     1     -36.408  18.645  -6.098  1.00 20.00     0.012 C 
ENDBRANCH   6   8
TORSDOF 1
ENDMDL
MODEL 9
REMARK VINA RESULT:      -4.0      2.303      3.639
REMARK  1 active torsions:
REMARK  status: ('A' for Active; 'I' for Inactive)
REMARK    1  A    between atoms: C8_8  and  N10_10 
ROOT
HETATM    1  C1  UNL     1     -33.923  13.791  -3.842  1.00 20.00     0.130 C 
HETATM    2  C2  UNL     1     -34.477  14.968  -3.073  1.00 20.00     0.108 C 
HETATM    3  C3  UNL     1     -34.826  13.190  -4.894  1.00 20.00     0.108 C 
HETATM    4  C5  UNL     1     -35.150  15.961  -4.019  1.00 20.00     0.280 C 
HETATM    5  C6  UNL     1     -35.475  14.287  -5.734  1.00 20.00     0.280 C 
HETATM    6  N10 UNL     1     -36.109  15.357  -4.953  1.00 20.00     0.094 N 
HETATM    7  O11 UNL     1     -32.843  13.280  -3.548  1.00 20.00    -0.298 OA
ENDROOT
BRANCH   6   8
HETATM    8  C8  UNL     1     -37.332  14.914  -4.289  1.00 20.00     0.227 A 
HETATM    9  C4  UNL     1     -38.149  15.883  -3.476  1.00 20.00     0.042 A 
HETATM   10  C7  UNL     1     -38.679  15.372  -4.787  1.00 20.00     0.017 A 
HETATM   11  C9  UNL     1     -39.829  14.426  -4.813  1.00 20.00     0.012 C 
ENDBRANCH   6   8
TORSDOF 1
ENDMDL
