MODEL 1
REMARK VINA RESULT:      -5.7      0.000      0.000
REMARK  1 active torsions:
REMARK  status: ('A' for Active; 'I' for Inactive)
REMARK    1  A    between atoms: C5_5  and  C6_6 
ROOT
HETATM    1  C1  UNL     1     -34.570   3.824   5.208  1.00 20.00     0.014 A 
HETATM    2  C2  UNL     1     -34.332   6.037   6.601  1.00 20.00     0.275 C 
HETATM    3  C3  UNL     1     -35.169   4.947   6.012  1.00 20.00     0.021 A 
HETATM    4  C4  UNL     1     -35.094   5.070   4.536  1.00 20.00     0.034 A 
HETATM    5  C5  UNL     1     -34.229   6.259   4.233  1.00 20.00     0.331 C 
HETATM    6  N7  UNL     1     -33.497   6.511   5.487  1.00 20.00     0.097 N 
HETATM    7  H18 UNL     1     -33.275   7.499   5.590  1.00 20.00     0.316 HD
ENDROOT
BRANCH   5   8
HETATM    8  C6  UNL     1     -33.271   6.013   3.081  1.00 20.00     0.418 C 
HETATM    9  F8  UNL     1     -33.809   5.150   2.201  1.00 20.00    -0.169 F 
HETATM   10  F9  UNL     1     -33.003   7.165   2.440  1.00 20.00    -0.169 F 
HETATM   11  F10 UNL     1     -32.115   5.497   3.535  1.00 20.00    -0.169 F 
ENDBRANCH   5   8
TORSDOF 1
ENDMDL
MODEL 2
REMARK VINA RESULT:      -5.7      0.022      1.200
REMARK  1 active torsions:
REMARK  status: ('A' for Active; 'I' for Inactive)
REMARK    1  A    between atoms: C5_5  and  C6_6 
ROOT
HETATM    1  C1  UNL     1     -34.593   3.820   5.179  1.00 20.00     0.014 A 
HETATM    2  C2  UNL     1     -34.332   6.018   6.592  1.00 20.00     0.275 C 
HETATM    3  C3  UNL     1     -35.181   4.941   5.994  1.00 20.00     0.021 A 
HETATM    4  C4  UNL     1     -35.106   5.077   4.519  1.00 20.00     0.034 A 
HETATM    5  C5  UNL     1     -34.230   6.260   4.225  1.00 20.00     0.331 C 
HETATM    6  N7  UNL     1     -33.494   6.493   5.481  1.00 20.00     0.097 N 
HETATM    7  H18 UNL     1     -33.262   7.478   5.592  1.00 20.00     0.316 HD
ENDROOT
BRANCH   5   8
HETATM    8  C6  UNL     1     -33.277   6.015   3.069  1.00 20.00     0.418 C 
HETATM    9  F8  UNL     1     -32.999   7.170   2.438  1.00 20.00    -0.169 F 
HETATM   10  F9  UNL     1     -32.124   5.486   3.517  1.00 20.00    -0.169 F 
HETATM   11  F10 UNL     1     -33.823   5.164   2.183  1.00 20.00    -0.169 F 
ENDBRANCH   5   8
TORSDOF 1
ENDMDL
MODEL 3
REMARK VINA RESULT:      -4.5      1.416      2.065
REMARK  1 active torsions:
REMARK  status: ('A' for Active; 'I' for Inactive)
REMARK    1  A    between atoms: C5_5  and  C6_6 
ROOT
HETATM    1  C1  UNL     1     -34.285   6.394   6.284  1.00 20.00     0.014 A 
HETATM    2  C2  UNL     1     -35.559   4.847   4.586  1.00 20.00     0.275 C 
HETATM    3  C3  UNL     1     -34.759   5.037   5.836  1.00 20.00     0.021 A 
HETATM    4  C4  UNL     1     -33.408   5.502   5.439  1.00 20.00     0.034 A 
HETATM    5  C5  UNL     1     -33.382   5.565   3.939  1.00 20.00     0.331 C 
HETATM    6  N7  UNL     1     -34.803   5.563   3.547  1.00 20.00     0.097 N 
HETATM    7  H18 UNL     1     -34.931   5.128   2.636  1.00 20.00     0.316 HD
ENDROOT
BRANCH   5   8
HETATM    8  C6  UNL     1     -32.672   6.800   3.414  1.00 20.00     0.418 C 
HETATM    9  F8  UNL     1     -33.566   7.745   3.072  1.00 20.00    -0.169 F 
HETATM   10  F9  UNL     1     -31.854   7.306   4.353  1.00 20.00    -0.169 F 
HETATM   11  F10 UNL     1     -31.938   6.493   2.329  1.00 20.00    -0.169 F 
ENDBRANCH   5   8
TORSDOF 1
ENDMDL
MODEL 4
REMARK VINA RESULT:      -4.5      2.575      3.449
REMARK  1 active torsions:
REMARK  status: ('A' for Active; 'I' for Inactive)
REMARK    1  A    between atoms: C5_5  and  C6_6 
ROOT
HETATM    1  C1  UNL     1     -35.754   5.853   3.392  1.00 20.00     0.014 A 
HETATM    2  C2  UNL     1     -33.211   6.442   3.110  1.00 20.00     0.275 C 
HETATM    3  C3  UNL     1     -34.417   5.642   2.733  1.00 20.00     0.021 A 
HETATM    4  C4  UNL     1     -34.789   4.811   3.904  1.00 20.00     0.034 A 
HETATM    5  C5  UNL     1     -33.784   5.090   4.984  1.00 20.00     0.331 C 
HETATM    6  N7  UNL     1     -33.148   6.356   4.577  1.00 20.00     0.097 N 
HETATM    7  H18 UNL     1     -32.186   6.405   4.906  1.00 20.00     0.316 HD
ENDROOT
BRANCH   5   8
HETATM    8  C6  UNL     1     -34.416   5.213   6.359  1.00 20.00     0.418 C 
HETATM    9  F8  UNL     1     -35.666   4.719   6.346  1.00 20.00    -0.169 F 
HETATM   10  F9  UNL     1     -33.697   4.533   7.269  1.00 20.00    -0.169 F 
HETATM   11  F10 UNL     1     -34.471   6.503   6.736  1.00 20.00    -0.169 F 
ENDBRANCH   5   8
TORSDOF 1
ENDMDL
MODEL 5
REMARK VINA RESULT:      -4.4      2.505      3.630
REMARK  1 active torsions:
REMARK  status: ('A' for Active; 'I' for Inactive)
REMARK    1  A    between atoms: C5_5  and  C6_6 
ROOT
HETATM    1  C1  UNL     1     -32.331   6.138   3.707  1.00 20.00     0.014 A 
HETATM    2  C2  UNL     1     -34.417   5.013   2.577  1.00 20.00     0.275 C 
HETATM    3  C3  UNL     1     -33.488   6.173   2.745  1.00 20.00     0.021 A 
HETATM    4  C4  UNL     1     -33.670   6.701   4.118  1.00 20.00     0.034 A 
HETATM    5  C5  UNL     1     -34.737   5.872   4.775  1.00 20.00     0.331 C 
HETATM    6  N7  UNL     1     -34.820   4.656   3.946  1.00 20.00     0.097 N 
HETATM    7  H18 UNL     1     -35.760   4.266   3.962  1.00 20.00     0.316 HD
ENDROOT
BRANCH   5   8
HETATM    8  C6  UNL     1     -34.411   5.529   6.218  1.00 20.00     0.418 C 
HETATM    9  F8  UNL     1     -35.542   5.388   6.932  1.00 20.00    -0.169 F 
HETATM   10  F9  UNL     1     -33.719   4.378   6.282  1.00 20.00    -0.169 F 
HETATM   11  F10 UNL     1     -33.673   6.504   6.777  1.00 20.00    -0.169 F 
ENDBRANCH   5   8
TORSDOF 1
ENDMDL
MODEL 6
REMARK VINA RESULT:      -4.4     11.831     12.962
REMARK  1 active torsions:
REMARK  status: ('A' for Active; 'I' for Inactive)
REMARK    1  A    between atoms: C5_5  and  C6_6 
ROOT
HETATM    1  C1  UNL     1     -33.763  16.625  -2.328  1.00 20.00     0.014 A 
HETATM    2  C2  UNL     1     -33.391  17.345  -4.825  1.00 20.00     0.275 C 
HETATM    3  C3  UNL     1     -34.192  17.371  -3.563  1.00 20.00     0.021 A 
HETATM    4  C4  UNL     1     -34.706  16.000  -3.327  1.00 20.00     0.034 A 
HETATM    5  C5  UNL     1     -34.236  15.147  -4.471  1.00 20.00     0.331 C 
HETATM    6  N7  UNL     1     -33.136  15.919  -5.077  1.00 20.00     0.097 N 
HETATM    7  H18 UNL     1     -33.062  15.730  -6.074  1.00 20.00     0.316 HD
ENDROOT
BRANCH   5   8
HETATM    8  C6  UNL     1     -33.762  13.776  -4.026  1.00 20.00     0.418 C 
HETATM    9  F8  UNL     1     -34.485  13.347  -2.977  1.00 20.00    -0.169 F 
HETATM   10  F9  UNL     1     -33.893  12.887  -5.027  1.00 20.00    -0.169 F 
HETATM   11  F10 UNL     1     -32.468  13.822  -3.663  1.00 20.00    -0.169 F 
ENDBRANCH   5   8
TORSDOF 1
ENDMDL
MODEL 7
REMARK VINA RESULT:      -4.2      1.541      2.367
REMARK  1 active torsions:
REMARK  status: ('A' for Active; 'I' for Inactive)
REMARK    1  A    between atoms: C5_5  and  C6_6 
ROOT
HETATM    1  C1  UNL     1     -34.270   6.542   6.255  1.00 20.00     0.014 A 
HETATM    2  C2  UNL     1     -35.269   4.115   6.339  1.00 20.00     0.275 C 
HETATM    3  C3  UNL     1     -34.184   5.094   6.658  1.00 20.00     0.021 A 
HETATM    4  C4  UNL     1     -33.578   5.528   5.376  1.00 20.00     0.034 A 
HETATM    5  C5  UNL     1     -34.283   4.785   4.277  1.00 20.00     0.331 C 
HETATM    6  N7  UNL     1     -35.526   4.297   4.902  1.00 20.00     0.097 N 
HETATM    7  H18 UNL     1     -35.835   3.428   4.472  1.00 20.00     0.316 HD
ENDROOT
BRANCH   5   8
HETATM    8  C6  UNL     1     -34.583   5.659   3.073  1.00 20.00     0.418 C 
HETATM    9  F8  UNL     1     -33.865   6.795   3.127  1.00 20.00    -0.169 F 
HETATM   10  F9  UNL     1     -34.275   5.013   1.935  1.00 20.00    -0.169 F 
HETATM   11  F10 UNL     1     -35.889   5.981   3.041  1.00 20.00    -0.169 F 
ENDBRANCH   5   8
TORSDOF 1
ENDMDL
MODEL 8
REMARK VINA RESULT:      -4.2     12.012     12.934
REMARK  1 active torsions:
REMARK  status: ('A' for Active; 'I' for Inactive)
REMARK    1  A    between atoms: C5_5  and  C6_6 
ROOT
HETATM    1  C1  UNL     1     -34.124  15.609  -5.743  1.00 20.00     0.014 A 
HETATM    2  C2  UNL     1     -34.556  13.200  -4.790  1.00 20.00     0.275 C 
HETATM    3  C3  UNL     1     -34.947  14.351  -5.661  1.00 20.00     0.021 A 
HETATM    4  C4  UNL     1     -35.277  15.494  -4.776  1.00 20.00     0.034 A 
HETATM    5  C5  UNL     1     -35.111  15.022  -3.360  1.00 20.00     0.331 C 
HETATM    6  N7  UNL     1     -34.293  13.801  -3.474  1.00 20.00     0.097 N 
HETATM    7  H18 UNL     1     -34.504  13.146  -2.723  1.00 20.00     0.316 HD
ENDROOT
BRANCH   5   8
HETATM    8  C6  UNL     1     -34.437  16.051  -2.470  1.00 20.00     0.418 C 
HETATM    9  F8  UNL     1     -33.099  15.939  -2.556  1.00 20.00    -0.169 F 
HETATM   10  F9  UNL     1     -34.786  17.294  -2.843  1.00 20.00    -0.169 F 
HETATM   11  F10 UNL     1     -34.799  15.871  -1.188  1.00 20.00    -0.169 F 
ENDBRANCH   5   8
TORSDOF 1
ENDMDL
MODEL 9
REMARK VINA RESULT:      -4.2     12.135     13.293
REMARK  1 active torsions:
REMARK  status: ('A' for Active; 'I' for Inactive)
REMARK    1  A    between atoms: C5_5  and  C6_6 
ROOT
HETATM    1  C1  UNL     1     -36.321  15.905  -4.913  1.00 20.00     0.014 A 
HETATM    2  C2  UNL     1     -35.214  14.969  -7.102  1.00 20.00     0.275 C 
HETATM    3  C3  UNL     1     -36.354  15.027  -6.136  1.00 20.00     0.021 A 
HETATM    4  C4  UNL     1     -35.882  14.462  -4.848  1.00 20.00     0.034 A 
HETATM    5  C5  UNL     1     -34.457  14.033  -5.047  1.00 20.00     0.331 C 
HETATM    6  N7  UNL     1     -34.026  14.743  -6.265  1.00 20.00     0.097 N 
HETATM    7  H18 UNL     1     -33.318  14.211  -6.768  1.00 20.00     0.316 HD
ENDROOT
BRANCH   5   8
HETATM    8  C6  UNL     1     -33.567  14.381  -3.867  1.00 20.00     0.418 C 
HETATM    9  F8  UNL     1     -34.308  14.571  -2.761  1.00 20.00    -0.169 F 
HETATM   10  F9  UNL     1     -32.693  13.387  -3.630  1.00 20.00    -0.169 F 
HETATM   11  F10 UNL     1     -32.876  15.507  -4.117  1.00 20.00    -0.169 F 
ENDBRANCH   5   8
TORSDOF 1
ENDMDL
