MODEL 1
REMARK VINA RESULT:      -5.0      0.000      0.000
REMARK  4 active torsions:
REMARK  status: ('A' for Active; 'I' for Inactive)
REMARK    1  A    between atoms: C1_1  and  C3_3 
REMARK    2  A    between atoms: C2_2  and  C6_6 
REMARK    3  A    between atoms: C6_6  and  C7_7 
REMARK    4  A    between atoms: C7_7  and  O8_8 
ROOT
HETATM    1  C1  UNL     1     -33.102   6.475   3.862  1.00 20.00    -0.079 C 
HETATM    2  C2  UNL     1     -33.722   6.127   4.829  1.00 20.00    -0.100 C 
ENDROOT
BRANCH   2   3
HETATM    3  C6  UNL     1     -34.484   5.701   6.012  1.00 20.00     0.120 C 
BRANCH   3   4
HETATM    4  C7  UNL     1     -34.720   4.196   6.013  1.00 20.00     0.176 C 
BRANCH   4   5
HETATM    5  O8  UNL     1     -35.460   3.827   4.856  1.00 20.00    -0.400 OA
HETATM    6  H18 UNL     1     -35.735   2.905   4.983  1.00 20.00     0.209 HD
ENDBRANCH   4   5
ENDBRANCH   3   4
ENDBRANCH   2   3
BRANCH   1   7
HETATM    7  C3  UNL     1     -32.365   6.890   2.720  1.00 20.00     0.060 C 
HETATM    8  C4  UNL     1     -32.406   8.153   2.278  1.00 20.00    -0.022 C 
HETATM    9  C5  UNL     1     -31.649   8.637   1.084  1.00 20.00     0.036 C 
ENDBRANCH   1   7
TORSDOF 4
ENDMDL
MODEL 2
REMARK VINA RESULT:      -4.6      2.875      5.380
REMARK  4 active torsions:
REMARK  status: ('A' for Active; 'I' for Inactive)
REMARK    1  A    between atoms: C1_1  and  C3_3 
REMARK    2  A    between atoms: C2_2  and  C6_6 
REMARK    3  A    between atoms: C6_6  and  C7_7 
REMARK    4  A    between atoms: C7_7  and  O8_8 
ROOT
HETATM    1  C1  UNL     1     -32.946   6.735   3.233  1.00 20.00    -0.079 C 
HETATM    2  C2  UNL     1     -32.343   7.493   2.525  1.00 20.00    -0.100 C 
ENDROOT
BRANCH   2   3
HETATM    3  C6  UNL     1     -31.601   8.421   1.658  1.00 20.00     0.120 C 
BRANCH   3   4
HETATM    4  C7  UNL     1     -32.503   9.520   1.114  1.00 20.00     0.176 C 
BRANCH   4   5
HETATM    5  O8  UNL     1     -32.841   9.236  -0.237  1.00 20.00    -0.400 OA
HETATM    6  H18 UNL     1     -32.041   9.393  -0.764  1.00 20.00     0.209 HD
ENDBRANCH   4   5
ENDBRANCH   3   4
ENDBRANCH   2   3
BRANCH   1   7
HETATM    7  C3  UNL     1     -33.663   5.841   4.073  1.00 20.00     0.060 C 
HETATM    8  C4  UNL     1     -33.987   6.166   5.332  1.00 20.00    -0.022 C 
HETATM    9  C5  UNL     1     -34.740   5.261   6.251  1.00 20.00     0.036 C 
ENDBRANCH   1   7
TORSDOF 4
ENDMDL
MODEL 3
REMARK VINA RESULT:      -4.5      1.276      1.302
REMARK  4 active torsions:
REMARK  status: ('A' for Active; 'I' for Inactive)
REMARK    1  A    between atoms: C1_1  and  C3_3 
REMARK    2  A    between atoms: C2_2  and  C6_6 
REMARK    3  A    between atoms: C6_6  and  C7_7 
REMARK    4  A    between atoms: C7_7  and  O8_8 
ROOT
HETATM    1  C1  UNL     1     -33.287   6.321   3.435  1.00 20.00    -0.079 C 
HETATM    2  C2  UNL     1     -34.155   5.667   3.945  1.00 20.00    -0.100 C 
ENDROOT
BRANCH   2   3
HETATM    3  C6  UNL     1     -35.216   4.864   4.572  1.00 20.00     0.120 C 
BRANCH   3   4
HETATM    4  C7  UNL     1     -34.951   4.649   6.055  1.00 20.00     0.176 C 
BRANCH   4   5
HETATM    5  O8  UNL     1     -34.586   5.883   6.660  1.00 20.00    -0.400 OA
HETATM    6  H18 UNL     1     -34.074   5.663   7.455  1.00 20.00     0.209 HD
ENDBRANCH   4   5
ENDBRANCH   3   4
ENDBRANCH   2   3
BRANCH   1   7
HETATM    7  C3  UNL     1     -32.263   7.094   2.826  1.00 20.00     0.060 C 
HETATM    8  C4  UNL     1     -32.543   8.071   1.953  1.00 20.00    -0.022 C 
HETATM    9  C5  UNL     1     -31.501   8.910   1.289  1.00 20.00     0.036 C 
ENDBRANCH   1   7
TORSDOF 4
ENDMDL
MODEL 4
REMARK VINA RESULT:      -4.2     11.151     11.764
REMARK  4 active torsions:
REMARK  status: ('A' for Active; 'I' for Inactive)
REMARK    1  A    between atoms: C1_1  and  C3_3 
REMARK    2  A    between atoms: C2_2  and  C6_6 
REMARK    3  A    between atoms: C6_6  and  C7_7 
REMARK    4  A    between atoms: C7_7  and  O8_8 
ROOT
HETATM    1  C1  UNL     1     -34.486  15.838  -2.360  1.00 20.00    -0.079 C 
HETATM    2  C2  UNL     1     -34.036  14.979  -3.068  1.00 20.00    -0.100 C 
ENDROOT
BRANCH   2   3
HETATM    3  C6  UNL     1     -33.484  13.929  -3.937  1.00 20.00     0.120 C 
BRANCH   3   4
HETATM    4  C7  UNL     1     -34.550  13.342  -4.853  1.00 20.00     0.176 C 
BRANCH   4   5
HETATM    5  O8  UNL     1     -35.429  12.518  -4.097  1.00 20.00    -0.400 OA
HETATM    6  H18 UNL     1     -36.326  12.693  -4.424  1.00 20.00     0.209 HD
ENDBRANCH   4   5
ENDBRANCH   3   4
ENDBRANCH   2   3
BRANCH   1   7
HETATM    7  C3  UNL     1     -35.023  16.852  -1.523  1.00 20.00     0.060 C 
HETATM    8  C4  UNL     1     -34.723  16.919  -0.219  1.00 20.00    -0.022 C 
HETATM    9  C5  UNL     1     -35.262  17.966   0.700  1.00 20.00     0.036 C 
ENDBRANCH   1   7
TORSDOF 4
ENDMDL
MODEL 5
REMARK VINA RESULT:      -3.9     11.693     12.283
REMARK  4 active torsions:
REMARK  status: ('A' for Active; 'I' for Inactive)
REMARK    1  A    between atoms: C1_1  and  C3_3 
REMARK    2  A    between atoms: C2_2  and  C6_6 
REMARK    3  A    between atoms: C6_6  and  C7_7 
REMARK    4  A    between atoms: C7_7  and  O8_8 
ROOT
HETATM    1  C1  UNL     1     -34.290  15.534  -2.658  1.00 20.00    -0.079 C 
HETATM    2  C2  UNL     1     -34.482  14.605  -3.393  1.00 20.00    -0.100 C 
ENDROOT
BRANCH   2   3
HETATM    3  C6  UNL     1     -34.720  13.468  -4.296  1.00 20.00     0.120 C 
BRANCH   3   4
HETATM    4  C7  UNL     1     -35.003  13.933  -5.718  1.00 20.00     0.176 C 
BRANCH   4   5
HETATM    5  O8  UNL     1     -33.960  14.795  -6.156  1.00 20.00    -0.400 OA
HETATM    6  H18 UNL     1     -33.700  15.331  -5.389  1.00 20.00     0.209 HD
ENDBRANCH   4   5
ENDBRANCH   3   4
ENDBRANCH   2   3
BRANCH   1   7
HETATM    7  C3  UNL     1     -34.063  16.630  -1.783  1.00 20.00     0.060 C 
HETATM    8  C4  UNL     1     -34.669  16.717  -0.592  1.00 20.00    -0.022 C 
HETATM    9  C5  UNL     1     -34.462  17.848   0.361  1.00 20.00     0.036 C 
ENDBRANCH   1   7
TORSDOF 4
ENDMDL
MODEL 6
REMARK VINA RESULT:      -3.8     10.731     11.063
REMARK  4 active torsions:
REMARK  status: ('A' for Active; 'I' for Inactive)
REMARK    1  A    between atoms: C1_1  and  C3_3 
REMARK    2  A    between atoms: C2_2  and  C6_6 
REMARK    3  A    between atoms: C6_6  and  C7_7 
REMARK    4  A    between atoms: C7_7  and  O8_8 
ROOT
HETATM    1  C1  UNL     1     -41.678   3.887  -2.104  1.00 20.00    -0.079 C 
HETATM    2  C2  UNL     1     -41.228   4.728  -1.376  1.00 20.00    -0.100 C 
ENDROOT
BRANCH   2   3
HETATM    3  C6  UNL     1     -40.679   5.761  -0.485  1.00 20.00     0.120 C 
BRANCH   3   4
HETATM    4  C7  UNL     1     -41.137   7.154  -0.895  1.00 20.00     0.176 C 
BRANCH   4   5
HETATM    5  O8  UNL     1     -40.960   7.323  -2.296  1.00 20.00    -0.400 OA
HETATM    6  H18 UNL     1     -40.601   8.215  -2.427  1.00 20.00     0.209 HD
ENDBRANCH   4   5
ENDBRANCH   3   4
ENDBRANCH   2   3
BRANCH   1   7
HETATM    7  C3  UNL     1     -42.207   2.889  -2.967  1.00 20.00     0.060 C 
HETATM    8  C4  UNL     1     -41.417   1.990  -3.569  1.00 20.00    -0.022 C 
HETATM    9  C5  UNL     1     -41.926   0.924  -4.483  1.00 20.00     0.036 C 
ENDBRANCH   1   7
TORSDOF 4
ENDMDL
MODEL 7
REMARK VINA RESULT:      -3.8     11.509     12.005
REMARK  4 active torsions:
REMARK  status: ('A' for Active; 'I' for Inactive)
REMARK    1  A    between atoms: C1_1  and  C3_3 
REMARK    2  A    between atoms: C2_2  and  C6_6 
REMARK    3  A    between atoms: C6_6  and  C7_7 
REMARK    4  A    between atoms: C7_7  and  O8_8 
ROOT
HETATM    1  C1  UNL     1     -34.422  15.962  -2.149  1.00 20.00    -0.079 C 
HETATM    2  C2  UNL     1     -34.713  15.107  -2.939  1.00 20.00    -0.100 C 
ENDROOT
BRANCH   2   3
HETATM    3  C6  UNL     1     -35.069  14.056  -3.905  1.00 20.00     0.120 C 
BRANCH   3   4
HETATM    4  C7  UNL     1     -36.381  14.369  -4.613  1.00 20.00     0.176 C 
BRANCH   4   5
HETATM    5  O8  UNL     1     -37.466  14.183  -3.713  1.00 20.00    -0.400 OA
HETATM    6  H18 UNL     1     -38.278  14.219  -4.244  1.00 20.00     0.209 HD
ENDBRANCH   4   5
ENDBRANCH   3   4
ENDBRANCH   2   3
BRANCH   1   7
HETATM    7  C3  UNL     1     -34.075  16.977  -1.218  1.00 20.00     0.060 C 
HETATM    8  C4  UNL     1     -34.745  17.137  -0.069  1.00 20.00    -0.022 C 
HETATM    9  C5  UNL     1     -34.417  18.188   0.940  1.00 20.00     0.036 C 
ENDBRANCH   1   7
TORSDOF 4
ENDMDL
MODEL 8
REMARK VINA RESULT:      -3.7     11.683     12.286
REMARK  4 active torsions:
REMARK  status: ('A' for Active; 'I' for Inactive)
REMARK    1  A    between atoms: C1_1  and  C3_3 
REMARK    2  A    between atoms: C2_2  and  C6_6 
REMARK    3  A    between atoms: C6_6  and  C7_7 
REMARK    4  A    between atoms: C7_7  and  O8_8 
ROOT
HETATM    1  C1  UNL     1     -34.472  16.676  -1.114  1.00 20.00    -0.079 C 
HETATM    2  C2  UNL     1     -34.527  15.937  -2.058  1.00 20.00    -0.100 C 
ENDROOT
BRANCH   2   3
HETATM    3  C6  UNL     1     -34.593  15.029  -3.213  1.00 20.00     0.120 C 
BRANCH   3   4
HETATM    4  C7  UNL     1     -33.467  15.298  -4.201  1.00 20.00     0.176 C 
BRANCH   4   5
HETATM    5  O8  UNL     1     -32.270  14.681  -3.743  1.00 20.00    -0.400 OA
HETATM    6  H18 UNL     1     -31.551  15.020  -4.300  1.00 20.00     0.209 HD
ENDBRANCH   4   5
ENDBRANCH   3   4
ENDBRANCH   2   3
BRANCH   1   7
HETATM    7  C3  UNL     1     -34.405  17.555   0.001  1.00 20.00     0.060 C 
HETATM    8  C4  UNL     1     -35.245  17.442   1.037  1.00 20.00    -0.022 C 
HETATM    9  C5  UNL     1     -35.213  18.340   2.230  1.00 20.00     0.036 C 
ENDBRANCH   1   7
TORSDOF 4
ENDMDL
MODEL 9
REMARK VINA RESULT:      -3.7     11.456     11.841
REMARK  4 active torsions:
REMARK  status: ('A' for Active; 'I' for Inactive)
REMARK    1  A    between atoms: C1_1  and  C3_3 
REMARK    2  A    between atoms: C2_2  and  C6_6 
REMARK    3  A    between atoms: C6_6  and  C7_7 
REMARK    4  A    between atoms: C7_7  and  O8_8 
ROOT
HETATM    1  C1  UNL     1     -34.798  15.974  -2.035  1.00 20.00    -0.079 C 
HETATM    2  C2  UNL     1     -34.537  16.691  -1.109  1.00 20.00    -0.100 C 
ENDROOT
BRANCH   2   3
HETATM    3  C6  UNL     1     -34.218  17.573   0.025  1.00 20.00     0.120 C 
BRANCH   3   4
HETATM    4  C7  UNL     1     -35.347  17.601   1.046  1.00 20.00     0.176 C 
BRANCH   4   5
HETATM    5  O8  UNL     1     -36.575  17.900   0.394  1.00 20.00    -0.400 OA
HETATM    6  H18 UNL     1     -37.284  17.643   1.005  1.00 20.00     0.209 HD
ENDBRANCH   4   5
ENDBRANCH   3   4
ENDBRANCH   2   3
BRANCH   1   7
HETATM    7  C3  UNL     1     -35.103  15.123  -3.131  1.00 20.00     0.060 C 
HETATM    8  C4  UNL     1     -34.259  14.162  -3.531  1.00 20.00    -0.022 C 
HETATM    9  C5  UNL     1     -34.536  13.244  -4.676  1.00 20.00     0.036 C 
ENDBRANCH   1   7
TORSDOF 4
ENDMDL
