MODEL 1
REMARK VINA RESULT:      -4.9      0.000      0.000
REMARK  3 active torsions:
REMARK  status: ('A' for Active; 'I' for Inactive)
REMARK    1  A    between atoms: C4_4  and  C6_6 
REMARK    2  A    between atoms: C6_6  and  C7_7 
REMARK    3  A    between atoms: C7_7  and  C8_8 
ROOT
HETATM    1  C1  UNL     1     -35.477   5.093   4.448  1.00 20.00     0.029 C 
HETATM    2  C2  UNL     1     -34.486   5.239   3.322  1.00 20.00     0.034 C 
HETATM    3  C3  UNL     1     -34.615   5.371   5.662  1.00 20.00     0.168 C 
HETATM    4  C4  UNL     1     -33.639   6.401   3.812  1.00 20.00     0.121 C 
HETATM    5  O9  UNL     1     -33.586   6.280   5.244  1.00 20.00    -0.386 OA
ENDROOT
BRANCH   4   6
HETATM    6  C6  UNL     1     -32.233   6.408   3.244  1.00 20.00     0.033 C 
BRANCH   6   7
HETATM    7  C7  UNL     1     -31.736   7.837   3.003  1.00 20.00     0.022 C 
BRANCH   7   8
HETATM    8  C8  UNL     1     -32.420   8.527   1.815  1.00 20.00     0.078 C 
HETATM    9  C5  UNL     1     -31.543   8.472   0.569  1.00 20.00     0.026 C 
HETATM   10 CL10 UNL     1     -32.786  10.238   2.189  1.00 20.00    -0.125 Cl
ENDBRANCH   7   8
ENDBRANCH   6   7
ENDBRANCH   4   6
TORSDOF 3
ENDMDL
MODEL 2
REMARK VINA RESULT:      -4.7      1.395      1.856
REMARK  3 active torsions:
REMARK  status: ('A' for Active; 'I' for Inactive)
REMARK    1  A    between atoms: C4_4  and  C6_6 
REMARK    2  A    between atoms: C6_6  and  C7_7 
REMARK    3  A    between atoms: C7_7  and  C8_8 
ROOT
HETATM    1  C1  UNL     1     -35.163   4.524   6.181  1.00 20.00     0.029 C 
HETATM    2  C2  UNL     1     -34.971   4.205   4.720  1.00 20.00     0.034 C 
HETATM    3  C3  UNL     1     -34.191   5.669   6.381  1.00 20.00     0.168 C 
HETATM    4  C4  UNL     1     -34.786   5.592   4.129  1.00 20.00     0.121 C 
HETATM    5  O9  UNL     1     -34.102   6.365   5.130  1.00 20.00    -0.386 OA
ENDROOT
BRANCH   4   6
HETATM    6  C6  UNL     1     -33.989   5.598   2.839  1.00 20.00     0.033 C 
BRANCH   6   7
HETATM    7  C7  UNL     1     -32.533   6.007   3.086  1.00 20.00     0.022 C 
BRANCH   7   8
HETATM    8  C8  UNL     1     -32.323   7.527   3.101  1.00 20.00     0.078 C 
HETATM    9  C5  UNL     1     -31.966   8.047   1.713  1.00 20.00     0.026 C 
HETATM   10 CL10 UNL     1     -31.020   7.983   4.240  1.00 20.00    -0.125 Cl
ENDBRANCH   7   8
ENDBRANCH   6   7
ENDBRANCH   4   6
TORSDOF 3
ENDMDL
MODEL 3
REMARK VINA RESULT:      -4.2     10.422     11.116
REMARK  3 active torsions:
REMARK  status: ('A' for Active; 'I' for Inactive)
REMARK    1  A    between atoms: C4_4  and  C6_6 
REMARK    2  A    between atoms: C6_6  and  C7_7 
REMARK    3  A    between atoms: C7_7  and  C8_8 
ROOT
HETATM    1  C1  UNL     1     -34.785  13.289  -4.611  1.00 20.00     0.029 C 
HETATM    2  C2  UNL     1     -33.704  13.912  -3.765  1.00 20.00     0.034 C 
HETATM    3  C3  UNL     1     -36.010  14.066  -4.177  1.00 20.00     0.168 C 
HETATM    4  C4  UNL     1     -34.124  15.373  -3.765  1.00 20.00     0.121 C 
HETATM    5  O9  UNL     1     -35.561  15.375  -3.797  1.00 20.00    -0.386 OA
ENDROOT
BRANCH   4   6
HETATM    6  C6  UNL     1     -33.634  16.144  -2.556  1.00 20.00     0.033 C 
BRANCH   6   7
HETATM    7  C7  UNL     1     -34.733  16.277  -1.497  1.00 20.00     0.022 C 
BRANCH   7   8
HETATM    8  C8  UNL     1     -34.648  17.582  -0.694  1.00 20.00     0.078 C 
HETATM    9  C5  UNL     1     -33.219  18.111  -0.654  1.00 20.00     0.026 C 
HETATM   10 CL10 UNL     1     -35.221  17.342   0.984  1.00 20.00    -0.125 Cl
ENDBRANCH   7   8
ENDBRANCH   6   7
ENDBRANCH   4   6
TORSDOF 3
ENDMDL
MODEL 4
REMARK VINA RESULT:      -4.1     11.046     11.649
REMARK  3 active torsions:
REMARK  status: ('A' for Active; 'I' for Inactive)
REMARK    1  A    between atoms: C4_4  and  C6_6 
REMARK    2  A    between atoms: C6_6  and  C7_7 
REMARK    3  A    between atoms: C7_7  and  C8_8 
ROOT
HETATM    1  C1  UNL     1     -34.676  16.975  -0.393  1.00 20.00     0.029 C 
HETATM    2  C2  UNL     1     -34.649  16.162  -1.662  1.00 20.00     0.034 C 
HETATM    3  C3  UNL     1     -33.531  17.942  -0.616  1.00 20.00     0.168 C 
HETATM    4  C4  UNL     1     -34.305  17.223  -2.694  1.00 20.00     0.121 C 
HETATM    5  O9  UNL     1     -33.437  18.158  -2.031  1.00 20.00    -0.386 OA
ENDROOT
BRANCH   4   6
HETATM    6  C6  UNL     1     -33.619  16.669  -3.927  1.00 20.00     0.033 C 
BRANCH   6   7
HETATM    7  C7  UNL     1     -33.320  15.174  -3.774  1.00 20.00     0.022 C 
BRANCH   7   8
HETATM    8  C8  UNL     1     -34.031  14.301  -4.816  1.00 20.00     0.078 C 
HETATM    9  C5  UNL     1     -34.436  15.122  -6.036  1.00 20.00     0.026 C 
HETATM   10 CL10 UNL     1     -35.494  13.538  -4.125  1.00 20.00    -0.125 Cl
ENDBRANCH   7   8
ENDBRANCH   6   7
ENDBRANCH   4   6
TORSDOF 3
ENDMDL
MODEL 5
REMARK VINA RESULT:      -4.0     11.115     11.881
REMARK  3 active torsions:
REMARK  status: ('A' for Active; 'I' for Inactive)
REMARK    1  A    between atoms: C4_4  and  C6_6 
REMARK    2  A    between atoms: C6_6  and  C7_7 
REMARK    3  A    between atoms: C7_7  and  C8_8 
ROOT
HETATM    1  C1  UNL     1     -34.500  16.918  -0.545  1.00 20.00     0.029 C 
HETATM    2  C2  UNL     1     -34.440  16.148  -1.840  1.00 20.00     0.034 C 
HETATM    3  C3  UNL     1     -33.485  18.016  -0.787  1.00 20.00     0.168 C 
HETATM    4  C4  UNL     1     -34.269  17.269  -2.851  1.00 20.00     0.121 C 
HETATM    5  O9  UNL     1     -33.483  18.280  -2.197  1.00 20.00    -0.386 OA
ENDROOT
BRANCH   4   6
HETATM    6  C6  UNL     1     -33.583  16.831  -4.130  1.00 20.00     0.033 C 
BRANCH   6   7
HETATM    7  C7  UNL     1     -33.510  15.304  -4.229  1.00 20.00     0.022 C 
BRANCH   7   8
HETATM    8  C8  UNL     1     -34.611  14.699  -5.110  1.00 20.00     0.078 C 
HETATM    9  C5  UNL     1     -34.753  13.201  -4.862  1.00 20.00     0.026 C 
HETATM   10 CL10 UNL     1     -34.265  14.966  -6.845  1.00 20.00    -0.125 Cl
ENDBRANCH   7   8
ENDBRANCH   6   7
ENDBRANCH   4   6
TORSDOF 3
ENDMDL
MODEL 6
REMARK VINA RESULT:      -4.0      2.277      4.721
REMARK  3 active torsions:
REMARK  status: ('A' for Active; 'I' for Inactive)
REMARK    1  A    between atoms: C4_4  and  C6_6 
REMARK    2  A    between atoms: C6_6  and  C7_7 
REMARK    3  A    between atoms: C7_7  and  C8_8 
ROOT
HETATM    1  C1  UNL     1     -31.979   9.424   0.733  1.00 20.00     0.029 C 
HETATM    2  C2  UNL     1     -31.892   7.931   0.925  1.00 20.00     0.034 C 
HETATM    3  C3  UNL     1     -32.886   9.834   1.875  1.00 20.00     0.168 C 
HETATM    4  C4  UNL     1     -31.852   7.823   2.440  1.00 20.00     0.121 C 
HETATM    5  O9  UNL     1     -32.668   8.897   2.939  1.00 20.00    -0.386 OA
ENDROOT
BRANCH   4   6
HETATM    6  C6  UNL     1     -32.368   6.498   2.966  1.00 20.00     0.033 C 
BRANCH   6   7
HETATM    7  C7  UNL     1     -33.727   6.661   3.654  1.00 20.00     0.022 C 
BRANCH   7   8
HETATM    8  C8  UNL     1     -33.944   5.679   4.812  1.00 20.00     0.078 C 
HETATM    9  C5  UNL     1     -35.231   4.883   4.625  1.00 20.00     0.026 C 
HETATM   10 CL10 UNL     1     -34.022   6.540   6.378  1.00 20.00    -0.125 Cl
ENDBRANCH   7   8
ENDBRANCH   6   7
ENDBRANCH   4   6
TORSDOF 3
ENDMDL
MODEL 7
REMARK VINA RESULT:      -3.8     10.708     12.096
REMARK  3 active torsions:
REMARK  status: ('A' for Active; 'I' for Inactive)
REMARK    1  A    between atoms: C4_4  and  C6_6 
REMARK    2  A    between atoms: C6_6  and  C7_7 
REMARK    3  A    between atoms: C7_7  and  C8_8 
ROOT
HETATM    1  C1  UNL     1     -34.805  14.909  -7.183  1.00 20.00     0.029 C 
HETATM    2  C2  UNL     1     -35.222  14.128  -5.962  1.00 20.00     0.034 C 
HETATM    3  C3  UNL     1     -34.194  16.150  -6.567  1.00 20.00     0.168 C 
HETATM    4  C4  UNL     1     -34.074  14.419  -5.010  1.00 20.00     0.121 C 
HETATM    5  O9  UNL     1     -33.646  15.760  -5.299  1.00 20.00    -0.386 OA
ENDROOT
BRANCH   4   6
HETATM    6  C6  UNL     1     -34.457  14.303  -3.548  1.00 20.00     0.033 C 
BRANCH   6   7
HETATM    7  C7  UNL     1     -33.992  15.527  -2.752  1.00 20.00     0.022 C 
BRANCH   7   8
HETATM    8  C8  UNL     1     -35.142  16.281  -2.070  1.00 20.00     0.078 C 
HETATM    9  C5  UNL     1     -35.537  17.520  -2.866  1.00 20.00     0.026 C 
HETATM   10 CL10 UNL     1     -34.689  16.781  -0.413  1.00 20.00    -0.125 Cl
ENDBRANCH   7   8
ENDBRANCH   6   7
ENDBRANCH   4   6
TORSDOF 3
ENDMDL
MODEL 8
REMARK VINA RESULT:      -3.8     10.791     12.726
REMARK  3 active torsions:
REMARK  status: ('A' for Active; 'I' for Inactive)
REMARK    1  A    between atoms: C4_4  and  C6_6 
REMARK    2  A    between atoms: C6_6  and  C7_7 
REMARK    3  A    between atoms: C7_7  and  C8_8 
ROOT
HETATM    1  C1  UNL     1     -35.912  14.785  -7.489  1.00 20.00     0.029 C 
HETATM    2  C2  UNL     1     -34.473  14.951  -7.070  1.00 20.00     0.034 C 
HETATM    3  C3  UNL     1     -36.652  15.389  -6.314  1.00 20.00     0.168 C 
HETATM    4  C4  UNL     1     -34.511  16.308  -6.388  1.00 20.00     0.121 C 
HETATM    5  O9  UNL     1     -35.802  16.405  -5.762  1.00 20.00    -0.386 OA
ENDROOT
BRANCH   4   6
HETATM    6  C6  UNL     1     -33.420  16.496  -5.352  1.00 20.00     0.033 C 
BRANCH   6   7
HETATM    7  C7  UNL     1     -34.006  16.884  -3.991  1.00 20.00     0.022 C 
BRANCH   7   8
HETATM    8  C8  UNL     1     -33.739  15.843  -2.895  1.00 20.00     0.078 C 
HETATM    9  C5  UNL     1     -34.252  14.467  -3.308  1.00 20.00     0.026 C 
HETATM   10 CL10 UNL     1     -34.524  16.313  -1.358  1.00 20.00    -0.125 Cl
ENDBRANCH   7   8
ENDBRANCH   6   7
ENDBRANCH   4   6
TORSDOF 3
ENDMDL
MODEL 9
REMARK VINA RESULT:      -3.8     10.536     11.622
REMARK  3 active torsions:
REMARK  status: ('A' for Active; 'I' for Inactive)
REMARK    1  A    between atoms: C4_4  and  C6_6 
REMARK    2  A    between atoms: C6_6  and  C7_7 
REMARK    3  A    between atoms: C7_7  and  C8_8 
ROOT
HETATM    1  C1  UNL     1     -38.556  16.373  -3.741  1.00 20.00     0.029 C 
HETATM    2  C2  UNL     1     -37.108  16.267  -4.150  1.00 20.00     0.034 C 
HETATM    3  C3  UNL     1     -39.053  14.963  -3.981  1.00 20.00     0.168 C 
HETATM    4  C4  UNL     1     -36.749  14.883  -3.635  1.00 20.00     0.121 C 
HETATM    5  O9  UNL     1     -37.937  14.085  -3.773  1.00 20.00    -0.386 OA
ENDROOT
BRANCH   4   6
HETATM    6  C6  UNL     1     -35.604  14.235  -4.388  1.00 20.00     0.033 C 
BRANCH   6   7
HETATM    7  C7  UNL     1     -34.364  14.090  -3.500  1.00 20.00     0.022 C 
BRANCH   7   8
HETATM    8  C8  UNL     1     -33.411  15.289  -3.587  1.00 20.00     0.078 C 
HETATM    9  C5  UNL     1     -33.705  16.307  -2.490  1.00 20.00     0.026 C 
HETATM   10 CL10 UNL     1     -33.542  16.100  -5.176  1.00 20.00    -0.125 Cl
ENDBRANCH   7   8
ENDBRANCH   6   7
ENDBRANCH   4   6
TORSDOF 3
ENDMDL
