MODEL 1
REMARK VINA RESULT:      -4.9      0.000      0.000
REMARK  3 active torsions:
REMARK  status: ('A' for Active; 'I' for Inactive)
REMARK    1  A    between atoms: C4_4  and  C6_6 
REMARK    2  A    between atoms: C6_6  and  C7_7 
REMARK    3  A    between atoms: C7_7  and  C8_8 
ROOT
HETATM    1  C1  UNL     1     -35.446   5.091   4.444  1.00 20.00     0.029 C 
HETATM    2  C2  UNL     1     -34.453   5.246   3.321  1.00 20.00     0.034 C 
HETATM    3  C3  UNL     1     -34.591   5.379   5.660  1.00 20.00     0.168 C 
HETATM    4  C4  UNL     1     -33.619   6.416   3.813  1.00 20.00     0.121 C 
HETATM    5  O9  UNL     1     -33.570   6.298   5.245  1.00 20.00    -0.386 OA
ENDROOT
BRANCH   4   6
HETATM    6  C6  UNL     1     -32.212   6.436   3.249  1.00 20.00     0.033 C 
BRANCH   6   7
HETATM    7  C7  UNL     1     -31.733   7.870   2.995  1.00 20.00     0.022 C 
BRANCH   7   8
HETATM    8  C8  UNL     1     -32.392   8.522   1.773  1.00 20.00     0.078 C 
HETATM    9  C5  UNL     1     -32.711   9.989   2.039  1.00 20.00     0.026 C 
HETATM   10 CL10 UNL     1     -31.331   8.414   0.336  1.00 20.00    -0.125 Cl
ENDBRANCH   7   8
ENDBRANCH   6   7
ENDBRANCH   4   6
TORSDOF 3
ENDMDL
MODEL 2
REMARK VINA RESULT:      -4.7      1.317      1.877
REMARK  3 active torsions:
REMARK  status: ('A' for Active; 'I' for Inactive)
REMARK    1  A    between atoms: C4_4  and  C6_6 
REMARK    2  A    between atoms: C6_6  and  C7_7 
REMARK    3  A    between atoms: C7_7  and  C8_8 
ROOT
HETATM    1  C1  UNL     1     -35.150   4.318   6.125  1.00 20.00     0.029 C 
HETATM    2  C2  UNL     1     -34.897   4.063   4.661  1.00 20.00     0.034 C 
HETATM    3  C3  UNL     1     -34.329   5.567   6.371  1.00 20.00     0.168 C 
HETATM    4  C4  UNL     1     -34.874   5.477   4.107  1.00 20.00     0.121 C 
HETATM    5  O9  UNL     1     -34.306   6.302   5.139  1.00 20.00    -0.386 OA
ENDROOT
BRANCH   4   6
HETATM    6  C6  UNL     1     -34.062   5.615   2.833  1.00 20.00     0.033 C 
BRANCH   6   7
HETATM    7  C7  UNL     1     -32.602   5.967   3.139  1.00 20.00     0.022 C 
BRANCH   7   8
HETATM    8  C8  UNL     1     -32.328   7.477   3.138  1.00 20.00     0.078 C 
HETATM    9  C5  UNL     1     -31.173   7.825   4.071  1.00 20.00     0.026 C 
HETATM   10 CL10 UNL     1     -31.936   8.059   1.492  1.00 20.00    -0.125 Cl
ENDBRANCH   7   8
ENDBRANCH   6   7
ENDBRANCH   4   6
TORSDOF 3
ENDMDL
MODEL 3
REMARK VINA RESULT:      -4.2     10.841     11.589
REMARK  3 active torsions:
REMARK  status: ('A' for Active; 'I' for Inactive)
REMARK    1  A    between atoms: C4_4  and  C6_6 
REMARK    2  A    between atoms: C6_6  and  C7_7 
REMARK    3  A    between atoms: C7_7  and  C8_8 
ROOT
HETATM    1  C1  UNL     1     -34.698  17.050  -0.355  1.00 20.00     0.029 C 
HETATM    2  C2  UNL     1     -34.676  16.175  -1.582  1.00 20.00     0.034 C 
HETATM    3  C3  UNL     1     -33.529  17.978  -0.612  1.00 20.00     0.168 C 
HETATM    4  C4  UNL     1     -34.296  17.175  -2.661  1.00 20.00     0.121 C 
HETATM    5  O9  UNL     1     -33.413  18.122  -2.034  1.00 20.00    -0.386 OA
ENDROOT
BRANCH   4   6
HETATM    6  C6  UNL     1     -33.609  16.544  -3.856  1.00 20.00     0.033 C 
BRANCH   6   7
HETATM    7  C7  UNL     1     -33.356  15.049  -3.628  1.00 20.00     0.022 C 
BRANCH   7   8
HETATM    8  C8  UNL     1     -33.993  14.155  -4.700  1.00 20.00     0.078 C 
HETATM    9  C5  UNL     1     -35.277  13.513  -4.186  1.00 20.00     0.026 C 
HETATM   10 CL10 UNL     1     -34.368  15.090  -6.178  1.00 20.00    -0.125 Cl
ENDBRANCH   7   8
ENDBRANCH   6   7
ENDBRANCH   4   6
TORSDOF 3
ENDMDL
MODEL 4
REMARK VINA RESULT:      -4.2     10.644     11.447
REMARK  3 active torsions:
REMARK  status: ('A' for Active; 'I' for Inactive)
REMARK    1  A    between atoms: C4_4  and  C6_6 
REMARK    2  A    between atoms: C6_6  and  C7_7 
REMARK    3  A    between atoms: C7_7  and  C8_8 
ROOT
HETATM    1  C1  UNL     1     -34.592  13.205  -4.864  1.00 20.00     0.029 C 
HETATM    2  C2  UNL     1     -34.380  13.831  -3.509  1.00 20.00     0.034 C 
HETATM    3  C3  UNL     1     -34.685  14.422  -5.760  1.00 20.00     0.168 C 
HETATM    4  C4  UNL     1     -33.475  15.001  -3.854  1.00 20.00     0.121 C 
HETATM    5  O9  UNL     1     -33.877  15.445  -5.161  1.00 20.00    -0.386 OA
ENDROOT
BRANCH   4   6
HETATM    6  C6  UNL     1     -33.568  16.149  -2.869  1.00 20.00     0.033 C 
BRANCH   6   7
HETATM    7  C7  UNL     1     -34.752  15.967  -1.912  1.00 20.00     0.022 C 
BRANCH   7   8
HETATM    8  C8  UNL     1     -34.720  16.930  -0.717  1.00 20.00     0.078 C 
HETATM    9  C5  UNL     1     -33.446  17.767  -0.720  1.00 20.00     0.026 C 
HETATM   10 CL10 UNL     1     -36.132  18.030  -0.740  1.00 20.00    -0.125 Cl
ENDBRANCH   7   8
ENDBRANCH   6   7
ENDBRANCH   4   6
TORSDOF 3
ENDMDL
MODEL 5
REMARK VINA RESULT:      -4.0     10.630     11.749
REMARK  3 active torsions:
REMARK  status: ('A' for Active; 'I' for Inactive)
REMARK    1  A    between atoms: C4_4  and  C6_6 
REMARK    2  A    between atoms: C6_6  and  C7_7 
REMARK    3  A    between atoms: C7_7  and  C8_8 
ROOT
HETATM    1  C1  UNL     1     -34.178  16.493  -2.209  1.00 20.00     0.029 C 
HETATM    2  C2  UNL     1     -33.372  15.567  -3.084  1.00 20.00     0.034 C 
HETATM    3  C3  UNL     1     -35.576  16.306  -2.759  1.00 20.00     0.168 C 
HETATM    4  C4  UNL     1     -34.330  14.400  -3.252  1.00 20.00     0.121 C 
HETATM    5  O9  UNL     1     -35.652  14.965  -3.264  1.00 20.00    -0.386 OA
ENDROOT
BRANCH   4   6
HETATM    6  C6  UNL     1     -34.098  13.605  -4.522  1.00 20.00     0.033 C 
BRANCH   6   7
HETATM    7  C7  UNL     1     -35.197  13.874  -5.556  1.00 20.00     0.022 C 
BRANCH   7   8
HETATM    8  C8  UNL     1     -34.687  14.596  -6.810  1.00 20.00     0.078 C 
HETATM    9  C5  UNL     1     -35.734  14.578  -7.918  1.00 20.00     0.026 C 
HETATM   10 CL10 UNL     1     -34.262  16.296  -6.446  1.00 20.00    -0.125 Cl
ENDBRANCH   7   8
ENDBRANCH   6   7
ENDBRANCH   4   6
TORSDOF 3
ENDMDL
MODEL 6
REMARK VINA RESULT:      -3.9     10.447     11.781
REMARK  3 active torsions:
REMARK  status: ('A' for Active; 'I' for Inactive)
REMARK    1  A    between atoms: C4_4  and  C6_6 
REMARK    2  A    between atoms: C6_6  and  C7_7 
REMARK    3  A    between atoms: C7_7  and  C8_8 
ROOT
HETATM    1  C1  UNL     1     -36.721  15.085  -6.150  1.00 20.00     0.029 C 
HETATM    2  C2  UNL     1     -36.456  14.770  -4.700  1.00 20.00     0.034 C 
HETATM    3  C3  UNL     1     -35.319  15.164  -6.715  1.00 20.00     0.168 C 
HETATM    4  C4  UNL     1     -35.270  13.826  -4.808  1.00 20.00     0.121 C 
HETATM    5  O9  UNL     1     -34.504  14.274  -5.939  1.00 20.00    -0.386 OA
ENDROOT
BRANCH   4   6
HETATM    6  C6  UNL     1     -34.397  13.809  -3.568  1.00 20.00     0.033 C 
BRANCH   6   7
HETATM    7  C7  UNL     1     -33.200  14.756  -3.716  1.00 20.00     0.022 C 
BRANCH   7   8
HETATM    8  C8  UNL     1     -33.397  16.099  -3.002  1.00 20.00     0.078 C 
HETATM    9  C5  UNL     1     -33.749  17.202  -3.994  1.00 20.00     0.026 C 
HETATM   10 CL10 UNL     1     -34.696  15.991  -1.775  1.00 20.00    -0.125 Cl
ENDBRANCH   7   8
ENDBRANCH   6   7
ENDBRANCH   4   6
TORSDOF 3
ENDMDL
MODEL 7
REMARK VINA RESULT:      -3.9     10.919     12.007
REMARK  3 active torsions:
REMARK  status: ('A' for Active; 'I' for Inactive)
REMARK    1  A    between atoms: C4_4  and  C6_6 
REMARK    2  A    between atoms: C6_6  and  C7_7 
REMARK    3  A    between atoms: C7_7  and  C8_8 
ROOT
HETATM    1  C1  UNL     1     -34.729  16.787  -0.975  1.00 20.00     0.029 C 
HETATM    2  C2  UNL     1     -34.436  15.802  -2.077  1.00 20.00     0.034 C 
HETATM    3  C3  UNL     1     -33.720  17.880  -1.254  1.00 20.00     0.168 C 
HETATM    4  C4  UNL     1     -34.130  16.731  -3.239  1.00 20.00     0.121 C 
HETATM    5  O9  UNL     1     -33.491  17.887  -2.671  1.00 20.00    -0.386 OA
ENDROOT
BRANCH   4   6
HETATM    6  C6  UNL     1     -33.230  16.109  -4.290  1.00 20.00     0.033 C 
BRANCH   6   7
HETATM    7  C7  UNL     1     -33.924  16.050  -5.655  1.00 20.00     0.022 C 
BRANCH   7   8
HETATM    8  C8  UNL     1     -34.921  14.890  -5.779  1.00 20.00     0.078 C 
HETATM    9  C5  UNL     1     -35.146  14.514  -7.240  1.00 20.00     0.026 C 
HETATM   10 CL10 UNL     1     -34.343  13.447  -4.895  1.00 20.00    -0.125 Cl
ENDBRANCH   7   8
ENDBRANCH   6   7
ENDBRANCH   4   6
TORSDOF 3
ENDMDL
MODEL 8
REMARK VINA RESULT:      -3.9     10.479     11.539
REMARK  3 active torsions:
REMARK  status: ('A' for Active; 'I' for Inactive)
REMARK    1  A    between atoms: C4_4  and  C6_6 
REMARK    2  A    between atoms: C6_6  and  C7_7 
REMARK    3  A    between atoms: C7_7  and  C8_8 
ROOT
HETATM    1  C1  UNL     1     -38.410  16.330  -3.488  1.00 20.00     0.029 C 
HETATM    2  C2  UNL     1     -36.969  16.309  -3.930  1.00 20.00     0.034 C 
HETATM    3  C3  UNL     1     -38.876  14.942  -3.873  1.00 20.00     0.168 C 
HETATM    4  C4  UNL     1     -36.565  14.888  -3.578  1.00 20.00     0.121 C 
HETATM    5  O9  UNL     1     -37.734  14.077  -3.782  1.00 20.00    -0.386 OA
ENDROOT
BRANCH   4   6
HETATM    6  C6  UNL     1     -35.418  14.359  -4.418  1.00 20.00     0.033 C 
BRANCH   6   7
HETATM    7  C7  UNL     1     -34.163  14.133  -3.568  1.00 20.00     0.022 C 
BRANCH   7   8
HETATM    8  C8  UNL     1     -33.247  15.362  -3.499  1.00 20.00     0.078 C 
HETATM    9  C5  UNL     1     -33.272  16.139  -4.810  1.00 20.00     0.026 C 
HETATM   10 CL10 UNL     1     -33.739  16.456  -2.170  1.00 20.00    -0.125 Cl
ENDBRANCH   7   8
ENDBRANCH   6   7
ENDBRANCH   4   6
TORSDOF 3
ENDMDL
MODEL 9
REMARK VINA RESULT:      -3.9     11.022     11.466
REMARK  3 active torsions:
REMARK  status: ('A' for Active; 'I' for Inactive)
REMARK    1  A    between atoms: C4_4  and  C6_6 
REMARK    2  A    between atoms: C6_6  and  C7_7 
REMARK    3  A    between atoms: C7_7  and  C8_8 
ROOT
HETATM    1  C1  UNL     1     -35.276  14.011  -4.631  1.00 20.00     0.029 C 
HETATM    2  C2  UNL     1     -35.365  14.801  -3.350  1.00 20.00     0.034 C 
HETATM    3  C3  UNL     1     -34.308  14.843  -5.445  1.00 20.00     0.168 C 
HETATM    4  C4  UNL     1     -33.931  15.275  -3.186  1.00 20.00     0.121 C 
HETATM    5  O9  UNL     1     -33.426  15.490  -4.516  1.00 20.00    -0.386 OA
ENDROOT
BRANCH   4   6
HETATM    6  C6  UNL     1     -33.805  16.550  -2.375  1.00 20.00     0.033 C 
BRANCH   6   7
HETATM    7  C7  UNL     1     -34.628  16.474  -1.085  1.00 20.00     0.022 C 
BRANCH   7   8
HETATM    8  C8  UNL     1     -34.585  17.767  -0.260  1.00 20.00     0.078 C 
HETATM    9  C5  UNL     1     -35.173  17.550   1.130  1.00 20.00     0.026 C 
HETATM   10 CL10 UNL     1     -32.907  18.366  -0.090  1.00 20.00    -0.125 Cl
ENDBRANCH   7   8
ENDBRANCH   6   7
ENDBRANCH   4   6
TORSDOF 3
ENDMDL
