MODEL 1
REMARK VINA RESULT:      -4.6      0.000      0.000
REMARK  6 active torsions:
REMARK  status: ('A' for Active; 'I' for Inactive)
REMARK    1  A    between atoms: C1_1  and  C6_6 
REMARK    2  A    between atoms: C1_1  and  C7_7 
REMARK    3  A    between atoms: C6_6  and  C10_10 
REMARK    4  A    between atoms: C7_7  and  C11_11 
REMARK    5  A    between atoms: C8_8  and  C9_9 
REMARK    6  A    between atoms: C9_9  and  C11_11 
ROOT
HETATM    1  C1  UNL     1     -35.031  13.740  -4.355  1.00 20.00     0.127 C 
HETATM    2  O12 UNL     1     -35.058  12.511  -4.428  1.00 20.00    -0.298 OA
ENDROOT
BRANCH   1   3
HETATM    3  C6  UNL     1     -35.919  14.588  -5.246  1.00 20.00     0.082 C 
BRANCH   3   4
HETATM    4  C10 UNL     1     -35.532  14.505  -6.728  1.00 20.00    -0.016 C 
HETATM    5  C3  UNL     1     -34.287  15.340  -7.031  1.00 20.00     0.010 C 
HETATM    6  C4  UNL     1     -36.699  14.975  -7.599  1.00 20.00     0.010 C 
ENDBRANCH   3   4
ENDBRANCH   1   3
BRANCH   1   7
HETATM    7  C7  UNL     1     -34.149  14.474  -3.354  1.00 20.00     0.082 C 
BRANCH   7   8
HETATM    8  C11 UNL     1     -34.612  15.914  -3.075  1.00 20.00    -0.012 C 
HETATM    9  C5  UNL     1     -33.614  16.922  -3.662  1.00 20.00     0.010 C 
BRANCH   8  10
HETATM   10  C9  UNL     1     -34.769  16.187  -1.564  1.00 20.00     0.004 C 
BRANCH  10  11
HETATM   11  C8  UNL     1     -33.887  17.328  -1.052  1.00 20.00    -0.004 C 
HETATM   12  C2  UNL     1     -34.353  17.820   0.311  1.00 20.00     0.005 C 
ENDBRANCH  10  11
ENDBRANCH   8  10
ENDBRANCH   7   8
ENDBRANCH   1   7
TORSDOF 6
ENDMDL
MODEL 2
REMARK VINA RESULT:      -4.5     10.605     12.310
REMARK  6 active torsions:
REMARK  status: ('A' for Active; 'I' for Inactive)
REMARK    1  A    between atoms: C1_1  and  C6_6 
REMARK    2  A    between atoms: C1_1  and  C7_7 
REMARK    3  A    between atoms: C6_6  and  C10_10 
REMARK    4  A    between atoms: C7_7  and  C11_11 
REMARK    5  A    between atoms: C8_8  and  C9_9 
REMARK    6  A    between atoms: C9_9  and  C11_11 
ROOT
HETATM    1  C1  UNL     1     -33.654   5.732   3.079  1.00 20.00     0.127 C 
HETATM    2  O12 UNL     1     -34.158   5.285   2.049  1.00 20.00    -0.298 OA
ENDROOT
BRANCH   1   3
HETATM    3  C6  UNL     1     -34.528   6.191   4.232  1.00 20.00     0.082 C 
BRANCH   3   4
HETATM    4  C10 UNL     1     -34.095   5.602   5.580  1.00 20.00    -0.016 C 
HETATM    5  C3  UNL     1     -35.063   4.516   6.055  1.00 20.00     0.010 C 
HETATM    6  C4  UNL     1     -34.003   6.711   6.630  1.00 20.00     0.010 C 
ENDBRANCH   3   4
ENDBRANCH   1   3
BRANCH   1   7
HETATM    7  C7  UNL     1     -32.146   5.813   3.278  1.00 20.00     0.082 C 
BRANCH   7   8
HETATM    8  C11 UNL     1     -31.574   7.222   3.041  1.00 20.00    -0.012 C 
HETATM    9  C5  UNL     1     -31.325   7.930   4.381  1.00 20.00     0.010 C 
BRANCH   8  10
HETATM   10  C9  UNL     1     -32.517   8.090   2.183  1.00 20.00     0.004 C 
BRANCH  10  11
HETATM   11  C8  UNL     1     -31.809   8.806   1.029  1.00 20.00    -0.004 C 
HETATM   12  C2  UNL     1     -32.777   9.126  -0.101  1.00 20.00     0.005 C 
ENDBRANCH  10  11
ENDBRANCH   8  10
ENDBRANCH   7   8
ENDBRANCH   1   7
TORSDOF 6
ENDMDL
MODEL 3
REMARK VINA RESULT:      -4.5      1.415      2.684
REMARK  6 active torsions:
REMARK  status: ('A' for Active; 'I' for Inactive)
REMARK    1  A    between atoms: C1_1  and  C6_6 
REMARK    2  A    between atoms: C1_1  and  C7_7 
REMARK    3  A    between atoms: C6_6  and  C10_10 
REMARK    4  A    between atoms: C7_7  and  C11_11 
REMARK    5  A    between atoms: C8_8  and  C9_9 
REMARK    6  A    between atoms: C9_9  and  C11_11 
ROOT
HETATM    1  C1  UNL     1     -36.662  15.218  -4.186  1.00 20.00     0.127 C 
HETATM    2  O12 UNL     1     -37.123  14.147  -3.790  1.00 20.00    -0.298 OA
ENDROOT
BRANCH   1   3
HETATM    3  C6  UNL     1     -36.684  15.571  -5.662  1.00 20.00     0.082 C 
BRANCH   3   4
HETATM    4  C10 UNL     1     -35.331  15.349  -6.349  1.00 20.00    -0.016 C 
HETATM    5  C3  UNL     1     -34.707  16.670  -6.802  1.00 20.00     0.010 C 
HETATM    6  C4  UNL     1     -35.503  14.416  -7.550  1.00 20.00     0.010 C 
ENDBRANCH   3   4
ENDBRANCH   1   3
BRANCH   1   7
HETATM    7  C7  UNL     1     -36.089  16.258  -3.233  1.00 20.00     0.082 C 
BRANCH   7   8
HETATM    8  C11 UNL     1     -34.801  15.797  -2.530  1.00 20.00    -0.012 C 
HETATM    9  C5  UNL     1     -34.705  16.417  -1.129  1.00 20.00     0.010 C 
BRANCH   8  10
HETATM   10  C9  UNL     1     -33.539  16.173  -3.333  1.00 20.00     0.004 C 
BRANCH  10  11
HETATM   11  C8  UNL     1     -32.673  14.970  -3.714  1.00 20.00    -0.004 C 
HETATM   12  C2  UNL     1     -33.478  13.678  -3.693  1.00 20.00     0.005 C 
ENDBRANCH  10  11
ENDBRANCH   8  10
ENDBRANCH   7   8
ENDBRANCH   1   7
TORSDOF 6
ENDMDL
MODEL 4
REMARK VINA RESULT:      -4.4      1.133      4.738
REMARK  6 active torsions:
REMARK  status: ('A' for Active; 'I' for Inactive)
REMARK    1  A    between atoms: C1_1  and  C6_6 
REMARK    2  A    between atoms: C1_1  and  C7_7 
REMARK    3  A    between atoms: C6_6  and  C10_10 
REMARK    4  A    between atoms: C7_7  and  C11_11 
REMARK    5  A    between atoms: C8_8  and  C9_9 
REMARK    6  A    between atoms: C9_9  and  C11_11 
ROOT
HETATM    1  C1  UNL     1     -34.471  14.243  -3.496  1.00 20.00     0.127 C 
HETATM    2  O12 UNL     1     -33.764  13.237  -3.559  1.00 20.00    -0.298 OA
ENDROOT
BRANCH   1   3
HETATM    3  C6  UNL     1     -33.917  15.546  -2.947  1.00 20.00     0.082 C 
BRANCH   3   4
HETATM    4  C10 UNL     1     -34.982  16.399  -2.248  1.00 20.00    -0.016 C 
HETATM    5  C3  UNL     1     -35.169  17.747  -2.946  1.00 20.00     0.010 C 
HETATM    6  C4  UNL     1     -34.596  16.620  -0.784  1.00 20.00     0.010 C 
ENDBRANCH   3   4
ENDBRANCH   1   3
BRANCH   1   7
HETATM    7  C7  UNL     1     -35.909  14.257  -3.996  1.00 20.00     0.082 C 
BRANCH   7   8
HETATM    8  C11 UNL     1     -36.091  15.034  -5.311  1.00 20.00    -0.012 C 
HETATM    9  C5  UNL     1     -37.582  15.251  -5.603  1.00 20.00     0.010 C 
BRANCH   8  10
HETATM   10  C9  UNL     1     -35.447  14.301  -6.507  1.00 20.00     0.004 C 
BRANCH  10  11
HETATM   11  C8  UNL     1     -34.328  15.096  -7.184  1.00 20.00    -0.004 C 
HETATM   12  C2  UNL     1     -34.179  16.479  -6.566  1.00 20.00     0.005 C 
ENDBRANCH  10  11
ENDBRANCH   8  10
ENDBRANCH   7   8
ENDBRANCH   1   7
TORSDOF 6
ENDMDL
MODEL 5
REMARK VINA RESULT:      -4.4     10.630     11.910
REMARK  6 active torsions:
REMARK  status: ('A' for Active; 'I' for Inactive)
REMARK    1  A    between atoms: C1_1  and  C6_6 
REMARK    2  A    between atoms: C1_1  and  C7_7 
REMARK    3  A    between atoms: C6_6  and  C10_10 
REMARK    4  A    between atoms: C7_7  and  C11_11 
REMARK    5  A    between atoms: C8_8  and  C9_9 
REMARK    6  A    between atoms: C9_9  and  C11_11 
ROOT
HETATM    1  C1  UNL     1     -32.441   6.629   3.161  1.00 20.00     0.127 C 
HETATM    2  O12 UNL     1     -31.880   5.548   2.979  1.00 20.00    -0.298 OA
ENDROOT
BRANCH   1   3
HETATM    3  C6  UNL     1     -31.744   7.932   2.812  1.00 20.00     0.082 C 
BRANCH   3   4
HETATM    4  C10 UNL     1     -32.360   8.629   1.593  1.00 20.00    -0.016 C 
HETATM    5  C3  UNL     1     -31.421   8.584   0.387  1.00 20.00     0.010 C 
HETATM    6  C4  UNL     1     -32.694  10.082   1.938  1.00 20.00     0.010 C 
ENDBRANCH   3   4
ENDBRANCH   1   3
BRANCH   1   7
HETATM    7  C7  UNL     1     -33.862   6.726   3.700  1.00 20.00     0.082 C 
BRANCH   7   8
HETATM    8  C11 UNL     1     -34.519   5.355   3.939  1.00 20.00    -0.012 C 
HETATM    9  C5  UNL     1     -36.040   5.452   3.762  1.00 20.00     0.010 C 
BRANCH   8  10
HETATM   10  C9  UNL     1     -34.212   4.806   5.347  1.00 20.00     0.004 C 
BRANCH  10  11
HETATM   11  C8  UNL     1     -34.697   5.716   6.479  1.00 20.00    -0.004 C 
HETATM   12  C2  UNL     1     -33.725   6.861   6.725  1.00 20.00     0.005 C 
ENDBRANCH  10  11
ENDBRANCH   8  10
ENDBRANCH   7   8
ENDBRANCH   1   7
TORSDOF 6
ENDMDL
MODEL 6
REMARK VINA RESULT:      -4.4      1.056      1.538
REMARK  6 active torsions:
REMARK  status: ('A' for Active; 'I' for Inactive)
REMARK    1  A    between atoms: C1_1  and  C6_6 
REMARK    2  A    between atoms: C1_1  and  C7_7 
REMARK    3  A    between atoms: C6_6  and  C10_10 
REMARK    4  A    between atoms: C7_7  and  C11_11 
REMARK    5  A    between atoms: C8_8  and  C9_9 
REMARK    6  A    between atoms: C9_9  and  C11_11 
ROOT
HETATM    1  C1  UNL     1     -34.243  13.986  -4.074  1.00 20.00     0.127 C 
HETATM    2  O12 UNL     1     -33.883  13.042  -3.371  1.00 20.00    -0.298 OA
ENDROOT
BRANCH   1   3
HETATM    3  C6  UNL     1     -34.970  13.743  -5.384  1.00 20.00     0.082 C 
BRANCH   3   4
HETATM    4  C10 UNL     1     -35.255  15.036  -6.158  1.00 20.00    -0.016 C 
HETATM    5  C3  UNL     1     -36.757  15.266  -6.333  1.00 20.00     0.010 C 
HETATM    6  C4  UNL     1     -34.573  14.986  -7.527  1.00 20.00     0.010 C 
ENDBRANCH   3   4
ENDBRANCH   1   3
BRANCH   1   7
HETATM    7  C7  UNL     1     -34.024  15.436  -3.662  1.00 20.00     0.082 C 
BRANCH   7   8
HETATM    8  C11 UNL     1     -34.847  15.851  -2.431  1.00 20.00    -0.012 C 
HETATM    9  C5  UNL     1     -36.131  16.572  -2.863  1.00 20.00     0.010 C 
BRANCH   8  10
HETATM   10  C9  UNL     1     -34.047  16.775  -1.488  1.00 20.00     0.004 C 
BRANCH  10  11
HETATM   11  C8  UNL     1     -34.760  17.066  -0.165  1.00 20.00    -0.004 C 
HETATM   12  C2  UNL     1     -34.064  18.178   0.607  1.00 20.00     0.005 C 
ENDBRANCH  10  11
ENDBRANCH   8  10
ENDBRANCH   7   8
ENDBRANCH   1   7
TORSDOF 6
ENDMDL
MODEL 7
REMARK VINA RESULT:      -4.3      1.315      4.244
REMARK  6 active torsions:
REMARK  status: ('A' for Active; 'I' for Inactive)
REMARK    1  A    between atoms: C1_1  and  C6_6 
REMARK    2  A    between atoms: C1_1  and  C7_7 
REMARK    3  A    between atoms: C6_6  and  C10_10 
REMARK    4  A    between atoms: C7_7  and  C11_11 
REMARK    5  A    between atoms: C8_8  and  C9_9 
REMARK    6  A    between atoms: C9_9  and  C11_11 
ROOT
HETATM    1  C1  UNL     1     -35.124  13.707  -4.895  1.00 20.00     0.127 C 
HETATM    2  O12 UNL     1     -34.843  12.561  -4.545  1.00 20.00    -0.298 OA
ENDROOT
BRANCH   1   3
HETATM    3  C6  UNL     1     -35.461  14.770  -3.866  1.00 20.00     0.082 C 
BRANCH   3   4
HETATM    4  C10 UNL     1     -34.320  15.020  -2.871  1.00 20.00    -0.016 C 
HETATM    5  C3  UNL     1     -34.617  16.217  -1.966  1.00 20.00     0.010 C 
HETATM    6  C4  UNL     1     -33.011  15.253  -3.628  1.00 20.00     0.010 C 
ENDBRANCH   3   4
ENDBRANCH   1   3
BRANCH   1   7
HETATM    7  C7  UNL     1     -35.112  14.136  -6.356  1.00 20.00     0.082 C 
BRANCH   7   8
HETATM    8  C11 UNL     1     -35.611  15.574  -6.574  1.00 20.00    -0.012 C 
HETATM    9  C5  UNL     1     -36.808  15.586  -7.535  1.00 20.00     0.010 C 
BRANCH   8  10
HETATM   10  C9  UNL     1     -34.505  16.489  -7.139  1.00 20.00     0.004 C 
BRANCH  10  11
HETATM   11  C8  UNL     1     -34.041  17.569  -6.158  1.00 20.00    -0.004 C 
HETATM   12  C2  UNL     1     -35.212  18.149  -5.378  1.00 20.00     0.005 C 
ENDBRANCH  10  11
ENDBRANCH   8  10
ENDBRANCH   7   8
ENDBRANCH   1   7
TORSDOF 6
ENDMDL
MODEL 8
REMARK VINA RESULT:      -4.3      1.226      2.342
REMARK  6 active torsions:
REMARK  status: ('A' for Active; 'I' for Inactive)
REMARK    1  A    between atoms: C1_1  and  C6_6 
REMARK    2  A    between atoms: C1_1  and  C7_7 
REMARK    3  A    between atoms: C6_6  and  C10_10 
REMARK    4  A    between atoms: C7_7  and  C11_11 
REMARK    5  A    between atoms: C8_8  and  C9_9 
REMARK    6  A    between atoms: C9_9  and  C11_11 
ROOT
HETATM    1  C1  UNL     1     -34.639  13.896  -3.925  1.00 20.00     0.127 C 
HETATM    2  O12 UNL     1     -33.934  13.044  -3.383  1.00 20.00    -0.298 OA
ENDROOT
BRANCH   1   3
HETATM    3  C6  UNL     1     -35.004  13.779  -5.394  1.00 20.00     0.082 C 
BRANCH   3   4
HETATM    4  C10 UNL     1     -35.352  15.129  -6.031  1.00 20.00    -0.016 C 
HETATM    5  C3  UNL     1     -36.591  15.027  -6.922  1.00 20.00     0.010 C 
HETATM    6  C4  UNL     1     -34.164  15.642  -6.849  1.00 20.00     0.010 C 
ENDBRANCH   3   4
ENDBRANCH   1   3
BRANCH   1   7
HETATM    7  C7  UNL     1     -35.216  15.079  -3.160  1.00 20.00     0.082 C 
BRANCH   7   8
HETATM    8  C11 UNL     1     -34.142  15.965  -2.505  1.00 20.00    -0.012 C 
HETATM    9  C5  UNL     1     -34.640  16.499  -1.154  1.00 20.00     0.010 C 
BRANCH   8  10
HETATM   10  C9  UNL     1     -33.752  17.157  -3.403  1.00 20.00     0.004 C 
BRANCH  10  11
HETATM   11  C8  UNL     1     -34.713  18.344  -3.298  1.00 20.00    -0.004 C 
HETATM   12  C2  UNL     1     -35.503  18.533  -4.585  1.00 20.00     0.005 C 
ENDBRANCH  10  11
ENDBRANCH   8  10
ENDBRANCH   7   8
ENDBRANCH   1   7
TORSDOF 6
ENDMDL
MODEL 9
REMARK VINA RESULT:      -4.1      1.778      5.043
REMARK  6 active torsions:
REMARK  status: ('A' for Active; 'I' for Inactive)
REMARK    1  A    between atoms: C1_1  and  C6_6 
REMARK    2  A    between atoms: C1_1  and  C7_7 
REMARK    3  A    between atoms: C6_6  and  C10_10 
REMARK    4  A    between atoms: C7_7  and  C11_11 
REMARK    5  A    between atoms: C8_8  and  C9_9 
REMARK    6  A    between atoms: C9_9  and  C11_11 
ROOT
HETATM    1  C1  UNL     1     -33.997  17.133  -4.437  1.00 20.00     0.127 C 
HETATM    2  O12 UNL     1     -32.937  16.743  -4.928  1.00 20.00    -0.298 OA
ENDROOT
BRANCH   1   3
HETATM    3  C6  UNL     1     -34.005  17.945  -3.155  1.00 20.00     0.082 C 
BRANCH   3   4
HETATM    4  C10 UNL     1     -33.669  17.106  -1.916  1.00 20.00    -0.016 C 
HETATM    5  C3  UNL     1     -34.836  16.203  -1.515  1.00 20.00     0.010 C 
HETATM    6  C4  UNL     1     -33.297  18.025  -0.749  1.00 20.00     0.010 C 
ENDBRANCH   3   4
ENDBRANCH   1   3
BRANCH   1   7
HETATM    7  C7  UNL     1     -35.344  16.865  -5.096  1.00 20.00     0.082 C 
BRANCH   7   8
HETATM    8  C11 UNL     1     -35.454  15.459  -5.710  1.00 20.00    -0.012 C 
HETATM    9  C5  UNL     1     -36.652  15.385  -6.667  1.00 20.00     0.010 C 
BRANCH   8  10
HETATM   10  C9  UNL     1     -35.608  14.368  -4.629  1.00 20.00     0.004 C 
BRANCH  10  11
HETATM   11  C8  UNL     1     -34.542  13.272  -4.708  1.00 20.00    -0.004 C 
HETATM   12  C2  UNL     1     -33.401  13.537  -3.737  1.00 20.00     0.005 C 
ENDBRANCH  10  11
ENDBRANCH   8  10
ENDBRANCH   7   8
ENDBRANCH   1   7
TORSDOF 6
ENDMDL
