MODEL 1
REMARK VINA RESULT:      -5.0      0.000      0.000
REMARK  5 active torsions:
REMARK  status: ('A' for Active; 'I' for Inactive)
REMARK    1  A    between atoms: C1_1  and  C6_6 
REMARK    2  A    between atoms: C1_1  and  C9_9 
REMARK    3  A    between atoms: C6_6  and  C10_10 
REMARK    4  A    between atoms: C7_7  and  C8_8 
REMARK    5  A    between atoms: C8_8  and  C10_10 
ROOT
HETATM    1  C6  UNL     1     -33.802   6.936   4.023  1.00 20.00     0.082 C 
ENDROOT
BRANCH   1   2
HETATM    2  C1  UNL     1     -34.858   5.846   4.175  1.00 20.00     0.130 C 
HETATM    3  O11 UNL     1     -35.495   5.421   3.211  1.00 20.00    -0.298 OA
BRANCH   2   4
HETATM    4  C9  UNL     1     -35.041   5.269   5.579  1.00 20.00     0.047 C 
HETATM    5  C3  UNL     1     -34.699   3.781   5.612  1.00 20.00     0.017 C 
HETATM    6  C4  UNL     1     -34.187   6.041   6.578  1.00 20.00     0.017 C 
ENDBRANCH   2   4
ENDBRANCH   1   2
BRANCH   1   7
HETATM    7  C10 UNL     1     -32.806   6.672   2.881  1.00 20.00    -0.012 C 
HETATM    8  C5  UNL     1     -32.064   5.347   3.089  1.00 20.00     0.010 C 
BRANCH   7   9
HETATM    9  C8  UNL     1     -31.827   7.852   2.703  1.00 20.00     0.004 C 
BRANCH   9  10
HETATM   10  C7  UNL     1     -31.846   8.515   1.322  1.00 20.00    -0.004 C 
HETATM   11  C2  UNL     1     -32.544   9.867   1.370  1.00 20.00     0.005 C 
ENDBRANCH   9  10
ENDBRANCH   7   9
ENDBRANCH   1   7
TORSDOF 5
ENDMDL
MODEL 2
REMARK VINA RESULT:      -4.5     11.074     12.125
REMARK  5 active torsions:
REMARK  status: ('A' for Active; 'I' for Inactive)
REMARK    1  A    between atoms: C1_1  and  C6_6 
REMARK    2  A    between atoms: C1_1  and  C9_9 
REMARK    3  A    between atoms: C6_6  and  C10_10 
REMARK    4  A    between atoms: C7_7  and  C8_8 
REMARK    5  A    between atoms: C8_8  and  C10_10 
ROOT
HETATM    1  C6  UNL     1     -35.023  14.780  -3.417  1.00 20.00     0.082 C 
ENDROOT
BRANCH   1   2
HETATM    2  C1  UNL     1     -35.153  13.849  -4.619  1.00 20.00     0.130 C 
HETATM    3  O11 UNL     1     -34.892  12.649  -4.542  1.00 20.00    -0.298 OA
BRANCH   2   4
HETATM    4  C9  UNL     1     -35.681  14.477  -5.910  1.00 20.00     0.047 C 
HETATM    5  C3  UNL     1     -36.572  15.681  -5.612  1.00 20.00     0.017 C 
HETATM    6  C4  UNL     1     -34.519  14.875  -6.812  1.00 20.00     0.017 C 
ENDBRANCH   2   4
ENDBRANCH   1   2
BRANCH   1   7
HETATM    7  C10 UNL     1     -33.757  15.654  -3.451  1.00 20.00    -0.012 C 
HETATM    8  C5  UNL     1     -32.494  14.793  -3.568  1.00 20.00     0.010 C 
BRANCH   7   9
HETATM    9  C8  UNL     1     -33.693  16.600  -2.234  1.00 20.00     0.004 C 
BRANCH   9  10
HETATM   10  C7  UNL     1     -34.788  16.389  -1.183  1.00 20.00    -0.004 C 
HETATM   11  C2  UNL     1     -34.620  17.348  -0.013  1.00 20.00     0.005 C 
ENDBRANCH   9  10
ENDBRANCH   7   9
ENDBRANCH   1   7
TORSDOF 5
ENDMDL
MODEL 3
REMARK VINA RESULT:      -4.5     11.209     12.544
REMARK  5 active torsions:
REMARK  status: ('A' for Active; 'I' for Inactive)
REMARK    1  A    between atoms: C1_1  and  C6_6 
REMARK    2  A    between atoms: C1_1  and  C9_9 
REMARK    3  A    between atoms: C6_6  and  C10_10 
REMARK    4  A    between atoms: C7_7  and  C8_8 
REMARK    5  A    between atoms: C8_8  and  C10_10 
ROOT
HETATM    1  C6  UNL     1     -35.612  14.842  -3.466  1.00 20.00     0.082 C 
ENDROOT
BRANCH   1   2
HETATM    2  C1  UNL     1     -35.340  13.924  -4.654  1.00 20.00     0.130 C 
HETATM    3  O11 UNL     1     -34.828  12.813  -4.512  1.00 20.00    -0.298 OA
BRANCH   2   4
HETATM    4  C9  UNL     1     -35.789  14.435  -6.024  1.00 20.00     0.047 C 
HETATM    5  C3  UNL     1     -36.612  15.714  -5.892  1.00 20.00     0.017 C 
HETATM    6  C4  UNL     1     -34.577  14.663  -6.921  1.00 20.00     0.017 C 
ENDBRANCH   2   4
ENDBRANCH   1   2
BRANCH   1   7
HETATM    7  C10 UNL     1     -34.335  15.358  -2.782  1.00 20.00    -0.012 C 
HETATM    8  C5  UNL     1     -34.671  16.253  -1.585  1.00 20.00     0.010 C 
BRANCH   7   9
HETATM    9  C8  UNL     1     -33.407  16.072  -3.787  1.00 20.00     0.004 C 
BRANCH   9  10
HETATM   10  C7  UNL     1     -33.737  17.545  -4.049  1.00 20.00    -0.004 C 
HETATM   11  C2  UNL     1     -33.553  17.898  -5.518  1.00 20.00     0.005 C 
ENDBRANCH   9  10
ENDBRANCH   7   9
ENDBRANCH   1   7
TORSDOF 5
ENDMDL
MODEL 4
REMARK VINA RESULT:      -4.4     11.122     12.255
REMARK  5 active torsions:
REMARK  status: ('A' for Active; 'I' for Inactive)
REMARK    1  A    between atoms: C1_1  and  C6_6 
REMARK    2  A    between atoms: C1_1  and  C9_9 
REMARK    3  A    between atoms: C6_6  and  C10_10 
REMARK    4  A    between atoms: C7_7  and  C8_8 
REMARK    5  A    between atoms: C8_8  and  C10_10 
ROOT
HETATM    1  C6  UNL     1     -33.774  14.823  -3.726  1.00 20.00     0.082 C 
ENDROOT
BRANCH   1   2
HETATM    2  C1  UNL     1     -34.476  13.919  -4.734  1.00 20.00     0.130 C 
HETATM    3  O11 UNL     1     -34.931  12.820  -4.415  1.00 20.00    -0.298 OA
BRANCH   2   4
HETATM    4  C9  UNL     1     -34.634  14.475  -6.150  1.00 20.00     0.047 C 
HETATM    5  C3  UNL     1     -36.107  14.587  -6.536  1.00 20.00     0.017 C 
HETATM    6  C4  UNL     1     -33.942  15.829  -6.261  1.00 20.00     0.017 C 
ENDBRANCH   2   4
ENDBRANCH   1   2
BRANCH   1   7
HETATM    7  C10 UNL     1     -34.702  15.336  -2.611  1.00 20.00    -0.012 C 
HETATM    8  C5  UNL     1     -36.083  15.703  -3.166  1.00 20.00     0.010 C 
BRANCH   7   9
HETATM    9  C8  UNL     1     -34.064  16.514  -1.845  1.00 20.00     0.004 C 
BRANCH   9  10
HETATM   10  C7  UNL     1     -34.691  16.824  -0.482  1.00 20.00    -0.004 C 
HETATM   11  C2  UNL     1     -34.013  18.016   0.178  1.00 20.00     0.005 C 
ENDBRANCH   9  10
ENDBRANCH   7   9
ENDBRANCH   1   7
TORSDOF 5
ENDMDL
MODEL 5
REMARK VINA RESULT:      -4.4      1.726      5.081
REMARK  5 active torsions:
REMARK  status: ('A' for Active; 'I' for Inactive)
REMARK    1  A    between atoms: C1_1  and  C6_6 
REMARK    2  A    between atoms: C1_1  and  C9_9 
REMARK    3  A    between atoms: C6_6  and  C10_10 
REMARK    4  A    between atoms: C7_7  and  C8_8 
REMARK    5  A    between atoms: C8_8  and  C10_10 
ROOT
HETATM    1  C6  UNL     1     -32.417   6.041   2.952  1.00 20.00     0.082 C 
ENDROOT
BRANCH   1   2
HETATM    2  C1  UNL     1     -32.012   7.511   2.991  1.00 20.00     0.130 C 
HETATM    3  O11 UNL     1     -31.270   7.957   3.865  1.00 20.00    -0.298 OA
BRANCH   2   4
HETATM    4  C9  UNL     1     -32.533   8.389   1.852  1.00 20.00     0.047 C 
HETATM    5  C3  UNL     1     -32.782   9.818   2.328  1.00 20.00     0.017 C 
HETATM    6  C4  UNL     1     -31.549   8.373   0.687  1.00 20.00     0.017 C 
ENDBRANCH   2   4
ENDBRANCH   1   2
BRANCH   1   7
HETATM    7  C10 UNL     1     -33.652   5.721   3.812  1.00 20.00    -0.012 C 
HETATM    8  C5  UNL     1     -34.943   5.850   2.997  1.00 20.00     0.010 C 
BRANCH   7   9
HETATM    9  C8  UNL     1     -33.692   6.590   5.087  1.00 20.00     0.004 C 
BRANCH   9  10
HETATM   10  C7  UNL     1     -34.365   5.941   6.300  1.00 20.00    -0.004 C 
HETATM   11  C2  UNL     1     -34.551   4.445   6.092  1.00 20.00     0.005 C 
ENDBRANCH   9  10
ENDBRANCH   7   9
ENDBRANCH   1   7
TORSDOF 5
ENDMDL
MODEL 6
REMARK VINA RESULT:      -4.4      1.512      1.885
REMARK  5 active torsions:
REMARK  status: ('A' for Active; 'I' for Inactive)
REMARK    1  A    between atoms: C1_1  and  C6_6 
REMARK    2  A    between atoms: C1_1  and  C9_9 
REMARK    3  A    between atoms: C6_6  and  C10_10 
REMARK    4  A    between atoms: C7_7  and  C8_8 
REMARK    5  A    between atoms: C8_8  and  C10_10 
ROOT
HETATM    1  C6  UNL     1     -33.646   7.210   4.102  1.00 20.00     0.082 C 
ENDROOT
BRANCH   1   2
HETATM    2  C1  UNL     1     -33.881   6.327   5.323  1.00 20.00     0.130 C 
HETATM    3  O11 UNL     1     -33.625   6.714   6.464  1.00 20.00    -0.298 OA
BRANCH   2   4
HETATM    4  C9  UNL     1     -34.506   4.956   5.060  1.00 20.00     0.047 C 
HETATM    5  C3  UNL     1     -35.108   4.371   6.336  1.00 20.00     0.017 C 
HETATM    6  C4  UNL     1     -35.562   5.063   3.966  1.00 20.00     0.017 C 
ENDBRANCH   2   4
ENDBRANCH   1   2
BRANCH   1   7
HETATM    7  C10 UNL     1     -32.299   6.951   3.406  1.00 20.00    -0.012 C 
HETATM    8  C5  UNL     1     -31.162   7.706   4.103  1.00 20.00     0.010 C 
BRANCH   7   9
HETATM    9  C8  UNL     1     -32.369   7.285   1.901  1.00 20.00     0.004 C 
BRANCH   9  10
HETATM   10  C7  UNL     1     -31.637   8.564   1.481  1.00 20.00    -0.004 C 
HETATM   11  C2  UNL     1     -32.587   9.752   1.436  1.00 20.00     0.005 C 
ENDBRANCH   9  10
ENDBRANCH   7   9
ENDBRANCH   1   7
TORSDOF 5
ENDMDL
MODEL 7
REMARK VINA RESULT:      -4.2     10.966     12.609
REMARK  5 active torsions:
REMARK  status: ('A' for Active; 'I' for Inactive)
REMARK    1  A    between atoms: C1_1  and  C6_6 
REMARK    2  A    between atoms: C1_1  and  C9_9 
REMARK    3  A    between atoms: C6_6  and  C10_10 
REMARK    4  A    between atoms: C7_7  and  C8_8 
REMARK    5  A    between atoms: C8_8  and  C10_10 
ROOT
HETATM    1  C6  UNL     1     -33.199  16.218  -4.765  1.00 20.00     0.082 C 
ENDROOT
BRANCH   1   2
HETATM    2  C1  UNL     1     -34.117  15.261  -5.518  1.00 20.00     0.130 C 
HETATM    3  O11 UNL     1     -34.539  15.518  -6.646  1.00 20.00    -0.298 OA
BRANCH   2   4
HETATM    4  C9  UNL     1     -34.438  13.938  -4.822  1.00 20.00     0.047 C 
HETATM    5  C3  UNL     1     -33.389  13.605  -3.762  1.00 20.00     0.017 C 
HETATM    6  C4  UNL     1     -35.830  13.995  -4.204  1.00 20.00     0.017 C 
ENDBRANCH   2   4
ENDBRANCH   1   2
BRANCH   1   7
HETATM    7  C10 UNL     1     -33.955  17.269  -3.935  1.00 20.00    -0.012 C 
HETATM    8  C5  UNL     1     -33.689  18.684  -4.459  1.00 20.00     0.010 C 
BRANCH   7   9
HETATM    9  C8  UNL     1     -33.624  17.145  -2.432  1.00 20.00     0.004 C 
BRANCH   9  10
HETATM   10  C7  UNL     1     -34.656  16.382  -1.596  1.00 20.00    -0.004 C 
HETATM   11  C2  UNL     1     -34.796  16.988  -0.207  1.00 20.00     0.005 C 
ENDBRANCH   9  10
ENDBRANCH   7   9
ENDBRANCH   1   7
TORSDOF 5
ENDMDL
MODEL 8
REMARK VINA RESULT:      -4.2     10.866     12.572
REMARK  5 active torsions:
REMARK  status: ('A' for Active; 'I' for Inactive)
REMARK    1  A    between atoms: C1_1  and  C6_6 
REMARK    2  A    between atoms: C1_1  and  C9_9 
REMARK    3  A    between atoms: C6_6  and  C10_10 
REMARK    4  A    between atoms: C7_7  and  C8_8 
REMARK    5  A    between atoms: C8_8  and  C10_10 
ROOT
HETATM    1  C6  UNL     1     -36.470  14.693  -4.285  1.00 20.00     0.082 C 
ENDROOT
BRANCH   1   2
HETATM    2  C1  UNL     1     -35.204  13.920  -3.929  1.00 20.00     0.130 C 
HETATM    3  O11 UNL     1     -34.996  12.783  -4.355  1.00 20.00    -0.298 OA
BRANCH   2   4
HETATM    4  C9  UNL     1     -34.181  14.654  -3.062  1.00 20.00     0.047 C 
HETATM    5  C3  UNL     1     -33.048  15.226  -3.912  1.00 20.00     0.017 C 
HETATM    6  C4  UNL     1     -34.866  15.757  -2.264  1.00 20.00     0.017 C 
ENDBRANCH   2   4
ENDBRANCH   1   2
BRANCH   1   7
HETATM    7  C10 UNL     1     -36.303  15.618  -5.502  1.00 20.00    -0.012 C 
HETATM    8  C5  UNL     1     -36.977  16.974  -5.263  1.00 20.00     0.010 C 
BRANCH   7   9
HETATM    9  C8  UNL     1     -36.815  14.947  -6.794  1.00 20.00     0.004 C 
BRANCH   9  10
HETATM   10  C7  UNL     1     -35.730  14.569  -7.808  1.00 20.00    -0.004 C 
HETATM   11  C2  UNL     1     -34.363  15.067  -7.362  1.00 20.00     0.005 C 
ENDBRANCH   9  10
ENDBRANCH   7   9
ENDBRANCH   1   7
TORSDOF 5
ENDMDL
MODEL 9
REMARK VINA RESULT:      -4.1     10.781     12.576
REMARK  5 active torsions:
REMARK  status: ('A' for Active; 'I' for Inactive)
REMARK    1  A    between atoms: C1_1  and  C6_6 
REMARK    2  A    between atoms: C1_1  and  C9_9 
REMARK    3  A    between atoms: C6_6  and  C10_10 
REMARK    4  A    between atoms: C7_7  and  C8_8 
REMARK    5  A    between atoms: C8_8  and  C10_10 
ROOT
HETATM    1  C6  UNL     1     -34.927  13.883  -5.645  1.00 20.00     0.082 C 
ENDROOT
BRANCH   1   2
HETATM    2  C1  UNL     1     -35.464  14.037  -4.226  1.00 20.00     0.130 C 
HETATM    3  O11 UNL     1     -36.655  13.873  -3.960  1.00 20.00    -0.298 OA
BRANCH   2   4
HETATM    4  C9  UNL     1     -34.433  14.348  -3.140  1.00 20.00     0.047 C 
HETATM    5  C3  UNL     1     -33.016  14.343  -3.709  1.00 20.00     0.017 C 
HETATM    6  C4  UNL     1     -34.748  15.690  -2.489  1.00 20.00     0.017 C 
ENDBRANCH   2   4
ENDBRANCH   1   2
BRANCH   1   7
HETATM    7  C10 UNL     1     -35.336  15.031  -6.584  1.00 20.00    -0.012 C 
HETATM    8  C5  UNL     1     -35.873  14.493  -7.915  1.00 20.00     0.010 C 
BRANCH   7   9
HETATM    9  C8  UNL     1     -34.176  16.026  -6.797  1.00 20.00     0.004 C 
BRANCH   9  10
HETATM   10  C7  UNL     1     -34.183  17.246  -5.871  1.00 20.00    -0.004 C 
HETATM   11  C2  UNL     1     -35.604  17.667  -5.525  1.00 20.00     0.005 C 
ENDBRANCH   9  10
ENDBRANCH   7   9
ENDBRANCH   1   7
TORSDOF 5
ENDMDL
