MODEL 1
REMARK VINA RESULT:      -4.5      0.000      0.000
REMARK  5 active torsions:
REMARK  status: ('A' for Active; 'I' for Inactive)
REMARK    1  A    between atoms: C1_1  and  C7_7 
REMARK    2  A    between atoms: C1_1  and  C11_11 
REMARK    3  A    between atoms: C7_7  and  C10_10 
REMARK    4  A    between atoms: C8_8  and  C9_9 
REMARK    5  A    between atoms: C9_9  and  C10_10 
ROOT
HETATM    1  C1  UNL     1     -33.837  16.163  -4.238  1.00 20.00     0.134 C 
HETATM    2  O12 UNL     1     -32.847  16.521  -4.879  1.00 20.00    -0.297 OA
ENDROOT
BRANCH   1   3
HETATM    3  C7  UNL     1     -34.490  17.099  -3.222  1.00 20.00     0.083 C 
BRANCH   3   4
HETATM    4  C10 UNL     1     -33.772  17.124  -1.857  1.00 20.00    -0.012 C 
HETATM    5  C3  UNL     1     -34.691  16.572  -0.760  1.00 20.00     0.010 C 
BRANCH   4   6
HETATM    6  C9  UNL     1     -33.317  18.566  -1.550  1.00 20.00     0.004 C 
BRANCH   6   7
HETATM    7  C8  UNL     1     -33.258  18.885  -0.054  1.00 20.00    -0.004 C 
HETATM    8  C2  UNL     1     -31.821  18.987   0.435  1.00 20.00     0.005 C 
ENDBRANCH   6   7
ENDBRANCH   4   6
ENDBRANCH   3   4
ENDBRANCH   1   3
BRANCH   1   9
HETATM    9  C11 UNL     1     -34.448  14.758  -4.424  1.00 20.00     0.009 C 
HETATM   10  C4  UNL     1     -35.819  14.669  -3.741  1.00 20.00     0.022 C 
HETATM   11  C5  UNL     1     -34.578  14.467  -5.924  1.00 20.00     0.022 C 
HETATM   12  C6  UNL     1     -33.519  13.706  -3.792  1.00 20.00     0.022 C 
ENDBRANCH   1   9
TORSDOF 5
ENDMDL
MODEL 2
REMARK VINA RESULT:      -4.4      2.368      3.853
REMARK  5 active torsions:
REMARK  status: ('A' for Active; 'I' for Inactive)
REMARK    1  A    between atoms: C1_1  and  C7_7 
REMARK    2  A    between atoms: C1_1  and  C11_11 
REMARK    3  A    between atoms: C7_7  and  C10_10 
REMARK    4  A    between atoms: C8_8  and  C9_9 
REMARK    5  A    between atoms: C9_9  and  C10_10 
ROOT
HETATM    1  C1  UNL     1     -36.714  15.203  -4.126  1.00 20.00     0.134 C 
HETATM    2  O12 UNL     1     -37.124  14.099  -3.760  1.00 20.00    -0.297 OA
ENDROOT
BRANCH   1   3
HETATM    3  C7  UNL     1     -36.177  16.212  -3.113  1.00 20.00     0.083 C 
BRANCH   3   4
HETATM    4  C10 UNL     1     -34.838  15.791  -2.475  1.00 20.00    -0.012 C 
HETATM    5  C3  UNL     1     -34.660  16.466  -1.110  1.00 20.00     0.010 C 
BRANCH   4   6
HETATM    6  C9  UNL     1     -33.685  16.141  -3.440  1.00 20.00     0.004 C 
BRANCH   6   7
HETATM    7  C8  UNL     1     -32.723  14.977  -3.693  1.00 20.00    -0.004 C 
HETATM    8  C2  UNL     1     -33.462  13.649  -3.747  1.00 20.00     0.005 C 
ENDBRANCH   6   7
ENDBRANCH   4   6
ENDBRANCH   3   4
ENDBRANCH   1   3
BRANCH   1   9
HETATM    9  C11 UNL     1     -36.740  15.615  -5.613  1.00 20.00     0.009 C 
HETATM   10  C4  UNL     1     -36.384  17.099  -5.770  1.00 20.00     0.022 C 
HETATM   11  C5  UNL     1     -35.746  14.741  -6.389  1.00 20.00     0.022 C 
HETATM   12  C6  UNL     1     -38.151  15.389  -6.185  1.00 20.00     0.022 C 
ENDBRANCH   1   9
TORSDOF 5
ENDMDL
MODEL 3
REMARK VINA RESULT:      -4.4      1.246      2.119
REMARK  5 active torsions:
REMARK  status: ('A' for Active; 'I' for Inactive)
REMARK    1  A    between atoms: C1_1  and  C7_7 
REMARK    2  A    between atoms: C1_1  and  C11_11 
REMARK    3  A    between atoms: C7_7  and  C10_10 
REMARK    4  A    between atoms: C8_8  and  C9_9 
REMARK    5  A    between atoms: C9_9  and  C10_10 
ROOT
HETATM    1  C1  UNL     1     -33.614  15.832  -4.483  1.00 20.00     0.134 C 
HETATM    2  O12 UNL     1     -32.892  16.565  -5.162  1.00 20.00    -0.297 OA
ENDROOT
BRANCH   1   3
HETATM    3  C7  UNL     1     -33.528  15.844  -2.958  1.00 20.00     0.083 C 
BRANCH   3   4
HETATM    4  C10 UNL     1     -34.381  16.947  -2.301  1.00 20.00    -0.012 C 
HETATM    5  C3  UNL     1     -33.665  18.301  -2.388  1.00 20.00     0.010 C 
BRANCH   4   6
HETATM    6  C9  UNL     1     -34.683  16.553  -0.840  1.00 20.00     0.004 C 
BRANCH   6   7
HETATM    7  C8  UNL     1     -34.404  17.671   0.168  1.00 20.00    -0.004 C 
HETATM    8  C2  UNL     1     -35.344  17.589   1.361  1.00 20.00     0.005 C 
ENDBRANCH   6   7
ENDBRANCH   4   6
ENDBRANCH   3   4
ENDBRANCH   1   3
BRANCH   1   9
HETATM    9  C11 UNL     1     -34.621  14.867  -5.143  1.00 20.00     0.009 C 
HETATM   10  C4  UNL     1     -34.427  13.438  -4.617  1.00 20.00     0.022 C 
HETATM   11  C5  UNL     1     -36.045  15.355  -4.850  1.00 20.00     0.022 C 
HETATM   12  C6  UNL     1     -34.403  14.859  -6.667  1.00 20.00     0.022 C 
ENDBRANCH   1   9
TORSDOF 5
ENDMDL
MODEL 4
REMARK VINA RESULT:      -4.3      1.252      2.233
REMARK  5 active torsions:
REMARK  status: ('A' for Active; 'I' for Inactive)
REMARK    1  A    between atoms: C1_1  and  C7_7 
REMARK    2  A    between atoms: C1_1  and  C11_11 
REMARK    3  A    between atoms: C7_7  and  C10_10 
REMARK    4  A    between atoms: C8_8  and  C9_9 
REMARK    5  A    between atoms: C9_9  and  C10_10 
ROOT
HETATM    1  C1  UNL     1     -33.657  15.888  -4.422  1.00 20.00     0.134 C 
HETATM    2  O12 UNL     1     -32.912  16.560  -5.139  1.00 20.00    -0.297 OA
ENDROOT
BRANCH   1   3
HETATM    3  C7  UNL     1     -33.516  15.920  -2.901  1.00 20.00     0.083 C 
BRANCH   3   4
HETATM    4  C10 UNL     1     -34.360  17.019  -2.227  1.00 20.00    -0.012 C 
HETATM    5  C3  UNL     1     -33.626  18.365  -2.278  1.00 20.00     0.010 C 
BRANCH   4   6
HETATM    6  C9  UNL     1     -34.678  16.596  -0.777  1.00 20.00     0.004 C 
BRANCH   6   7
HETATM    7  C8  UNL     1     -34.417  17.697   0.255  1.00 20.00    -0.004 C 
HETATM    8  C2  UNL     1     -35.363  17.581   1.441  1.00 20.00     0.005 C 
ENDBRANCH   6   7
ENDBRANCH   4   6
ENDBRANCH   3   4
ENDBRANCH   1   3
BRANCH   1   9
HETATM    9  C11 UNL     1     -34.749  14.982  -5.028  1.00 20.00     0.009 C 
HETATM   10  C4  UNL     1     -34.480  14.733  -6.518  1.00 20.00     0.022 C 
HETATM   11  C5  UNL     1     -34.778  13.655  -4.260  1.00 20.00     0.022 C 
HETATM   12  C6  UNL     1     -36.121  15.667  -4.889  1.00 20.00     0.022 C 
ENDBRANCH   1   9
TORSDOF 5
ENDMDL
MODEL 5
REMARK VINA RESULT:      -4.3      1.523      1.797
REMARK  5 active torsions:
REMARK  status: ('A' for Active; 'I' for Inactive)
REMARK    1  A    between atoms: C1_1  and  C7_7 
REMARK    2  A    between atoms: C1_1  and  C11_11 
REMARK    3  A    between atoms: C7_7  and  C10_10 
REMARK    4  A    between atoms: C8_8  and  C9_9 
REMARK    5  A    between atoms: C9_9  and  C10_10 
ROOT
HETATM    1  C1  UNL     1     -35.166  15.526  -3.136  1.00 20.00     0.134 C 
HETATM    2  O12 UNL     1     -36.354  15.774  -3.354  1.00 20.00    -0.297 OA
ENDROOT
BRANCH   1   3
HETATM    3  C7  UNL     1     -34.490  16.008  -1.854  1.00 20.00     0.083 C 
BRANCH   3   4
HETATM    4  C10 UNL     1     -34.493  17.542  -1.695  1.00 20.00    -0.012 C 
HETATM    5  C3  UNL     1     -33.808  18.205  -2.895  1.00 20.00     0.010 C 
BRANCH   4   6
HETATM    6  C9  UNL     1     -33.805  17.915  -0.365  1.00 20.00     0.004 C 
BRANCH   6   7
HETATM    7  C8  UNL     1     -32.733  18.999  -0.512  1.00 20.00    -0.004 C 
HETATM    8  C2  UNL     1     -31.782  19.002   0.676  1.00 20.00     0.005 C 
ENDBRANCH   6   7
ENDBRANCH   4   6
ENDBRANCH   3   4
ENDBRANCH   1   3
BRANCH   1   9
HETATM    9  C11 UNL     1     -34.314  14.734  -4.150  1.00 20.00     0.009 C 
HETATM   10  C4  UNL     1     -34.887  13.326  -4.356  1.00 20.00     0.022 C 
HETATM   11  C5  UNL     1     -34.282  15.499  -5.479  1.00 20.00     0.022 C 
HETATM   12  C6  UNL     1     -32.875  14.601  -3.618  1.00 20.00     0.022 C 
ENDBRANCH   1   9
TORSDOF 5
ENDMDL
MODEL 6
REMARK VINA RESULT:      -4.2      1.640      2.498
REMARK  5 active torsions:
REMARK  status: ('A' for Active; 'I' for Inactive)
REMARK    1  A    between atoms: C1_1  and  C7_7 
REMARK    2  A    between atoms: C1_1  and  C11_11 
REMARK    3  A    between atoms: C7_7  and  C10_10 
REMARK    4  A    between atoms: C8_8  and  C9_9 
REMARK    5  A    between atoms: C9_9  and  C10_10 
ROOT
HETATM    1  C1  UNL     1     -33.923  15.196  -3.693  1.00 20.00     0.134 C 
HETATM    2  O12 UNL     1     -32.695  15.276  -3.767  1.00 20.00    -0.297 OA
ENDROOT
BRANCH   1   3
HETATM    3  C7  UNL     1     -34.654  15.562  -2.402  1.00 20.00     0.083 C 
BRANCH   3   4
HETATM    4  C10 UNL     1     -34.200  16.906  -1.797  1.00 20.00    -0.012 C 
HETATM    5  C3  UNL     1     -34.657  17.016  -0.338  1.00 20.00     0.010 C 
BRANCH   4   6
HETATM    6  C9  UNL     1     -34.752  18.062  -2.658  1.00 20.00     0.004 C 
BRANCH   6   7
HETATM    7  C8  UNL     1     -33.662  18.924  -3.299  1.00 20.00    -0.004 C 
HETATM    8  C2  UNL     1     -33.603  18.715  -4.805  1.00 20.00     0.005 C 
ENDBRANCH   6   7
ENDBRANCH   4   6
ENDBRANCH   3   4
ENDBRANCH   1   3
BRANCH   1   9
HETATM    9  C11 UNL     1     -34.768  14.713  -4.891  1.00 20.00     0.009 C 
HETATM   10  C4  UNL     1     -34.238  15.308  -6.202  1.00 20.00     0.022 C 
HETATM   11  C5  UNL     1     -34.727  13.181  -4.943  1.00 20.00     0.022 C 
HETATM   12  C6  UNL     1     -36.228  15.165  -4.706  1.00 20.00     0.022 C 
ENDBRANCH   1   9
TORSDOF 5
ENDMDL
MODEL 7
REMARK VINA RESULT:      -4.2      2.948      5.122
REMARK  5 active torsions:
REMARK  status: ('A' for Active; 'I' for Inactive)
REMARK    1  A    between atoms: C1_1  and  C7_7 
REMARK    2  A    between atoms: C1_1  and  C11_11 
REMARK    3  A    between atoms: C7_7  and  C10_10 
REMARK    4  A    between atoms: C8_8  and  C9_9 
REMARK    5  A    between atoms: C9_9  and  C10_10 
ROOT
HETATM    1  C1  UNL     1     -34.523  13.951  -4.892  1.00 20.00     0.134 C 
HETATM    2  O12 UNL     1     -34.867  12.810  -4.574  1.00 20.00    -0.297 OA
ENDROOT
BRANCH   1   3
HETATM    3  C7  UNL     1     -34.873  14.518  -6.266  1.00 20.00     0.083 C 
BRANCH   3   4
HETATM    4  C10 UNL     1     -36.369  14.853  -6.432  1.00 20.00    -0.012 C 
HETATM    5  C3  UNL     1     -36.747  14.894  -7.917  1.00 20.00     0.010 C 
BRANCH   4   6
HETATM    6  C9  UNL     1     -36.669  16.193  -5.727  1.00 20.00     0.004 C 
BRANCH   6   7
HETATM    7  C8  UNL     1     -37.878  16.136  -4.789  1.00 20.00    -0.004 C 
HETATM    8  C2  UNL     1     -38.016  14.763  -4.147  1.00 20.00     0.005 C 
ENDBRANCH   6   7
ENDBRANCH   4   6
ENDBRANCH   3   4
ENDBRANCH   1   3
BRANCH   1   9
HETATM    9  C11 UNL     1     -33.717  14.843  -3.924  1.00 20.00     0.009 C 
HETATM   10  C4  UNL     1     -34.604  15.328  -2.769  1.00 20.00     0.022 C 
HETATM   11  C5  UNL     1     -32.526  14.042  -3.384  1.00 20.00     0.022 C 
HETATM   12  C6  UNL     1     -33.187  16.074  -4.681  1.00 20.00     0.022 C 
ENDBRANCH   1   9
TORSDOF 5
ENDMDL
MODEL 8
REMARK VINA RESULT:      -4.2      2.344      4.093
REMARK  5 active torsions:
REMARK  status: ('A' for Active; 'I' for Inactive)
REMARK    1  A    between atoms: C1_1  and  C7_7 
REMARK    2  A    between atoms: C1_1  and  C11_11 
REMARK    3  A    between atoms: C7_7  and  C10_10 
REMARK    4  A    between atoms: C8_8  and  C9_9 
REMARK    5  A    between atoms: C9_9  and  C10_10 
ROOT
HETATM    1  C1  UNL     1     -35.746  16.592  -5.204  1.00 20.00     0.134 C 
HETATM    2  O12 UNL     1     -36.844  16.033  -5.259  1.00 20.00    -0.297 OA
ENDROOT
BRANCH   1   3
HETATM    3  C7  UNL     1     -35.159  17.029  -3.863  1.00 20.00     0.083 C 
BRANCH   3   4
HETATM    4  C10 UNL     1     -34.734  15.852  -2.963  1.00 20.00    -0.012 C 
HETATM    5  C3  UNL     1     -34.677  16.293  -1.496  1.00 20.00     0.010 C 
BRANCH   4   6
HETATM    6  C9  UNL     1     -33.374  15.308  -3.450  1.00 20.00     0.004 C 
BRANCH   6   7
HETATM    7  C8  UNL     1     -33.384  13.805  -3.746  1.00 20.00    -0.004 C 
HETATM    8  C2  UNL     1     -34.787  13.317  -4.078  1.00 20.00     0.005 C 
ENDBRANCH   6   7
ENDBRANCH   4   6
ENDBRANCH   3   4
ENDBRANCH   1   3
BRANCH   1   9
HETATM    9  C11 UNL     1     -34.930  16.885  -6.481  1.00 20.00     0.009 C 
HETATM   10  C4  UNL     1     -34.264  15.604  -7.003  1.00 20.00     0.022 C 
HETATM   11  C5  UNL     1     -35.864  17.474  -7.545  1.00 20.00     0.022 C 
HETATM   12  C6  UNL     1     -33.828  17.912  -6.163  1.00 20.00     0.022 C 
ENDBRANCH   1   9
TORSDOF 5
ENDMDL
MODEL 9
REMARK VINA RESULT:      -4.2      2.978      5.125
REMARK  5 active torsions:
REMARK  status: ('A' for Active; 'I' for Inactive)
REMARK    1  A    between atoms: C1_1  and  C7_7 
REMARK    2  A    between atoms: C1_1  and  C11_11 
REMARK    3  A    between atoms: C7_7  and  C10_10 
REMARK    4  A    between atoms: C8_8  and  C9_9 
REMARK    5  A    between atoms: C9_9  and  C10_10 
ROOT
HETATM    1  C1  UNL     1     -34.560  13.953  -4.918  1.00 20.00     0.134 C 
HETATM    2  O12 UNL     1     -34.922  12.820  -4.593  1.00 20.00    -0.297 OA
ENDROOT
BRANCH   1   3
HETATM    3  C7  UNL     1     -34.912  14.522  -6.291  1.00 20.00     0.083 C 
BRANCH   3   4
HETATM    4  C10 UNL     1     -36.399  14.900  -6.439  1.00 20.00    -0.012 C 
HETATM    5  C3  UNL     1     -36.806  14.903  -7.918  1.00 20.00     0.010 C 
BRANCH   4   6
HETATM    6  C9  UNL     1     -36.641  16.273  -5.777  1.00 20.00     0.004 C 
BRANCH   6   7
HETATM    7  C8  UNL     1     -37.687  16.239  -4.659  1.00 20.00    -0.004 C 
HETATM    8  C2  UNL     1     -38.091  14.811  -4.323  1.00 20.00     0.005 C 
ENDBRANCH   6   7
ENDBRANCH   4   6
ENDBRANCH   3   4
ENDBRANCH   1   3
BRANCH   1   9
HETATM    9  C11 UNL     1     -33.730  14.835  -3.961  1.00 20.00     0.009 C 
HETATM   10  C4  UNL     1     -33.166  16.055  -4.701  1.00 20.00     0.022 C 
HETATM   11  C5  UNL     1     -34.622  15.281  -2.795  1.00 20.00     0.022 C 
HETATM   12  C6  UNL     1     -32.552  14.017  -3.401  1.00 20.00     0.022 C 
ENDBRANCH   1   9
TORSDOF 5
ENDMDL
