MODEL 1
REMARK VINA RESULT:      -4.3      0.000      0.000
REMARK  2 active torsions:
REMARK  status: ('A' for Active; 'I' for Inactive)
REMARK    1  A    between atoms: C1_1  and  C2_2 
REMARK    2  A    between atoms: C9_9  and  N10_10 
ROOT
HETATM    1  C1  UNL     1     -34.706  14.895  -4.165  1.00 20.00     0.150 C 
HETATM    2  C3  UNL     1     -33.569  15.150  -3.214  1.00 20.00     0.068 C 
HETATM    3  C4  UNL     1     -33.792  16.453  -2.452  1.00 20.00     0.008 C 
HETATM    4  C5  UNL     1     -34.161  17.593  -3.398  1.00 20.00     0.029 C 
HETATM    5  C6  UNL     1     -35.358  17.231  -4.272  1.00 20.00     0.242 C 
HETATM    6  N10 UNL     1     -35.134  15.953  -5.047  1.00 20.00    -0.038 N 
HETATM    7  H28 UNL     1     -36.049  15.712  -5.455  1.00 20.00     0.286 HD
ENDROOT
BRANCH   6   8
HETATM    8  C9  UNL     1     -34.189  16.089  -6.210  1.00 20.00     0.186 C 
HETATM    9  C7  UNL     1     -34.401  17.455  -6.845  1.00 20.00     0.040 C 
HETATM   10  C8  UNL     1     -34.458  14.953  -7.183  1.00 20.00     0.040 C 
ENDBRANCH   6   8
BRANCH   1  11
HETATM   11  C2  UNL     1     -35.373  13.732  -4.212  1.00 20.00     0.291 C 
HETATM   12  O11 UNL     1     -35.021  12.571  -4.550  1.00 20.00    -0.300 OA
ENDBRANCH   1  11
TORSDOF 2
ENDMDL
MODEL 2
REMARK VINA RESULT:      -4.2      1.925      3.750
REMARK  2 active torsions:
REMARK  status: ('A' for Active; 'I' for Inactive)
REMARK    1  A    between atoms: C1_1  and  C2_2 
REMARK    2  A    between atoms: C9_9  and  N10_10 
ROOT
HETATM    1  C1  UNL     1     -36.476  15.235  -4.527  1.00 20.00     0.150 C 
HETATM    2  C3  UNL     1     -36.544  16.031  -5.801  1.00 20.00     0.068 C 
HETATM    3  C4  UNL     1     -35.953  15.233  -6.960  1.00 20.00     0.008 C 
HETATM    4  C5  UNL     1     -34.592  14.646  -6.593  1.00 20.00     0.029 C 
HETATM    5  C6  UNL     1     -34.666  13.820  -5.311  1.00 20.00     0.242 C 
HETATM    6  N10 UNL     1     -35.230  14.612  -4.154  1.00 20.00    -0.038 N 
HETATM    7  H28 UNL     1     -35.400  13.924  -3.404  1.00 20.00     0.286 HD
ENDROOT
BRANCH   6   8
HETATM    8  C9  UNL     1     -34.282  15.625  -3.573  1.00 20.00     0.186 C 
HETATM    9  C7  UNL     1     -32.871  15.061  -3.645  1.00 20.00     0.040 C 
HETATM   10  C8  UNL     1     -34.711  15.925  -2.147  1.00 20.00     0.040 C 
ENDBRANCH   6   8
BRANCH   1  11
HETATM   11  C2  UNL     1     -37.536  15.046  -3.726  1.00 20.00     0.291 C 
HETATM   12  O11 UNL     1     -38.462  14.193  -3.740  1.00 20.00    -0.300 OA
ENDBRANCH   1  11
TORSDOF 2
ENDMDL
MODEL 3
REMARK VINA RESULT:      -4.2      1.183      1.207
REMARK  2 active torsions:
REMARK  status: ('A' for Active; 'I' for Inactive)
REMARK    1  A    between atoms: C1_1  and  C2_2 
REMARK    2  A    between atoms: C9_9  and  N10_10 
ROOT
HETATM    1  C1  UNL     1     -34.365  14.803  -3.973  1.00 20.00     0.150 C 
HETATM    2  C3  UNL     1     -33.625  15.588  -2.925  1.00 20.00     0.068 C 
HETATM    3  C4  UNL     1     -34.603  16.198  -1.926  1.00 20.00     0.008 C 
HETATM    4  C5  UNL     1     -35.748  16.916  -2.637  1.00 20.00     0.029 C 
HETATM    5  C6  UNL     1     -36.449  16.000  -3.636  1.00 20.00     0.242 C 
HETATM    6  N10 UNL     1     -35.489  15.410  -4.642  1.00 20.00    -0.038 N 
HETATM    7  H28 UNL     1     -36.023  14.686  -5.144  1.00 20.00     0.286 HD
ENDROOT
BRANCH   6   8
HETATM    8  C9  UNL     1     -35.020  16.377  -5.695  1.00 20.00     0.186 C 
HETATM    9  C7  UNL     1     -36.222  17.165  -6.194  1.00 20.00     0.040 C 
HETATM   10  C8  UNL     1     -34.345  15.590  -6.806  1.00 20.00     0.040 C 
ENDBRANCH   6   8
BRANCH   1  11
HETATM   11  C2  UNL     1     -34.050  13.540  -4.298  1.00 20.00     0.291 C 
HETATM   12  O11 UNL     1     -34.737  12.592  -4.760  1.00 20.00    -0.300 OA
ENDBRANCH   1  11
TORSDOF 2
ENDMDL
MODEL 4
REMARK VINA RESULT:      -4.2      1.652      2.364
REMARK  2 active torsions:
REMARK  status: ('A' for Active; 'I' for Inactive)
REMARK    1  A    between atoms: C1_1  and  C2_2 
REMARK    2  A    between atoms: C9_9  and  N10_10 
ROOT
HETATM    1  C1  UNL     1     -35.708  14.979  -4.067  1.00 20.00     0.150 C 
HETATM    2  C3  UNL     1     -35.004  13.700  -4.426  1.00 20.00     0.068 C 
HETATM    3  C4  UNL     1     -33.703  13.568  -3.638  1.00 20.00     0.008 C 
HETATM    4  C5  UNL     1     -32.876  14.849  -3.714  1.00 20.00     0.029 C 
HETATM    5  C6  UNL     1     -33.686  16.067  -3.278  1.00 20.00     0.242 C 
HETATM    6  N10 UNL     1     -34.965  16.215  -4.070  1.00 20.00    -0.038 N 
HETATM    7  H28 UNL     1     -35.508  16.945  -3.585  1.00 20.00     0.286 HD
ENDROOT
BRANCH   6   8
HETATM    8  C9  UNL     1     -34.771  16.714  -5.476  1.00 20.00     0.186 C 
HETATM    9  C7  UNL     1     -33.640  17.732  -5.474  1.00 20.00     0.040 C 
HETATM   10  C8  UNL     1     -36.082  17.310  -5.961  1.00 20.00     0.040 C 
ENDBRANCH   6   8
BRANCH   1  11
HETATM   11  C2  UNL     1     -37.000  15.027  -3.707  1.00 20.00     0.291 C 
HETATM   12  O11 UNL     1     -37.910  14.156  -3.712  1.00 20.00    -0.300 OA
ENDBRANCH   1  11
TORSDOF 2
ENDMDL
MODEL 5
REMARK VINA RESULT:      -4.2      1.119      3.104
REMARK  2 active torsions:
REMARK  status: ('A' for Active; 'I' for Inactive)
REMARK    1  A    between atoms: C1_1  and  C2_2 
REMARK    2  A    between atoms: C9_9  and  N10_10 
ROOT
HETATM    1  C1  UNL     1     -34.853  14.928  -4.447  1.00 20.00     0.150 C 
HETATM    2  C3  UNL     1     -35.822  15.296  -5.537  1.00 20.00     0.068 C 
HETATM    3  C4  UNL     1     -35.093  15.984  -6.688  1.00 20.00     0.008 C 
HETATM    4  C5  UNL     1     -34.180  17.097  -6.181  1.00 20.00     0.029 C 
HETATM    5  C6  UNL     1     -33.212  16.587  -5.118  1.00 20.00     0.242 C 
HETATM    6  N10 UNL     1     -33.929  15.925  -3.963  1.00 20.00    -0.038 N 
HETATM    7  H28 UNL     1     -33.193  15.469  -3.405  1.00 20.00     0.286 HD
ENDROOT
BRANCH   6   8
HETATM    8  C9  UNL     1     -34.620  16.881  -3.030  1.00 20.00     0.186 C 
HETATM    9  C7  UNL     1     -33.840  18.187  -3.015  1.00 20.00     0.040 C 
HETATM   10  C8  UNL     1     -34.697  16.240  -1.654  1.00 20.00     0.040 C 
ENDBRANCH   6   8
BRANCH   1  11
HETATM   11  C2  UNL     1     -34.781  13.698  -3.918  1.00 20.00     0.291 C 
HETATM   12  O11 UNL     1     -35.036  12.560  -4.391  1.00 20.00    -0.300 OA
ENDBRANCH   1  11
TORSDOF 2
ENDMDL
MODEL 6
REMARK VINA RESULT:      -4.0      1.210      1.210
REMARK  2 active torsions:
REMARK  status: ('A' for Active; 'I' for Inactive)
REMARK    1  A    between atoms: C1_1  and  C2_2 
REMARK    2  A    between atoms: C9_9  and  N10_10 
ROOT
HETATM    1  C1  UNL     1     -35.388  15.289  -3.917  1.00 20.00     0.150 C 
HETATM    2  C3  UNL     1     -34.451  15.090  -2.758  1.00 20.00     0.068 C 
HETATM    3  C4  UNL     1     -34.443  16.324  -1.861  1.00 20.00     0.008 C 
HETATM    4  C5  UNL     1     -34.260  17.602  -2.676  1.00 20.00     0.029 C 
HETATM    5  C6  UNL     1     -35.300  17.711  -3.788  1.00 20.00     0.242 C 
HETATM    6  N10 UNL     1     -35.297  16.501  -4.693  1.00 20.00    -0.038 N 
HETATM    7  H28 UNL     1     -36.137  16.595  -5.284  1.00 20.00     0.286 HD
ENDROOT
BRANCH   6   8
HETATM    8  C9  UNL     1     -34.132  16.438  -5.643  1.00 20.00     0.186 C 
HETATM    9  C7  UNL     1     -33.920  17.822  -6.237  1.00 20.00     0.040 C 
HETATM   10  C8  UNL     1     -34.433  15.395  -6.706  1.00 20.00     0.040 C 
ENDBRANCH   6   8
BRANCH   1  11
HETATM   11  C2  UNL     1     -36.337  14.401  -4.251  1.00 20.00     0.291 C 
HETATM   12  O11 UNL     1     -37.482  14.174  -3.782  1.00 20.00    -0.300 OA
ENDBRANCH   1  11
TORSDOF 2
ENDMDL
MODEL 7
REMARK VINA RESULT:      -4.0      1.439      2.676
REMARK  2 active torsions:
REMARK  status: ('A' for Active; 'I' for Inactive)
REMARK    1  A    between atoms: C1_1  and  C2_2 
REMARK    2  A    between atoms: C9_9  and  N10_10 
ROOT
HETATM    1  C1  UNL     1     -34.797  14.844  -4.957  1.00 20.00     0.150 C 
HETATM    2  C3  UNL     1     -34.195  15.801  -5.949  1.00 20.00     0.068 C 
HETATM    3  C4  UNL     1     -33.249  16.771  -5.247  1.00 20.00     0.008 C 
HETATM    4  C5  UNL     1     -33.901  17.387  -4.012  1.00 20.00     0.029 C 
HETATM    5  C6  UNL     1     -34.426  16.315  -3.062  1.00 20.00     0.242 C 
HETATM    6  N10 UNL     1     -35.382  15.364  -3.745  1.00 20.00    -0.038 N 
HETATM    7  H28 UNL     1     -35.532  14.594  -3.076  1.00 20.00     0.286 HD
ENDROOT
BRANCH   6   8
HETATM    8  C9  UNL     1     -36.744  15.941  -4.018  1.00 20.00     0.186 C 
HETATM    9  C7  UNL     1     -37.022  17.027  -2.989  1.00 20.00     0.040 C 
HETATM   10  C8  UNL     1     -37.764  14.816  -3.959  1.00 20.00     0.040 C 
ENDBRANCH   6   8
BRANCH   1  11
HETATM   11  C2  UNL     1     -34.789  13.513  -5.127  1.00 20.00     0.291 C 
HETATM   12  O11 UNL     1     -35.029  12.561  -4.339  1.00 20.00    -0.300 OA
ENDBRANCH   1  11
TORSDOF 2
ENDMDL
MODEL 8
REMARK VINA RESULT:      -3.9      2.311      3.637
REMARK  2 active torsions:
REMARK  status: ('A' for Active; 'I' for Inactive)
REMARK    1  A    between atoms: C1_1  and  C2_2 
REMARK    2  A    between atoms: C9_9  and  N10_10 
ROOT
HETATM    1  C1  UNL     1     -33.953  16.009  -4.572  1.00 20.00     0.150 C 
HETATM    2  C3  UNL     1     -33.253  15.223  -3.498  1.00 20.00     0.068 C 
HETATM    3  C4  UNL     1     -33.339  13.727  -3.790  1.00 20.00     0.008 C 
HETATM    4  C5  UNL     1     -34.769  13.308  -4.122  1.00 20.00     0.029 C 
HETATM    5  C6  UNL     1     -35.349  14.145  -5.258  1.00 20.00     0.242 C 
HETATM    6  N10 UNL     1     -35.288  15.627  -4.965  1.00 20.00    -0.038 N 
HETATM    7  H28 UNL     1     -35.533  16.095  -5.850  1.00 20.00     0.286 HD
ENDROOT
BRANCH   6   8
HETATM    8  C9  UNL     1     -36.296  16.103  -3.956  1.00 20.00     0.186 C 
HETATM    9  C7  UNL     1     -37.437  15.098  -3.903  1.00 20.00     0.040 C 
HETATM   10  C8  UNL     1     -36.767  17.489  -4.363  1.00 20.00     0.040 C 
ENDBRANCH   6   8
BRANCH   1  11
HETATM   11  C2  UNL     1     -33.383  17.040  -5.213  1.00 20.00     0.291 C 
HETATM   12  O11 UNL     1     -33.382  18.278  -4.987  1.00 20.00    -0.300 OA
ENDBRANCH   1  11
TORSDOF 2
ENDMDL
MODEL 9
REMARK VINA RESULT:      -3.8      2.125      3.776
REMARK  2 active torsions:
REMARK  status: ('A' for Active; 'I' for Inactive)
REMARK    1  A    between atoms: C1_1  and  C2_2 
REMARK    2  A    between atoms: C9_9  and  N10_10 
ROOT
HETATM    1  C1  UNL     1     -36.631  15.131  -4.121  1.00 20.00     0.150 C 
HETATM    2  C3  UNL     1     -36.235  15.149  -5.572  1.00 20.00     0.068 C 
HETATM    3  C4  UNL     1     -35.128  14.132  -5.835  1.00 20.00     0.008 C 
HETATM    4  C5  UNL     1     -33.999  14.265  -4.816  1.00 20.00     0.029 C 
HETATM    5  C6  UNL     1     -34.522  14.181  -3.385  1.00 20.00     0.242 C 
HETATM    6  N10 UNL     1     -35.603  15.201  -3.112  1.00 20.00    -0.038 N 
HETATM    7  H28 UNL     1     -36.002  14.944  -2.196  1.00 20.00     0.286 HD
ENDROOT
BRANCH   6   8
HETATM    8  C9  UNL     1     -35.103  16.611  -2.960  1.00 20.00     0.186 C 
HETATM    9  C7  UNL     1     -33.877  16.593  -2.059  1.00 20.00     0.040 C 
HETATM   10  C8  UNL     1     -36.225  17.462  -2.388  1.00 20.00     0.040 C 
ENDBRANCH   6   8
BRANCH   1  11
HETATM   11  C2  UNL     1     -37.904  15.020  -3.712  1.00 20.00     0.291 C 
HETATM   12  O11 UNL     1     -38.782  14.142  -3.917  1.00 20.00    -0.300 OA
ENDBRANCH   1  11
TORSDOF 2
ENDMDL
