MODEL 1
REMARK VINA RESULT:      -4.5      0.000      0.000
REMARK  3 active torsions:
REMARK  status: ('A' for Active; 'I' for Inactive)
REMARK    1  A    between atoms: C1_1  and  C9_9 
REMARK    2  A    between atoms: C3_3  and  C8_8 
REMARK    3  A    between atoms: C9_9  and  N10_10 
ROOT
HETATM    1  C4  UNL     1     -36.626  15.688  -4.898  1.00 20.00     0.028 C 
HETATM    2  C5  UNL     1     -35.758  15.253  -6.076  1.00 20.00     0.015 C 
HETATM    3  C6  UNL     1     -35.842  16.529  -3.904  1.00 20.00     0.235 C 
HETATM    4  C7  UNL     1     -33.715  15.370  -4.564  1.00 20.00     0.246 C 
HETATM    5  C8  UNL     1     -34.459  14.587  -5.634  1.00 20.00     0.073 C 
HETATM    6  N10 UNL     1     -34.641  15.748  -3.430  1.00 20.00    -0.067 N 
HETATM    7  H27 UNL     1     -34.993  14.876  -3.011  1.00 20.00     0.280 HD
ENDROOT
BRANCH   6   8
HETATM    8  C9  UNL     1     -33.907  16.471  -2.334  1.00 20.00     0.263 C 
BRANCH   8   9
HETATM    9  C1  UNL     1     -34.673  16.513  -1.052  1.00 20.00     0.012 C 
HETATM   10  C2  UNL     1     -34.444  17.412  -0.091  1.00 20.00     0.082 C 
HETATM   11 CL12 UNL     1     -35.332  17.457   1.373  1.00 20.00    -0.097 Cl
ENDBRANCH   8   9
ENDBRANCH   6   8
BRANCH   5  12
HETATM   12  C3  UNL     1     -34.782  13.174  -5.169  1.00 20.00     0.237 C 
HETATM   13  O11 UNL     1     -34.693  12.811  -4.000  1.00 20.00    -0.306 OA
ENDBRANCH   5  12
TORSDOF 3
ENDMDL
MODEL 2
REMARK VINA RESULT:      -4.5      1.394      1.841
REMARK  3 active torsions:
REMARK  status: ('A' for Active; 'I' for Inactive)
REMARK    1  A    between atoms: C1_1  and  C9_9 
REMARK    2  A    between atoms: C3_3  and  C8_8 
REMARK    3  A    between atoms: C9_9  and  N10_10 
ROOT
HETATM    1  C4  UNL     1     -34.223  15.627  -5.831  1.00 20.00     0.028 C 
HETATM    2  C5  UNL     1     -34.641  14.182  -5.570  1.00 20.00     0.015 C 
HETATM    3  C6  UNL     1     -33.471  16.217  -4.650  1.00 20.00     0.235 C 
HETATM    4  C7  UNL     1     -34.697  14.692  -3.077  1.00 20.00     0.246 C 
HETATM    5  C8  UNL     1     -35.390  14.017  -4.252  1.00 20.00     0.073 C 
HETATM    6  N10 UNL     1     -34.332  16.119  -3.415  1.00 20.00    -0.067 N 
HETATM    7  H27 UNL     1     -35.206  16.627  -3.613  1.00 20.00     0.280 HD
ENDROOT
BRANCH   6   8
HETATM    8  C9  UNL     1     -33.700  16.819  -2.243  1.00 20.00     0.263 C 
BRANCH   8   9
HETATM    9  C1  UNL     1     -34.496  16.678  -0.986  1.00 20.00     0.012 C 
HETATM   10  C2  UNL     1     -34.446  17.561   0.016  1.00 20.00     0.082 C 
HETATM   11 CL12 UNL     1     -35.366  17.395   1.451  1.00 20.00    -0.097 Cl
ENDBRANCH   8   9
ENDBRANCH   6   8
BRANCH   5  12
HETATM   12  C3  UNL     1     -36.807  14.541  -4.439  1.00 20.00     0.237 C 
HETATM   13  O11 UNL     1     -37.757  14.181  -3.752  1.00 20.00    -0.306 OA
ENDBRANCH   5  12
TORSDOF 3
ENDMDL
MODEL 3
REMARK VINA RESULT:      -4.3      1.491      2.334
REMARK  3 active torsions:
REMARK  status: ('A' for Active; 'I' for Inactive)
REMARK    1  A    between atoms: C1_1  and  C9_9 
REMARK    2  A    between atoms: C3_3  and  C8_8 
REMARK    3  A    between atoms: C9_9  and  N10_10 
ROOT
HETATM    1  C4  UNL     1     -34.007  13.721  -4.540  1.00 20.00     0.028 C 
HETATM    2  C5  UNL     1     -35.475  13.334  -4.376  1.00 20.00     0.015 C 
HETATM    3  C6  UNL     1     -33.520  14.580  -3.384  1.00 20.00     0.235 C 
HETATM    4  C7  UNL     1     -35.844  15.462  -3.030  1.00 20.00     0.246 C 
HETATM    5  C8  UNL     1     -36.374  14.539  -4.117  1.00 20.00     0.073 C 
HETATM    6  N10 UNL     1     -34.392  15.806  -3.276  1.00 20.00    -0.067 N 
HETATM    7  H27 UNL     1     -34.337  16.299  -4.178  1.00 20.00     0.280 HD
ENDROOT
BRANCH   6   8
HETATM    8  C9  UNL     1     -33.871  16.767  -2.243  1.00 20.00     0.263 C 
BRANCH   8   9
HETATM    9  C1  UNL     1     -34.555  16.627  -0.922  1.00 20.00     0.012 C 
HETATM   10  C2  UNL     1     -34.555  17.585   0.009  1.00 20.00     0.082 C 
HETATM   11 CL12 UNL     1     -35.347  17.419   1.518  1.00 20.00    -0.097 Cl
ENDBRANCH   8   9
ENDBRANCH   6   8
BRANCH   5  12
HETATM   12  C3  UNL     1     -36.570  15.280  -5.432  1.00 20.00     0.237 C 
HETATM   13  O11 UNL     1     -36.097  16.389  -5.659  1.00 20.00    -0.306 OA
ENDBRANCH   5  12
TORSDOF 3
ENDMDL
MODEL 4
REMARK VINA RESULT:      -4.1      1.574      1.995
REMARK  3 active torsions:
REMARK  status: ('A' for Active; 'I' for Inactive)
REMARK    1  A    between atoms: C1_1  and  C9_9 
REMARK    2  A    between atoms: C3_3  and  C8_8 
REMARK    3  A    between atoms: C9_9  and  N10_10 
ROOT
HETATM    1  C4  UNL     1     -34.128  16.811  -6.560  1.00 20.00     0.028 C 
HETATM    2  C5  UNL     1     -34.435  15.447  -7.175  1.00 20.00     0.015 C 
HETATM    3  C6  UNL     1     -33.378  16.678  -5.245  1.00 20.00     0.235 C 
HETATM    4  C7  UNL     1     -34.441  14.440  -4.838  1.00 20.00     0.246 C 
HETATM    5  C8  UNL     1     -35.125  14.504  -6.195  1.00 20.00     0.073 C 
HETATM    6  N10 UNL     1     -34.187  15.829  -4.296  1.00 20.00    -0.067 N 
HETATM    7  H27 UNL     1     -35.101  16.290  -4.179  1.00 20.00     0.280 HD
ENDROOT
BRANCH   6   8
HETATM    8  C9  UNL     1     -33.566  15.783  -2.927  1.00 20.00     0.263 C 
BRANCH   8   9
HETATM    9  C1  UNL     1     -34.517  16.180  -1.845  1.00 20.00     0.012 C 
HETATM   10  C2  UNL     1     -34.189  17.007  -0.848  1.00 20.00     0.082 C 
HETATM   11 CL12 UNL     1     -35.287  17.462   0.385  1.00 20.00    -0.097 Cl
ENDBRANCH   8   9
ENDBRANCH   6   8
BRANCH   5  12
HETATM   12  C3  UNL     1     -36.580  14.930  -6.066  1.00 20.00     0.237 C 
HETATM   13  O11 UNL     1     -37.094  15.270  -5.005  1.00 20.00    -0.306 OA
ENDBRANCH   5  12
TORSDOF 3
ENDMDL
MODEL 5
REMARK VINA RESULT:      -4.0      3.206      4.256
REMARK  3 active torsions:
REMARK  status: ('A' for Active; 'I' for Inactive)
REMARK    1  A    between atoms: C1_1  and  C9_9 
REMARK    2  A    between atoms: C3_3  and  C8_8 
REMARK    3  A    between atoms: C9_9  and  N10_10 
ROOT
HETATM    1  C4  UNL     1     -34.261  16.109  -5.663  1.00 20.00     0.028 C 
HETATM    2  C5  UNL     1     -33.290  15.863  -4.511  1.00 20.00     0.015 C 
HETATM    3  C6  UNL     1     -35.627  16.550  -5.162  1.00 20.00     0.235 C 
HETATM    4  C7  UNL     1     -35.270  15.297  -3.015  1.00 20.00     0.246 C 
HETATM    5  C8  UNL     1     -33.861  14.925  -3.452  1.00 20.00     0.073 C 
HETATM    6  N10 UNL     1     -36.167  15.509  -4.214  1.00 20.00    -0.067 N 
HETATM    7  H27 UNL     1     -36.210  14.620  -4.731  1.00 20.00     0.280 HD
ENDROOT
BRANCH   6   8
HETATM    8  C9  UNL     1     -37.579  15.818  -3.798  1.00 20.00     0.263 C 
BRANCH   8   9
HETATM    9  C1  UNL     1     -38.526  14.697  -4.082  1.00 20.00     0.012 C 
HETATM   10  C2  UNL     1     -39.676  14.859  -4.742  1.00 20.00     0.082 C 
HETATM   11 CL12 UNL     1     -40.753  13.568  -5.069  1.00 20.00    -0.097 Cl
ENDBRANCH   8   9
ENDBRANCH   6   8
BRANCH   5  12
HETATM   12  C3  UNL     1     -33.802  13.503  -3.991  1.00 20.00     0.237 C 
HETATM   13  O11 UNL     1     -34.797  12.821  -4.208  1.00 20.00    -0.306 OA
ENDBRANCH   5  12
TORSDOF 3
ENDMDL
MODEL 6
REMARK VINA RESULT:      -4.0     11.618     12.524
REMARK  3 active torsions:
REMARK  status: ('A' for Active; 'I' for Inactive)
REMARK    1  A    between atoms: C1_1  and  C9_9 
REMARK    2  A    between atoms: C3_3  and  C8_8 
REMARK    3  A    between atoms: C9_9  and  N10_10 
ROOT
HETATM    1  C4  UNL     1     -35.693   5.402   3.796  1.00 20.00     0.028 C 
HETATM    2  C5  UNL     1     -35.431   4.387   4.907  1.00 20.00     0.015 C 
HETATM    3  C6  UNL     1     -34.454   5.642   2.950  1.00 20.00     0.235 C 
HETATM    4  C7  UNL     1     -32.982   5.078   4.904  1.00 20.00     0.246 C 
HETATM    5  C8  UNL     1     -34.204   4.736   5.743  1.00 20.00     0.073 C 
HETATM    6  N10 UNL     1     -33.325   6.097   3.841  1.00 20.00    -0.067 N 
HETATM    7  H27 UNL     1     -33.642   6.952   4.320  1.00 20.00     0.280 HD
ENDROOT
BRANCH   6   8
HETATM    8  C9  UNL     1     -32.113   6.491   3.042  1.00 20.00     0.263 C 
BRANCH   8   9
HETATM    9  C1  UNL     1     -32.108   7.938   2.671  1.00 20.00     0.012 C 
HETATM   10  C2  UNL     1     -32.101   8.371   1.407  1.00 20.00     0.082 C 
HETATM   11 CL12 UNL     1     -32.102  10.032   0.990  1.00 20.00    -0.097 Cl
ENDBRANCH   8   9
ENDBRANCH   6   8
BRANCH   5  12
HETATM   12  C3  UNL     1     -34.574   5.877   6.680  1.00 20.00     0.237 C 
HETATM   13  O11 UNL     1     -34.001   6.962   6.683  1.00 20.00    -0.306 OA
ENDBRANCH   5  12
TORSDOF 3
ENDMDL
MODEL 7
REMARK VINA RESULT:      -3.9      2.292      3.033
REMARK  3 active torsions:
REMARK  status: ('A' for Active; 'I' for Inactive)
REMARK    1  A    between atoms: C1_1  and  C9_9 
REMARK    2  A    between atoms: C3_3  and  C8_8 
REMARK    3  A    between atoms: C9_9  and  N10_10 
ROOT
HETATM    1  C4  UNL     1     -34.425  14.944  -7.168  1.00 20.00     0.028 C 
HETATM    2  C5  UNL     1     -35.413  16.046  -7.546  1.00 20.00     0.015 C 
HETATM    3  C6  UNL     1     -34.694  14.402  -5.773  1.00 20.00     0.235 C 
HETATM    4  C7  UNL     1     -35.664  16.611  -5.077  1.00 20.00     0.246 C 
HETATM    5  C8  UNL     1     -35.496  17.145  -6.492  1.00 20.00     0.073 C 
HETATM    6  N10 UNL     1     -34.641  15.538  -4.782  1.00 20.00    -0.067 N 
HETATM    7  H27 UNL     1     -33.708  15.966  -4.860  1.00 20.00     0.280 HD
ENDROOT
BRANCH   6   8
HETATM    8  C9  UNL     1     -34.754  15.042  -3.366  1.00 20.00     0.263 C 
BRANCH   8   9
HETATM    9  C1  UNL     1     -34.106  15.957  -2.377  1.00 20.00     0.012 C 
HETATM   10  C2  UNL     1     -34.757  16.498  -1.344  1.00 20.00     0.082 C 
HETATM   11 CL12 UNL     1     -34.005  17.540  -0.212  1.00 20.00    -0.097 Cl
ENDBRANCH   8   9
ENDBRANCH   6   8
BRANCH   5  12
HETATM   12  C3  UNL     1     -34.257  18.020  -6.614  1.00 20.00     0.237 C 
HETATM   13  O11 UNL     1     -33.421  18.136  -5.724  1.00 20.00    -0.306 OA
ENDBRANCH   5  12
TORSDOF 3
ENDMDL
MODEL 8
REMARK VINA RESULT:      -3.9      2.531      4.188
REMARK  3 active torsions:
REMARK  status: ('A' for Active; 'I' for Inactive)
REMARK    1  A    between atoms: C1_1  and  C9_9 
REMARK    2  A    between atoms: C3_3  and  C8_8 
REMARK    3  A    between atoms: C9_9  and  N10_10 
ROOT
HETATM    1  C4  UNL     1     -33.498  13.609  -3.795  1.00 20.00     0.028 C 
HETATM    2  C5  UNL     1     -32.638  14.869  -3.734  1.00 20.00     0.015 C 
HETATM    3  C6  UNL     1     -34.549  13.698  -4.889  1.00 20.00     0.235 C 
HETATM    4  C7  UNL     1     -34.593  16.199  -4.675  1.00 20.00     0.246 C 
HETATM    5  C8  UNL     1     -33.471  16.144  -3.649  1.00 20.00     0.073 C 
HETATM    6  N10 UNL     1     -35.401  14.921  -4.659  1.00 20.00    -0.067 N 
HETATM    7  H27 UNL     1     -35.820  14.829  -3.723  1.00 20.00     0.280 HD
ENDROOT
BRANCH   6   8
HETATM    8  C9  UNL     1     -36.552  14.984  -5.626  1.00 20.00     0.263 C 
BRANCH   8   9
HETATM    9  C1  UNL     1     -37.824  15.437  -4.985  1.00 20.00     0.012 C 
HETATM   10  C2  UNL     1     -38.245  14.994  -3.798  1.00 20.00     0.082 C 
HETATM   11 CL12 UNL     1     -39.701  15.523  -3.068  1.00 20.00    -0.097 Cl
ENDBRANCH   8   9
ENDBRANCH   6   8
BRANCH   5  12
HETATM   12  C3  UNL     1     -34.007  16.271  -2.230  1.00 20.00     0.237 C 
HETATM   13  O11 UNL     1     -35.191  16.139  -1.941  1.00 20.00    -0.306 OA
ENDBRANCH   5  12
TORSDOF 3
ENDMDL
MODEL 9
REMARK VINA RESULT:      -3.9     11.196     12.544
REMARK  3 active torsions:
REMARK  status: ('A' for Active; 'I' for Inactive)
REMARK    1  A    between atoms: C1_1  and  C9_9 
REMARK    2  A    between atoms: C3_3  and  C8_8 
REMARK    3  A    between atoms: C9_9  and  N10_10 
ROOT
HETATM    1  C4  UNL     1     -42.230   3.935  -2.204  1.00 20.00     0.028 C 
HETATM    2  C5  UNL     1     -40.897   4.241  -1.524  1.00 20.00     0.015 C 
HETATM    3  C6  UNL     1     -42.699   5.095  -3.067  1.00 20.00     0.235 C 
HETATM    4  C7  UNL     1     -41.476   6.718  -1.593  1.00 20.00     0.246 C 
HETATM    5  C8  UNL     1     -40.913   5.568  -0.772  1.00 20.00     0.073 C 
HETATM    6  N10 UNL     1     -42.800   6.337  -2.217  1.00 20.00    -0.067 N 
HETATM    7  H27 UNL     1     -43.457   6.130  -1.453  1.00 20.00     0.280 HD
ENDROOT
BRANCH   6   8
HETATM    8  C9  UNL     1     -43.400   7.485  -2.983  1.00 20.00     0.263 C 
BRANCH   8   9
HETATM    9  C1  UNL     1     -42.420   8.151  -3.893  1.00 20.00     0.012 C 
HETATM   10  C2  UNL     1     -42.760   8.695  -5.064  1.00 20.00     0.082 C 
HETATM   11 CL12 UNL     1     -41.631   9.463  -6.099  1.00 20.00    -0.097 Cl
ENDBRANCH   8   9
ENDBRANCH   6   8
BRANCH   5  12
HETATM   12  C3  UNL     1     -41.689   5.374   0.522  1.00 20.00     0.237 C 
HETATM   13  O11 UNL     1     -42.838   5.771   0.687  1.00 20.00    -0.306 OA
ENDBRANCH   5  12
TORSDOF 3
ENDMDL
