MODEL 1
REMARK VINA RESULT:      -4.8      0.000      0.000
REMARK  4 active torsions:
REMARK  status: ('A' for Active; 'I' for Inactive)
REMARK    1  A    between atoms: C3_3  and  C8_8 
REMARK    2  A    between atoms: C3_3  and  O9_9 
REMARK    3  A    between atoms: C6_6  and  C7_7 
REMARK    4  A    between atoms: C7_7  and  C8_8 
ROOT
HETATM    1  C1  UNL     1     -33.790   4.632   6.240  1.00 20.00     0.041 A 
HETATM    2  C2  UNL     1     -35.097   5.321   6.519  1.00 20.00     0.041 A 
HETATM    3  C3  UNL     1     -34.775   4.853   5.125  1.00 20.00     0.061 A 
ENDROOT
BRANCH   3   4
HETATM    4  C8  UNL     1     -34.470   5.869   4.022  1.00 20.00     0.016 C 
HETATM    5  C5  UNL     1     -34.556   5.188   2.656  1.00 20.00     0.013 C 
BRANCH   4   6
HETATM    6  C7  UNL     1     -33.094   6.515   4.273  1.00 20.00     0.007 C 
BRANCH   6   7
HETATM    7  C6  UNL     1     -32.187   6.515   3.040  1.00 20.00    -0.004 C 
HETATM    8  C4  UNL     1     -32.092   7.903   2.423  1.00 20.00     0.005 C 
ENDBRANCH   6   7
ENDBRANCH   4   6
ENDBRANCH   3   4
BRANCH   3   9
HETATM    9  O9  UNL     1     -35.482   3.687   4.668  1.00 20.00    -0.389 OA
HETATM   10  H25 UNL     1     -36.271   4.016   4.219  1.00 20.00     0.210 HD
ENDBRANCH   3   9
TORSDOF 4
ENDMDL
MODEL 2
REMARK VINA RESULT:      -4.5      1.265      1.729
REMARK  4 active torsions:
REMARK  status: ('A' for Active; 'I' for Inactive)
REMARK    1  A    between atoms: C3_3  and  C8_8 
REMARK    2  A    between atoms: C3_3  and  O9_9 
REMARK    3  A    between atoms: C6_6  and  C7_7 
REMARK    4  A    between atoms: C7_7  and  C8_8 
ROOT
HETATM    1  C1  UNL     1     -34.571   3.580   5.202  1.00 20.00     0.041 A 
HETATM    2  C2  UNL     1     -35.290   4.358   6.270  1.00 20.00     0.041 A 
HETATM    3  C3  UNL     1     -34.826   5.051   5.017  1.00 20.00     0.061 A 
ENDROOT
BRANCH   3   4
HETATM    4  C8  UNL     1     -33.662   6.044   5.073  1.00 20.00     0.016 C 
HETATM    5  C5  UNL     1     -33.787   6.915   6.323  1.00 20.00     0.013 C 
BRANCH   4   6
HETATM    6  C7  UNL     1     -33.622   6.876   3.777  1.00 20.00     0.007 C 
BRANCH   6   7
HETATM    7  C6  UNL     1     -32.291   6.775   3.029  1.00 20.00    -0.004 C 
HETATM    8  C4  UNL     1     -32.013   8.035   2.221  1.00 20.00     0.005 C 
ENDBRANCH   6   7
ENDBRANCH   4   6
ENDBRANCH   3   4
BRANCH   3   9
HETATM    9  O9  UNL     1     -35.848   5.399   4.068  1.00 20.00    -0.389 OA
HETATM   10  H25 UNL     1     -35.646   6.299   3.781  1.00 20.00     0.210 HD
ENDBRANCH   3   9
TORSDOF 4
ENDMDL
MODEL 3
REMARK VINA RESULT:      -4.4     11.602     12.625
REMARK  4 active torsions:
REMARK  status: ('A' for Active; 'I' for Inactive)
REMARK    1  A    between atoms: C3_3  and  C8_8 
REMARK    2  A    between atoms: C3_3  and  O9_9 
REMARK    3  A    between atoms: C6_6  and  C7_7 
REMARK    4  A    between atoms: C7_7  and  C8_8 
ROOT
HETATM    1  C1  UNL     1     -36.277  14.666  -5.236  1.00 20.00     0.041 A 
HETATM    2  C2  UNL     1     -35.162  14.266  -6.163  1.00 20.00     0.041 A 
HETATM    3  C3  UNL     1     -35.035  14.021  -4.683  1.00 20.00     0.061 A 
ENDROOT
BRANCH   3   4
HETATM    4  C8  UNL     1     -34.051  14.844  -3.848  1.00 20.00     0.016 C 
HETATM    5  C5  UNL     1     -32.850  13.978  -3.467  1.00 20.00     0.013 C 
BRANCH   4   6
HETATM    6  C7  UNL     1     -34.770  15.428  -2.618  1.00 20.00     0.007 C 
BRANCH   6   7
HETATM    7  C6  UNL     1     -33.995  16.560  -1.939  1.00 20.00    -0.004 C 
HETATM    8  C4  UNL     1     -34.569  16.878  -0.566  1.00 20.00     0.005 C 
ENDBRANCH   6   7
ENDBRANCH   4   6
ENDBRANCH   3   4
BRANCH   3   9
HETATM    9  O9  UNL     1     -35.173  12.657  -4.252  1.00 20.00    -0.389 OA
HETATM   10  H25 UNL     1     -34.284  12.279  -4.283  1.00 20.00     0.210 HD
ENDBRANCH   3   9
TORSDOF 4
ENDMDL
MODEL 4
REMARK VINA RESULT:      -4.3     11.977     13.146
REMARK  4 active torsions:
REMARK  status: ('A' for Active; 'I' for Inactive)
REMARK    1  A    between atoms: C3_3  and  C8_8 
REMARK    2  A    between atoms: C3_3  and  O9_9 
REMARK    3  A    between atoms: C6_6  and  C7_7 
REMARK    4  A    between atoms: C7_7  and  C8_8 
ROOT
HETATM    1  C1  UNL     1     -33.917  13.729  -3.806  1.00 20.00     0.041 A 
HETATM    2  C2  UNL     1     -34.366  14.182  -5.168  1.00 20.00     0.041 A 
HETATM    3  C3  UNL     1     -33.701  15.156  -4.232  1.00 20.00     0.061 A 
ENDROOT
BRANCH   3   4
HETATM    4  C8  UNL     1     -34.514  16.281  -3.586  1.00 20.00     0.016 C 
HETATM    5  C5  UNL     1     -33.811  17.619  -3.812  1.00 20.00     0.013 C 
BRANCH   4   6
HETATM    6  C7  UNL     1     -34.733  15.975  -2.092  1.00 20.00     0.007 C 
BRANCH   6   7
HETATM    7  C6  UNL     1     -34.044  16.973  -1.159  1.00 20.00    -0.004 C 
HETATM    8  C4  UNL     1     -34.870  17.219   0.096  1.00 20.00     0.005 C 
ENDBRANCH   6   7
ENDBRANCH   4   6
ENDBRANCH   3   4
BRANCH   3   9
HETATM    9  O9  UNL     1     -32.348  15.520  -4.552  1.00 20.00    -0.389 OA
HETATM   10  H25 UNL     1     -31.787  14.970  -3.990  1.00 20.00     0.210 HD
ENDBRANCH   3   9
TORSDOF 4
ENDMDL
MODEL 5
REMARK VINA RESULT:      -4.1     12.024     13.635
REMARK  4 active torsions:
REMARK  status: ('A' for Active; 'I' for Inactive)
REMARK    1  A    between atoms: C3_3  and  C8_8 
REMARK    2  A    between atoms: C3_3  and  O9_9 
REMARK    3  A    between atoms: C6_6  and  C7_7 
REMARK    4  A    between atoms: C7_7  and  C8_8 
ROOT
HETATM    1  C1  UNL     1     -34.876  17.053  -5.198  1.00 20.00     0.041 A 
HETATM    2  C2  UNL     1     -33.397  17.294  -5.327  1.00 20.00     0.041 A 
HETATM    3  C3  UNL     1     -33.910  15.921  -4.984  1.00 20.00     0.061 A 
ENDROOT
BRANCH   3   4
HETATM    4  C8  UNL     1     -33.698  15.348  -3.580  1.00 20.00     0.016 C 
HETATM    5  C5  UNL     1     -33.354  13.862  -3.676  1.00 20.00     0.013 C 
BRANCH   4   6
HETATM    6  C7  UNL     1     -34.946  15.609  -2.716  1.00 20.00     0.007 C 
BRANCH   6   7
HETATM    7  C6  UNL     1     -34.631  16.282  -1.377  1.00 20.00    -0.004 C 
HETATM    8  C4  UNL     1     -33.714  17.482  -1.563  1.00 20.00     0.005 C 
ENDBRANCH   6   7
ENDBRANCH   4   6
ENDBRANCH   3   4
BRANCH   3   9
HETATM    9  O9  UNL     1     -33.846  14.939  -6.032  1.00 20.00    -0.389 OA
HETATM   10  H25 UNL     1     -33.193  14.288  -5.745  1.00 20.00     0.210 HD
ENDBRANCH   3   9
TORSDOF 4
ENDMDL
MODEL 6
REMARK VINA RESULT:      -4.1      1.732      4.108
REMARK  4 active torsions:
REMARK  status: ('A' for Active; 'I' for Inactive)
REMARK    1  A    between atoms: C3_3  and  C8_8 
REMARK    2  A    between atoms: C3_3  and  O9_9 
REMARK    3  A    between atoms: C6_6  and  C7_7 
REMARK    4  A    between atoms: C7_7  and  C8_8 
ROOT
HETATM    1  C1  UNL     1     -32.159   7.849   2.390  1.00 20.00     0.041 A 
HETATM    2  C2  UNL     1     -31.462   7.779   3.721  1.00 20.00     0.041 A 
HETATM    3  C3  UNL     1     -32.484   6.738   3.351  1.00 20.00     0.061 A 
ENDROOT
BRANCH   3   4
HETATM    4  C8  UNL     1     -33.842   6.706   4.057  1.00 20.00     0.016 C 
HETATM    5  C5  UNL     1     -33.637   6.756   5.571  1.00 20.00     0.013 C 
BRANCH   4   6
HETATM    6  C7  UNL     1     -34.634   5.463   3.610  1.00 20.00     0.007 C 
BRANCH   6   7
HETATM    7  C6  UNL     1     -35.490   4.853   4.722  1.00 20.00    -0.004 C 
HETATM    8  C4  UNL     1     -34.747   3.741   5.447  1.00 20.00     0.005 C 
ENDBRANCH   6   7
ENDBRANCH   4   6
ENDBRANCH   3   4
BRANCH   3   9
HETATM    9  O9  UNL     1     -31.971   5.439   3.009  1.00 20.00    -0.389 OA
HETATM   10  H25 UNL     1     -31.916   4.949   3.840  1.00 20.00     0.210 HD
ENDBRANCH   3   9
TORSDOF 4
ENDMDL
MODEL 7
REMARK VINA RESULT:      -4.0     12.119     13.094
REMARK  4 active torsions:
REMARK  status: ('A' for Active; 'I' for Inactive)
REMARK    1  A    between atoms: C3_3  and  C8_8 
REMARK    2  A    between atoms: C3_3  and  O9_9 
REMARK    3  A    between atoms: C6_6  and  C7_7 
REMARK    4  A    between atoms: C7_7  and  C8_8 
ROOT
HETATM    1  C1  UNL     1     -34.722  16.816  -0.740  1.00 20.00     0.041 A 
HETATM    2  C2  UNL     1     -33.515  17.699  -0.897  1.00 20.00     0.041 A 
HETATM    3  C3  UNL     1     -34.273  17.236  -2.113  1.00 20.00     0.061 A 
ENDROOT
BRANCH   3   4
HETATM    4  C8  UNL     1     -33.652  16.211  -3.064  1.00 20.00     0.016 C 
HETATM    5  C5  UNL     1     -33.521  16.818  -4.461  1.00 20.00     0.013 C 
BRANCH   4   6
HETATM    6  C7  UNL     1     -34.490  14.919  -3.060  1.00 20.00     0.007 C 
BRANCH   6   7
HETATM    7  C6  UNL     1     -33.813  13.750  -3.779  1.00 20.00    -0.004 C 
HETATM    8  C4  UNL     1     -34.673  13.231  -4.923  1.00 20.00     0.005 C 
ENDBRANCH   6   7
ENDBRANCH   4   6
ENDBRANCH   3   4
BRANCH   3   9
HETATM    9  O9  UNL     1     -35.087  18.224  -2.766  1.00 20.00    -0.389 OA
HETATM   10  H25 UNL     1     -34.473  18.808  -3.230  1.00 20.00     0.210 HD
ENDBRANCH   3   9
TORSDOF 4
ENDMDL
MODEL 8
REMARK VINA RESULT:      -4.0     11.923     12.895
REMARK  4 active torsions:
REMARK  status: ('A' for Active; 'I' for Inactive)
REMARK    1  A    between atoms: C3_3  and  C8_8 
REMARK    2  A    between atoms: C3_3  and  O9_9 
REMARK    3  A    between atoms: C6_6  and  C7_7 
REMARK    4  A    between atoms: C7_7  and  C8_8 
ROOT
HETATM    1  C1  UNL     1     -36.300  16.049  -4.465  1.00 20.00     0.041 A 
HETATM    2  C2  UNL     1     -36.928  14.981  -3.613  1.00 20.00     0.041 A 
HETATM    3  C3  UNL     1     -36.129  16.083  -2.971  1.00 20.00     0.061 A 
ENDROOT
BRANCH   3   4
HETATM    4  C8  UNL     1     -34.763  15.782  -2.349  1.00 20.00     0.016 C 
HETATM    5  C5  UNL     1     -34.628  16.524  -1.019  1.00 20.00     0.013 C 
BRANCH   4   6
HETATM    6  C7  UNL     1     -33.644  16.145  -3.343  1.00 20.00     0.007 C 
BRANCH   6   7
HETATM    7  C6  UNL     1     -32.700  14.981  -3.650  1.00 20.00    -0.004 C 
HETATM    8  C4  UNL     1     -33.465  13.674  -3.806  1.00 20.00     0.005 C 
ENDBRANCH   6   7
ENDBRANCH   4   6
ENDBRANCH   3   4
BRANCH   3   9
HETATM    9  O9  UNL     1     -36.882  17.089  -2.273  1.00 20.00    -0.389 OA
HETATM   10  H25 UNL     1     -36.877  16.826  -1.344  1.00 20.00     0.210 HD
ENDBRANCH   3   9
TORSDOF 4
ENDMDL
MODEL 9
REMARK VINA RESULT:      -4.0     12.022     13.441
REMARK  4 active torsions:
REMARK  status: ('A' for Active; 'I' for Inactive)
REMARK    1  A    between atoms: C3_3  and  C8_8 
REMARK    2  A    between atoms: C3_3  and  O9_9 
REMARK    3  A    between atoms: C6_6  and  C7_7 
REMARK    4  A    between atoms: C7_7  and  C8_8 
ROOT
HETATM    1  C1  UNL     1     -33.654  16.980  -3.620  1.00 20.00     0.041 A 
HETATM    2  C2  UNL     1     -33.853  16.214  -2.342  1.00 20.00     0.041 A 
HETATM    3  C3  UNL     1     -33.685  15.476  -3.643  1.00 20.00     0.061 A 
ENDROOT
BRANCH   3   4
HETATM    4  C8  UNL     1     -34.872  14.743  -4.272  1.00 20.00     0.016 C 
HETATM    5  C5  UNL     1     -34.517  13.270  -4.478  1.00 20.00     0.013 C 
BRANCH   4   6
HETATM    6  C7  UNL     1     -35.281  15.439  -5.584  1.00 20.00     0.007 C 
BRANCH   6   7
HETATM    7  C6  UNL     1     -34.537  14.910  -6.812  1.00 20.00    -0.004 C 
HETATM    8  C4  UNL     1     -35.505  14.513  -7.917  1.00 20.00     0.005 C 
ENDBRANCH   6   7
ENDBRANCH   4   6
ENDBRANCH   3   4
BRANCH   3   9
HETATM    9  O9  UNL     1     -32.420  14.823  -3.843  1.00 20.00    -0.389 OA
HETATM   10  H25 UNL     1     -32.461  14.005  -3.332  1.00 20.00     0.210 HD
ENDBRANCH   3   9
TORSDOF 4
ENDMDL
