MODEL 1
REMARK VINA RESULT:      -4.2      0.000      0.000
REMARK  2 active torsions:
REMARK  status: ('A' for Active; 'I' for Inactive)
REMARK    1  A    between atoms: C2_2  and  C7_7 
REMARK       I    between atoms: C2_2  and  N8_8 
REMARK    2  A    between atoms: C6_6  and  C7_7 
ROOT
HETATM    1  C1  UNL     1     -35.614  14.793  -6.936  1.00 20.00     0.166 C 
HETATM    2  C2  UNL     1     -34.516  13.930  -5.240  1.00 20.00     0.252 C 
HETATM    3  N8  UNL     1     -34.563  14.617  -6.442  1.00 20.00    -0.199 NA
HETATM    4  O9  UNL     1     -34.918  12.780  -5.057  1.00 20.00    -0.270 OA
HETATM    5  S10 UNL     1     -37.020  15.049  -7.638  1.00 20.00    -0.055 SA
ENDROOT
BRANCH   2   6
HETATM    6  C7  UNL     1     -33.899  14.756  -4.088  1.00 20.00     0.035 C 
HETATM    7  C4  UNL     1     -33.253  16.037  -4.645  1.00 20.00     0.025 C 
HETATM    8  C5  UNL     1     -32.792  13.911  -3.430  1.00 20.00     0.025 C 
BRANCH   6   9
HETATM    9  C6  UNL     1     -34.971  15.101  -3.023  1.00 20.00     0.014 C 
HETATM   10  C3  UNL     1     -34.532  16.118  -1.976  1.00 20.00     0.006 C 
ENDBRANCH   6   9
ENDBRANCH   2   6
TORSDOF 2
ENDMDL
MODEL 2
REMARK VINA RESULT:      -4.2      1.787      1.796
REMARK  2 active torsions:
REMARK  status: ('A' for Active; 'I' for Inactive)
REMARK    1  A    between atoms: C2_2  and  C7_7 
REMARK       I    between atoms: C2_2  and  N8_8 
REMARK    2  A    between atoms: C6_6  and  C7_7 
ROOT
HETATM    1  C1  UNL     1     -37.273  14.814  -4.634  1.00 20.00     0.166 C 
HETATM    2  C2  UNL     1     -35.220  14.074  -4.386  1.00 20.00     0.252 C 
HETATM    3  N8  UNL     1     -36.166  14.858  -5.024  1.00 20.00    -0.199 NA
HETATM    4  O9  UNL     1     -35.254  12.846  -4.289  1.00 20.00    -0.270 OA
HETATM    5  S10 UNL     1     -38.785  14.780  -4.136  1.00 20.00    -0.055 SA
ENDROOT
BRANCH   2   6
HETATM    6  C7  UNL     1     -34.065  14.893  -3.765  1.00 20.00     0.035 C 
HETATM    7  C4  UNL     1     -33.588  15.968  -4.758  1.00 20.00     0.025 C 
HETATM    8  C5  UNL     1     -32.888  13.938  -3.495  1.00 20.00     0.025 C 
BRANCH   6   9
HETATM    9  C6  UNL     1     -34.506  15.540  -2.428  1.00 20.00     0.014 C 
HETATM   10  C3  UNL     1     -33.744  16.803  -2.042  1.00 20.00     0.006 C 
ENDBRANCH   6   9
ENDBRANCH   2   6
TORSDOF 2
ENDMDL
MODEL 3
REMARK VINA RESULT:      -4.1      1.820      2.412
REMARK  2 active torsions:
REMARK  status: ('A' for Active; 'I' for Inactive)
REMARK    1  A    between atoms: C2_2  and  C7_7 
REMARK       I    between atoms: C2_2  and  N8_8 
REMARK    2  A    between atoms: C6_6  and  C7_7 
ROOT
HETATM    1  C1  UNL     1     -37.236  14.828  -4.574  1.00 20.00     0.166 C 
HETATM    2  C2  UNL     1     -35.187  14.053  -4.409  1.00 20.00     0.252 C 
HETATM    3  N8  UNL     1     -36.152  14.832  -5.025  1.00 20.00    -0.199 NA
HETATM    4  O9  UNL     1     -35.241  12.831  -4.260  1.00 20.00    -0.270 OA
HETATM    5  S10 UNL     1     -38.718  14.848  -3.993  1.00 20.00    -0.055 SA
ENDROOT
BRANCH   2   6
HETATM    6  C7  UNL     1     -33.983  14.870  -3.886  1.00 20.00     0.035 C 
HETATM    7  C4  UNL     1     -32.824  13.925  -3.520  1.00 20.00     0.025 C 
HETATM    8  C5  UNL     1     -34.421  15.606  -2.606  1.00 20.00     0.025 C 
BRANCH   6   9
HETATM    9  C6  UNL     1     -33.528  15.914  -4.937  1.00 20.00     0.014 C 
HETATM   10  C3  UNL     1     -33.615  17.366  -4.481  1.00 20.00     0.006 C 
ENDBRANCH   6   9
ENDBRANCH   2   6
TORSDOF 2
ENDMDL
MODEL 4
REMARK VINA RESULT:      -4.1      3.027      4.266
REMARK  2 active torsions:
REMARK  status: ('A' for Active; 'I' for Inactive)
REMARK    1  A    between atoms: C2_2  and  C7_7 
REMARK       I    between atoms: C2_2  and  N8_8 
REMARK    2  A    between atoms: C6_6  and  C7_7 
ROOT
HETATM    1  C1  UNL     1     -34.026  15.993  -2.364  1.00 20.00     0.166 C 
HETATM    2  C2  UNL     1     -33.707  15.626  -4.507  1.00 20.00     0.252 C 
HETATM    3  N8  UNL     1     -33.757  15.202  -3.189  1.00 20.00    -0.199 NA
HETATM    4  O9  UNL     1     -32.965  16.504  -4.949  1.00 20.00    -0.270 OA
HETATM    5  S10 UNL     1     -34.385  17.037  -1.217  1.00 20.00    -0.055 SA
ENDROOT
BRANCH   2   6
HETATM    6  C7  UNL     1     -34.709  14.888  -5.425  1.00 20.00     0.035 C 
HETATM    7  C4  UNL     1     -36.129  15.442  -5.208  1.00 20.00     0.025 C 
HETATM    8  C5  UNL     1     -34.713  13.398  -5.032  1.00 20.00     0.025 C 
BRANCH   6   9
HETATM    9  C6  UNL     1     -34.292  15.016  -6.911  1.00 20.00     0.014 C 
HETATM   10  C3  UNL     1     -35.377  14.650  -7.918  1.00 20.00     0.006 C 
ENDBRANCH   6   9
ENDBRANCH   2   6
TORSDOF 2
ENDMDL
MODEL 5
REMARK VINA RESULT:      -4.0      3.139      3.990
REMARK  2 active torsions:
REMARK  status: ('A' for Active; 'I' for Inactive)
REMARK    1  A    between atoms: C2_2  and  C7_7 
REMARK       I    between atoms: C2_2  and  N8_8 
REMARK    2  A    between atoms: C6_6  and  C7_7 
ROOT
HETATM    1  C1  UNL     1     -33.769  16.262  -2.389  1.00 20.00     0.166 C 
HETATM    2  C2  UNL     1     -33.608  15.754  -4.520  1.00 20.00     0.252 C 
HETATM    3  N8  UNL     1     -33.519  15.428  -3.177  1.00 20.00    -0.199 NA
HETATM    4  O9  UNL     1     -32.965  16.638  -5.088  1.00 20.00    -0.270 OA
HETATM    5  S10 UNL     1     -34.098  17.367  -1.290  1.00 20.00    -0.055 SA
ENDROOT
BRANCH   2   6
HETATM    6  C7  UNL     1     -34.633  14.889  -5.292  1.00 20.00     0.035 C 
HETATM    7  C4  UNL     1     -34.481  13.411  -4.892  1.00 20.00     0.025 C 
HETATM    8  C5  UNL     1     -34.328  15.011  -6.796  1.00 20.00     0.025 C 
BRANCH   6   9
HETATM    9  C6  UNL     1     -36.078  15.383  -5.028  1.00 20.00     0.014 C 
HETATM   10  C3  UNL     1     -36.875  14.537  -4.041  1.00 20.00     0.006 C 
ENDBRANCH   6   9
ENDBRANCH   2   6
TORSDOF 2
ENDMDL
MODEL 6
REMARK VINA RESULT:      -4.0      2.376      2.736
REMARK  2 active torsions:
REMARK  status: ('A' for Active; 'I' for Inactive)
REMARK    1  A    between atoms: C2_2  and  C7_7 
REMARK       I    between atoms: C2_2  and  N8_8 
REMARK    2  A    between atoms: C6_6  and  C7_7 
ROOT
HETATM    1  C1  UNL     1     -33.516  17.673  -5.380  1.00 20.00     0.166 C 
HETATM    2  C2  UNL     1     -34.299  15.624  -5.247  1.00 20.00     0.252 C 
HETATM    3  N8  UNL     1     -33.253  16.530  -5.318  1.00 20.00    -0.199 NA
HETATM    4  O9  UNL     1     -35.186  15.488  -6.091  1.00 20.00    -0.270 OA
HETATM    5  S10 UNL     1     -33.833  19.231  -5.467  1.00 20.00    -0.055 SA
ENDROOT
BRANCH   2   6
HETATM    6  C7  UNL     1     -34.274  14.761  -3.965  1.00 20.00     0.035 C 
HETATM    7  C4  UNL     1     -32.823  14.571  -3.486  1.00 20.00     0.025 C 
HETATM    8  C5  UNL     1     -34.848  13.374  -4.308  1.00 20.00     0.025 C 
BRANCH   6   9
HETATM    9  C6  UNL     1     -35.139  15.404  -2.852  1.00 20.00     0.014 C 
HETATM   10  C3  UNL     1     -34.365  16.242  -1.840  1.00 20.00     0.006 C 
ENDBRANCH   6   9
ENDBRANCH   2   6
TORSDOF 2
ENDMDL
MODEL 7
REMARK VINA RESULT:      -4.0     11.704     12.591
REMARK  2 active torsions:
REMARK  status: ('A' for Active; 'I' for Inactive)
REMARK    1  A    between atoms: C2_2  and  C7_7 
REMARK       I    between atoms: C2_2  and  N8_8 
REMARK    2  A    between atoms: C6_6  and  C7_7 
ROOT
HETATM    1  C1  UNL     1     -32.308   7.227   2.689  1.00 20.00     0.166 C 
HETATM    2  C2  UNL     1     -33.655   5.527   3.039  1.00 20.00     0.252 C 
HETATM    3  N8  UNL     1     -32.535   6.281   3.347  1.00 20.00    -0.199 NA
HETATM    4  O9  UNL     1     -33.869   4.967   1.963  1.00 20.00    -0.270 OA
HETATM    5  S10 UNL     1     -31.966   8.516   1.818  1.00 20.00    -0.055 SA
ENDROOT
BRANCH   2   6
HETATM    6  C7  UNL     1     -34.674   5.445   4.200  1.00 20.00     0.035 C 
HETATM    7  C4  UNL     1     -34.808   3.989   4.680  1.00 20.00     0.025 C 
HETATM    8  C5  UNL     1     -36.046   5.901   3.669  1.00 20.00     0.025 C 
BRANCH   6   9
HETATM    9  C6  UNL     1     -34.252   6.371   5.369  1.00 20.00     0.014 C 
HETATM   10  C3  UNL     1     -34.436   5.774   6.760  1.00 20.00     0.006 C 
ENDBRANCH   6   9
ENDBRANCH   2   6
TORSDOF 2
ENDMDL
MODEL 8
REMARK VINA RESULT:      -4.0      2.439      3.305
REMARK  2 active torsions:
REMARK  status: ('A' for Active; 'I' for Inactive)
REMARK    1  A    between atoms: C2_2  and  C7_7 
REMARK       I    between atoms: C2_2  and  N8_8 
REMARK    2  A    between atoms: C6_6  and  C7_7 
ROOT
HETATM    1  C1  UNL     1     -37.905  14.701  -4.124  1.00 20.00     0.166 C 
HETATM    2  C2  UNL     1     -35.805  14.972  -3.537  1.00 20.00     0.252 C 
HETATM    3  N8  UNL     1     -36.908  14.174  -3.797  1.00 20.00    -0.199 NA
HETATM    4  O9  UNL     1     -35.748  15.858  -2.683  1.00 20.00    -0.270 OA
HETATM    5  S10 UNL     1     -39.276  15.378  -4.568  1.00 20.00    -0.055 SA
ENDROOT
BRANCH   2   6
HETATM    6  C7  UNL     1     -34.596  14.659  -4.448  1.00 20.00     0.035 C 
HETATM    7  C4  UNL     1     -34.577  13.161  -4.801  1.00 20.00     0.025 C 
HETATM    8  C5  UNL     1     -33.308  14.982  -3.667  1.00 20.00     0.025 C 
BRANCH   6   9
HETATM    9  C6  UNL     1     -34.637  15.524  -5.733  1.00 20.00     0.014 C 
HETATM   10  C3  UNL     1     -34.818  14.742  -7.029  1.00 20.00     0.006 C 
ENDBRANCH   6   9
ENDBRANCH   2   6
TORSDOF 2
ENDMDL
MODEL 9
REMARK VINA RESULT:      -3.9      3.026      4.151
REMARK  2 active torsions:
REMARK  status: ('A' for Active; 'I' for Inactive)
REMARK    1  A    between atoms: C2_2  and  C7_7 
REMARK       I    between atoms: C2_2  and  N8_8 
REMARK    2  A    between atoms: C6_6  and  C7_7 
ROOT
HETATM    1  C1  UNL     1     -34.857  16.879  -1.920  1.00 20.00     0.166 C 
HETATM    2  C2  UNL     1     -35.245  15.517  -3.598  1.00 20.00     0.252 C 
HETATM    3  N8  UNL     1     -34.928  16.764  -3.086  1.00 20.00    -0.199 NA
HETATM    4  O9  UNL     1     -36.275  14.885  -3.361  1.00 20.00    -0.270 OA
HETATM    5  S10 UNL     1     -34.752  17.077  -0.343  1.00 20.00    -0.055 SA
ENDROOT
BRANCH   2   6
HETATM    6  C7  UNL     1     -34.151  14.943  -4.528  1.00 20.00     0.035 C 
HETATM    7  C4  UNL     1     -33.287  13.926  -3.760  1.00 20.00     0.025 C 
HETATM    8  C5  UNL     1     -33.241  16.103  -4.973  1.00 20.00     0.025 C 
BRANCH   6   9
HETATM    9  C6  UNL     1     -34.782  14.288  -5.782  1.00 20.00     0.014 C 
HETATM   10  C3  UNL     1     -34.460  14.981  -7.101  1.00 20.00     0.006 C 
ENDBRANCH   6   9
ENDBRANCH   2   6
TORSDOF 2
ENDMDL
