MODEL 1
REMARK VINA RESULT:      -5.4      0.000      0.000
REMARK  2 active torsions:
REMARK  status: ('A' for Active; 'I' for Inactive)
REMARK    1  A    between atoms: C7_7  and  C11_11 
REMARK    2  A    between atoms: C8_8  and  C12_12 
ROOT
HETATM    1  C1  UNL     1     -34.848  17.353   0.394  1.00 20.00     0.012 C 
HETATM    2  C2  UNL     1     -34.408  17.055  -0.682  1.00 20.00    -0.117 C 
HETATM    3  C11 UNL     1     -33.866  16.700  -1.997  1.00 20.00     0.105 C 
ENDROOT
BRANCH   3   4
HETATM    4  C7  UNL     1     -34.528  15.439  -2.542  1.00 20.00     0.067 C 
HETATM    5  C3  UNL     1     -33.624  14.708  -3.528  1.00 20.00     0.132 C 
HETATM    6  C4  UNL     1     -34.234  13.510  -4.223  1.00 20.00     0.079 C 
HETATM    7  O13 UNL     1     -32.441  15.003  -3.695  1.00 20.00    -0.298 OA
HETATM    8  C5  UNL     1     -35.568  13.880  -4.856  1.00 20.00     0.012 C 
HETATM    9  C8  UNL     1     -36.517  14.532  -3.841  1.00 20.00    -0.010 C 
HETATM   10  C6  UNL     1     -35.860  15.775  -3.220  1.00 20.00     0.018 C 
BRANCH   9  11
HETATM   11  C12 UNL     1     -37.844  14.899  -4.504  1.00 20.00    -0.019 C 
HETATM   12  C9  UNL     1     -38.883  15.274  -3.450  1.00 20.00     0.010 C 
HETATM   13  C10 UNL     1     -37.650  16.042  -5.497  1.00 20.00     0.010 C 
ENDBRANCH   9  11
ENDBRANCH   3   4
TORSDOF 2
ENDMDL
MODEL 2
REMARK VINA RESULT:      -5.2      1.172      1.350
REMARK  2 active torsions:
REMARK  status: ('A' for Active; 'I' for Inactive)
REMARK    1  A    between atoms: C7_7  and  C11_11 
REMARK    2  A    between atoms: C8_8  and  C12_12 
ROOT
HETATM    1  C1  UNL     1     -34.828  17.099  -0.028  1.00 20.00     0.012 C 
HETATM    2  C2  UNL     1     -34.341  16.851  -1.096  1.00 20.00    -0.117 C 
HETATM    3  C11 UNL     1     -33.741  16.555  -2.401  1.00 20.00     0.105 C 
ENDROOT
BRANCH   3   4
HETATM    4  C7  UNL     1     -34.465  15.402  -3.089  1.00 20.00     0.067 C 
HETATM    5  C3  UNL     1     -33.487  14.430  -3.739  1.00 20.00     0.132 C 
HETATM    6  C4  UNL     1     -34.105  13.317  -4.557  1.00 20.00     0.079 C 
HETATM    7  O13 UNL     1     -32.273  14.477  -3.548  1.00 20.00    -0.298 OA
HETATM    8  C5  UNL     1     -35.090  13.881  -5.571  1.00 20.00     0.012 C 
HETATM    9  C8  UNL     1     -36.134  14.788  -4.906  1.00 20.00    -0.010 C 
HETATM   10  C6  UNL     1     -35.442  15.930  -4.146  1.00 20.00     0.018 C 
BRANCH   9  11
HETATM   11  C12 UNL     1     -37.104  15.345  -5.948  1.00 20.00    -0.019 C 
HETATM   12  C9  UNL     1     -37.262  16.854  -5.777  1.00 20.00     0.010 C 
HETATM   13  C10 UNL     1     -36.626  15.011  -7.358  1.00 20.00     0.010 C 
ENDBRANCH   9  11
ENDBRANCH   3   4
TORSDOF 2
ENDMDL
MODEL 3
REMARK VINA RESULT:      -5.1      2.049      4.548
REMARK  2 active torsions:
REMARK  status: ('A' for Active; 'I' for Inactive)
REMARK    1  A    between atoms: C7_7  and  C11_11 
REMARK    2  A    between atoms: C8_8  and  C12_12 
ROOT
HETATM    1  C1  UNL     1     -37.713  15.629  -6.347  1.00 20.00     0.012 C 
HETATM    2  C2  UNL     1     -36.680  15.082  -6.621  1.00 20.00    -0.117 C 
HETATM    3  C11 UNL     1     -35.424  14.409  -6.964  1.00 20.00     0.105 C 
ENDROOT
BRANCH   3   4
HETATM    4  C7  UNL     1     -34.345  14.698  -5.925  1.00 20.00     0.067 C 
HETATM    5  C3  UNL     1     -34.294  13.618  -4.850  1.00 20.00     0.132 C 
HETATM    6  C4  UNL     1     -33.342  13.872  -3.702  1.00 20.00     0.079 C 
HETATM    7  O13 UNL     1     -34.911  12.558  -4.938  1.00 20.00    -0.298 OA
HETATM    8  C5  UNL     1     -33.585  15.249  -3.100  1.00 20.00     0.012 C 
HETATM    9  C8  UNL     1     -33.545  16.351  -4.167  1.00 20.00    -0.010 C 
HETATM   10  C6  UNL     1     -34.576  16.064  -5.269  1.00 20.00     0.018 C 
BRANCH   9  11
HETATM   11  C12 UNL     1     -33.798  17.720  -3.537  1.00 20.00    -0.019 C 
HETATM   12  C9  UNL     1     -35.104  18.315  -4.059  1.00 20.00     0.010 C 
HETATM   13  C10 UNL     1     -33.827  17.612  -2.015  1.00 20.00     0.010 C 
ENDBRANCH   9  11
ENDBRANCH   3   4
TORSDOF 2
ENDMDL
MODEL 4
REMARK VINA RESULT:      -5.1      2.329      3.128
REMARK  2 active torsions:
REMARK  status: ('A' for Active; 'I' for Inactive)
REMARK    1  A    between atoms: C7_7  and  C11_11 
REMARK    2  A    between atoms: C8_8  and  C12_12 
ROOT
HETATM    1  C1  UNL     1     -33.590  18.489   0.928  1.00 20.00     0.012 C 
HETATM    2  C2  UNL     1     -34.119  17.731   0.164  1.00 20.00    -0.117 C 
HETATM    3  C11 UNL     1     -34.772  16.802  -0.764  1.00 20.00     0.105 C 
ENDROOT
BRANCH   3   4
HETATM    4  C7  UNL     1     -34.007  16.712  -2.080  1.00 20.00     0.067 C 
HETATM    5  C3  UNL     1     -34.212  17.956  -2.938  1.00 20.00     0.132 C 
HETATM    6  C4  UNL     1     -33.597  17.915  -4.320  1.00 20.00     0.079 C 
HETATM    7  O13 UNL     1     -34.760  18.974  -2.518  1.00 20.00    -0.298 OA
HETATM    8  C5  UNL     1     -34.019  16.652  -5.057  1.00 20.00     0.012 C 
HETATM    9  C8  UNL     1     -33.729  15.390  -4.234  1.00 20.00    -0.010 C 
HETATM   10  C6  UNL     1     -34.432  15.469  -2.870  1.00 20.00     0.018 C 
BRANCH   9  11
HETATM   11  C12 UNL     1     -34.169  14.140  -4.994  1.00 20.00    -0.019 C 
HETATM   12  C9  UNL     1     -35.215  13.367  -4.193  1.00 20.00     0.010 C 
HETATM   13  C10 UNL     1     -34.715  14.512  -6.370  1.00 20.00     0.010 C 
ENDBRANCH   9  11
ENDBRANCH   3   4
TORSDOF 2
ENDMDL
MODEL 5
REMARK VINA RESULT:      -5.0      2.739      3.550
REMARK  2 active torsions:
REMARK  status: ('A' for Active; 'I' for Inactive)
REMARK    1  A    between atoms: C7_7  and  C11_11 
REMARK    2  A    between atoms: C8_8  and  C12_12 
ROOT
HETATM    1  C1  UNL     1     -34.398  16.971  -1.356  1.00 20.00     0.012 C 
HETATM    2  C2  UNL     1     -34.438  15.988  -2.043  1.00 20.00    -0.117 C 
HETATM    3  C11 UNL     1     -34.482  14.781  -2.874  1.00 20.00     0.105 C 
ENDROOT
BRANCH   3   4
HETATM    4  C7  UNL     1     -35.011  15.096  -4.270  1.00 20.00     0.067 C 
HETATM    5  C3  UNL     1     -34.856  13.908  -5.213  1.00 20.00     0.132 C 
HETATM    6  C4  UNL     1     -35.235  14.155  -6.656  1.00 20.00     0.079 C 
HETATM    7  O13 UNL     1     -34.531  12.786  -4.826  1.00 20.00    -0.298 OA
HETATM    8  C5  UNL     1     -34.526  15.390  -7.193  1.00 20.00     0.012 C 
HETATM    9  C8  UNL     1     -34.757  16.613  -6.294  1.00 20.00    -0.010 C 
HETATM   10  C6  UNL     1     -34.294  16.315  -4.859  1.00 20.00     0.018 C 
BRANCH   9  11
HETATM   11  C12 UNL     1     -34.029  17.835  -6.852  1.00 20.00    -0.019 C 
HETATM   12  C9  UNL     1     -34.880  18.523  -7.918  1.00 20.00     0.010 C 
HETATM   13  C10 UNL     1     -33.681  18.810  -5.730  1.00 20.00     0.010 C 
ENDBRANCH   9  11
ENDBRANCH   3   4
TORSDOF 2
ENDMDL
MODEL 6
REMARK VINA RESULT:      -4.9      1.426      4.188
REMARK  2 active torsions:
REMARK  status: ('A' for Active; 'I' for Inactive)
REMARK    1  A    between atoms: C7_7  and  C11_11 
REMARK    2  A    between atoms: C8_8  and  C12_12 
ROOT
HETATM    1  C1  UNL     1     -39.184  16.701  -3.140  1.00 20.00     0.012 C 
HETATM    2  C2  UNL     1     -38.465  15.786  -3.433  1.00 20.00    -0.117 C 
HETATM    3  C11 UNL     1     -37.594  14.662  -3.791  1.00 20.00     0.105 C 
ENDROOT
BRANCH   3   4
HETATM    4  C7  UNL     1     -36.152  15.123  -3.976  1.00 20.00     0.067 C 
HETATM    5  C3  UNL     1     -35.216  13.950  -4.242  1.00 20.00     0.132 C 
HETATM    6  C4  UNL     1     -33.742  14.284  -4.317  1.00 20.00     0.079 C 
HETATM    7  O13 UNL     1     -35.620  12.811  -4.475  1.00 20.00    -0.298 OA
HETATM    8  C5  UNL     1     -33.310  15.077  -3.092  1.00 20.00     0.012 C 
HETATM    9  C8  UNL     1     -34.194  16.313  -2.874  1.00 20.00    -0.010 C 
HETATM   10  C6  UNL     1     -35.668  15.897  -2.745  1.00 20.00     0.018 C 
BRANCH   9  11
HETATM   11  C12 UNL     1     -33.743  17.085  -1.635  1.00 20.00    -0.019 C 
HETATM   12  C9  UNL     1     -33.614  18.574  -1.952  1.00 20.00     0.010 C 
HETATM   13  C10 UNL     1     -34.716  16.864  -0.481  1.00 20.00     0.010 C 
ENDBRANCH   9  11
ENDBRANCH   3   4
TORSDOF 2
ENDMDL
MODEL 7
REMARK VINA RESULT:      -4.9      2.379      4.680
REMARK  2 active torsions:
REMARK  status: ('A' for Active; 'I' for Inactive)
REMARK    1  A    between atoms: C7_7  and  C11_11 
REMARK    2  A    between atoms: C8_8  and  C12_12 
ROOT
HETATM    1  C1  UNL     1     -34.641  18.027  -7.268  1.00 20.00     0.012 C 
HETATM    2  C2  UNL     1     -34.402  16.864  -7.098  1.00 20.00    -0.117 C 
HETATM    3  C11 UNL     1     -34.109  15.441  -6.901  1.00 20.00     0.105 C 
ENDROOT
BRANCH   3   4
HETATM    4  C7  UNL     1     -34.469  14.996  -5.487  1.00 20.00     0.067 C 
HETATM    5  C3  UNL     1     -35.974  14.824  -5.317  1.00 20.00     0.132 C 
HETATM    6  C4  UNL     1     -36.449  14.506  -3.916  1.00 20.00     0.079 C 
HETATM    7  O13 UNL     1     -36.761  14.847  -6.263  1.00 20.00    -0.298 OA
HETATM    8  C5  UNL     1     -35.885  15.508  -2.919  1.00 20.00     0.012 C 
HETATM    9  C8  UNL     1     -34.358  15.617  -3.024  1.00 20.00    -0.010 C 
HETATM   10  C6  UNL     1     -33.948  16.002  -4.454  1.00 20.00     0.018 C 
BRANCH   9  11
HETATM   11  C12 UNL     1     -33.820  16.634  -2.018  1.00 20.00    -0.019 C 
HETATM   12  C9  UNL     1     -33.754  18.024  -2.647  1.00 20.00     0.010 C 
HETATM   13  C10 UNL     1     -34.686  16.654  -0.761  1.00 20.00     0.010 C 
ENDBRANCH   9  11
ENDBRANCH   3   4
TORSDOF 2
ENDMDL
MODEL 8
REMARK VINA RESULT:      -4.8      2.329      4.982
REMARK  2 active torsions:
REMARK  status: ('A' for Active; 'I' for Inactive)
REMARK    1  A    between atoms: C7_7  and  C11_11 
REMARK    2  A    between atoms: C8_8  and  C12_12 
ROOT
HETATM    1  C1  UNL     1     -34.786  13.252  -5.221  1.00 20.00     0.012 C 
HETATM    2  C2  UNL     1     -34.209  13.897  -4.390  1.00 20.00    -0.117 C 
HETATM    3  C11 UNL     1     -33.498  14.678  -3.373  1.00 20.00     0.105 C 
ENDROOT
BRANCH   3   4
HETATM    4  C7  UNL     1     -34.139  16.050  -3.187  1.00 20.00     0.067 C 
HETATM    5  C3  UNL     1     -33.598  17.064  -4.188  1.00 20.00     0.132 C 
HETATM    6  C4  UNL     1     -34.075  18.489  -4.009  1.00 20.00     0.079 C 
HETATM    7  O13 UNL     1     -32.889  16.748  -5.143  1.00 20.00    -0.298 OA
HETATM    8  C5  UNL     1     -33.860  18.950  -2.574  1.00 20.00     0.012 C 
HETATM    9  C8  UNL     1     -34.485  17.977  -1.565  1.00 20.00    -0.010 C 
HETATM   10  C6  UNL     1     -33.912  16.565  -1.761  1.00 20.00     0.018 C 
BRANCH   9  11
HETATM   11  C12 UNL     1     -34.248  18.460  -0.135  1.00 20.00    -0.019 C 
HETATM   12  C9  UNL     1     -35.013  17.587   0.858  1.00 20.00     0.010 C 
HETATM   13  C10 UNL     1     -32.757  18.463   0.190  1.00 20.00     0.010 C 
ENDBRANCH   9  11
ENDBRANCH   3   4
TORSDOF 2
ENDMDL
MODEL 9
REMARK VINA RESULT:      -4.7      2.176      3.201
REMARK  2 active torsions:
REMARK  status: ('A' for Active; 'I' for Inactive)
REMARK    1  A    between atoms: C7_7  and  C11_11 
REMARK    2  A    between atoms: C8_8  and  C12_12 
ROOT
HETATM    1  C1  UNL     1     -32.837  18.594  -0.037  1.00 20.00     0.012 C 
HETATM    2  C2  UNL     1     -33.570  17.752  -0.476  1.00 20.00    -0.117 C 
HETATM    3  C11 UNL     1     -34.466  16.717  -1.002  1.00 20.00     0.105 C 
ENDROOT
BRANCH   3   4
HETATM    4  C7  UNL     1     -34.689  16.896  -2.501  1.00 20.00     0.067 C 
HETATM    5  C3  UNL     1     -36.094  17.405  -2.805  1.00 20.00     0.132 C 
HETATM    6  C4  UNL     1     -36.461  17.498  -4.269  1.00 20.00     0.079 C 
HETATM    7  O13 UNL     1     -36.862  17.807  -1.931  1.00 20.00    -0.298 OA
HETATM    8  C5  UNL     1     -36.180  16.179  -4.976  1.00 20.00     0.012 C 
HETATM    9  C8  UNL     1     -34.737  15.709  -4.749  1.00 20.00    -0.010 C 
HETATM   10  C6  UNL     1     -34.450  15.577  -3.245  1.00 20.00     0.018 C 
BRANCH   9  11
HETATM   11  C12 UNL     1     -34.485  14.382  -5.463  1.00 20.00    -0.019 C 
HETATM   12  C9  UNL     1     -34.887  13.210  -4.570  1.00 20.00     0.010 C 
HETATM   13  C10 UNL     1     -35.242  14.333  -6.787  1.00 20.00     0.010 C 
ENDBRANCH   9  11
ENDBRANCH   3   4
TORSDOF 2
ENDMDL
