MODEL 1
REMARK VINA RESULT:      -5.0      0.000      0.000
REMARK  1 active torsions:
REMARK  status: ('A' for Active; 'I' for Inactive)
REMARK    1  A    between atoms: C1_1  and  C6_6 
ROOT
HETATM    1  C2  UNL     1     -34.644   5.647   6.336  1.00 20.00     0.027 C 
HETATM    2  C3  UNL     1     -33.548   6.354   5.553  1.00 20.00     0.017 C 
HETATM    3  C4  UNL     1     -35.000   4.305   5.698  1.00 20.00     0.167 C 
HETATM    4  C5  UNL     1     -34.978   5.489   3.635  1.00 20.00     0.181 C 
HETATM    5  C6  UNL     1     -33.965   6.542   4.091  1.00 20.00     0.096 C 
HETATM    6  O8  UNL     1     -34.733   4.250   4.296  1.00 20.00    -0.390 OA
ENDROOT
BRANCH   5   7
HETATM    7  C1  UNL     1     -32.742   6.478   3.225  1.00 20.00     0.225 C 
HETATM    8  O7  UNL     1     -32.081   5.449   3.116  1.00 20.00    -0.279 OA
HETATM    9 CL9  UNL     1     -32.414   7.994   2.443  1.00 20.00    -0.043 Cl
ENDBRANCH   5   7
TORSDOF 1
ENDMDL
MODEL 2
REMARK VINA RESULT:      -4.3     11.759     12.602
REMARK  1 active torsions:
REMARK  status: ('A' for Active; 'I' for Inactive)
REMARK    1  A    between atoms: C1_1  and  C6_6 
ROOT
HETATM    1  C2  UNL     1     -34.585  16.438  -2.028  1.00 20.00     0.027 C 
HETATM    2  C3  UNL     1     -35.297  15.270  -2.694  1.00 20.00     0.017 C 
HETATM    3  C4  UNL     1     -33.720  17.201  -3.029  1.00 20.00     0.167 C 
HETATM    4  C5  UNL     1     -32.995  15.055  -3.758  1.00 20.00     0.181 C 
HETATM    5  C6  UNL     1     -34.286  14.333  -3.362  1.00 20.00     0.096 C 
HETATM    6  O8  UNL     1     -33.278  16.402  -4.128  1.00 20.00    -0.390 OA
ENDROOT
BRANCH   5   7
HETATM    7  C1  UNL     1     -34.918  13.722  -4.577  1.00 20.00     0.225 C 
HETATM    8  O7  UNL     1     -34.705  12.558  -4.899  1.00 20.00    -0.279 OA
HETATM    9 CL9  UNL     1     -35.942  14.847  -5.416  1.00 20.00    -0.043 Cl
ENDBRANCH   5   7
TORSDOF 1
ENDMDL
MODEL 3
REMARK VINA RESULT:      -4.0     12.174     12.617
REMARK  1 active torsions:
REMARK  status: ('A' for Active; 'I' for Inactive)
REMARK    1  A    between atoms: C1_1  and  C6_6 
ROOT
HETATM    1  C2  UNL     1     -34.322  13.270  -4.780  1.00 20.00     0.027 C 
HETATM    2  C3  UNL     1     -33.708  14.114  -3.673  1.00 20.00     0.017 C 
HETATM    3  C4  UNL     1     -35.104  14.136  -5.766  1.00 20.00     0.167 C 
HETATM    4  C5  UNL     1     -36.006  15.194  -3.835  1.00 20.00     0.181 C 
HETATM    5  C6  UNL     1     -34.790  14.920  -2.947  1.00 20.00     0.096 C 
HETATM    6  O8  UNL     1     -35.601  15.347  -5.193  1.00 20.00    -0.390 OA
ENDROOT
BRANCH   5   7
HETATM    7  C1  UNL     1     -34.198  16.217  -2.482  1.00 20.00     0.225 C 
HETATM    8  O7  UNL     1     -33.527  16.924  -3.227  1.00 20.00    -0.279 OA
HETATM    9 CL9  UNL     1     -34.583  16.553  -0.821  1.00 20.00    -0.043 Cl
ENDBRANCH   5   7
TORSDOF 1
ENDMDL
MODEL 4
REMARK VINA RESULT:      -4.0     11.464     12.490
REMARK  1 active torsions:
REMARK  status: ('A' for Active; 'I' for Inactive)
REMARK    1  A    between atoms: C1_1  and  C6_6 
ROOT
HETATM    1  C2  UNL     1     -33.719  17.310  -3.664  1.00 20.00     0.027 C 
HETATM    2  C3  UNL     1     -33.507  15.955  -4.322  1.00 20.00     0.017 C 
HETATM    3  C4  UNL     1     -34.087  17.156  -2.189  1.00 20.00     0.167 C 
HETATM    4  C5  UNL     1     -35.577  15.456  -2.929  1.00 20.00     0.181 C 
HETATM    5  C6  UNL     1     -34.753  15.078  -4.163  1.00 20.00     0.096 C 
HETATM    6  O8  UNL     1     -34.721  15.912  -1.885  1.00 20.00    -0.390 OA
ENDROOT
BRANCH   5   7
HETATM    7  C1  UNL     1     -34.328  13.643  -4.069  1.00 20.00     0.225 C 
HETATM    8  O7  UNL     1     -35.081  12.725  -4.377  1.00 20.00    -0.279 OA
HETATM    9 CL9  UNL     1     -32.698  13.481  -3.488  1.00 20.00    -0.043 Cl
ENDBRANCH   5   7
TORSDOF 1
ENDMDL
MODEL 5
REMARK VINA RESULT:      -4.0     11.741     12.791
REMARK  1 active torsions:
REMARK  status: ('A' for Active; 'I' for Inactive)
REMARK    1  A    between atoms: C1_1  and  C6_6 
ROOT
HETATM    1  C2  UNL     1     -34.970  14.040  -3.919  1.00 20.00     0.027 C 
HETATM    2  C3  UNL     1     -35.253  15.285  -3.093  1.00 20.00     0.017 C 
HETATM    3  C4  UNL     1     -33.486  13.681  -3.886  1.00 20.00     0.167 C 
HETATM    4  C5  UNL     1     -33.106  16.000  -4.256  1.00 20.00     0.181 C 
HETATM    5  C6  UNL     1     -34.400  16.461  -3.580  1.00 20.00     0.096 C 
HETATM    6  O8  UNL     1     -32.632  14.801  -3.648  1.00 20.00    -0.390 OA
ENDROOT
BRANCH   5   7
HETATM    7  C1  UNL     1     -34.076  17.343  -2.411  1.00 20.00     0.225 C 
HETATM    8  O7  UNL     1     -33.584  18.457  -2.560  1.00 20.00    -0.279 OA
HETATM    9 CL9  UNL     1     -34.476  16.593  -0.895  1.00 20.00    -0.043 Cl
ENDBRANCH   5   7
TORSDOF 1
ENDMDL
MODEL 6
REMARK VINA RESULT:      -3.9     12.312     13.097
REMARK  1 active torsions:
REMARK  status: ('A' for Active; 'I' for Inactive)
REMARK    1  A    between atoms: C1_1  and  C6_6 
ROOT
HETATM    1  C2  UNL     1     -33.253  15.489  -3.440  1.00 20.00     0.027 C 
HETATM    2  C3  UNL     1     -34.642  15.315  -2.846  1.00 20.00     0.017 C 
HETATM    3  C4  UNL     1     -33.322  16.127  -4.827  1.00 20.00     0.167 C 
HETATM    4  C5  UNL     1     -35.089  14.589  -5.243  1.00 20.00     0.181 C 
HETATM    5  C6  UNL     1     -35.528  14.485  -3.781  1.00 20.00     0.096 C 
HETATM    6  O8  UNL     1     -34.555  15.884  -5.507  1.00 20.00    -0.390 OA
ENDROOT
BRANCH   5   7
HETATM    7  C1  UNL     1     -36.948  14.949  -3.643  1.00 20.00     0.225 C 
HETATM    8  O7  UNL     1     -37.894  14.178  -3.766  1.00 20.00    -0.279 OA
HETATM    9 CL9  UNL     1     -37.050  16.651  -3.305  1.00 20.00    -0.043 Cl
ENDBRANCH   5   7
TORSDOF 1
ENDMDL
MODEL 7
REMARK VINA RESULT:      -3.9     12.273     13.443
REMARK  1 active torsions:
REMARK  status: ('A' for Active; 'I' for Inactive)
REMARK    1  A    between atoms: C1_1  and  C6_6 
ROOT
HETATM    1  C2  UNL     1     -37.081  15.593  -6.179  1.00 20.00     0.027 C 
HETATM    2  C3  UNL     1     -36.470  14.917  -4.961  1.00 20.00     0.017 C 
HETATM    3  C4  UNL     1     -36.648  14.901  -7.470  1.00 20.00     0.167 C 
HETATM    4  C5  UNL     1     -34.464  14.915  -6.526  1.00 20.00     0.181 C 
HETATM    5  C6  UNL     1     -34.943  14.885  -5.072  1.00 20.00     0.096 C 
HETATM    6  O8  UNL     1     -35.391  14.230  -7.365  1.00 20.00    -0.390 OA
ENDROOT
BRANCH   5   7
HETATM    7  C1  UNL     1     -34.432  13.647  -4.396  1.00 20.00     0.225 C 
HETATM    8  O7  UNL     1     -35.069  12.599  -4.402  1.00 20.00    -0.279 OA
HETATM    9 CL9  UNL     1     -32.889  13.905  -3.640  1.00 20.00    -0.043 Cl
ENDBRANCH   5   7
TORSDOF 1
ENDMDL
MODEL 8
REMARK VINA RESULT:      -3.9     12.006     12.858
REMARK  1 active torsions:
REMARK  status: ('A' for Active; 'I' for Inactive)
REMARK    1  A    between atoms: C1_1  and  C6_6 
ROOT
HETATM    1  C2  UNL     1     -33.637  13.554  -3.764  1.00 20.00     0.027 C 
HETATM    2  C3  UNL     1     -33.006  14.937  -3.736  1.00 20.00     0.017 C 
HETATM    3  C4  UNL     1     -35.061  13.608  -4.314  1.00 20.00     0.167 C 
HETATM    4  C5  UNL     1     -35.341  15.496  -2.894  1.00 20.00     0.181 C 
HETATM    5  C6  UNL     1     -33.866  15.906  -2.919  1.00 20.00     0.096 C 
HETATM    6  O8  UNL     1     -35.699  14.872  -4.124  1.00 20.00    -0.390 OA
ENDROOT
BRANCH   5   7
HETATM    7  C1  UNL     1     -33.732  17.283  -3.499  1.00 20.00     0.225 C 
HETATM    8  O7  UNL     1     -33.859  18.289  -2.809  1.00 20.00    -0.279 OA
HETATM    9 CL9  UNL     1     -33.389  17.243  -5.202  1.00 20.00    -0.043 Cl
ENDBRANCH   5   7
TORSDOF 1
ENDMDL
MODEL 9
REMARK VINA RESULT:      -3.8     11.825     13.153
REMARK  1 active torsions:
REMARK  status: ('A' for Active; 'I' for Inactive)
REMARK    1  A    between atoms: C1_1  and  C6_6 
ROOT
HETATM    1  C2  UNL     1     -35.311  17.082  -5.024  1.00 20.00     0.027 C 
HETATM    2  C3  UNL     1     -35.528  15.589  -4.830  1.00 20.00     0.017 C 
HETATM    3  C4  UNL     1     -33.825  17.413  -5.148  1.00 20.00     0.167 C 
HETATM    4  C5  UNL     1     -33.535  15.954  -3.291  1.00 20.00     0.181 C 
HETATM    5  C6  UNL     1     -34.758  15.087  -3.605  1.00 20.00     0.096 C 
HETATM    6  O8  UNL     1     -32.974  16.469  -4.496  1.00 20.00    -0.390 OA
ENDROOT
BRANCH   5   7
HETATM    7  C1  UNL     1     -34.327  13.671  -3.849  1.00 20.00     0.225 C 
HETATM    8  O7  UNL     1     -35.105  12.825  -4.277  1.00 20.00    -0.279 OA
HETATM    9 CL9  UNL     1     -32.653  13.421  -3.456  1.00 20.00    -0.043 Cl
ENDBRANCH   5   7
TORSDOF 1
ENDMDL
