MODEL 1
REMARK VINA RESULT:      -4.9      0.000      0.000
REMARK  0 active torsions:
REMARK  status: ('A' for Active; 'I' for Inactive)
ROOT
HETATM    1  C1  UNL     1     -33.992  16.275  -2.291  1.00 20.00    -0.006 C 
HETATM    2  C2  UNL     1     -33.812  17.366  -3.044  1.00 20.00     0.112 C 
HETATM    3  C3  UNL     1     -34.481  16.403  -5.002  1.00 20.00     0.023 C 
HETATM    4  C4  UNL     1     -34.991  13.903  -5.102  1.00 20.00     0.136 C 
HETATM    5  C5  UNL     1     -34.396  14.982  -2.913  1.00 20.00     0.046 C 
HETATM    6  C6  UNL     1     -34.666  16.481  -6.501  1.00 20.00     0.056 C 
HETATM    7  C7  UNL     1     -35.153  14.028  -6.600  1.00 20.00     0.079 C 
HETATM    8  C8  UNL     1     -34.286  15.155  -7.138  1.00 20.00     0.013 C 
HETATM    9  C9  UNL     1     -35.056  15.188  -4.281  1.00 20.00     0.106 C 
HETATM   10  N10 UNL     1     -33.936  17.421  -4.405  1.00 20.00    -0.269 NA
HETATM   11  O11 UNL     1     -34.930  12.791  -4.574  1.00 20.00    -0.297 OA
ENDROOT
TORSDOF 0
ENDMDL
MODEL 2
REMARK VINA RESULT:      -4.9      1.303      3.237
REMARK  0 active torsions:
REMARK  status: ('A' for Active; 'I' for Inactive)
ROOT
HETATM    1  C1  UNL     1     -35.900  15.604  -7.710  1.00 20.00    -0.006 C 
HETATM    2  C2  UNL     1     -35.373  16.796  -7.409  1.00 20.00     0.112 C 
HETATM    3  C3  UNL     1     -34.110  16.049  -5.661  1.00 20.00     0.023 C 
HETATM    4  C4  UNL     1     -34.326  13.637  -4.849  1.00 20.00     0.136 C 
HETATM    5  C5  UNL     1     -35.612  14.410  -6.864  1.00 20.00     0.046 C 
HETATM    6  C6  UNL     1     -33.187  16.337  -4.497  1.00 20.00     0.056 C 
HETATM    7  C7  UNL     1     -33.410  13.977  -3.695  1.00 20.00     0.079 C 
HETATM    8  C8  UNL     1     -33.546  15.444  -3.321  1.00 20.00     0.013 C 
HETATM    9  C9  UNL     1     -34.330  14.588  -6.043  1.00 20.00     0.106 C 
HETATM   10  N10 UNL     1     -34.577  17.061  -6.329  1.00 20.00    -0.269 NA
HETATM   11  O11 UNL     1     -34.945  12.572  -4.860  1.00 20.00    -0.297 OA
ENDROOT
TORSDOF 0
ENDMDL
MODEL 3
REMARK VINA RESULT:      -4.8     12.200     13.739
REMARK  0 active torsions:
REMARK  status: ('A' for Active; 'I' for Inactive)
ROOT
HETATM    1  C1  UNL     1     -32.100   7.164   2.870  1.00 20.00    -0.006 C 
HETATM    2  C2  UNL     1     -32.716   6.211   2.162  1.00 20.00     0.112 C 
HETATM    3  C3  UNL     1     -34.099   5.536   3.847  1.00 20.00     0.023 C 
HETATM    4  C4  UNL     1     -33.835   6.498   6.198  1.00 20.00     0.136 C 
HETATM    5  C5  UNL     1     -32.404   7.351   4.318  1.00 20.00     0.046 C 
HETATM    6  C6  UNL     1     -35.143   4.579   4.378  1.00 20.00     0.056 C 
HETATM    7  C7  UNL     1     -34.874   5.513   6.684  1.00 20.00     0.079 C 
HETATM    8  C8  UNL     1     -34.852   4.253   5.833  1.00 20.00     0.013 C 
HETATM    9  C9  UNL     1     -33.766   6.760   4.696  1.00 20.00     0.106 C 
HETATM   10  N10 UNL     1     -33.625   5.317   2.658  1.00 20.00    -0.269 NA
HETATM   11  O11 UNL     1     -33.162   7.142   7.005  1.00 20.00    -0.297 OA
ENDROOT
TORSDOF 0
ENDMDL
MODEL 4
REMARK VINA RESULT:      -4.6      1.427      2.886
REMARK  0 active torsions:
REMARK  status: ('A' for Active; 'I' for Inactive)
ROOT
HETATM    1  C1  UNL     1     -34.186  18.147  -6.543  1.00 20.00    -0.006 C 
HETATM    2  C2  UNL     1     -33.599  18.415  -5.371  1.00 20.00     0.112 C 
HETATM    3  C3  UNL     1     -33.552  16.252  -4.643  1.00 20.00     0.023 C 
HETATM    4  C4  UNL     1     -34.704  14.412  -5.987  1.00 20.00     0.136 C 
HETATM    5  C5  UNL     1     -34.636  16.764  -6.868  1.00 20.00     0.046 C 
HETATM    6  C6  UNL     1     -33.262  15.246  -3.551  1.00 20.00     0.056 C 
HETATM    7  C7  UNL     1     -34.403  13.446  -4.863  1.00 20.00     0.079 C 
HETATM    8  C8  UNL     1     -34.344  14.180  -3.532  1.00 20.00     0.013 C 
HETATM    9  C9  UNL     1     -33.906  15.712  -6.026  1.00 20.00     0.106 C 
HETATM   10  N10 UNL     1     -33.381  17.511  -4.368  1.00 20.00    -0.269 NA
HETATM   11  O11 UNL     1     -35.477  14.093  -6.892  1.00 20.00    -0.297 OA
ENDROOT
TORSDOF 0
ENDMDL
MODEL 5
REMARK VINA RESULT:      -4.6      2.277      3.271
REMARK  0 active torsions:
REMARK  status: ('A' for Active; 'I' for Inactive)
ROOT
HETATM    1  C1  UNL     1     -34.376  13.671  -3.592  1.00 20.00    -0.006 C 
HETATM    2  C2  UNL     1     -34.745  13.249  -4.806  1.00 20.00     0.112 C 
HETATM    3  C3  UNL     1     -34.312  15.219  -5.873  1.00 20.00     0.023 C 
HETATM    4  C4  UNL     1     -33.645  17.291  -4.536  1.00 20.00     0.136 C 
HETATM    5  C5  UNL     1     -33.979  15.091  -3.370  1.00 20.00     0.046 C 
HETATM    6  C6  UNL     1     -34.361  16.067  -7.125  1.00 20.00     0.056 C 
HETATM    7  C7  UNL     1     -33.720  18.099  -5.812  1.00 20.00     0.079 C 
HETATM    8  C8  UNL     1     -34.737  17.495  -6.767  1.00 20.00     0.013 C 
HETATM    9  C9  UNL     1     -33.549  15.774  -4.673  1.00 20.00     0.106 C 
HETATM   10  N10 UNL     1     -34.832  14.030  -5.926  1.00 20.00    -0.269 NA
HETATM   11  O11 UNL     1     -33.546  17.856  -3.446  1.00 20.00    -0.297 OA
ENDROOT
TORSDOF 0
ENDMDL
MODEL 6
REMARK VINA RESULT:      -4.6      1.287      1.513
REMARK  0 active torsions:
REMARK  status: ('A' for Active; 'I' for Inactive)
ROOT
HETATM    1  C1  UNL     1     -34.020  17.299  -2.474  1.00 20.00    -0.006 C 
HETATM    2  C2  UNL     1     -34.928  17.864  -3.276  1.00 20.00     0.112 C 
HETATM    3  C3  UNL     1     -35.403  15.966  -4.452  1.00 20.00     0.023 C 
HETATM    4  C4  UNL     1     -34.047  13.836  -4.067  1.00 20.00     0.136 C 
HETATM    5  C5  UNL     1     -33.614  15.877  -2.667  1.00 20.00     0.046 C 
HETATM    6  C6  UNL     1     -36.119  15.280  -5.594  1.00 20.00     0.056 C 
HETATM    7  C7  UNL     1     -34.781  13.197  -5.224  1.00 20.00     0.079 C 
HETATM    8  C8  UNL     1     -35.202  14.252  -6.235  1.00 20.00     0.013 C 
HETATM    9  C9  UNL     1     -34.670  15.084  -3.445  1.00 20.00     0.106 C 
HETATM   10  N10 UNL     1     -35.539  17.253  -4.337  1.00 20.00    -0.269 NA
HETATM   11  O11 UNL     1     -33.054  13.290  -3.582  1.00 20.00    -0.297 OA
ENDROOT
TORSDOF 0
ENDMDL
MODEL 7
REMARK VINA RESULT:      -4.5      2.206      2.904
REMARK  0 active torsions:
REMARK  status: ('A' for Active; 'I' for Inactive)
ROOT
HETATM    1  C1  UNL     1     -33.342  13.773  -3.781  1.00 20.00    -0.006 C 
HETATM    2  C2  UNL     1     -32.719  14.956  -3.800  1.00 20.00     0.112 C 
HETATM    3  C3  UNL     1     -34.608  16.211  -3.546  1.00 20.00     0.023 C 
HETATM    4  C4  UNL     1     -36.909  15.103  -3.589  1.00 20.00     0.136 C 
HETATM    5  C5  UNL     1     -34.830  13.699  -3.723  1.00 20.00     0.046 C 
HETATM    6  C6  UNL     1     -35.283  17.564  -3.497  1.00 20.00     0.056 C 
HETATM    7  C7  UNL     1     -37.537  16.478  -3.552  1.00 20.00     0.079 C 
HETATM    8  C8  UNL     1     -36.623  17.499  -4.210  1.00 20.00     0.013 C 
HETATM    9  C9  UNL     1     -35.445  14.990  -3.172  1.00 20.00     0.106 C 
HETATM   10  N10 UNL     1     -33.335  16.177  -3.802  1.00 20.00    -0.269 NA
HETATM   11  O11 UNL     1     -37.598  14.110  -3.831  1.00 20.00    -0.297 OA
ENDROOT
TORSDOF 0
ENDMDL
MODEL 8
REMARK VINA RESULT:      -4.5      2.231      4.272
REMARK  0 active torsions:
REMARK  status: ('A' for Active; 'I' for Inactive)
ROOT
HETATM    1  C1  UNL     1     -34.450  14.388  -5.887  1.00 20.00    -0.006 C 
HETATM    2  C2  UNL     1     -34.766  13.669  -4.804  1.00 20.00     0.112 C 
HETATM    3  C3  UNL     1     -34.669  15.414  -3.337  1.00 20.00     0.023 C 
HETATM    4  C4  UNL     1     -33.848  17.706  -4.110  1.00 20.00     0.136 C 
HETATM    5  C5  UNL     1     -34.090  15.829  -5.763  1.00 20.00     0.046 C 
HETATM    6  C6  UNL     1     -34.721  15.933  -1.917  1.00 20.00     0.056 C 
HETATM    7  C7  UNL     1     -33.904  18.175  -2.673  1.00 20.00     0.079 C 
HETATM    8  C8  UNL     1     -33.668  17.012  -1.723  1.00 20.00     0.013 C 
HETATM    9  C9  UNL     1     -34.627  16.442  -4.464  1.00 20.00     0.106 C 
HETATM   10  N10 UNL     1     -34.767  14.131  -3.517  1.00 20.00    -0.269 NA
HETATM   11  O11 UNL     1     -33.293  18.393  -4.968  1.00 20.00    -0.297 OA
ENDROOT
TORSDOF 0
ENDMDL
MODEL 9
REMARK VINA RESULT:      -4.5      1.934      3.593
REMARK  0 active torsions:
REMARK  status: ('A' for Active; 'I' for Inactive)
ROOT
HETATM    1  C1  UNL     1     -34.697  13.635  -4.557  1.00 20.00    -0.006 C 
HETATM    2  C2  UNL     1     -34.470  14.267  -5.714  1.00 20.00     0.112 C 
HETATM    3  C3  UNL     1     -33.879  16.260  -4.771  1.00 20.00     0.023 C 
HETATM    4  C4  UNL     1     -34.093  16.609  -2.250  1.00 20.00     0.136 C 
HETATM    5  C5  UNL     1     -34.607  14.367  -3.262  1.00 20.00     0.046 C 
HETATM    6  C6  UNL     1     -33.505  17.718  -4.921  1.00 20.00     0.056 C 
HETATM    7  C7  UNL     1     -33.727  18.062  -2.452  1.00 20.00     0.079 C 
HETATM    8  C8  UNL     1     -34.170  18.536  -3.828  1.00 20.00     0.013 C 
HETATM    9  C9  UNL     1     -33.761  15.639  -3.382  1.00 20.00     0.106 C 
HETATM   10  N10 UNL     1     -34.177  15.596  -5.848  1.00 20.00    -0.269 NA
HETATM   11  O11 UNL     1     -34.528  16.222  -1.165  1.00 20.00    -0.297 OA
ENDROOT
TORSDOF 0
ENDMDL
