MODEL 1
REMARK VINA RESULT:      -4.4      0.000      0.000
REMARK  3 active torsions:
REMARK  status: ('A' for Active; 'I' for Inactive)
REMARK    1  A    between atoms: C2_2  and  C6_6 
REMARK    2  A    between atoms: C6_6  and  C7_7 
REMARK    3  A    between atoms: C7_7  and  C8_8 
ROOT
HETATM    1  C6  UNL     1     -34.047   6.847   3.786  1.00 20.00     0.040 C 
ENDROOT
BRANCH   1   2
HETATM    2  C2  UNL     1     -32.635   6.679   3.245  1.00 20.00     0.079 A 
HETATM    3  C1  UNL     1     -31.569   7.681   3.621  1.00 20.00     0.206 A 
HETATM    4  O9  UNL     1     -32.231   7.723   2.348  1.00 20.00    -0.375 OA
HETATM    5  C3  UNL     1     -32.235   5.311   2.796  1.00 20.00     0.048 C 
ENDBRANCH   1   2
BRANCH   1   6
HETATM    6  C7  UNL     1     -34.728   5.492   3.996  1.00 20.00     0.007 C 
BRANCH   6   7
HETATM    7  C8  UNL     1     -35.036   5.183   5.473  1.00 20.00    -0.023 C 
HETATM    8  C4  UNL     1     -34.254   6.139   6.376  1.00 20.00     0.009 C 
HETATM    9  C5  UNL     1     -34.711   3.737   5.847  1.00 20.00     0.009 C 
ENDBRANCH   6   7
ENDBRANCH   1   6
TORSDOF 3
ENDMDL
MODEL 2
REMARK VINA RESULT:      -4.2      1.957      4.313
REMARK  3 active torsions:
REMARK  status: ('A' for Active; 'I' for Inactive)
REMARK    1  A    between atoms: C2_2  and  C6_6 
REMARK    2  A    between atoms: C6_6  and  C7_7 
REMARK    3  A    between atoms: C7_7  and  C8_8 
ROOT
HETATM    1  C6  UNL     1     -33.447   5.455   3.858  1.00 20.00     0.040 C 
ENDROOT
BRANCH   1   2
HETATM    2  C2  UNL     1     -34.268   5.358   5.135  1.00 20.00     0.079 A 
HETATM    3  C1  UNL     1     -34.825   4.021   5.562  1.00 20.00     0.206 A 
HETATM    4  O9  UNL     1     -35.641   5.010   4.915  1.00 20.00    -0.375 OA
HETATM    5  C3  UNL     1     -34.075   6.435   6.153  1.00 20.00     0.048 C 
ENDBRANCH   1   2
BRANCH   1   6
HETATM    6  C7  UNL     1     -33.448   6.882   3.302  1.00 20.00     0.007 C 
BRANCH   6   7
HETATM    7  C8  UNL     1     -32.068   7.345   2.800  1.00 20.00    -0.023 C 
HETATM    8  C4  UNL     1     -31.195   7.756   3.988  1.00 20.00     0.009 C 
HETATM    9  C5  UNL     1     -32.166   8.503   1.807  1.00 20.00     0.009 C 
ENDBRANCH   6   7
ENDBRANCH   1   6
TORSDOF 3
ENDMDL
MODEL 3
REMARK VINA RESULT:      -4.1      2.056      4.129
REMARK  3 active torsions:
REMARK  status: ('A' for Active; 'I' for Inactive)
REMARK    1  A    between atoms: C2_2  and  C6_6 
REMARK    2  A    between atoms: C6_6  and  C7_7 
REMARK    3  A    between atoms: C7_7  and  C8_8 
ROOT
HETATM    1  C6  UNL     1     -34.553   5.679   4.091  1.00 20.00     0.040 C 
ENDROOT
BRANCH   1   2
HETATM    2  C2  UNL     1     -34.439   5.377   5.578  1.00 20.00     0.079 A 
HETATM    3  C1  UNL     1     -34.227   3.953   6.034  1.00 20.00     0.206 A 
HETATM    4  O9  UNL     1     -35.517   4.582   6.091  1.00 20.00    -0.375 OA
HETATM    5  C3  UNL     1     -34.043   6.505   6.475  1.00 20.00     0.048 C 
ENDBRANCH   1   2
BRANCH   1   6
HETATM    6  C7  UNL     1     -33.905   7.023   3.744  1.00 20.00     0.007 C 
BRANCH   6   7
HETATM    7  C8  UNL     1     -32.428   6.901   3.326  1.00 20.00    -0.023 C 
HETATM    8  C4  UNL     1     -32.100   7.959   2.271  1.00 20.00     0.009 C 
HETATM    9  C5  UNL     1     -32.086   5.512   2.787  1.00 20.00     0.009 C 
ENDBRANCH   6   7
ENDBRANCH   1   6
TORSDOF 3
ENDMDL
MODEL 4
REMARK VINA RESULT:      -4.0     11.134     12.038
REMARK  3 active torsions:
REMARK  status: ('A' for Active; 'I' for Inactive)
REMARK    1  A    between atoms: C2_2  and  C6_6 
REMARK    2  A    between atoms: C6_6  and  C7_7 
REMARK    3  A    between atoms: C7_7  and  C8_8 
ROOT
HETATM    1  C6  UNL     1     -35.119  15.009  -3.173  1.00 20.00     0.040 C 
ENDROOT
BRANCH   1   2
HETATM    2  C2  UNL     1     -34.360  13.962  -3.975  1.00 20.00     0.079 A 
HETATM    3  C1  UNL     1     -34.834  13.599  -5.361  1.00 20.00     0.206 A 
HETATM    4  O9  UNL     1     -35.113  12.767  -4.224  1.00 20.00    -0.375 OA
HETATM    5  C3  UNL     1     -32.938  13.709  -3.592  1.00 20.00     0.048 C 
ENDBRANCH   1   2
BRANCH   1   6
HETATM    6  C7  UNL     1     -34.162  15.945  -2.431  1.00 20.00     0.007 C 
BRANCH   6   7
HETATM    7  C8  UNL     1     -34.832  16.726  -1.285  1.00 20.00    -0.023 C 
HETATM    8  C4  UNL     1     -35.951  17.607  -1.845  1.00 20.00     0.009 C 
HETATM    9  C5  UNL     1     -33.839  17.588  -0.506  1.00 20.00     0.009 C 
ENDBRANCH   6   7
ENDBRANCH   1   6
TORSDOF 3
ENDMDL
MODEL 5
REMARK VINA RESULT:      -4.0      1.014      1.907
REMARK  3 active torsions:
REMARK  status: ('A' for Active; 'I' for Inactive)
REMARK    1  A    between atoms: C2_2  and  C6_6 
REMARK    2  A    between atoms: C6_6  and  C7_7 
REMARK    3  A    between atoms: C7_7  and  C8_8 
ROOT
HETATM    1  C6  UNL     1     -32.951   6.234   2.939  1.00 20.00     0.040 C 
ENDROOT
BRANCH   1   2
HETATM    2  C2  UNL     1     -32.141   7.521   2.925  1.00 20.00     0.079 A 
HETATM    3  C1  UNL     1     -32.603   8.683   2.080  1.00 20.00     0.206 A 
HETATM    4  O9  UNL     1     -31.542   7.814   1.656  1.00 20.00    -0.375 OA
HETATM    5  C3  UNL     1     -31.238   7.770   4.090  1.00 20.00     0.048 C 
ENDBRANCH   1   2
BRANCH   1   6
HETATM    6  C7  UNL     1     -34.159   6.345   3.873  1.00 20.00     0.007 C 
BRANCH   6   7
HETATM    7  C8  UNL     1     -33.987   5.572   5.193  1.00 20.00    -0.023 C 
HETATM    8  C4  UNL     1     -35.069   4.496   5.309  1.00 20.00     0.009 C 
HETATM    9  C5  UNL     1     -34.038   6.487   6.417  1.00 20.00     0.009 C 
ENDBRANCH   6   7
ENDBRANCH   1   6
TORSDOF 3
ENDMDL
MODEL 6
REMARK VINA RESULT:      -4.0     11.463     12.257
REMARK  3 active torsions:
REMARK  status: ('A' for Active; 'I' for Inactive)
REMARK    1  A    between atoms: C2_2  and  C6_6 
REMARK    2  A    between atoms: C6_6  and  C7_7 
REMARK    3  A    between atoms: C7_7  and  C8_8 
ROOT
HETATM    1  C6  UNL     1     -33.378  14.594  -3.475  1.00 20.00     0.040 C 
ENDROOT
BRANCH   1   2
HETATM    2  C2  UNL     1     -34.310  14.190  -4.607  1.00 20.00     0.079 A 
HETATM    3  C1  UNL     1     -35.543  13.373  -4.302  1.00 20.00     0.206 A 
HETATM    4  O9  UNL     1     -34.355  12.776  -4.843  1.00 20.00    -0.375 OA
HETATM    5  C3  UNL     1     -34.259  15.008  -5.857  1.00 20.00     0.048 C 
ENDBRANCH   1   2
BRANCH   1   6
HETATM    6  C7  UNL     1     -33.660  16.023  -3.003  1.00 20.00     0.007 C 
BRANCH   6   7
HETATM    7  C8  UNL     1     -34.862  16.127  -2.046  1.00 20.00    -0.023 C 
HETATM    8  C4  UNL     1     -35.988  16.921  -2.713  1.00 20.00     0.009 C 
HETATM    9  C5  UNL     1     -34.493  16.777  -0.713  1.00 20.00     0.009 C 
ENDBRANCH   6   7
ENDBRANCH   1   6
TORSDOF 3
ENDMDL
MODEL 7
REMARK VINA RESULT:      -3.7     11.369     12.318
REMARK  3 active torsions:
REMARK  status: ('A' for Active; 'I' for Inactive)
REMARK    1  A    between atoms: C2_2  and  C6_6 
REMARK    2  A    between atoms: C6_6  and  C7_7 
REMARK    3  A    between atoms: C7_7  and  C8_8 
ROOT
HETATM    1  C6  UNL     1     -34.714  15.333  -2.594  1.00 20.00     0.040 C 
ENDROOT
BRANCH   1   2
HETATM    2  C2  UNL     1     -34.423  14.643  -3.919  1.00 20.00     0.079 A 
HETATM    3  C1  UNL     1     -35.124  13.348  -4.254  1.00 20.00     0.206 A 
HETATM    4  O9  UNL     1     -33.770  13.374  -3.779  1.00 20.00    -0.375 OA
HETATM    5  C3  UNL     1     -33.870  15.488  -5.020  1.00 20.00     0.048 C 
ENDBRANCH   1   2
BRANCH   1   6
HETATM    6  C7  UNL     1     -33.712  16.457  -2.319  1.00 20.00     0.007 C 
BRANCH   6   7
HETATM    7  C8  UNL     1     -34.275  17.574  -1.422  1.00 20.00    -0.023 C 
HETATM    8  C4  UNL     1     -33.188  18.615  -1.145  1.00 20.00     0.009 C 
HETATM    9  C5  UNL     1     -34.826  17.040  -0.099  1.00 20.00     0.009 C 
ENDBRANCH   6   7
ENDBRANCH   1   6
TORSDOF 3
ENDMDL
MODEL 8
REMARK VINA RESULT:      -3.7     11.632     12.303
REMARK  3 active torsions:
REMARK  status: ('A' for Active; 'I' for Inactive)
REMARK    1  A    between atoms: C2_2  and  C6_6 
REMARK    2  A    between atoms: C6_6  and  C7_7 
REMARK    3  A    between atoms: C7_7  and  C8_8 
ROOT
HETATM    1  C6  UNL     1     -33.978  15.626  -2.988  1.00 20.00     0.040 C 
ENDROOT
BRANCH   1   2
HETATM    2  C2  UNL     1     -34.746  14.669  -3.886  1.00 20.00     0.079 A 
HETATM    3  C1  UNL     1     -34.056  13.441  -4.429  1.00 20.00     0.206 A 
HETATM    4  O9  UNL     1     -34.252  14.615  -5.231  1.00 20.00    -0.375 OA
HETATM    5  C3  UNL     1     -36.237  14.695  -3.793  1.00 20.00     0.048 C 
ENDBRANCH   1   2
BRANCH   1   6
HETATM    6  C7  UNL     1     -34.846  16.120  -1.827  1.00 20.00     0.007 C 
BRANCH   6   7
HETATM    7  C8  UNL     1     -34.092  17.035  -0.844  1.00 20.00    -0.023 C 
HETATM    8  C4  UNL     1     -34.998  17.381   0.340  1.00 20.00     0.009 C 
HETATM    9  C5  UNL     1     -33.596  18.320  -1.506  1.00 20.00     0.009 C 
ENDBRANCH   6   7
ENDBRANCH   1   6
TORSDOF 3
ENDMDL
MODEL 9
REMARK VINA RESULT:      -3.5     11.816     12.929
REMARK  3 active torsions:
REMARK  status: ('A' for Active; 'I' for Inactive)
REMARK    1  A    between atoms: C2_2  and  C6_6 
REMARK    2  A    between atoms: C6_6  and  C7_7 
REMARK    3  A    between atoms: C7_7  and  C8_8 
ROOT
HETATM    1  C6  UNL     1     -35.230  14.126  -3.884  1.00 20.00     0.040 C 
ENDROOT
BRANCH   1   2
HETATM    2  C2  UNL     1     -34.238  15.130  -3.315  1.00 20.00     0.079 A 
HETATM    3  C1  UNL     1     -34.635  15.979  -2.132  1.00 20.00     0.206 A 
HETATM    4  O9  UNL     1     -34.645  16.496  -3.471  1.00 20.00    -0.375 OA
HETATM    5  C3  UNL     1     -32.791  14.896  -3.602  1.00 20.00     0.048 C 
ENDBRANCH   1   2
BRANCH   1   6
HETATM    6  C7  UNL     1     -34.746  13.562  -5.222  1.00 20.00     0.007 C 
BRANCH   6   7
HETATM    7  C8  UNL     1     -35.336  14.290  -6.444  1.00 20.00    -0.023 C 
HETATM    8  C4  UNL     1     -34.285  15.223  -7.049  1.00 20.00     0.009 C 
HETATM    9  C5  UNL     1     -36.594  15.087  -6.098  1.00 20.00     0.009 C 
ENDBRANCH   6   7
ENDBRANCH   1   6
TORSDOF 3
ENDMDL
