MODEL 1
REMARK VINA RESULT:      -3.9      0.000      0.000
REMARK  1 active torsions:
REMARK  status: ('A' for Active; 'I' for Inactive)
REMARK    1  A    between atoms: C4_4  and  C5_5 
ROOT
HETATM    1  C1  UNL     1     -34.687   5.474   6.465  1.00 20.00     0.007 A 
HETATM    2  C2  UNL     1     -35.117   4.362   5.550  1.00 20.00     0.007 A 
HETATM    3  C4  UNL     1     -33.954   5.238   5.174  1.00 20.00     0.017 A 
ENDROOT
BRANCH   3   4
HETATM    4  C5  UNL     1     -34.006   6.217   4.011  1.00 20.00     0.149 A 
HETATM    5  C3  UNL     1     -32.790   6.688   3.270  1.00 20.00     0.200 A 
HETATM    6  O6  UNL     1     -33.651   5.668   2.741  1.00 20.00    -0.381 OA
ENDBRANCH   3   4
TORSDOF 1
ENDMDL
MODEL 2
REMARK VINA RESULT:      -3.8      1.393      1.964
REMARK  1 active torsions:
REMARK  status: ('A' for Active; 'I' for Inactive)
REMARK    1  A    between atoms: C4_4  and  C5_5 
ROOT
HETATM    1  C1  UNL     1     -35.085   5.368   3.798  1.00 20.00     0.007 A 
HETATM    2  C2  UNL     1     -34.324   5.333   5.094  1.00 20.00     0.007 A 
HETATM    3  C4  UNL     1     -34.003   6.378   4.061  1.00 20.00     0.017 A 
ENDROOT
BRANCH   3   4
HETATM    4  C5  UNL     1     -32.692   6.394   3.290  1.00 20.00     0.149 A 
HETATM    5  C3  UNL     1     -32.210   7.575   2.501  1.00 20.00     0.200 A 
HETATM    6  O6  UNL     1     -31.695   7.275   3.807  1.00 20.00    -0.381 OA
ENDBRANCH   3   4
TORSDOF 1
ENDMDL
MODEL 3
REMARK VINA RESULT:      -3.4      1.787      3.452
REMARK  1 active torsions:
REMARK  status: ('A' for Active; 'I' for Inactive)
REMARK    1  A    between atoms: C4_4  and  C5_5 
ROOT
HETATM    1  C1  UNL     1     -32.232   7.620   2.420  1.00 20.00     0.007 A 
HETATM    2  C2  UNL     1     -31.526   7.474   3.739  1.00 20.00     0.007 A 
HETATM    3  C4  UNL     1     -32.584   6.482   3.338  1.00 20.00     0.017 A 
ENDROOT
BRANCH   3   4
HETATM    4  C5  UNL     1     -33.926   6.383   4.045  1.00 20.00     0.149 A 
HETATM    5  C3  UNL     1     -34.931   5.306   3.766  1.00 20.00     0.200 A 
HETATM    6  O6  UNL     1     -34.072   5.260   4.915  1.00 20.00    -0.381 OA
ENDBRANCH   3   4
TORSDOF 1
ENDMDL
MODEL 4
REMARK VINA RESULT:      -3.4      1.624      3.159
REMARK  1 active torsions:
REMARK  status: ('A' for Active; 'I' for Inactive)
REMARK    1  A    between atoms: C4_4  and  C5_5 
ROOT
HETATM    1  C1  UNL     1     -33.171   6.490   3.526  1.00 20.00     0.007 A 
HETATM    2  C2  UNL     1     -33.987   5.522   2.716  1.00 20.00     0.007 A 
HETATM    3  C4  UNL     1     -34.351   5.796   4.149  1.00 20.00     0.017 A 
ENDROOT
BRANCH   3   4
HETATM    4  C5  UNL     1     -34.203   4.754   5.247  1.00 20.00     0.149 A 
HETATM    5  C3  UNL     1     -35.223   4.536   6.325  1.00 20.00     0.200 A 
HETATM    6  O6  UNL     1     -35.132   3.671   5.183  1.00 20.00    -0.381 OA
ENDBRANCH   3   4
TORSDOF 1
ENDMDL
MODEL 5
REMARK VINA RESULT:      -3.3      1.787      3.366
REMARK  1 active torsions:
REMARK  status: ('A' for Active; 'I' for Inactive)
REMARK    1  A    between atoms: C4_4  and  C5_5 
ROOT
HETATM    1  C1  UNL     1     -33.267   5.835   2.702  1.00 20.00     0.007 A 
HETATM    2  C2  UNL     1     -32.509   7.017   3.240  1.00 20.00     0.007 A 
HETATM    3  C4  UNL     1     -33.074   5.991   4.185  1.00 20.00     0.017 A 
ENDROOT
BRANCH   3   4
HETATM    4  C5  UNL     1     -34.223   6.294   5.133  1.00 20.00     0.149 A 
HETATM    5  C3  UNL     1     -34.590   5.420   6.296  1.00 20.00     0.200 A 
HETATM    6  O6  UNL     1     -33.836   6.630   6.467  1.00 20.00    -0.381 OA
ENDBRANCH   3   4
TORSDOF 1
ENDMDL
MODEL 6
REMARK VINA RESULT:      -3.2     12.010     12.408
REMARK  1 active torsions:
REMARK  status: ('A' for Active; 'I' for Inactive)
REMARK    1  A    between atoms: C4_4  and  C5_5 
ROOT
HETATM    1  C1  UNL     1     -33.874  16.329  -3.299  1.00 20.00     0.007 A 
HETATM    2  C2  UNL     1     -34.702  15.910  -2.116  1.00 20.00     0.007 A 
HETATM    3  C4  UNL     1     -34.250  14.884  -3.119  1.00 20.00     0.017 A 
ENDROOT
BRANCH   3   4
HETATM    4  C5  UNL     1     -35.215  14.166  -4.050  1.00 20.00     0.149 A 
HETATM    5  C3  UNL     1     -34.807  13.566  -5.362  1.00 20.00     0.200 A 
HETATM    6  O6  UNL     1     -34.993  12.762  -4.187  1.00 20.00    -0.381 OA
ENDBRANCH   3   4
TORSDOF 1
ENDMDL
MODEL 7
REMARK VINA RESULT:      -3.2     11.819     13.543
REMARK  1 active torsions:
REMARK  status: ('A' for Active; 'I' for Inactive)
REMARK    1  A    between atoms: C4_4  and  C5_5 
ROOT
HETATM    1  C1  UNL     1     -34.366  15.428  -7.009  1.00 20.00     0.007 A 
HETATM    2  C2  UNL     1     -35.312  14.347  -7.451  1.00 20.00     0.007 A 
HETATM    3  C4  UNL     1     -35.070  14.581  -5.985  1.00 20.00     0.017 A 
ENDROOT
BRANCH   3   4
HETATM    4  C5  UNL     1     -34.339  13.581  -5.105  1.00 20.00     0.149 A 
HETATM    5  C3  UNL     1     -34.307  13.664  -3.607  1.00 20.00     0.200 A 
HETATM    6  O6  UNL     1     -35.179  12.756  -4.297  1.00 20.00    -0.381 OA
ENDBRANCH   3   4
TORSDOF 1
ENDMDL
MODEL 8
REMARK VINA RESULT:      -3.0      2.262      4.626
REMARK  1 active torsions:
REMARK  status: ('A' for Active; 'I' for Inactive)
REMARK    1  A    between atoms: C4_4  and  C5_5 
ROOT
HETATM    1  C1  UNL     1     -32.516   9.608   1.725  1.00 20.00     0.007 A 
HETATM    2  C2  UNL     1     -31.582   8.779   0.889  1.00 20.00     0.007 A 
HETATM    3  C4  UNL     1     -32.539   8.109   1.836  1.00 20.00     0.017 A 
ENDROOT
BRANCH   3   4
HETATM    4  C5  UNL     1     -32.077   7.372   3.083  1.00 20.00     0.149 A 
HETATM    5  C3  UNL     1     -32.987   6.545   3.942  1.00 20.00     0.200 A 
HETATM    6  O6  UNL     1     -32.096   5.947   2.988  1.00 20.00    -0.381 OA
ENDBRANCH   3   4
TORSDOF 1
ENDMDL
MODEL 9
REMARK VINA RESULT:      -2.9     11.863     12.825
REMARK  1 active torsions:
REMARK  status: ('A' for Active; 'I' for Inactive)
REMARK    1  A    between atoms: C4_4  and  C5_5 
ROOT
HETATM    1  C1  UNL     1     -34.399  14.313  -5.027  1.00 20.00     0.007 A 
HETATM    2  C2  UNL     1     -34.274  13.798  -3.620  1.00 20.00     0.007 A 
HETATM    3  C4  UNL     1     -35.619  13.831  -4.293  1.00 20.00     0.017 A 
ENDROOT
BRANCH   3   4
HETATM    4  C5  UNL     1     -36.734  14.765  -3.852  1.00 20.00     0.149 A 
HETATM    5  C3  UNL     1     -37.890  15.148  -4.729  1.00 20.00     0.200 A 
HETATM    6  O6  UNL     1     -38.016  14.152  -3.701  1.00 20.00    -0.381 OA
ENDBRANCH   3   4
TORSDOF 1
ENDMDL
