MODEL 1
REMARK VINA RESULT:      -4.3      0.000      0.000
REMARK  3 active torsions:
REMARK  status: ('A' for Active; 'I' for Inactive)
REMARK    1  A    between atoms: C2_2  and  C7_7 
REMARK    2  A    between atoms: C5_5  and  C7_7 
REMARK    3  A    between atoms: C6_6  and  C7_7 
ROOT
HETATM    1  C7  UNL     1     -33.928   6.383   4.272  1.00 20.00     0.016 C 
ENDROOT
BRANCH   1   2
HETATM    2  C2  UNL     1     -32.673   6.370   3.394  1.00 20.00     0.149 A 
HETATM    3  C1  UNL     1     -32.289   7.565   2.568  1.00 20.00     0.200 A 
HETATM    4  O8  UNL     1     -31.644   7.272   3.816  1.00 20.00    -0.381 OA
ENDBRANCH   1   2
BRANCH   1   5
HETATM    5  C5  UNL     1     -33.595   6.062   5.744  1.00 20.00     0.002 C 
HETATM    6  C3  UNL     1     -33.686   7.265   6.672  1.00 20.00     0.005 C 
ENDBRANCH   1   5
BRANCH   1   7
HETATM    7  C6  UNL     1     -34.985   5.379   3.765  1.00 20.00     0.002 C 
HETATM    8  C4  UNL     1     -35.288   4.255   4.746  1.00 20.00     0.005 C 
ENDBRANCH   1   7
TORSDOF 3
ENDMDL
MODEL 2
REMARK VINA RESULT:      -3.9      1.494      3.387
REMARK  3 active torsions:
REMARK  status: ('A' for Active; 'I' for Inactive)
REMARK    1  A    between atoms: C2_2  and  C7_7 
REMARK    2  A    between atoms: C5_5  and  C7_7 
REMARK    3  A    between atoms: C6_6  and  C7_7 
ROOT
HETATM    1  C7  UNL     1     -34.042   6.302   4.254  1.00 20.00     0.016 C 
ENDROOT
BRANCH   1   2
HETATM    2  C2  UNL     1     -33.519   6.132   5.683  1.00 20.00     0.149 A 
HETATM    3  C1  UNL     1     -33.425   7.302   6.622  1.00 20.00     0.200 A 
HETATM    4  O8  UNL     1     -34.498   6.351   6.705  1.00 20.00    -0.381 OA
ENDBRANCH   1   2
BRANCH   1   5
HETATM    5  C5  UNL     1     -35.183   5.309   3.945  1.00 20.00     0.002 C 
HETATM    6  C3  UNL     1     -35.140   4.041   4.786  1.00 20.00     0.005 C 
ENDBRANCH   1   5
BRANCH   1   7
HETATM    7  C6  UNL     1     -32.918   6.116   3.213  1.00 20.00     0.002 C 
HETATM    8  C4  UNL     1     -32.201   7.406   2.843  1.00 20.00     0.005 C 
ENDBRANCH   1   7
TORSDOF 3
ENDMDL
MODEL 3
REMARK VINA RESULT:      -3.9      1.115      2.632
REMARK  3 active torsions:
REMARK  status: ('A' for Active; 'I' for Inactive)
REMARK    1  A    between atoms: C2_2  and  C7_7 
REMARK    2  A    between atoms: C5_5  and  C7_7 
REMARK    3  A    between atoms: C6_6  and  C7_7 
ROOT
HETATM    1  C7  UNL     1     -33.781   5.740   5.078  1.00 20.00     0.016 C 
ENDROOT
BRANCH   1   2
HETATM    2  C2  UNL     1     -33.554   6.687   3.896  1.00 20.00     0.149 A 
HETATM    3  C1  UNL     1     -32.190   6.860   3.288  1.00 20.00     0.200 A 
HETATM    4  O8  UNL     1     -33.192   6.036   2.673  1.00 20.00    -0.381 OA
ENDBRANCH   1   2
BRANCH   1   5
HETATM    5  C5  UNL     1     -34.843   4.668   4.750  1.00 20.00     0.002 C 
HETATM    6  C3  UNL     1     -35.344   3.906   5.969  1.00 20.00     0.005 C 
ENDBRANCH   1   5
BRANCH   1   7
HETATM    7  C6  UNL     1     -34.214   6.506   6.345  1.00 20.00     0.002 C 
HETATM    8  C4  UNL     1     -33.169   7.486   6.860  1.00 20.00     0.005 C 
ENDBRANCH   1   7
TORSDOF 3
ENDMDL
MODEL 4
REMARK VINA RESULT:      -3.8      1.089      2.674
REMARK  3 active torsions:
REMARK  status: ('A' for Active; 'I' for Inactive)
REMARK    1  A    between atoms: C2_2  and  C7_7 
REMARK    2  A    between atoms: C5_5  and  C7_7 
REMARK    3  A    between atoms: C6_6  and  C7_7 
ROOT
HETATM    1  C7  UNL     1     -33.923   5.498   5.003  1.00 20.00     0.016 C 
ENDROOT
BRANCH   1   2
HETATM    2  C2  UNL     1     -33.484   6.589   4.022  1.00 20.00     0.149 A 
HETATM    3  C1  UNL     1     -32.069   6.663   3.522  1.00 20.00     0.200 A 
HETATM    4  O8  UNL     1     -33.125   6.109   2.722  1.00 20.00    -0.381 OA
ENDBRANCH   1   2
BRANCH   1   5
HETATM    5  C5  UNL     1     -35.144   4.716   4.474  1.00 20.00     0.002 C 
HETATM    6  C3  UNL     1     -36.127   5.570   3.686  1.00 20.00     0.005 C 
ENDBRANCH   1   5
BRANCH   1   7
HETATM    7  C6  UNL     1     -34.264   6.085   6.389  1.00 20.00     0.002 C 
HETATM    8  C4  UNL     1     -33.447   7.315   6.756  1.00 20.00     0.005 C 
ENDBRANCH   1   7
TORSDOF 3
ENDMDL
MODEL 5
REMARK VINA RESULT:      -3.6     11.672     12.779
REMARK  3 active torsions:
REMARK  status: ('A' for Active; 'I' for Inactive)
REMARK    1  A    between atoms: C2_2  and  C7_7 
REMARK    2  A    between atoms: C5_5  and  C7_7 
REMARK    3  A    between atoms: C6_6  and  C7_7 
ROOT
HETATM    1  C7  UNL     1     -33.657  15.990  -3.108  1.00 20.00     0.016 C 
ENDROOT
BRANCH   1   2
HETATM    2  C2  UNL     1     -34.092  16.791  -4.338  1.00 20.00     0.149 A 
HETATM    3  C1  UNL     1     -33.586  18.186  -4.578  1.00 20.00     0.200 A 
HETATM    4  O8  UNL     1     -33.044  17.055  -5.277  1.00 20.00    -0.381 OA
ENDBRANCH   1   2
BRANCH   1   5
HETATM    5  C5  UNL     1     -33.186  14.571  -3.492  1.00 20.00     0.002 C 
HETATM    6  C3  UNL     1     -34.304  13.664  -3.987  1.00 20.00     0.005 C 
ENDBRANCH   1   5
BRANCH   1   7
HETATM    7  C6  UNL     1     -34.794  15.878  -2.071  1.00 20.00     0.002 C 
HETATM    8  C4  UNL     1     -34.560  16.695  -0.808  1.00 20.00     0.005 C 
ENDBRANCH   1   7
TORSDOF 3
ENDMDL
MODEL 6
REMARK VINA RESULT:      -3.5     11.236     11.817
REMARK  3 active torsions:
REMARK  status: ('A' for Active; 'I' for Inactive)
REMARK    1  A    between atoms: C2_2  and  C7_7 
REMARK    2  A    between atoms: C5_5  and  C7_7 
REMARK    3  A    between atoms: C6_6  and  C7_7 
ROOT
HETATM    1  C7  UNL     1     -34.926  15.407  -3.625  1.00 20.00     0.016 C 
ENDROOT
BRANCH   1   2
HETATM    2  C2  UNL     1     -34.897  13.878  -3.709  1.00 20.00     0.149 A 
HETATM    3  C1  UNL     1     -34.461  13.175  -4.963  1.00 20.00     0.200 A 
HETATM    4  O8  UNL     1     -33.587  13.314  -3.833  1.00 20.00    -0.381 OA
ENDBRANCH   1   2
BRANCH   1   5
HETATM    5  C5  UNL     1     -33.944  15.935  -2.557  1.00 20.00     0.002 C 
HETATM    6  C3  UNL     1     -34.623  16.427  -1.287  1.00 20.00     0.005 C 
ENDBRANCH   1   5
BRANCH   1   7
HETATM    7  C6  UNL     1     -36.342  15.931  -3.309  1.00 20.00     0.002 C 
HETATM    8  C4  UNL     1     -37.457  14.972  -3.702  1.00 20.00     0.005 C 
ENDBRANCH   1   7
TORSDOF 3
ENDMDL
MODEL 7
REMARK VINA RESULT:      -3.5     11.733     12.713
REMARK  3 active torsions:
REMARK  status: ('A' for Active; 'I' for Inactive)
REMARK    1  A    between atoms: C2_2  and  C7_7 
REMARK    2  A    between atoms: C5_5  and  C7_7 
REMARK    3  A    between atoms: C6_6  and  C7_7 
ROOT
HETATM    1  C7  UNL     1     -34.045  15.708  -3.734  1.00 20.00     0.016 C 
ENDROOT
BRANCH   1   2
HETATM    2  C2  UNL     1     -33.276  16.311  -4.912  1.00 20.00     0.149 A 
HETATM    3  C1  UNL     1     -33.994  16.996  -6.041  1.00 20.00     0.200 A 
HETATM    4  O8  UNL     1     -33.345  17.739  -4.998  1.00 20.00    -0.381 OA
ENDBRANCH   1   2
BRANCH   1   5
HETATM    5  C5  UNL     1     -33.637  16.360  -2.396  1.00 20.00     0.002 C 
HETATM    6  C3  UNL     1     -34.747  16.376  -1.354  1.00 20.00     0.005 C 
ENDBRANCH   1   5
BRANCH   1   7
HETATM    7  C6  UNL     1     -33.828  14.183  -3.636  1.00 20.00     0.002 C 
HETATM    8  C4  UNL     1     -34.972  13.359  -4.211  1.00 20.00     0.005 C 
ENDBRANCH   1   7
TORSDOF 3
ENDMDL
MODEL 8
REMARK VINA RESULT:      -3.5      2.055      3.831
REMARK  3 active torsions:
REMARK  status: ('A' for Active; 'I' for Inactive)
REMARK    1  A    between atoms: C2_2  and  C7_7 
REMARK    2  A    between atoms: C5_5  and  C7_7 
REMARK    3  A    between atoms: C6_6  and  C7_7 
ROOT
HETATM    1  C7  UNL     1     -34.214   5.916   4.620  1.00 20.00     0.016 C 
ENDROOT
BRANCH   1   2
HETATM    2  C2  UNL     1     -34.199   4.573   5.355  1.00 20.00     0.149 A 
HETATM    3  C1  UNL     1     -35.371   4.125   6.181  1.00 20.00     0.200 A 
HETATM    4  O8  UNL     1     -35.139   3.614   4.859  1.00 20.00    -0.381 OA
ENDBRANCH   1   2
BRANCH   1   5
HETATM    5  C5  UNL     1     -33.728   5.771   3.162  1.00 20.00     0.002 C 
HETATM    6  C3  UNL     1     -32.332   6.327   2.920  1.00 20.00     0.005 C 
ENDBRANCH   1   5
BRANCH   1   7
HETATM    7  C6  UNL     1     -33.340   6.966   5.338  1.00 20.00     0.002 C 
HETATM    8  C4  UNL     1     -33.692   7.161   6.806  1.00 20.00     0.005 C 
ENDBRANCH   1   7
TORSDOF 3
ENDMDL
MODEL 9
REMARK VINA RESULT:      -3.4      1.591      3.042
REMARK  3 active torsions:
REMARK  status: ('A' for Active; 'I' for Inactive)
REMARK    1  A    between atoms: C2_2  and  C7_7 
REMARK    2  A    between atoms: C5_5  and  C7_7 
REMARK    3  A    between atoms: C6_6  and  C7_7 
ROOT
HETATM    1  C7  UNL     1     -33.059   6.085   4.191  1.00 20.00     0.016 C 
ENDROOT
BRANCH   1   2
HETATM    2  C2  UNL     1     -33.982   6.625   5.287  1.00 20.00     0.149 A 
HETATM    3  C1  UNL     1     -34.333   5.793   6.488  1.00 20.00     0.200 A 
HETATM    4  O8  UNL     1     -33.344   6.833   6.552  1.00 20.00    -0.381 OA
ENDBRANCH   1   2
BRANCH   1   5
HETATM    5  C5  UNL     1     -32.008   7.133   3.766  1.00 20.00     0.002 C 
HETATM    6  C3  UNL     1     -32.243   7.712   2.378  1.00 20.00     0.005 C 
ENDBRANCH   1   5
BRANCH   1   7
HETATM    7  C6  UNL     1     -33.856   5.640   2.947  1.00 20.00     0.002 C 
HETATM    8  C4  UNL     1     -35.361   5.582   3.166  1.00 20.00     0.005 C 
ENDBRANCH   1   7
TORSDOF 3
ENDMDL
