MODEL 1
REMARK VINA RESULT:      -4.5      0.000      0.000
REMARK  3 active torsions:
REMARK  status: ('A' for Active; 'I' for Inactive)
REMARK    1  A    between atoms: C3_3  and  C4_4 
REMARK    2  A    between atoms: C4_4  and  C6_6 
REMARK    3  A    between atoms: C5_5  and  C6_6 
ROOT
HETATM    1  C2  UNL     1     -35.145   5.436   3.581  1.00 20.00     0.011 C 
HETATM    2  C6  UNL     1     -34.052   6.373   4.109  1.00 20.00    -0.005 C 
ENDROOT
BRANCH   2   3
HETATM    3  C4  UNL     1     -32.735   6.119   3.347  1.00 20.00     0.005 C 
BRANCH   3   4
HETATM    4  C3  UNL     1     -31.808   7.336   3.303  1.00 20.00    -0.004 C 
HETATM    5  C1  UNL     1     -32.079   8.192   2.075  1.00 20.00     0.005 C 
ENDBRANCH   3   4
ENDBRANCH   2   3
BRANCH   2   6
HETATM    6  C5  UNL     1     -33.934   6.284   5.640  1.00 20.00     0.119 C 
HETATM    7 CL7  UNL     1     -34.827   4.916   6.346  1.00 20.00    -0.130 Cl
ENDBRANCH   2   6
TORSDOF 3
ENDMDL
MODEL 2
REMARK VINA RESULT:      -4.3      1.125      2.023
REMARK  3 active torsions:
REMARK  status: ('A' for Active; 'I' for Inactive)
REMARK    1  A    between atoms: C3_3  and  C4_4 
REMARK    2  A    between atoms: C4_4  and  C6_6 
REMARK    3  A    between atoms: C5_5  and  C6_6 
ROOT
HETATM    1  C2  UNL     1     -33.707   7.224   6.654  1.00 20.00     0.011 C 
HETATM    2  C6  UNL     1     -33.751   6.010   5.717  1.00 20.00    -0.005 C 
ENDROOT
BRANCH   2   3
HETATM    3  C4  UNL     1     -33.884   6.485   4.255  1.00 20.00     0.005 C 
BRANCH   3   4
HETATM    4  C3  UNL     1     -32.626   6.248   3.417  1.00 20.00    -0.004 C 
HETATM    5  C1  UNL     1     -32.191   7.518   2.701  1.00 20.00     0.005 C 
ENDBRANCH   3   4
ENDBRANCH   2   3
BRANCH   2   6
HETATM    6  C5  UNL     1     -34.822   5.001   6.163  1.00 20.00     0.119 C 
HETATM    7 CL7  UNL     1     -35.164   3.743   4.953  1.00 20.00    -0.130 Cl
ENDBRANCH   2   6
TORSDOF 3
ENDMDL
MODEL 3
REMARK VINA RESULT:      -4.2      2.356      3.802
REMARK  3 active torsions:
REMARK  status: ('A' for Active; 'I' for Inactive)
REMARK    1  A    between atoms: C3_3  and  C4_4 
REMARK    2  A    between atoms: C4_4  and  C6_6 
REMARK    3  A    between atoms: C5_5  and  C6_6 
ROOT
HETATM    1  C2  UNL     1     -34.580   5.585   2.821  1.00 20.00     0.011 C 
HETATM    2  C6  UNL     1     -33.503   5.684   3.908  1.00 20.00    -0.005 C 
ENDROOT
BRANCH   2   3
HETATM    3  C4  UNL     1     -34.040   6.504   5.100  1.00 20.00     0.005 C 
BRANCH   3   4
HETATM    4  C3  UNL     1     -34.377   5.654   6.327  1.00 20.00    -0.004 C 
HETATM    5  C1  UNL     1     -34.899   4.283   5.924  1.00 20.00     0.005 C 
ENDBRANCH   3   4
ENDBRANCH   2   3
BRANCH   2   6
HETATM    6  C5  UNL     1     -32.172   6.191   3.330  1.00 20.00     0.119 C 
HETATM    7 CL7  UNL     1     -32.319   7.725   2.441  1.00 20.00    -0.130 Cl
ENDBRANCH   2   6
TORSDOF 3
ENDMDL
MODEL 4
REMARK VINA RESULT:      -3.8      1.527      3.392
REMARK  3 active torsions:
REMARK  status: ('A' for Active; 'I' for Inactive)
REMARK    1  A    between atoms: C3_3  and  C4_4 
REMARK    2  A    between atoms: C4_4  and  C6_6 
REMARK    3  A    between atoms: C5_5  and  C6_6 
ROOT
HETATM    1  C2  UNL     1     -32.246   6.417   2.951  1.00 20.00     0.011 C 
HETATM    2  C6  UNL     1     -33.244   6.036   4.052  1.00 20.00    -0.005 C 
ENDROOT
BRANCH   2   3
HETATM    3  C4  UNL     1     -34.450   5.301   3.431  1.00 20.00     0.005 C 
BRANCH   3   4
HETATM    4  C3  UNL     1     -35.505   4.879   4.456  1.00 20.00    -0.004 C 
HETATM    5  C1  UNL     1     -34.924   3.921   5.485  1.00 20.00     0.005 C 
ENDBRANCH   3   4
ENDBRANCH   2   3
BRANCH   2   6
HETATM    6  C5  UNL     1     -33.613   7.254   4.915  1.00 20.00     0.119 C 
HETATM    7 CL7  UNL     1     -33.546   6.936   6.664  1.00 20.00    -0.130 Cl
ENDBRANCH   2   6
TORSDOF 3
ENDMDL
MODEL 5
REMARK VINA RESULT:      -3.7      2.232      3.370
REMARK  3 active torsions:
REMARK  status: ('A' for Active; 'I' for Inactive)
REMARK    1  A    between atoms: C3_3  and  C4_4 
REMARK    2  A    between atoms: C4_4  and  C6_6 
REMARK    3  A    between atoms: C5_5  and  C6_6 
ROOT
HETATM    1  C2  UNL     1     -36.021   5.665   3.809  1.00 20.00     0.011 C 
HETATM    2  C6  UNL     1     -34.575   5.166   3.702  1.00 20.00    -0.005 C 
ENDROOT
BRANCH   2   3
HETATM    3  C4  UNL     1     -34.042   4.806   5.105  1.00 20.00     0.005 C 
BRANCH   3   4
HETATM    4  C3  UNL     1     -34.668   5.635   6.228  1.00 20.00    -0.004 C 
HETATM    5  C1  UNL     1     -33.800   6.833   6.582  1.00 20.00     0.005 C 
ENDBRANCH   3   4
ENDBRANCH   2   3
BRANCH   2   6
HETATM    6  C5  UNL     1     -33.699   6.158   2.920  1.00 20.00     0.119 C 
HETATM    7 CL7  UNL     1     -32.001   6.182   3.449  1.00 20.00    -0.130 Cl
ENDBRANCH   2   6
TORSDOF 3
ENDMDL
MODEL 6
REMARK VINA RESULT:      -3.5      2.008      3.834
REMARK  3 active torsions:
REMARK  status: ('A' for Active; 'I' for Inactive)
REMARK    1  A    between atoms: C3_3  and  C4_4 
REMARK    2  A    between atoms: C4_4  and  C6_6 
REMARK    3  A    between atoms: C5_5  and  C6_6 
ROOT
HETATM    1  C2  UNL     1     -32.537   6.482   3.624  1.00 20.00     0.011 C 
HETATM    2  C6  UNL     1     -33.948   6.570   4.218  1.00 20.00    -0.005 C 
ENDROOT
BRANCH   2   3
HETATM    3  C4  UNL     1     -33.893   6.302   5.737  1.00 20.00     0.005 C 
BRANCH   3   4
HETATM    4  C3  UNL     1     -34.929   5.283   6.217  1.00 20.00    -0.004 C 
HETATM    5  C1  UNL     1     -34.427   3.859   6.043  1.00 20.00     0.005 C 
ENDBRANCH   3   4
ENDBRANCH   2   3
BRANCH   2   6
HETATM    6  C5  UNL     1     -34.934   5.677   3.446  1.00 20.00     0.119 C 
HETATM    7 CL7  UNL     1     -34.223   4.907   2.009  1.00 20.00    -0.130 Cl
ENDBRANCH   2   6
TORSDOF 3
ENDMDL
MODEL 7
REMARK VINA RESULT:      -3.5     11.606     12.432
REMARK  3 active torsions:
REMARK  status: ('A' for Active; 'I' for Inactive)
REMARK    1  A    between atoms: C3_3  and  C4_4 
REMARK    2  A    between atoms: C4_4  and  C6_6 
REMARK    3  A    between atoms: C5_5  and  C6_6 
ROOT
HETATM    1  C2  UNL     1     -33.619  13.867  -3.826  1.00 20.00     0.011 C 
HETATM    2  C6  UNL     1     -33.350  15.330  -3.453  1.00 20.00    -0.005 C 
ENDROOT
BRANCH   2   3
HETATM    3  C4  UNL     1     -34.412  15.814  -2.443  1.00 20.00     0.005 C 
BRANCH   3   4
HETATM    4  C3  UNL     1     -33.908  16.914  -1.506  1.00 20.00    -0.004 C 
HETATM    5  C1  UNL     1     -34.764  17.008  -0.252  1.00 20.00     0.005 C 
ENDBRANCH   3   4
ENDBRANCH   2   3
BRANCH   2   6
HETATM    6  C5  UNL     1     -33.213  16.208  -4.708  1.00 20.00     0.119 C 
HETATM    7 CL7  UNL     1     -34.094  15.578  -6.120  1.00 20.00    -0.130 Cl
ENDBRANCH   2   6
TORSDOF 3
ENDMDL
MODEL 8
REMARK VINA RESULT:      -3.5      2.313      3.756
REMARK  3 active torsions:
REMARK  status: ('A' for Active; 'I' for Inactive)
REMARK    1  A    between atoms: C3_3  and  C4_4 
REMARK    2  A    between atoms: C4_4  and  C6_6 
REMARK    3  A    between atoms: C5_5  and  C6_6 
ROOT
HETATM    1  C2  UNL     1     -33.476   7.291   6.713  1.00 20.00     0.011 C 
HETATM    2  C6  UNL     1     -33.869   6.482   5.471  1.00 20.00    -0.005 C 
ENDROOT
BRANCH   2   3
HETATM    3  C4  UNL     1     -34.549   5.165   5.900  1.00 20.00     0.005 C 
BRANCH   3   4
HETATM    4  C3  UNL     1     -35.249   4.435   4.752  1.00 20.00    -0.004 C 
HETATM    5  C1  UNL     1     -35.822   5.415   3.740  1.00 20.00     0.005 C 
ENDBRANCH   3   4
ENDBRANCH   2   3
BRANCH   2   6
HETATM    6  C5  UNL     1     -32.674   6.306   4.520  1.00 20.00     0.119 C 
HETATM    7 CL7  UNL     1     -32.846   7.192   2.987  1.00 20.00    -0.130 Cl
ENDBRANCH   2   6
TORSDOF 3
ENDMDL
MODEL 9
REMARK VINA RESULT:      -3.4      1.810      2.877
REMARK  3 active torsions:
REMARK  status: ('A' for Active; 'I' for Inactive)
REMARK    1  A    between atoms: C3_3  and  C4_4 
REMARK    2  A    between atoms: C4_4  and  C6_6 
REMARK    3  A    between atoms: C5_5  and  C6_6 
ROOT
HETATM    1  C2  UNL     1     -33.715   5.486   2.640  1.00 20.00     0.011 C 
HETATM    2  C6  UNL     1     -34.461   5.958   3.894  1.00 20.00    -0.005 C 
ENDROOT
BRANCH   2   3
HETATM    3  C4  UNL     1     -33.445   6.357   4.985  1.00 20.00     0.005 C 
BRANCH   3   4
HETATM    4  C3  UNL     1     -34.076   6.558   6.365  1.00 20.00    -0.004 C 
HETATM    5  C1  UNL     1     -33.331   7.614   7.165  1.00 20.00     0.005 C 
ENDBRANCH   3   4
ENDBRANCH   2   3
BRANCH   2   6
HETATM    6  C5  UNL     1     -35.508   4.924   4.341  1.00 20.00     0.119 C 
HETATM    7 CL7  UNL     1     -34.854   3.667   5.417  1.00 20.00    -0.130 Cl
ENDBRANCH   2   6
TORSDOF 3
ENDMDL
