MODEL 1
REMARK VINA RESULT:      -4.0      0.000      0.000
REMARK  1 active torsions:
REMARK  status: ('A' for Active; 'I' for Inactive)
REMARK    1  A    between atoms: C1_1  and  C2_2 
ROOT
HETATM    1  C1  UNL     1     -34.660   4.198   5.533  1.00 20.00     0.437 C 
HETATM    2  F3  UNL     1     -33.530   3.707   6.092  1.00 20.00    -0.166 F 
HETATM    3  F4  UNL     1     -35.087   3.292   4.624  1.00 20.00    -0.166 F 
HETATM    4  F5  UNL     1     -35.596   4.263   6.508  1.00 20.00    -0.166 F 
ENDROOT
BRANCH   1   5
HETATM    5  C2  UNL     1     -34.423   5.558   4.897  1.00 20.00     0.286 C 
HETATM    6 CL6  UNL     1     -32.957   5.505   3.876  1.00 20.00    -0.074 Cl
HETATM    7 CL7  UNL     1     -35.823   6.008   3.881  1.00 20.00    -0.074 Cl
HETATM    8 CL8  UNL     1     -34.204   6.795   6.167  1.00 20.00    -0.074 Cl
ENDBRANCH   1   5
TORSDOF 1
ENDMDL
MODEL 2
REMARK VINA RESULT:      -4.0      0.002      1.781
REMARK  1 active torsions:
REMARK  status: ('A' for Active; 'I' for Inactive)
REMARK    1  A    between atoms: C1_1  and  C2_2 
ROOT
HETATM    1  C1  UNL     1     -34.660   4.198   5.533  1.00 20.00     0.437 C 
HETATM    2  F3  UNL     1     -33.531   3.706   6.091  1.00 20.00    -0.166 F 
HETATM    3  F4  UNL     1     -35.090   3.293   4.625  1.00 20.00    -0.166 F 
HETATM    4  F5  UNL     1     -35.595   4.264   6.509  1.00 20.00    -0.166 F 
ENDROOT
BRANCH   1   5
HETATM    5  C2  UNL     1     -34.423   5.558   4.897  1.00 20.00     0.286 C 
HETATM    6 CL6  UNL     1     -35.822   6.007   3.881  1.00 20.00    -0.074 Cl
HETATM    7 CL7  UNL     1     -34.204   6.796   6.166  1.00 20.00    -0.074 Cl
HETATM    8 CL8  UNL     1     -32.957   5.506   3.877  1.00 20.00    -0.074 Cl
ENDBRANCH   1   5
TORSDOF 1
ENDMDL
MODEL 3
REMARK VINA RESULT:      -4.0      0.003      1.782
REMARK  1 active torsions:
REMARK  status: ('A' for Active; 'I' for Inactive)
REMARK    1  A    between atoms: C1_1  and  C2_2 
ROOT
HETATM    1  C1  UNL     1     -34.661   4.198   5.533  1.00 20.00     0.437 C 
HETATM    2  F3  UNL     1     -33.531   3.706   6.090  1.00 20.00    -0.166 F 
HETATM    3  F4  UNL     1     -35.092   3.293   4.626  1.00 20.00    -0.166 F 
HETATM    4  F5  UNL     1     -35.594   4.265   6.510  1.00 20.00    -0.166 F 
ENDROOT
BRANCH   1   5
HETATM    5  C2  UNL     1     -34.424   5.557   4.896  1.00 20.00     0.286 C 
HETATM    6 CL6  UNL     1     -34.206   6.795   6.166  1.00 20.00    -0.074 Cl
HETATM    7 CL7  UNL     1     -32.957   5.506   3.877  1.00 20.00    -0.074 Cl
HETATM    8 CL8  UNL     1     -35.823   6.007   3.880  1.00 20.00    -0.074 Cl
ENDBRANCH   1   5
TORSDOF 1
ENDMDL
MODEL 4
REMARK VINA RESULT:      -3.7      2.506      3.123
REMARK  1 active torsions:
REMARK  status: ('A' for Active; 'I' for Inactive)
REMARK    1  A    between atoms: C1_1  and  C2_2 
ROOT
HETATM    1  C1  UNL     1     -33.445   5.857   3.492  1.00 20.00     0.437 C 
HETATM    2  F3  UNL     1     -32.205   5.477   3.876  1.00 20.00    -0.166 F 
HETATM    3  F4  UNL     1     -33.403   7.187   3.253  1.00 20.00    -0.166 F 
HETATM    4  F5  UNL     1     -33.707   5.244   2.315  1.00 20.00    -0.166 F 
ENDROOT
BRANCH   1   5
HETATM    5  C2  UNL     1     -34.485   5.511   4.544  1.00 20.00     0.286 C 
HETATM    6 CL6  UNL     1     -34.245   6.525   5.995  1.00 20.00    -0.074 Cl
HETATM    7 CL7  UNL     1     -36.126   5.800   3.898  1.00 20.00    -0.074 Cl
HETATM    8 CL8  UNL     1     -34.337   3.791   5.006  1.00 20.00    -0.074 Cl
ENDBRANCH   1   5
TORSDOF 1
ENDMDL
MODEL 5
REMARK VINA RESULT:      -3.7      2.508      3.131
REMARK  1 active torsions:
REMARK  status: ('A' for Active; 'I' for Inactive)
REMARK    1  A    between atoms: C1_1  and  C2_2 
ROOT
HETATM    1  C1  UNL     1     -33.468   5.856   3.474  1.00 20.00     0.437 C 
HETATM    2  F3  UNL     1     -33.428   7.186   3.236  1.00 20.00    -0.166 F 
HETATM    3  F4  UNL     1     -33.732   5.243   2.298  1.00 20.00    -0.166 F 
HETATM    4  F5  UNL     1     -32.226   5.477   3.855  1.00 20.00    -0.166 F 
ENDROOT
BRANCH   1   5
HETATM    5  C2  UNL     1     -34.505   5.508   4.530  1.00 20.00     0.286 C 
HETATM    6 CL6  UNL     1     -36.147   5.803   3.890  1.00 20.00    -0.074 Cl
HETATM    7 CL7  UNL     1     -34.358   3.787   4.985  1.00 20.00    -0.074 Cl
HETATM    8 CL8  UNL     1     -34.257   6.517   5.983  1.00 20.00    -0.074 Cl
ENDBRANCH   1   5
TORSDOF 1
ENDMDL
MODEL 6
REMARK VINA RESULT:      -3.7      2.507      3.278
REMARK  1 active torsions:
REMARK  status: ('A' for Active; 'I' for Inactive)
REMARK    1  A    between atoms: C1_1  and  C2_2 
ROOT
HETATM    1  C1  UNL     1     -33.445   5.856   3.490  1.00 20.00     0.437 C 
HETATM    2  F3  UNL     1     -33.709   5.245   2.313  1.00 20.00    -0.166 F 
HETATM    3  F4  UNL     1     -32.204   5.478   3.872  1.00 20.00    -0.166 F 
HETATM    4  F5  UNL     1     -33.404   7.188   3.253  1.00 20.00    -0.166 F 
ENDROOT
BRANCH   1   5
HETATM    5  C2  UNL     1     -34.483   5.510   4.545  1.00 20.00     0.286 C 
HETATM    6 CL6  UNL     1     -34.332   3.790   5.005  1.00 20.00    -0.074 Cl
HETATM    7 CL7  UNL     1     -34.241   6.524   5.996  1.00 20.00    -0.074 Cl
HETATM    8 CL8  UNL     1     -36.125   5.798   3.901  1.00 20.00    -0.074 Cl
ENDBRANCH   1   5
TORSDOF 1
ENDMDL
MODEL 7
REMARK VINA RESULT:      -3.6     13.404     13.846
REMARK  1 active torsions:
REMARK  status: ('A' for Active; 'I' for Inactive)
REMARK    1  A    between atoms: C1_1  and  C2_2 
ROOT
HETATM    1  C1  UNL     1     -33.879  13.950  -4.194  1.00 20.00     0.437 C 
HETATM    2  F3  UNL     1     -32.589  14.051  -3.800  1.00 20.00    -0.166 F 
HETATM    3  F4  UNL     1     -34.002  12.792  -4.879  1.00 20.00    -0.166 F 
HETATM    4  F5  UNL     1     -34.633  13.839  -3.076  1.00 20.00    -0.166 F 
ENDROOT
BRANCH   1   5
HETATM    5  C2  UNL     1     -34.300  15.144  -5.034  1.00 20.00     0.286 C 
HETATM    6 CL6  UNL     1     -34.491  14.649  -6.741  1.00 20.00    -0.074 Cl
HETATM    7 CL7  UNL     1     -35.856  15.791  -4.440  1.00 20.00    -0.074 Cl
HETATM    8 CL8  UNL     1     -33.061  16.427  -4.936  1.00 20.00    -0.074 Cl
ENDBRANCH   1   5
TORSDOF 1
ENDMDL
MODEL 8
REMARK VINA RESULT:      -3.6     13.407     13.917
REMARK  1 active torsions:
REMARK  status: ('A' for Active; 'I' for Inactive)
REMARK    1  A    between atoms: C1_1  and  C2_2 
ROOT
HETATM    1  C1  UNL     1     -33.881  13.955  -4.192  1.00 20.00     0.437 C 
HETATM    2  F3  UNL     1     -34.635  13.845  -3.075  1.00 20.00    -0.166 F 
HETATM    3  F4  UNL     1     -32.591  14.052  -3.800  1.00 20.00    -0.166 F 
HETATM    4  F5  UNL     1     -34.007  12.795  -4.878  1.00 20.00    -0.166 F 
ENDROOT
BRANCH   1   5
HETATM    5  C2  UNL     1     -34.301  15.148  -5.034  1.00 20.00     0.286 C 
HETATM    6 CL6  UNL     1     -33.063  16.433  -4.927  1.00 20.00    -0.074 Cl
HETATM    7 CL7  UNL     1     -34.483  14.657  -6.742  1.00 20.00    -0.074 Cl
HETATM    8 CL8  UNL     1     -35.860  15.792  -4.444  1.00 20.00    -0.074 Cl
ENDBRANCH   1   5
TORSDOF 1
ENDMDL
MODEL 9
REMARK VINA RESULT:      -3.6     13.404     14.015
REMARK  1 active torsions:
REMARK  status: ('A' for Active; 'I' for Inactive)
REMARK    1  A    between atoms: C1_1  and  C2_2 
ROOT
HETATM    1  C1  UNL     1     -33.881  13.952  -4.191  1.00 20.00     0.437 C 
HETATM    2  F3  UNL     1     -34.004  12.794  -4.878  1.00 20.00    -0.166 F 
HETATM    3  F4  UNL     1     -34.636  13.842  -3.075  1.00 20.00    -0.166 F 
HETATM    4  F5  UNL     1     -32.591  14.050  -3.797  1.00 20.00    -0.166 F 
ENDROOT
BRANCH   1   5
HETATM    5  C2  UNL     1     -34.299  15.147  -5.031  1.00 20.00     0.286 C 
HETATM    6 CL6  UNL     1     -35.858  15.790  -4.441  1.00 20.00    -0.074 Cl
HETATM    7 CL7  UNL     1     -33.062  16.432  -4.924  1.00 20.00    -0.074 Cl
HETATM    8 CL8  UNL     1     -34.482  14.657  -6.740  1.00 20.00    -0.074 Cl
ENDBRANCH   1   5
TORSDOF 1
ENDMDL
