MODEL 1
REMARK VINA RESULT:      -3.9      0.000      0.000
REMARK  3 active torsions:
REMARK  status: ('A' for Active; 'I' for Inactive)
REMARK    1  A    between atoms: C1_1  and  C4_4 
REMARK    2  A    between atoms: C1_1  and  O6_6 
REMARK    3  A    between atoms: C5_5  and  O6_6 
ROOT
HETATM    1  C1  UNL     1     -33.972   6.052   4.708  1.00 20.00     0.112 C 
HETATM    2  S7  UNL     1     -34.891   5.452   3.448  1.00 20.00    -0.058 SA
ENDROOT
BRANCH   1   3
HETATM    3  C4  UNL     1     -34.301   5.804   6.155  1.00 20.00     0.072 C 
HETATM    4  C2  UNL     1     -35.029   4.482   6.346  1.00 20.00     0.013 C 
ENDBRANCH   1   3
BRANCH   1   5
HETATM    5  O6  UNL     1     -32.881   6.753   4.355  1.00 20.00    -0.344 OA
BRANCH   5   6
HETATM    6  C5  UNL     1     -32.224   6.551   3.093  1.00 20.00     0.172 C 
HETATM    7  C3  UNL     1     -32.084   7.886   2.393  1.00 20.00     0.034 C 
ENDBRANCH   5   6
ENDBRANCH   1   5
TORSDOF 3
ENDMDL
MODEL 2
REMARK VINA RESULT:      -3.9      1.464      1.534
REMARK  3 active torsions:
REMARK  status: ('A' for Active; 'I' for Inactive)
REMARK    1  A    between atoms: C1_1  and  C4_4 
REMARK    2  A    between atoms: C1_1  and  O6_6 
REMARK    3  A    between atoms: C5_5  and  O6_6 
ROOT
HETATM    1  C1  UNL     1     -34.190   6.050   4.745  1.00 20.00     0.112 C 
HETATM    2  S7  UNL     1     -33.813   6.648   6.259  1.00 20.00    -0.058 SA
ENDROOT
BRANCH   1   3
HETATM    3  C4  UNL     1     -35.022   4.815   4.532  1.00 20.00     0.072 C 
HETATM    4  C2  UNL     1     -35.099   3.968   5.792  1.00 20.00     0.013 C 
ENDBRANCH   1   3
BRANCH   1   5
HETATM    5  O6  UNL     1     -33.732   6.765   3.702  1.00 20.00    -0.344 OA
BRANCH   5   6
HETATM    6  C5  UNL     1     -32.373   6.657   3.248  1.00 20.00     0.172 C 
HETATM    7  C3  UNL     1     -32.052   7.849   2.370  1.00 20.00     0.034 C 
ENDBRANCH   5   6
ENDBRANCH   1   5
TORSDOF 3
ENDMDL
MODEL 3
REMARK VINA RESULT:      -3.3      0.692      3.687
REMARK  3 active torsions:
REMARK  status: ('A' for Active; 'I' for Inactive)
REMARK    1  A    between atoms: C1_1  and  C4_4 
REMARK    2  A    between atoms: C1_1  and  O6_6 
REMARK    3  A    between atoms: C5_5  and  O6_6 
ROOT
HETATM    1  C1  UNL     1     -33.591   6.151   4.076  1.00 20.00     0.112 C 
HETATM    2  S7  UNL     1     -35.033   5.721   3.351  1.00 20.00    -0.058 SA
ENDROOT
BRANCH   1   3
HETATM    3  C4  UNL     1     -32.296   6.278   3.320  1.00 20.00     0.072 C 
HETATM    4  C2  UNL     1     -32.205   7.605   2.585  1.00 20.00     0.013 C 
ENDBRANCH   1   3
BRANCH   1   5
HETATM    5  O6  UNL     1     -33.654   6.419   5.392  1.00 20.00    -0.344 OA
BRANCH   5   6
HETATM    6  C5  UNL     1     -34.568   5.734   6.263  1.00 20.00     0.172 C 
HETATM    7  C3  UNL     1     -34.352   4.241   6.126  1.00 20.00     0.034 C 
ENDBRANCH   5   6
ENDBRANCH   1   5
TORSDOF 3
ENDMDL
MODEL 4
REMARK VINA RESULT:      -3.3     11.952     12.354
REMARK  3 active torsions:
REMARK  status: ('A' for Active; 'I' for Inactive)
REMARK    1  A    between atoms: C1_1  and  C4_4 
REMARK    2  A    between atoms: C1_1  and  O6_6 
REMARK    3  A    between atoms: C5_5  and  O6_6 
ROOT
HETATM    1  C1  UNL     1     -33.486  15.356  -3.745  1.00 20.00     0.112 C 
HETATM    2  S7  UNL     1     -33.355  16.354  -5.079  1.00 20.00    -0.058 SA
ENDROOT
BRANCH   1   3
HETATM    3  C4  UNL     1     -33.473  13.854  -3.837  1.00 20.00     0.072 C 
HETATM    4  C2  UNL     1     -34.680  13.330  -4.598  1.00 20.00     0.013 C 
ENDBRANCH   1   3
BRANCH   1   5
HETATM    5  O6  UNL     1     -33.570  15.977  -2.555  1.00 20.00    -0.344 OA
BRANCH   5   6
HETATM    6  C5  UNL     1     -34.829  16.173  -1.889  1.00 20.00     0.172 C 
HETATM    7  C3  UNL     1     -34.580  16.846  -0.556  1.00 20.00     0.034 C 
ENDBRANCH   5   6
ENDBRANCH   1   5
TORSDOF 3
ENDMDL
MODEL 5
REMARK VINA RESULT:      -3.2     11.837     12.266
REMARK  3 active torsions:
REMARK  status: ('A' for Active; 'I' for Inactive)
REMARK    1  A    between atoms: C1_1  and  C4_4 
REMARK    2  A    between atoms: C1_1  and  O6_6 
REMARK    3  A    between atoms: C5_5  and  O6_6 
ROOT
HETATM    1  C1  UNL     1     -33.872  16.175  -3.035  1.00 20.00     0.112 C 
HETATM    2  S7  UNL     1     -33.520  16.726  -4.573  1.00 20.00    -0.058 SA
ENDROOT
BRANCH   1   3
HETATM    3  C4  UNL     1     -33.687  17.013  -1.799  1.00 20.00     0.072 C 
HETATM    4  C2  UNL     1     -34.699  16.653  -0.722  1.00 20.00     0.013 C 
ENDBRANCH   1   3
BRANCH   1   5
HETATM    5  O6  UNL     1     -34.374  14.930  -2.959  1.00 20.00    -0.344 OA
BRANCH   5   6
HETATM    6  C5  UNL     1     -33.841  13.849  -3.742  1.00 20.00     0.172 C 
HETATM    7  C3  UNL     1     -34.965  13.216  -4.535  1.00 20.00     0.034 C 
ENDBRANCH   5   6
ENDBRANCH   1   5
TORSDOF 3
ENDMDL
MODEL 6
REMARK VINA RESULT:      -3.2     11.842     12.906
REMARK  3 active torsions:
REMARK  status: ('A' for Active; 'I' for Inactive)
REMARK    1  A    between atoms: C1_1  and  C4_4 
REMARK    2  A    between atoms: C1_1  and  O6_6 
REMARK    3  A    between atoms: C5_5  and  O6_6 
ROOT
HETATM    1  C1  UNL     1     -33.415  15.351  -3.646  1.00 20.00     0.112 C 
HETATM    2  S7  UNL     1     -34.178  16.190  -2.420  1.00 20.00    -0.058 SA
ENDROOT
BRANCH   1   3
HETATM    3  C4  UNL     1     -33.464  13.852  -3.771  1.00 20.00     0.072 C 
HETATM    4  C2  UNL     1     -34.842  13.371  -4.195  1.00 20.00     0.013 C 
ENDBRANCH   1   3
BRANCH   1   5
HETATM    5  O6  UNL     1     -32.770  16.101  -4.556  1.00 20.00    -0.344 OA
BRANCH   5   6
HETATM    6  C5  UNL     1     -33.458  17.065  -5.370  1.00 20.00     0.172 C 
HETATM    7  C3  UNL     1     -34.201  16.337  -6.471  1.00 20.00     0.034 C 
ENDBRANCH   5   6
ENDBRANCH   1   5
TORSDOF 3
ENDMDL
MODEL 7
REMARK VINA RESULT:      -3.0     11.821     12.345
REMARK  3 active torsions:
REMARK  status: ('A' for Active; 'I' for Inactive)
REMARK    1  A    between atoms: C1_1  and  C4_4 
REMARK    2  A    between atoms: C1_1  and  O6_6 
REMARK    3  A    between atoms: C5_5  and  O6_6 
ROOT
HETATM    1  C1  UNL     1     -35.806  14.607  -4.184  1.00 20.00     0.112 C 
HETATM    2  S7  UNL     1     -36.312  15.366  -5.584  1.00 20.00    -0.058 SA
ENDROOT
BRANCH   1   3
HETATM    3  C4  UNL     1     -34.968  13.357  -4.184  1.00 20.00     0.072 C 
HETATM    4  C2  UNL     1     -33.511  13.661  -3.869  1.00 20.00     0.013 C 
ENDBRANCH   1   3
BRANCH   1   5
HETATM    5  O6  UNL     1     -36.163  15.202  -3.033  1.00 20.00    -0.344 OA
BRANCH   5   6
HETATM    6  C5  UNL     1     -35.663  16.497  -2.661  1.00 20.00     0.172 C 
HETATM    7  C3  UNL     1     -34.663  16.333  -1.536  1.00 20.00     0.034 C 
ENDBRANCH   5   6
ENDBRANCH   1   5
TORSDOF 3
ENDMDL
MODEL 8
REMARK VINA RESULT:      -3.0     12.033     12.869
REMARK  3 active torsions:
REMARK  status: ('A' for Active; 'I' for Inactive)
REMARK    1  A    between atoms: C1_1  and  C4_4 
REMARK    2  A    between atoms: C1_1  and  O6_6 
REMARK    3  A    between atoms: C5_5  and  O6_6 
ROOT
HETATM    1  C1  UNL     1     -34.038  15.546  -3.116  1.00 20.00     0.112 C 
HETATM    2  S7  UNL     1     -34.216  13.987  -3.691  1.00 20.00    -0.058 SA
ENDROOT
BRANCH   1   3
HETATM    3  C4  UNL     1     -34.759  16.062  -1.900  1.00 20.00     0.072 C 
HETATM    4  C2  UNL     1     -33.956  17.139  -1.189  1.00 20.00     0.013 C 
ENDBRANCH   1   3
BRANCH   1   5
HETATM    5  O6  UNL     1     -33.172  16.323  -3.790  1.00 20.00    -0.344 OA
BRANCH   5   6
HETATM    6  C5  UNL     1     -33.329  16.595  -5.192  1.00 20.00     0.172 C 
HETATM    7  C3  UNL     1     -33.596  18.074  -5.379  1.00 20.00     0.034 C 
ENDBRANCH   5   6
ENDBRANCH   1   5
TORSDOF 3
ENDMDL
MODEL 9
REMARK VINA RESULT:      -3.0     10.521     10.882
REMARK  3 active torsions:
REMARK  status: ('A' for Active; 'I' for Inactive)
REMARK    1  A    between atoms: C1_1  and  C4_4 
REMARK    2  A    between atoms: C1_1  and  O6_6 
REMARK    3  A    between atoms: C5_5  and  O6_6 
ROOT
HETATM    1  C1  UNL     1     -41.579   4.762  -1.921  1.00 20.00     0.112 C 
HETATM    2  S7  UNL     1     -42.844   5.457  -2.761  1.00 20.00    -0.058 SA
ENDROOT
BRANCH   1   3
HETATM    3  C4  UNL     1     -40.871   5.449  -0.784  1.00 20.00     0.072 C 
HETATM    4  C2  UNL     1     -41.059   6.957  -0.836  1.00 20.00     0.013 C 
ENDBRANCH   1   3
BRANCH   1   5
HETATM    5  O6  UNL     1     -41.239   3.517  -2.296  1.00 20.00    -0.344 OA
BRANCH   5   6
HETATM    6  C5  UNL     1     -42.129   2.686  -3.060  1.00 20.00     0.172 C 
HETATM    7  C3  UNL     1     -41.308   1.755  -3.928  1.00 20.00     0.034 C 
ENDBRANCH   5   6
ENDBRANCH   1   5
TORSDOF 3
ENDMDL
