MODEL 1
REMARK VINA RESULT:      -4.8      0.000      0.000
REMARK  3 active torsions:
REMARK  status: ('A' for Active; 'I' for Inactive)
REMARK    1  A    between atoms: C3_3  and  C4_4 
REMARK    2  A    between atoms: C3_3  and  C5_5 
REMARK    3  A    between atoms: C4_4  and  O6_6 
ROOT
HETATM    1  C1  UNL     1     -33.065   5.738   3.940  1.00 20.00     0.022 A 
HETATM    2  C2  UNL     1     -33.957   6.945   4.016  1.00 20.00     0.022 A 
HETATM    3  C3  UNL     1     -34.309   5.700   4.796  1.00 20.00     0.079 A 
ENDROOT
BRANCH   3   4
HETATM    4  C4  UNL     1     -35.470   4.873   4.316  1.00 20.00     0.182 C 
BRANCH   4   5
HETATM    5  O6  UNL     1     -35.406   3.580   4.908  1.00 20.00    -0.400 OA
HETATM    6  H16 UNL     1     -35.243   2.951   4.187  1.00 20.00     0.209 HD
ENDBRANCH   4   5
ENDBRANCH   3   4
BRANCH   3   7
HETATM    7  C5  UNL     1     -34.139   5.732   6.290  1.00 20.00     0.397 C 
HETATM    8  F7  UNL     1     -33.446   6.825   6.674  1.00 20.00    -0.170 F 
HETATM    9  F8  UNL     1     -35.336   5.759   6.912  1.00 20.00    -0.170 F 
HETATM   10  F9  UNL     1     -33.470   4.642   6.723  1.00 20.00    -0.170 F 
ENDBRANCH   3   7
TORSDOF 3
ENDMDL
MODEL 2
REMARK VINA RESULT:      -4.7      2.184      2.807
REMARK  3 active torsions:
REMARK  status: ('A' for Active; 'I' for Inactive)
REMARK    1  A    between atoms: C3_3  and  C4_4 
REMARK    2  A    between atoms: C3_3  and  C5_5 
REMARK    3  A    between atoms: C4_4  and  O6_6 
ROOT
HETATM    1  C1  UNL     1     -34.195   6.503   6.058  1.00 20.00     0.022 A 
HETATM    2  C2  UNL     1     -33.497   5.173   6.056  1.00 20.00     0.022 A 
HETATM    3  C3  UNL     1     -34.249   5.628   4.827  1.00 20.00     0.079 A 
ENDROOT
BRANCH   3   4
HETATM    4  C4  UNL     1     -35.549   4.946   4.505  1.00 20.00     0.182 C 
BRANCH   4   5
HETATM    5  O6  UNL     1     -35.489   3.588   4.930  1.00 20.00    -0.400 OA
HETATM    6  H16 UNL     1     -34.559   3.318   4.868  1.00 20.00     0.209 HD
ENDBRANCH   4   5
ENDBRANCH   3   4
BRANCH   3   7
HETATM    7  C5  UNL     1     -33.449   6.050   3.627  1.00 20.00     0.397 C 
HETATM    8  F7  UNL     1     -33.582   7.373   3.397  1.00 20.00    -0.170 F 
HETATM    9  F8  UNL     1     -32.136   5.790   3.805  1.00 20.00    -0.170 F 
HETATM   10  F9  UNL     1     -33.856   5.393   2.520  1.00 20.00    -0.170 F 
ENDBRANCH   3   7
TORSDOF 3
ENDMDL
MODEL 3
REMARK VINA RESULT:      -4.7      1.936      2.449
REMARK  3 active torsions:
REMARK  status: ('A' for Active; 'I' for Inactive)
REMARK    1  A    between atoms: C3_3  and  C4_4 
REMARK    2  A    between atoms: C3_3  and  C5_5 
REMARK    3  A    between atoms: C4_4  and  O6_6 
ROOT
HETATM    1  C1  UNL     1     -35.588   5.863   3.695  1.00 20.00     0.022 A 
HETATM    2  C2  UNL     1     -34.351   5.190   3.171  1.00 20.00     0.022 A 
HETATM    3  C3  UNL     1     -34.488   5.463   4.651  1.00 20.00     0.079 A 
ENDROOT
BRANCH   3   4
HETATM    4  C4  UNL     1     -33.641   6.554   5.246  1.00 20.00     0.182 C 
BRANCH   4   5
HETATM    5  O6  UNL     1     -34.067   6.808   6.581  1.00 20.00    -0.400 OA
HETATM    6  H16 UNL     1     -35.037   6.809   6.569  1.00 20.00     0.209 HD
ENDBRANCH   4   5
ENDBRANCH   3   4
BRANCH   3   7
HETATM    7  C5  UNL     1     -34.736   4.295   5.564  1.00 20.00     0.397 C 
HETATM    8  F7  UNL     1     -33.610   3.950   6.224  1.00 20.00    -0.170 F 
HETATM    9  F8  UNL     1     -35.681   4.590   6.481  1.00 20.00    -0.170 F 
HETATM   10  F9  UNL     1     -35.155   3.217   4.866  1.00 20.00    -0.170 F 
ENDBRANCH   3   7
TORSDOF 3
ENDMDL
MODEL 4
REMARK VINA RESULT:      -4.5      1.490      2.087
REMARK  3 active torsions:
REMARK  status: ('A' for Active; 'I' for Inactive)
REMARK    1  A    between atoms: C3_3  and  C4_4 
REMARK    2  A    between atoms: C3_3  and  C5_5 
REMARK    3  A    between atoms: C4_4  and  O6_6 
ROOT
HETATM    1  C1  UNL     1     -35.643   5.434   3.974  1.00 20.00     0.022 A 
HETATM    2  C2  UNL     1     -34.590   4.362   3.975  1.00 20.00     0.022 A 
HETATM    3  C3  UNL     1     -34.364   5.637   4.753  1.00 20.00     0.079 A 
ENDROOT
BRANCH   3   4
HETATM    4  C4  UNL     1     -33.361   6.620   4.216  1.00 20.00     0.182 C 
BRANCH   4   5
HETATM    5  O6  UNL     1     -32.369   5.923   3.468  1.00 20.00    -0.400 OA
HETATM    6  H16 UNL     1     -32.488   6.182   2.540  1.00 20.00     0.209 HD
ENDBRANCH   4   5
ENDBRANCH   3   4
BRANCH   3   7
HETATM    7  C5  UNL     1     -34.433   5.570   6.253  1.00 20.00     0.397 C 
HETATM    8  F7  UNL     1     -34.129   6.764   6.805  1.00 20.00    -0.170 F 
HETATM    9  F8  UNL     1     -35.672   5.226   6.665  1.00 20.00    -0.170 F 
HETATM   10  F9  UNL     1     -33.565   4.655   6.736  1.00 20.00    -0.170 F 
ENDBRANCH   3   7
TORSDOF 3
ENDMDL
MODEL 5
REMARK VINA RESULT:      -4.4      2.591      3.222
REMARK  3 active torsions:
REMARK  status: ('A' for Active; 'I' for Inactive)
REMARK    1  A    between atoms: C3_3  and  C4_4 
REMARK    2  A    between atoms: C3_3  and  C5_5 
REMARK    3  A    between atoms: C4_4  and  O6_6 
ROOT
HETATM    1  C1  UNL     1     -34.032   3.946   5.598  1.00 20.00     0.022 A 
HETATM    2  C2  UNL     1     -35.440   4.321   5.233  1.00 20.00     0.022 A 
HETATM    3  C3  UNL     1     -34.362   5.379   5.251  1.00 20.00     0.079 A 
ENDROOT
BRANCH   3   4
HETATM    4  C4  UNL     1     -34.383   6.387   6.366  1.00 20.00     0.182 C 
BRANCH   4   5
HETATM    5  O6  UNL     1     -33.092   6.975   6.497  1.00 20.00    -0.400 OA
HETATM    6  H16 UNL     1     -32.923   7.461   5.674  1.00 20.00     0.209 HD
ENDBRANCH   4   5
ENDBRANCH   3   4
BRANCH   3   7
HETATM    7  C5  UNL     1     -33.877   5.915   3.932  1.00 20.00     0.397 C 
HETATM    8  F7  UNL     1     -32.531   5.858   3.853  1.00 20.00    -0.170 F 
HETATM    9  F8  UNL     1     -34.384   5.201   2.905  1.00 20.00    -0.170 F 
HETATM   10  F9  UNL     1     -34.250   7.202   3.767  1.00 20.00    -0.170 F 
ENDBRANCH   3   7
TORSDOF 3
ENDMDL
MODEL 6
REMARK VINA RESULT:      -4.4      2.588      3.193
REMARK  3 active torsions:
REMARK  status: ('A' for Active; 'I' for Inactive)
REMARK    1  A    between atoms: C3_3  and  C4_4 
REMARK    2  A    between atoms: C3_3  and  C5_5 
REMARK    3  A    between atoms: C4_4  and  O6_6 
ROOT
HETATM    1  C1  UNL     1     -34.039   3.931   5.575  1.00 20.00     0.022 A 
HETATM    2  C2  UNL     1     -35.445   4.318   5.211  1.00 20.00     0.022 A 
HETATM    3  C3  UNL     1     -34.361   5.371   5.246  1.00 20.00     0.079 A 
ENDROOT
BRANCH   3   4
HETATM    4  C4  UNL     1     -34.380   6.364   6.374  1.00 20.00     0.182 C 
BRANCH   4   5
HETATM    5  O6  UNL     1     -33.096   6.966   6.496  1.00 20.00    -0.400 OA
HETATM    6  H16 UNL     1     -32.511   6.298   6.887  1.00 20.00     0.209 HD
ENDBRANCH   4   5
ENDBRANCH   3   4
BRANCH   3   7
HETATM    7  C5  UNL     1     -33.871   5.922   3.935  1.00 20.00     0.397 C 
HETATM    8  F7  UNL     1     -34.375   5.220   2.897  1.00 20.00    -0.170 F 
HETATM    9  F8  UNL     1     -34.242   7.210   3.784  1.00 20.00    -0.170 F 
HETATM   10  F9  UNL     1     -32.524   5.864   3.861  1.00 20.00    -0.170 F 
ENDBRANCH   3   7
TORSDOF 3
ENDMDL
MODEL 7
REMARK VINA RESULT:      -4.4     12.805     13.349
REMARK  3 active torsions:
REMARK  status: ('A' for Active; 'I' for Inactive)
REMARK    1  A    between atoms: C3_3  and  C4_4 
REMARK    2  A    between atoms: C3_3  and  C5_5 
REMARK    3  A    between atoms: C4_4  and  O6_6 
ROOT
HETATM    1  C1  UNL     1     -35.478  15.884  -4.667  1.00 20.00     0.022 A 
HETATM    2  C2  UNL     1     -35.714  15.168  -3.368  1.00 20.00     0.022 A 
HETATM    3  C3  UNL     1     -34.512  14.815  -4.212  1.00 20.00     0.079 A 
ENDROOT
BRANCH   3   4
HETATM    4  C4  UNL     1     -34.523  13.499  -4.939  1.00 20.00     0.182 C 
BRANCH   4   5
HETATM    5  O6  UNL     1     -35.166  12.519  -4.131  1.00 20.00    -0.400 OA
HETATM    6  H16 UNL     1     -35.934  12.952  -3.725  1.00 20.00     0.209 HD
ENDBRANCH   4   5
ENDBRANCH   3   4
BRANCH   3   7
HETATM    7  C5  UNL     1     -33.157  15.250  -3.725  1.00 20.00     0.397 C 
HETATM    8  F7  UNL     1     -33.252  15.892  -2.542  1.00 20.00    -0.170 F 
HETATM    9  F8  UNL     1     -32.340  14.189  -3.558  1.00 20.00    -0.170 F 
HETATM   10  F9  UNL     1     -32.573  16.089  -4.608  1.00 20.00    -0.170 F 
ENDBRANCH   3   7
TORSDOF 3
ENDMDL
MODEL 8
REMARK VINA RESULT:      -4.2      2.670      3.304
REMARK  3 active torsions:
REMARK  status: ('A' for Active; 'I' for Inactive)
REMARK    1  A    between atoms: C3_3  and  C4_4 
REMARK    2  A    between atoms: C3_3  and  C5_5 
REMARK    3  A    between atoms: C4_4  and  O6_6 
ROOT
HETATM    1  C1  UNL     1     -33.789   5.192   6.098  1.00 20.00     0.022 A 
HETATM    2  C2  UNL     1     -34.406   6.540   5.852  1.00 20.00     0.022 A 
HETATM    3  C3  UNL     1     -33.942   5.701   4.683  1.00 20.00     0.079 A 
ENDROOT
BRANCH   3   4
HETATM    4  C4  UNL     1     -32.701   6.136   3.954  1.00 20.00     0.182 C 
BRANCH   4   5
HETATM    5  O6  UNL     1     -32.987   7.303   3.189  1.00 20.00    -0.400 OA
HETATM    6  H16 UNL     1     -33.819   7.665   3.534  1.00 20.00     0.209 HD
ENDBRANCH   4   5
ENDBRANCH   3   4
BRANCH   3   7
HETATM    7  C5  UNL     1     -34.989   5.064   3.813  1.00 20.00     0.397 C 
HETATM    8  F7  UNL     1     -34.535   4.899   2.552  1.00 20.00    -0.170 F 
HETATM    9  F8  UNL     1     -35.340   3.850   4.289  1.00 20.00    -0.170 F 
HETATM   10  F9  UNL     1     -36.101   5.826   3.758  1.00 20.00    -0.170 F 
ENDBRANCH   3   7
TORSDOF 3
ENDMDL
MODEL 9
REMARK VINA RESULT:      -4.2      2.423      2.924
REMARK  3 active torsions:
REMARK  status: ('A' for Active; 'I' for Inactive)
REMARK    1  A    between atoms: C3_3  and  C4_4 
REMARK    2  A    between atoms: C3_3  and  C5_5 
REMARK    3  A    between atoms: C4_4  and  O6_6 
ROOT
HETATM    1  C1  UNL     1     -33.150   7.197   3.252  1.00 20.00     0.022 A 
HETATM    2  C2  UNL     1     -32.358   5.972   3.613  1.00 20.00     0.022 A 
HETATM    3  C3  UNL     1     -33.772   6.129   4.123  1.00 20.00     0.079 A 
ENDROOT
BRANCH   3   4
HETATM    4  C4  UNL     1     -33.964   6.434   5.582  1.00 20.00     0.182 C 
BRANCH   4   5
HETATM    5  O6  UNL     1     -34.301   5.237   6.275  1.00 20.00    -0.400 OA
HETATM    6  H16 UNL     1     -34.516   4.575   5.599  1.00 20.00     0.209 HD
ENDBRANCH   4   5
ENDBRANCH   3   4
BRANCH   3   7
HETATM    7  C5  UNL     1     -34.840   5.260   3.519  1.00 20.00     0.397 C 
HETATM    8  F7  UNL     1     -34.929   4.081   4.170  1.00 20.00    -0.170 F 
HETATM    9  F8  UNL     1     -36.046   5.861   3.583  1.00 20.00    -0.170 F 
HETATM   10  F9  UNL     1     -34.574   4.999   2.221  1.00 20.00    -0.170 F 
ENDBRANCH   3   7
TORSDOF 3
ENDMDL
