MODEL 1
REMARK VINA RESULT:      -6.2      0.000      0.000
REMARK  1 active torsions:
REMARK  status: ('A' for Active; 'I' for Inactive)
REMARK    1  A    between atoms: C7_7  and  C8_8 
ROOT
HETATM    1  C1  UNL     1     -34.059   6.447   6.303  1.00 20.00     0.132 C 
HETATM    2  C2  UNL     1     -34.950   5.271   6.624  1.00 20.00     0.079 C 
HETATM    3  C3  UNL     1     -34.765   4.152   5.606  1.00 20.00     0.008 C 
HETATM    4  C4  UNL     1     -35.128   4.612   4.195  1.00 20.00     0.006 C 
HETATM    5  C5  UNL     1     -33.982   6.844   4.875  1.00 20.00     0.073 A 
HETATM    6  C6  UNL     1     -34.475   5.903   3.804  1.00 20.00     0.011 A 
HETATM    7  C7  UNL     1     -32.994   6.136   3.975  1.00 20.00     0.110 A 
HETATM    8  O9  UNL     1     -33.473   7.097   7.159  1.00 20.00    -0.298 OA
ENDROOT
BRANCH   7   9
HETATM    9  C8  UNL     1     -32.238   6.908   2.949  1.00 20.00     0.392 C 
HETATM   10  F10 UNL     1     -31.787   6.105   1.955  1.00 20.00    -0.171 F 
HETATM   11  F11 UNL     1     -33.009   7.863   2.376  1.00 20.00    -0.171 F 
HETATM   12  F12 UNL     1     -31.160   7.527   3.487  1.00 20.00    -0.171 F 
ENDBRANCH   7   9
TORSDOF 1
ENDMDL
MODEL 2
REMARK VINA RESULT:      -5.5     11.596     12.363
REMARK  1 active torsions:
REMARK  status: ('A' for Active; 'I' for Inactive)
REMARK    1  A    between atoms: C7_7  and  C8_8 
ROOT
HETATM    1  C1  UNL     1     -35.965  14.796  -3.605  1.00 20.00     0.132 C 
HETATM    2  C2  UNL     1     -35.133  13.837  -4.423  1.00 20.00     0.079 C 
HETATM    3  C3  UNL     1     -33.754  13.647  -3.804  1.00 20.00     0.008 C 
HETATM    4  C4  UNL     1     -32.981  14.963  -3.742  1.00 20.00     0.006 C 
HETATM    5  C5  UNL     1     -35.273  16.015  -3.117  1.00 20.00     0.073 A 
HETATM    6  C6  UNL     1     -33.767  16.087  -3.138  1.00 20.00     0.011 A 
HETATM    7  C7  UNL     1     -34.493  15.941  -1.823  1.00 20.00     0.110 A 
HETATM    8  O9  UNL     1     -37.161  14.637  -3.397  1.00 20.00    -0.298 OA
ENDROOT
BRANCH   7   9
HETATM    9  C8  UNL     1     -34.534  17.081  -0.865  1.00 20.00     0.392 C 
HETATM   10  F10 UNL     1     -33.304  17.619  -0.680  1.00 20.00    -0.171 F 
HETATM   11  F11 UNL     1     -35.345  18.072  -1.304  1.00 20.00    -0.171 F 
HETATM   12  F12 UNL     1     -34.991  16.693   0.350  1.00 20.00    -0.171 F 
ENDBRANCH   7   9
TORSDOF 1
ENDMDL
MODEL 3
REMARK VINA RESULT:      -5.5     11.790     12.804
REMARK  1 active torsions:
REMARK  status: ('A' for Active; 'I' for Inactive)
REMARK    1  A    between atoms: C7_7  and  C8_8 
ROOT
HETATM    1  C1  UNL     1     -33.867  17.899  -3.552  1.00 20.00     0.132 C 
HETATM    2  C2  UNL     1     -33.906  18.632  -2.233  1.00 20.00     0.079 C 
HETATM    3  C3  UNL     1     -33.577  17.695  -1.078  1.00 20.00     0.008 C 
HETATM    4  C4  UNL     1     -34.585  16.551  -0.979  1.00 20.00     0.006 C 
HETATM    5  C5  UNL     1     -34.497  16.555  -3.577  1.00 20.00     0.073 A 
HETATM    6  C6  UNL     1     -34.817  15.849  -2.283  1.00 20.00     0.011 A 
HETATM    7  C7  UNL     1     -33.678  15.359  -3.143  1.00 20.00     0.110 A 
HETATM    8  O9  UNL     1     -33.408  18.386  -4.577  1.00 20.00    -0.298 OA
ENDROOT
BRANCH   7   9
HETATM    9  C8  UNL     1     -33.801  14.069  -3.878  1.00 20.00     0.392 C 
HETATM   10  F10 UNL     1     -34.900  13.378  -3.488  1.00 20.00    -0.171 F 
HETATM   11  F11 UNL     1     -33.901  14.264  -5.215  1.00 20.00    -0.171 F 
HETATM   12  F12 UNL     1     -32.727  13.271  -3.665  1.00 20.00    -0.171 F 
ENDBRANCH   7   9
TORSDOF 1
ENDMDL
MODEL 4
REMARK VINA RESULT:      -5.3     11.819     12.825
REMARK  1 active torsions:
REMARK  status: ('A' for Active; 'I' for Inactive)
REMARK    1  A    between atoms: C7_7  and  C8_8 
ROOT
HETATM    1  C1  UNL     1     -35.145  15.678  -5.173  1.00 20.00     0.132 C 
HETATM    2  C2  UNL     1     -34.855  14.301  -5.722  1.00 20.00     0.079 C 
HETATM    3  C3  UNL     1     -34.588  13.309  -4.596  1.00 20.00     0.008 C 
HETATM    4  C4  UNL     1     -33.376  13.719  -3.762  1.00 20.00     0.006 C 
HETATM    5  C5  UNL     1     -34.275  16.139  -4.062  1.00 20.00     0.073 A 
HETATM    6  C6  UNL     1     -33.417  15.149  -3.314  1.00 20.00     0.011 A 
HETATM    7  C7  UNL     1     -34.632  15.744  -2.645  1.00 20.00     0.110 A 
HETATM    8  O9  UNL     1     -35.998  16.420  -5.641  1.00 20.00    -0.298 OA
ENDROOT
BRANCH   7   9
HETATM    9  C8  UNL     1     -34.466  16.724  -1.536  1.00 20.00     0.392 C 
HETATM   10  F10 UNL     1     -35.216  17.835  -1.739  1.00 20.00    -0.171 F 
HETATM   11  F11 UNL     1     -34.840  16.198  -0.346  1.00 20.00    -0.171 F 
HETATM   12  F12 UNL     1     -33.178  17.125  -1.415  1.00 20.00    -0.171 F 
ENDBRANCH   7   9
TORSDOF 1
ENDMDL
MODEL 5
REMARK VINA RESULT:      -5.0     11.456     12.487
REMARK  1 active torsions:
REMARK  status: ('A' for Active; 'I' for Inactive)
REMARK    1  A    between atoms: C7_7  and  C8_8 
ROOT
HETATM    1  C1  UNL     1     -34.008  13.680  -4.027  1.00 20.00     0.132 C 
HETATM    2  C2  UNL     1     -34.725  13.516  -5.345  1.00 20.00     0.079 C 
HETATM    3  C3  UNL     1     -35.322  14.839  -5.810  1.00 20.00     0.008 C 
HETATM    4  C4  UNL     1     -36.346  15.375  -4.811  1.00 20.00     0.006 C 
HETATM    5  C5  UNL     1     -34.696  14.504  -3.002  1.00 20.00     0.073 A 
HETATM    6  C6  UNL     1     -35.844  15.398  -3.399  1.00 20.00     0.011 A 
HETATM    7  C7  UNL     1     -34.513  16.006  -3.032  1.00 20.00     0.110 A 
HETATM    8  O9  UNL     1     -32.951  13.122  -3.765  1.00 20.00    -0.298 OA
ENDROOT
BRANCH   7   9
HETATM    9  C8  UNL     1     -34.365  16.762  -1.757  1.00 20.00     0.392 C 
HETATM   10  F10 UNL     1     -35.083  17.911  -1.775  1.00 20.00    -0.171 F 
HETATM   11  F11 UNL     1     -34.793  16.036  -0.695  1.00 20.00    -0.171 F 
HETATM   12  F12 UNL     1     -33.074  17.097  -1.524  1.00 20.00    -0.171 F 
ENDBRANCH   7   9
TORSDOF 1
ENDMDL
MODEL 6
REMARK VINA RESULT:      -5.0     11.839     12.865
REMARK  1 active torsions:
REMARK  status: ('A' for Active; 'I' for Inactive)
REMARK    1  A    between atoms: C7_7  and  C8_8 
ROOT
HETATM    1  C1  UNL     1     -34.833  17.734  -3.792  1.00 20.00     0.132 C 
HETATM    2  C2  UNL     1     -34.738  18.575  -2.542  1.00 20.00     0.079 C 
HETATM    3  C3  UNL     1     -33.915  17.870  -1.470  1.00 20.00     0.008 C 
HETATM    4  C4  UNL     1     -34.545  16.539  -1.064  1.00 20.00     0.006 C 
HETATM    5  C5  UNL     1     -35.088  16.285  -3.593  1.00 20.00     0.073 A 
HETATM    6  C6  UNL     1     -34.897  15.667  -2.230  1.00 20.00     0.011 A 
HETATM    7  C7  UNL     1     -33.913  15.368  -3.334  1.00 20.00     0.110 A 
HETATM    8  O9  UNL     1     -34.772  18.203  -4.921  1.00 20.00    -0.298 OA
ENDROOT
BRANCH   7   9
HETATM    9  C8  UNL     1     -33.877  14.014  -3.953  1.00 20.00     0.392 C 
HETATM   10  F10 UNL     1     -32.703  13.384  -3.704  1.00 20.00    -0.171 F 
HETATM   11  F11 UNL     1     -34.868  13.222  -3.477  1.00 20.00    -0.171 F 
HETATM   12  F12 UNL     1     -34.022  14.079  -5.299  1.00 20.00    -0.171 F 
ENDBRANCH   7   9
TORSDOF 1
ENDMDL
MODEL 7
REMARK VINA RESULT:      -4.9     11.584     12.802
REMARK  1 active torsions:
REMARK  status: ('A' for Active; 'I' for Inactive)
REMARK    1  A    between atoms: C7_7  and  C8_8 
ROOT
HETATM    1  C1  UNL     1     -34.203  16.747  -1.902  1.00 20.00     0.132 C 
HETATM    2  C2  UNL     1     -34.220  18.197  -2.324  1.00 20.00     0.079 C 
HETATM    3  C3  UNL     1     -34.581  18.331  -3.799  1.00 20.00     0.008 C 
HETATM    4  C4  UNL     1     -33.566  17.620  -4.692  1.00 20.00     0.006 C 
HETATM    5  C5  UNL     1     -33.559  15.796  -2.841  1.00 20.00     0.073 A 
HETATM    6  C6  UNL     1     -33.280  16.213  -4.263  1.00 20.00     0.011 A 
HETATM    7  C7  UNL     1     -34.381  15.223  -3.975  1.00 20.00     0.110 A 
HETATM    8  O9  UNL     1     -34.629  16.359  -0.822  1.00 20.00    -0.298 OA
ENDROOT
BRANCH   7   9
HETATM    9  C8  UNL     1     -34.218  13.794  -4.362  1.00 20.00     0.392 C 
HETATM   10  F10 UNL     1     -33.028  13.299  -3.945  1.00 20.00    -0.171 F 
HETATM   11  F11 UNL     1     -35.189  13.018  -3.822  1.00 20.00    -0.171 F 
HETATM   12  F12 UNL     1     -34.273  13.634  -5.706  1.00 20.00    -0.171 F 
ENDBRANCH   7   9
TORSDOF 1
ENDMDL
MODEL 8
REMARK VINA RESULT:      -4.9     11.868     13.044
REMARK  1 active torsions:
REMARK  status: ('A' for Active; 'I' for Inactive)
REMARK    1  A    between atoms: C7_7  and  C8_8 
ROOT
HETATM    1  C1  UNL     1     -34.105  16.144  -5.419  1.00 20.00     0.132 C 
HETATM    2  C2  UNL     1     -34.388  14.810  -6.068  1.00 20.00     0.079 C 
HETATM    3  C3  UNL     1     -35.117  13.879  -5.106  1.00 20.00     0.008 C 
HETATM    4  C4  UNL     1     -34.283  13.597  -3.858  1.00 20.00     0.006 C 
HETATM    5  C5  UNL     1     -33.613  16.103  -4.020  1.00 20.00     0.073 A 
HETATM    6  C6  UNL     1     -33.743  14.837  -3.211  1.00 20.00     0.011 A 
HETATM    7  C7  UNL     1     -34.621  16.023  -2.895  1.00 20.00     0.110 A 
HETATM    8  O9  UNL     1     -34.204  17.211  -6.011  1.00 20.00    -0.298 OA
ENDROOT
BRANCH   7   9
HETATM    9  C8  UNL     1     -34.401  16.800  -1.643  1.00 20.00     0.392 C 
HETATM   10  F10 UNL     1     -33.085  17.053  -1.440  1.00 20.00    -0.171 F 
HETATM   11  F11 UNL     1     -35.040  17.994  -1.679  1.00 20.00    -0.171 F 
HETATM   12  F12 UNL     1     -34.855  16.131  -0.556  1.00 20.00    -0.171 F 
ENDBRANCH   7   9
TORSDOF 1
ENDMDL
MODEL 9
REMARK VINA RESULT:      -4.9     10.250     11.251
REMARK  1 active torsions:
REMARK  status: ('A' for Active; 'I' for Inactive)
REMARK    1  A    between atoms: C7_7  and  C8_8 
ROOT
HETATM    1  C1  UNL     1     -41.956   6.609  -2.186  1.00 20.00     0.132 C 
HETATM    2  C2  UNL     1     -41.442   7.149  -0.873  1.00 20.00     0.079 C 
HETATM    3  C3  UNL     1     -40.692   6.073  -0.097  1.00 20.00     0.008 C 
HETATM    4  C4  UNL     1     -41.596   4.886   0.234  1.00 20.00     0.006 C 
HETATM    5  C5  UNL     1     -42.568   5.257  -2.147  1.00 20.00     0.073 A 
HETATM    6  C6  UNL     1     -42.350   4.365  -0.951  1.00 20.00     0.011 A 
HETATM    7  C7  UNL     1     -41.668   4.046  -2.259  1.00 20.00     0.110 A 
HETATM    8  O9  UNL     1     -41.942   7.253  -3.227  1.00 20.00    -0.298 OA
ENDROOT
BRANCH   7   9
HETATM    9  C8  UNL     1     -42.104   2.868  -3.059  1.00 20.00     0.392 C 
HETATM   10  F10 UNL     1     -42.762   1.964  -2.293  1.00 20.00    -0.171 F 
HETATM   11  F11 UNL     1     -42.938   3.228  -4.063  1.00 20.00    -0.171 F 
HETATM   12  F12 UNL     1     -41.048   2.229  -3.618  1.00 20.00    -0.171 F 
ENDBRANCH   7   9
TORSDOF 1
ENDMDL
