MODEL 1
REMARK VINA RESULT:      -4.6      0.000      0.000
REMARK  0 active torsions:
REMARK  status: ('A' for Active; 'I' for Inactive)
ROOT
HETATM    1  C1  UNL     1     -33.420  13.603  -3.737  1.00 20.00     0.013 C 
HETATM    2  C2  UNL     1     -32.489  14.829  -3.639  1.00 20.00     0.013 C 
HETATM    3  C3  UNL     1     -34.998  14.386  -5.583  1.00 20.00     0.280 C 
HETATM    4  C4  UNL     1     -33.523  16.325  -5.428  1.00 20.00     0.280 C 
HETATM    5  C5  UNL     1     -34.808  14.186  -4.068  1.00 20.00     0.086 C 
HETATM    6  C6  UNL     1     -33.397  16.041  -3.919  1.00 20.00     0.086 C 
HETATM    7  C7  UNL     1     -34.731  15.543  -3.393  1.00 20.00     0.254 C 
HETATM    8  N8  UNL     1     -33.916  15.151  -6.220  1.00 20.00     0.084 N 
HETATM    9  F9  UNL     1     -35.759  16.349  -3.705  1.00 20.00    -0.205 F 
HETATM   10  F10 UNL     1     -34.704  15.415  -2.048  1.00 20.00    -0.205 F 
HETATM   11  H21 UNL     1     -33.104  14.541  -6.315  1.00 20.00     0.315 HD
ENDROOT
TORSDOF 0
ENDMDL
MODEL 2
REMARK VINA RESULT:      -4.5      1.245      2.270
REMARK  0 active torsions:
REMARK  status: ('A' for Active; 'I' for Inactive)
ROOT
HETATM    1  C1  UNL     1     -35.068  14.405  -5.825  1.00 20.00     0.013 C 
HETATM    2  C2  UNL     1     -34.493  13.247  -4.984  1.00 20.00     0.013 C 
HETATM    3  C3  UNL     1     -33.754  16.363  -4.849  1.00 20.00     0.280 C 
HETATM    4  C4  UNL     1     -32.846  14.529  -3.518  1.00 20.00     0.280 C 
HETATM    5  C5  UNL     1     -35.100  15.613  -4.868  1.00 20.00     0.086 C 
HETATM    6  C6  UNL     1     -34.230  13.857  -3.595  1.00 20.00     0.086 C 
HETATM    7  C7  UNL     1     -35.306  14.928  -3.529  1.00 20.00     0.254 C 
HETATM    8  N8  UNL     1     -32.596  15.494  -4.598  1.00 20.00     0.084 N 
HETATM    9  F9  UNL     1     -35.167  15.756  -2.482  1.00 20.00    -0.205 F 
HETATM   10  F10 UNL     1     -36.536  14.373  -3.453  1.00 20.00    -0.205 F 
HETATM   11  H21 UNL     1     -32.392  14.975  -5.452  1.00 20.00     0.315 HD
ENDROOT
TORSDOF 0
ENDMDL
MODEL 3
REMARK VINA RESULT:      -4.5      1.946      2.510
REMARK  0 active torsions:
REMARK  status: ('A' for Active; 'I' for Inactive)
ROOT
HETATM    1  C1  UNL     1     -33.257  16.021  -4.599  1.00 20.00     0.013 C 
HETATM    2  C2  UNL     1     -33.638  16.078  -3.105  1.00 20.00     0.013 C 
HETATM    3  C3  UNL     1     -35.489  15.302  -5.603  1.00 20.00     0.280 C 
HETATM    4  C4  UNL     1     -36.091  15.392  -3.239  1.00 20.00     0.280 C 
HETATM    5  C5  UNL     1     -34.079  14.852  -5.173  1.00 20.00     0.086 C 
HETATM    6  C6  UNL     1     -34.655  14.939  -2.911  1.00 20.00     0.086 C 
HETATM    7  C7  UNL     1     -34.195  13.945  -3.963  1.00 20.00     0.254 C 
HETATM    8  N8  UNL     1     -36.224  16.027  -4.557  1.00 20.00     0.084 N 
HETATM    9  F9  UNL     1     -35.053  12.927  -4.142  1.00 20.00    -0.205 F 
HETATM   10  F10 UNL     1     -32.994  13.416  -3.636  1.00 20.00    -0.205 F 
HETATM   11  H21 UNL     1     -35.846  16.973  -4.498  1.00 20.00     0.315 HD
ENDROOT
TORSDOF 0
ENDMDL
MODEL 4
REMARK VINA RESULT:      -4.5      1.863      2.676
REMARK  0 active torsions:
REMARK  status: ('A' for Active; 'I' for Inactive)
ROOT
HETATM    1  C1  UNL     1     -35.178  15.648  -2.913  1.00 20.00     0.013 C 
HETATM    2  C2  UNL     1     -35.869  16.027  -4.239  1.00 20.00     0.013 C 
HETATM    3  C3  UNL     1     -32.852  15.052  -3.775  1.00 20.00     0.280 C 
HETATM    4  C4  UNL     1     -33.946  15.653  -5.873  1.00 20.00     0.280 C 
HETATM    5  C5  UNL     1     -34.208  14.510  -3.284  1.00 20.00     0.086 C 
HETATM    6  C6  UNL     1     -35.255  15.085  -5.291  1.00 20.00     0.086 C 
HETATM    7  C7  UNL     1     -34.935  13.863  -4.449  1.00 20.00     0.254 C 
HETATM    8  N8  UNL     1     -32.967  16.047  -4.851  1.00 20.00     0.084 N 
HETATM    9  F9  UNL     1     -34.193  12.951  -5.097  1.00 20.00    -0.205 F 
HETATM   10  F10 UNL     1     -36.067  13.252  -4.034  1.00 20.00    -0.205 F 
HETATM   11  H21 UNL     1     -33.269  16.931  -4.440  1.00 20.00     0.315 HD
ENDROOT
TORSDOF 0
ENDMDL
MODEL 5
REMARK VINA RESULT:      -4.4      1.726      2.455
REMARK  0 active torsions:
REMARK  status: ('A' for Active; 'I' for Inactive)
ROOT
HETATM    1  C1  UNL     1     -35.942  15.039  -3.339  1.00 20.00     0.013 C 
HETATM    2  C2  UNL     1     -34.754  15.704  -2.613  1.00 20.00     0.013 C 
HETATM    3  C3  UNL     1     -34.691  13.372  -4.810  1.00 20.00     0.280 C 
HETATM    4  C4  UNL     1     -32.812  14.425  -3.661  1.00 20.00     0.280 C 
HETATM    5  C5  UNL     1     -35.418  14.729  -4.754  1.00 20.00     0.086 C 
HETATM    6  C6  UNL     1     -33.620  15.737  -3.654  1.00 20.00     0.086 C 
HETATM    7  C7  UNL     1     -34.406  15.843  -4.949  1.00 20.00     0.254 C 
HETATM    8  N8  UNL     1     -33.642  13.219  -3.791  1.00 20.00     0.084 N 
HETATM    9  F9  UNL     1     -33.646  15.684  -6.045  1.00 20.00    -0.205 F 
HETATM   10  F10 UNL     1     -35.019  17.044  -5.046  1.00 20.00    -0.205 F 
HETATM   11  H21 UNL     1     -34.091  13.039  -2.893  1.00 20.00     0.315 HD
ENDROOT
TORSDOF 0
ENDMDL
MODEL 6
REMARK VINA RESULT:      -4.4      1.964      2.822
REMARK  0 active torsions:
REMARK  status: ('A' for Active; 'I' for Inactive)
ROOT
HETATM    1  C1  UNL     1     -36.029  15.365  -3.502  1.00 20.00     0.013 C 
HETATM    2  C2  UNL     1     -35.749  15.353  -5.018  1.00 20.00     0.013 C 
HETATM    3  C3  UNL     1     -33.775  16.188  -2.635  1.00 20.00     0.280 C 
HETATM    4  C4  UNL     1     -33.332  16.169  -5.036  1.00 20.00     0.280 C 
HETATM    5  C5  UNL     1     -34.692  14.968  -2.848  1.00 20.00     0.086 C 
HETATM    6  C6  UNL     1     -34.268  14.950  -5.146  1.00 20.00     0.086 C 
HETATM    7  C7  UNL     1     -34.090  14.075  -3.917  1.00 20.00     0.254 C 
HETATM    8  N8  UNL     1     -33.575  16.997  -3.846  1.00 20.00     0.084 N 
HETATM    9  F9  UNL     1     -32.809  13.750  -3.678  1.00 20.00    -0.205 F 
HETATM   10  F10 UNL     1     -34.789  12.924  -4.038  1.00 20.00    -0.205 F 
HETATM   11  H21 UNL     1     -34.418  17.549  -4.005  1.00 20.00     0.315 HD
ENDROOT
TORSDOF 0
ENDMDL
MODEL 7
REMARK VINA RESULT:      -4.4      2.032      2.936
REMARK  0 active torsions:
REMARK  status: ('A' for Active; 'I' for Inactive)
ROOT
HETATM    1  C1  UNL     1     -33.448  13.814  -3.813  1.00 20.00     0.013 C 
HETATM    2  C2  UNL     1     -34.870  13.354  -4.193  1.00 20.00     0.013 C 
HETATM    3  C3  UNL     1     -33.974  16.089  -2.785  1.00 20.00     0.280 C 
HETATM    4  C4  UNL     1     -36.224  15.360  -3.389  1.00 20.00     0.280 C 
HETATM    5  C5  UNL     1     -33.454  15.340  -4.027  1.00 20.00     0.086 C 
HETATM    6  C6  UNL     1     -35.608  14.641  -4.604  1.00 20.00     0.086 C 
HETATM    7  C7  UNL     1     -34.465  15.479  -5.150  1.00 20.00     0.254 C 
HETATM    8  N8  UNL     1     -35.270  15.598  -2.296  1.00 20.00     0.084 N 
HETATM    9  F9  UNL     1     -34.813  16.753  -5.397  1.00 20.00    -0.205 F 
HETATM   10  F10 UNL     1     -33.988  14.955  -6.301  1.00 20.00    -0.205 F 
HETATM   11  H21 UNL     1     -35.115  14.717  -1.806  1.00 20.00     0.315 HD
ENDROOT
TORSDOF 0
ENDMDL
MODEL 8
REMARK VINA RESULT:      -4.4     12.193     13.170
REMARK  0 active torsions:
REMARK  status: ('A' for Active; 'I' for Inactive)
ROOT
HETATM    1  C1  UNL     1     -42.670   7.132  -0.707  1.00 20.00     0.013 C 
HETATM    2  C2  UNL     1     -43.074   6.174   0.432  1.00 20.00     0.013 C 
HETATM    3  C3  UNL     1     -42.289   5.453  -2.590  1.00 20.00     0.280 C 
HETATM    4  C4  UNL     1     -42.928   3.938  -0.785  1.00 20.00     0.280 C 
HETATM    5  C5  UNL     1     -41.626   6.352  -1.529  1.00 20.00     0.086 C 
HETATM    6  C6  UNL     1     -42.238   4.903   0.198  1.00 20.00     0.086 C 
HETATM    7  C7  UNL     1     -40.996   5.478  -0.460  1.00 20.00     0.254 C 
HETATM    8  N8  UNL     1     -43.332   4.570  -2.049  1.00 20.00     0.084 N 
HETATM    9  F9  UNL     1     -40.175   4.539  -0.958  1.00 20.00    -0.205 F 
HETATM   10  F10 UNL     1     -40.285   6.222   0.416  1.00 20.00    -0.205 F 
HETATM   11  H21 UNL     1     -44.168   5.129  -1.876  1.00 20.00     0.315 HD
ENDROOT
TORSDOF 0
ENDMDL
MODEL 9
REMARK VINA RESULT:      -4.4      1.414      2.541
REMARK  0 active torsions:
REMARK  status: ('A' for Active; 'I' for Inactive)
ROOT
HETATM    1  C1  UNL     1     -35.523  16.411  -4.038  1.00 20.00     0.013 C 
HETATM    2  C2  UNL     1     -35.789  15.068  -3.327  1.00 20.00     0.013 C 
HETATM    3  C3  UNL     1     -33.965  15.629  -5.901  1.00 20.00     0.280 C 
HETATM    4  C4  UNL     1     -34.388  13.504  -4.775  1.00 20.00     0.280 C 
HETATM    5  C5  UNL     1     -34.064  16.317  -4.526  1.00 20.00     0.086 C 
HETATM    6  C6  UNL     1     -34.469  14.284  -3.449  1.00 20.00     0.086 C 
HETATM    7  C7  UNL     1     -33.453  15.412  -3.473  1.00 20.00     0.254 C 
HETATM    8  N8  UNL     1     -34.649  14.329  -5.963  1.00 20.00     0.084 N 
HETATM    9  F9  UNL     1     -32.212  15.002  -3.781  1.00 20.00    -0.205 F 
HETATM   10  F10 UNL     1     -33.393  16.035  -2.274  1.00 20.00    -0.205 F 
HETATM   11  H21 UNL     1     -35.653  14.497  -6.024  1.00 20.00     0.315 HD
ENDROOT
TORSDOF 0
ENDMDL
