MODEL 1
REMARK VINA RESULT:      -5.2      0.000      0.000
REMARK  0 active torsions:
REMARK  status: ('A' for Active; 'I' for Inactive)
ROOT
HETATM    1  C1  UNL     1     -33.411  16.627  -4.449  1.00 20.00     0.027 C 
HETATM    2  C2  UNL     1     -33.674  16.116  -5.864  1.00 20.00     0.027 C 
HETATM    3  C3  UNL     1     -36.613  14.388  -3.868  1.00 20.00     0.009 C 
HETATM    4  C4  UNL     1     -34.275  14.693  -3.029  1.00 20.00     0.030 C 
HETATM    5  C5  UNL     1     -35.774  16.716  -3.490  1.00 20.00     0.030 C 
HETATM    6  C6  UNL     1     -34.711  13.832  -5.397  1.00 20.00     0.030 C 
HETATM    7  C7  UNL     1     -36.212  15.853  -5.857  1.00 20.00     0.030 C 
HETATM    8  C8  UNL     1     -35.181  13.856  -3.939  1.00 20.00    -0.010 C 
HETATM    9  C9  UNL     1     -36.642  15.826  -4.386  1.00 20.00    -0.010 C 
HETATM   10  C10 UNL     1     -34.335  16.206  -3.299  1.00 20.00     0.038 C 
HETATM   11  C11 UNL     1     -34.858  15.176  -6.129  1.00 20.00     0.038 C 
HETATM   12 CL12 UNL     1     -33.667  17.038  -1.818  1.00 20.00    -0.119 Cl
HETATM   13 CL13 UNL     1     -34.793  14.817  -7.918  1.00 20.00    -0.119 Cl
ENDROOT
TORSDOF 0
ENDMDL
MODEL 2
REMARK VINA RESULT:      -5.2      0.056      3.669
REMARK  0 active torsions:
REMARK  status: ('A' for Active; 'I' for Inactive)
ROOT
HETATM    1  C1  UNL     1     -33.681  16.186  -5.836  1.00 20.00     0.027 C 
HETATM    2  C2  UNL     1     -33.417  16.666  -4.410  1.00 20.00     0.027 C 
HETATM    3  C3  UNL     1     -36.599  14.389  -3.872  1.00 20.00     0.009 C 
HETATM    4  C4  UNL     1     -36.216  15.904  -5.828  1.00 20.00     0.030 C 
HETATM    5  C5  UNL     1     -34.698  13.884  -5.420  1.00 20.00     0.030 C 
HETATM    6  C6  UNL     1     -35.777  16.713  -3.442  1.00 20.00     0.030 C 
HETATM    7  C7  UNL     1     -34.262  14.692  -3.033  1.00 20.00     0.030 C 
HETATM    8  C8  UNL     1     -36.641  15.839  -4.357  1.00 20.00    -0.010 C 
HETATM    9  C9  UNL     1     -35.164  13.870  -3.960  1.00 20.00    -0.010 C 
HETATM   10  C10 UNL     1     -34.857  15.244  -6.120  1.00 20.00     0.038 C 
HETATM   11  C11 UNL     1     -34.334  16.211  -3.268  1.00 20.00     0.038 C 
HETATM   12 CL12 UNL     1     -34.795  14.928  -7.917  1.00 20.00    -0.119 Cl
HETATM   13 CL13 UNL     1     -33.668  17.013  -1.770  1.00 20.00    -0.119 Cl
ENDROOT
TORSDOF 0
ENDMDL
MODEL 3
REMARK VINA RESULT:      -5.0      1.061      2.491
REMARK  0 active torsions:
REMARK  status: ('A' for Active; 'I' for Inactive)
ROOT
HETATM    1  C1  UNL     1     -36.472  16.720  -4.252  1.00 20.00     0.027 C 
HETATM    2  C2  UNL     1     -36.375  15.891  -5.531  1.00 20.00     0.027 C 
HETATM    3  C3  UNL     1     -32.911  15.066  -3.820  1.00 20.00     0.009 C 
HETATM    4  C4  UNL     1     -34.027  17.306  -3.825  1.00 20.00     0.030 C 
HETATM    5  C5  UNL     1     -35.097  15.315  -2.626  1.00 20.00     0.030 C 
HETATM    6  C6  UNL     1     -33.861  15.924  -5.970  1.00 20.00     0.030 C 
HETATM    7  C7  UNL     1     -34.929  13.932  -4.770  1.00 20.00     0.030 C 
HETATM    8  C8  UNL     1     -33.193  16.319  -4.649  1.00 20.00    -0.010 C 
HETATM    9  C9  UNL     1     -34.234  14.379  -3.479  1.00 20.00    -0.010 C 
HETATM   10  C10 UNL     1     -35.318  16.707  -3.242  1.00 20.00     0.038 C 
HETATM   11  C11 UNL     1     -35.119  15.054  -5.805  1.00 20.00     0.038 C 
HETATM   12 CL12 UNL     1     -35.853  17.809  -1.888  1.00 20.00    -0.119 Cl
HETATM   13 CL13 UNL     1     -35.422  14.247  -7.414  1.00 20.00    -0.119 Cl
ENDROOT
TORSDOF 0
ENDMDL
MODEL 4
REMARK VINA RESULT:      -5.0      1.036      1.256
REMARK  0 active torsions:
REMARK  status: ('A' for Active; 'I' for Inactive)
ROOT
HETATM    1  C1  UNL     1     -34.541  17.282  -4.231  1.00 20.00     0.027 C 
HETATM    2  C2  UNL     1     -35.088  17.108  -5.647  1.00 20.00     0.027 C 
HETATM    3  C3  UNL     1     -35.409  13.429  -4.244  1.00 20.00     0.009 C 
HETATM    4  C4  UNL     1     -33.509  14.992  -3.787  1.00 20.00     0.030 C 
HETATM    5  C5  UNL     1     -35.869  15.521  -2.949  1.00 20.00     0.030 C 
HETATM    6  C6  UNL     1     -34.419  14.700  -6.159  1.00 20.00     0.030 C 
HETATM    7  C7  UNL     1     -36.779  15.225  -5.320  1.00 20.00     0.030 C 
HETATM    8  C8  UNL     1     -34.124  14.032  -4.812  1.00 20.00    -0.010 C 
HETATM    9  C9  UNL     1     -36.423  14.546  -3.993  1.00 20.00    -0.010 C 
HETATM   10  C10 UNL     1     -34.475  16.079  -3.283  1.00 20.00     0.038 C 
HETATM   11  C11 UNL     1     -35.563  15.727  -6.117  1.00 20.00     0.038 C 
HETATM   12 CL12 UNL     1     -33.776  16.731  -1.727  1.00 20.00    -0.119 Cl
HETATM   13 CL13 UNL     1     -36.119  15.973  -7.838  1.00 20.00    -0.119 Cl
ENDROOT
TORSDOF 0
ENDMDL
MODEL 5
REMARK VINA RESULT:      -5.0      1.073      3.842
REMARK  0 active torsions:
REMARK  status: ('A' for Active; 'I' for Inactive)
ROOT
HETATM    1  C1  UNL     1     -36.359  15.942  -5.579  1.00 20.00     0.027 C 
HETATM    2  C2  UNL     1     -36.466  16.812  -4.329  1.00 20.00     0.027 C 
HETATM    3  C3  UNL     1     -32.941  15.115  -3.780  1.00 20.00     0.009 C 
HETATM    4  C4  UNL     1     -34.961  13.984  -4.731  1.00 20.00     0.030 C 
HETATM    5  C5  UNL     1     -33.838  15.919  -5.973  1.00 20.00     0.030 C 
HETATM    6  C6  UNL     1     -35.143  15.436  -2.635  1.00 20.00     0.030 C 
HETATM    7  C7  UNL     1     -34.018  17.371  -3.876  1.00 20.00     0.030 C 
HETATM    8  C8  UNL     1     -34.282  14.460  -3.442  1.00 20.00    -0.010 C 
HETATM    9  C9  UNL     1     -33.186  16.345  -4.653  1.00 20.00    -0.010 C 
HETATM   10  C10 UNL     1     -35.113  15.075  -5.804  1.00 20.00     0.038 C 
HETATM   11  C11 UNL     1     -35.329  16.811  -3.298  1.00 20.00     0.038 C 
HETATM   12 CL12 UNL     1     -35.402  14.223  -7.393  1.00 20.00    -0.119 Cl
HETATM   13 CL13 UNL     1     -35.868  17.965  -1.990  1.00 20.00    -0.119 Cl
ENDROOT
TORSDOF 0
ENDMDL
MODEL 6
REMARK VINA RESULT:      -5.0      1.102      3.693
REMARK  0 active torsions:
REMARK  status: ('A' for Active; 'I' for Inactive)
ROOT
HETATM    1  C1  UNL     1     -34.964  17.276  -5.242  1.00 20.00     0.027 C 
HETATM    2  C2  UNL     1     -34.759  17.277  -3.729  1.00 20.00     0.027 C 
HETATM    3  C3  UNL     1     -35.464  13.448  -4.402  1.00 20.00     0.009 C 
HETATM    4  C4  UNL     1     -36.617  15.356  -5.541  1.00 20.00     0.030 C 
HETATM    5  C5  UNL     1     -34.111  14.956  -5.873  1.00 20.00     0.030 C 
HETATM    6  C6  UNL     1     -36.280  15.359  -3.007  1.00 20.00     0.030 C 
HETATM    7  C7  UNL     1     -33.774  14.956  -3.338  1.00 20.00     0.030 C 
HETATM    8  C8  UNL     1     -36.548  14.519  -4.259  1.00 20.00    -0.010 C 
HETATM    9  C9  UNL     1     -34.106  14.127  -4.584  1.00 20.00    -0.010 C 
HETATM   10  C10 UNL     1     -35.270  15.962  -5.972  1.00 20.00     0.038 C 
HETATM   11  C11 UNL     1     -34.867  15.964  -2.943  1.00 20.00     0.038 C 
HETATM   12 CL12 UNL     1     -35.431  16.417  -7.733  1.00 20.00    -0.119 Cl
HETATM   13 CL13 UNL     1     -34.563  16.422  -1.202  1.00 20.00    -0.119 Cl
ENDROOT
TORSDOF 0
ENDMDL
MODEL 7
REMARK VINA RESULT:      -4.8      1.209      2.911
REMARK  0 active torsions:
REMARK  status: ('A' for Active; 'I' for Inactive)
ROOT
HETATM    1  C1  UNL     1     -35.837  15.164  -3.295  1.00 20.00     0.027 C 
HETATM    2  C2  UNL     1     -36.232  14.825  -4.731  1.00 20.00     0.027 C 
HETATM    3  C3  UNL     1     -33.657  17.762  -5.322  1.00 20.00     0.009 C 
HETATM    4  C4  UNL     1     -35.339  17.660  -3.470  1.00 20.00     0.030 C 
HETATM    5  C5  UNL     1     -33.431  15.958  -3.601  1.00 20.00     0.030 C 
HETATM    6  C6  UNL     1     -36.006  17.095  -5.874  1.00 20.00     0.030 C 
HETATM    7  C7  UNL     1     -34.096  15.395  -6.005  1.00 20.00     0.030 C 
HETATM    8  C8  UNL     1     -35.130  17.958  -4.960  1.00 20.00    -0.010 C 
HETATM    9  C9  UNL     1     -33.270  16.302  -5.086  1.00 20.00    -0.010 C 
HETATM   10  C10 UNL     1     -34.821  16.282  -3.025  1.00 20.00     0.038 C 
HETATM   11  C11 UNL     1     -35.616  15.607  -5.898  1.00 20.00     0.038 C 
HETATM   12 CL12 UNL     1     -34.644  16.340  -1.209  1.00 20.00    -0.119 Cl
HETATM   13 CL13 UNL     1     -36.360  14.888  -7.402  1.00 20.00    -0.119 Cl
ENDROOT
TORSDOF 0
ENDMDL
MODEL 8
REMARK VINA RESULT:      -4.8      1.199      3.990
REMARK  0 active torsions:
REMARK  status: ('A' for Active; 'I' for Inactive)
ROOT
HETATM    1  C1  UNL     1     -36.216  14.724  -4.729  1.00 20.00     0.027 C 
HETATM    2  C2  UNL     1     -35.827  15.086  -3.297  1.00 20.00     0.027 C 
HETATM    3  C3  UNL     1     -33.721  17.723  -5.350  1.00 20.00     0.009 C 
HETATM    4  C4  UNL     1     -34.100  15.339  -6.013  1.00 20.00     0.030 C 
HETATM    5  C5  UNL     1     -36.052  16.989  -5.891  1.00 20.00     0.030 C 
HETATM    6  C6  UNL     1     -33.444  15.940  -3.615  1.00 20.00     0.030 C 
HETATM    7  C7  UNL     1     -35.394  17.592  -3.494  1.00 20.00     0.030 C 
HETATM    8  C8  UNL     1     -33.295  16.275  -5.103  1.00 20.00    -0.010 C 
HETATM    9  C9  UNL     1     -35.197  17.883  -4.986  1.00 20.00    -0.010 C 
HETATM   10  C10 UNL     1     -35.624  15.512  -5.904  1.00 20.00     0.038 C 
HETATM   11  C11 UNL     1     -34.840  16.231  -3.039  1.00 20.00     0.038 C 
HETATM   12 CL12 UNL     1     -36.353  14.761  -7.400  1.00 20.00    -0.119 Cl
HETATM   13 CL13 UNL     1     -34.660  16.311  -1.224  1.00 20.00    -0.119 Cl
ENDROOT
TORSDOF 0
ENDMDL
MODEL 9
REMARK VINA RESULT:      -4.8     11.823     13.603
REMARK  0 active torsions:
REMARK  status: ('A' for Active; 'I' for Inactive)
ROOT
HETATM    1  C1  UNL     1     -42.924   4.663  -3.161  1.00 20.00     0.027 C 
HETATM    2  C2  UNL     1     -43.083   6.129  -2.764  1.00 20.00     0.027 C 
HETATM    3  C3  UNL     1     -41.411   4.635   0.488  1.00 20.00     0.009 C 
HETATM    4  C4  UNL     1     -43.144   3.488  -0.907  1.00 20.00     0.030 C 
HETATM    5  C5  UNL     1     -40.827   4.006  -1.864  1.00 20.00     0.030 C 
HETATM    6  C6  UNL     1     -43.417   5.942  -0.242  1.00 20.00     0.030 C 
HETATM    7  C7  UNL     1     -41.099   6.460  -1.195  1.00 20.00     0.030 C 
HETATM    8  C8  UNL     1     -42.904   4.557   0.165  1.00 20.00    -0.010 C 
HETATM    9  C9  UNL     1     -40.646   5.060  -0.766  1.00 20.00    -0.010 C 
HETATM   10  C10 UNL     1     -42.295   3.668  -2.177  1.00 20.00     0.038 C 
HETATM   11  C11 UNL     1     -42.619   6.601  -1.380  1.00 20.00     0.038 C 
HETATM   12 CL12 UNL     1     -42.296   2.064  -3.050  1.00 20.00    -0.119 Cl
HETATM   13 CL13 UNL     1     -42.998   8.386  -1.331  1.00 20.00    -0.119 Cl
ENDROOT
TORSDOF 0
ENDMDL
