MODEL 1
REMARK VINA RESULT:      -4.4      0.000      0.000
REMARK  3 active torsions:
REMARK  status: ('A' for Active; 'I' for Inactive)
REMARK    1  A    between atoms: C1_1  and  C4_4 
REMARK       I    between atoms: C1_1  and  N10_10 
REMARK    2  A    between atoms: C8_8  and  C9_9 
REMARK    3  A    between atoms: C9_9  and  N10_10 
ROOT
HETATM    1  C1  UNL     1     -34.683  16.002  -2.168  1.00 20.00     0.222 C 
HETATM    2  N10 UNL     1     -35.962  15.676  -2.564  1.00 20.00    -0.352 N 
HETATM    3  O11 UNL     1     -33.655  15.860  -2.820  1.00 20.00    -0.273 OA
HETATM    4  H28 UNL     1     -36.725  15.848  -1.923  1.00 20.00     0.163 HD
ENDROOT
BRANCH   2   5
HETATM    5  C9  UNL     1     -36.261  15.095  -3.862  1.00 20.00     0.025 C 
HETATM    6  C6  UNL     1     -37.766  14.791  -3.919  1.00 20.00     0.038 C 
HETATM    7  C7  UNL     1     -35.918  16.110  -4.961  1.00 20.00     0.038 C 
BRANCH   5   8
HETATM    8  C8  UNL     1     -35.479  13.773  -4.047  1.00 20.00     0.026 C 
HETATM    9  C5  UNL     1     -34.768  13.626  -5.388  1.00 20.00     0.007 C 
ENDBRANCH   5   8
ENDBRANCH   2   5
BRANCH   1  10
HETATM   10  C4  UNL     1     -34.609  16.587  -0.797  1.00 20.00     0.078 A 
HETATM   11  C2  UNL     1     -33.748  17.787  -0.579  1.00 20.00     0.015 A 
HETATM   12  C3  UNL     1     -35.242  17.918  -0.557  1.00 20.00     0.015 A 
ENDBRANCH   1  10
TORSDOF 3
ENDMDL
MODEL 2
REMARK VINA RESULT:      -4.4     11.391     12.251
REMARK  3 active torsions:
REMARK  status: ('A' for Active; 'I' for Inactive)
REMARK    1  A    between atoms: C1_1  and  C4_4 
REMARK       I    between atoms: C1_1  and  N10_10 
REMARK    2  A    between atoms: C8_8  and  C9_9 
REMARK    3  A    between atoms: C9_9  and  N10_10 
ROOT
HETATM    1  C1  UNL     1     -34.303   5.657   3.865  1.00 20.00     0.222 C 
HETATM    2  N10 UNL     1     -33.281   6.507   4.225  1.00 20.00    -0.352 N 
HETATM    3  O11 UNL     1     -34.520   5.202   2.748  1.00 20.00    -0.273 OA
HETATM    4  H28 UNL     1     -33.218   6.808   5.188  1.00 20.00     0.163 HD
ENDROOT
BRANCH   2   5
HETATM    5  C9  UNL     1     -32.289   6.991   3.279  1.00 20.00     0.025 C 
HETATM    6  C6  UNL     1     -31.170   7.688   4.069  1.00 20.00     0.038 C 
HETATM    7  C7  UNL     1     -31.692   5.799   2.519  1.00 20.00     0.038 C 
BRANCH   5   8
HETATM    8  C8  UNL     1     -32.929   8.017   2.314  1.00 20.00     0.026 C 
HETATM    9  C5  UNL     1     -31.966   8.655   1.319  1.00 20.00     0.007 C 
ENDBRANCH   5   8
ENDBRANCH   2   5
BRANCH   1  10
HETATM   10  C4  UNL     1     -35.204   5.287   4.997  1.00 20.00     0.078 A 
HETATM   11  C2  UNL     1     -34.888   4.061   5.788  1.00 20.00     0.015 A 
HETATM   12  C3  UNL     1     -34.685   5.419   6.390  1.00 20.00     0.015 A 
ENDBRANCH   1  10
TORSDOF 3
ENDMDL
MODEL 3
REMARK VINA RESULT:      -4.3     11.753     12.643
REMARK  3 active torsions:
REMARK  status: ('A' for Active; 'I' for Inactive)
REMARK    1  A    between atoms: C1_1  and  C4_4 
REMARK       I    between atoms: C1_1  and  N10_10 
REMARK    2  A    between atoms: C8_8  and  C9_9 
REMARK    3  A    between atoms: C9_9  and  N10_10 
ROOT
HETATM    1  C1  UNL     1     -33.260   5.838   3.088  1.00 20.00     0.222 C 
HETATM    2  N10 UNL     1     -33.409   5.805   4.457  1.00 20.00    -0.352 N 
HETATM    3  O11 UNL     1     -34.012   5.342   2.256  1.00 20.00    -0.273 OA
HETATM    4  H28 UNL     1     -32.710   6.257   5.031  1.00 20.00     0.163 HD
ENDROOT
BRANCH   2   5
HETATM    5  C9  UNL     1     -34.528   5.148   5.112  1.00 20.00     0.025 C 
HETATM    6  C6  UNL     1     -35.791   5.397   4.274  1.00 20.00     0.038 C 
HETATM    7  C7  UNL     1     -34.262   3.637   5.173  1.00 20.00     0.038 C 
BRANCH   5   8
HETATM    8  C8  UNL     1     -34.742   5.744   6.524  1.00 20.00     0.026 C 
HETATM    9  C5  UNL     1     -33.890   6.967   6.844  1.00 20.00     0.007 C 
ENDBRANCH   5   8
ENDBRANCH   2   5
BRANCH   1  10
HETATM   10  C4  UNL     1     -32.040   6.568   2.633  1.00 20.00     0.078 A 
HETATM   11  C2  UNL     1     -32.174   7.998   2.230  1.00 20.00     0.015 A 
HETATM   12  C3  UNL     1     -31.484   7.639   3.512  1.00 20.00     0.015 A 
ENDBRANCH   1  10
TORSDOF 3
ENDMDL
MODEL 4
REMARK VINA RESULT:      -4.2      1.251      1.821
REMARK  3 active torsions:
REMARK  status: ('A' for Active; 'I' for Inactive)
REMARK    1  A    between atoms: C1_1  and  C4_4 
REMARK       I    between atoms: C1_1  and  N10_10 
REMARK    2  A    between atoms: C8_8  and  C9_9 
REMARK    3  A    between atoms: C9_9  and  N10_10 
ROOT
HETATM    1  C1  UNL     1     -35.175  16.180  -2.355  1.00 20.00     0.222 C 
HETATM    2  N10 UNL     1     -34.775  15.030  -3.000  1.00 20.00    -0.352 N 
HETATM    3  O11 UNL     1     -36.011  16.986  -2.745  1.00 20.00    -0.273 OA
HETATM    4  H28 UNL     1     -34.071  14.450  -2.564  1.00 20.00     0.163 HD
ENDROOT
BRANCH   2   5
HETATM    5  C9  UNL     1     -35.321  14.615  -4.282  1.00 20.00     0.025 C 
HETATM    6  C6  UNL     1     -34.737  13.237  -4.631  1.00 20.00     0.038 C 
HETATM    7  C7  UNL     1     -36.846  14.493  -4.166  1.00 20.00     0.038 C 
BRANCH   5   8
HETATM    8  C8  UNL     1     -34.914  15.621  -5.385  1.00 20.00     0.026 C 
HETATM    9  C5  UNL     1     -34.486  14.991  -6.706  1.00 20.00     0.007 C 
ENDBRANCH   5   8
ENDBRANCH   2   5
BRANCH   1  10
HETATM   10  C4  UNL     1     -34.484  16.409  -1.052  1.00 20.00     0.078 A 
HETATM   11  C2  UNL     1     -33.718  17.677  -0.864  1.00 20.00     0.015 A 
HETATM   12  C3  UNL     1     -35.016  17.467  -0.143  1.00 20.00     0.015 A 
ENDBRANCH   1  10
TORSDOF 3
ENDMDL
MODEL 5
REMARK VINA RESULT:      -4.1      1.177      2.231
REMARK  3 active torsions:
REMARK  status: ('A' for Active; 'I' for Inactive)
REMARK    1  A    between atoms: C1_1  and  C4_4 
REMARK       I    between atoms: C1_1  and  N10_10 
REMARK    2  A    between atoms: C8_8  and  C9_9 
REMARK    3  A    between atoms: C9_9  and  N10_10 
ROOT
HETATM    1  C1  UNL     1     -33.799  15.794  -3.097  1.00 20.00     0.222 C 
HETATM    2  N10 UNL     1     -35.068  15.672  -3.618  1.00 20.00    -0.352 N 
HETATM    3  O11 UNL     1     -32.792  15.206  -3.475  1.00 20.00    -0.273 OA
HETATM    4  H28 UNL     1     -35.813  16.220  -3.209  1.00 20.00     0.163 HD
ENDROOT
BRANCH   2   5
HETATM    5  C9  UNL     1     -35.382  14.790  -4.730  1.00 20.00     0.025 C 
HETATM    6  C6  UNL     1     -34.499  15.186  -5.923  1.00 20.00     0.038 C 
HETATM    7  C7  UNL     1     -35.062  13.343  -4.333  1.00 20.00     0.038 C 
BRANCH   5   8
HETATM    8  C8  UNL     1     -36.867  14.953  -5.135  1.00 20.00     0.026 C 
HETATM    9  C5  UNL     1     -37.867  14.799  -3.994  1.00 20.00     0.007 C 
ENDBRANCH   5   8
ENDBRANCH   2   5
BRANCH   1  10
HETATM   10  C4  UNL     1     -33.705  16.757  -1.960  1.00 20.00     0.078 A 
HETATM   11  C2  UNL     1     -34.805  17.749  -1.774  1.00 20.00     0.015 A 
HETATM   12  C3  UNL     1     -34.654  16.603  -0.819  1.00 20.00     0.015 A 
ENDBRANCH   1  10
TORSDOF 3
ENDMDL
MODEL 6
REMARK VINA RESULT:      -4.0      1.786      2.619
REMARK  3 active torsions:
REMARK  status: ('A' for Active; 'I' for Inactive)
REMARK    1  A    between atoms: C1_1  and  C4_4 
REMARK       I    between atoms: C1_1  and  N10_10 
REMARK    2  A    between atoms: C8_8  and  C9_9 
REMARK    3  A    between atoms: C9_9  and  N10_10 
ROOT
HETATM    1  C1  UNL     1     -34.132  17.099  -1.699  1.00 20.00     0.222 C 
HETATM    2  N10 UNL     1     -33.692  17.195  -3.001  1.00 20.00    -0.352 N 
HETATM    3  O11 UNL     1     -34.656  16.124  -1.172  1.00 20.00    -0.273 OA
HETATM    4  H28 UNL     1     -33.276  18.063  -3.308  1.00 20.00     0.163 HD
ENDROOT
BRANCH   2   5
HETATM    5  C9  UNL     1     -33.800  16.101  -3.952  1.00 20.00     0.025 C 
HETATM    6  C6  UNL     1     -33.426  16.634  -5.343  1.00 20.00     0.038 C 
HETATM    7  C7  UNL     1     -32.813  14.993  -3.562  1.00 20.00     0.038 C 
BRANCH   5   8
HETATM    8  C8  UNL     1     -35.255  15.575  -3.995  1.00 20.00     0.026 C 
HETATM    9  C5  UNL     1     -35.392  14.057  -4.040  1.00 20.00     0.007 C 
ENDBRANCH   5   8
ENDBRANCH   2   5
BRANCH   1  10
HETATM   10  C4  UNL     1     -33.920  18.342  -0.900  1.00 20.00     0.078 A 
HETATM   11  C2  UNL     1     -33.923  18.241   0.590  1.00 20.00     0.015 A 
HETATM   12  C3  UNL     1     -32.641  18.491  -0.145  1.00 20.00     0.015 A 
ENDBRANCH   1  10
TORSDOF 3
ENDMDL
MODEL 7
REMARK VINA RESULT:      -3.9      1.623      4.394
REMARK  3 active torsions:
REMARK  status: ('A' for Active; 'I' for Inactive)
REMARK    1  A    between atoms: C1_1  and  C4_4 
REMARK       I    between atoms: C1_1  and  N10_10 
REMARK    2  A    between atoms: C8_8  and  C9_9 
REMARK    3  A    between atoms: C9_9  and  N10_10 
ROOT
HETATM    1  C1  UNL     1     -33.629  15.236  -3.902  1.00 20.00     0.222 C 
HETATM    2  N10 UNL     1     -34.710  15.892  -3.355  1.00 20.00    -0.352 N 
HETATM    3  O11 UNL     1     -32.478  15.650  -3.970  1.00 20.00    -0.273 OA
HETATM    4  H28 UNL     1     -35.610  15.432  -3.364  1.00 20.00     0.163 HD
ENDROOT
BRANCH   2   5
HETATM    5  C9  UNL     1     -34.612  17.217  -2.765  1.00 20.00     0.025 C 
HETATM    6  C6  UNL     1     -33.847  18.123  -3.742  1.00 20.00     0.038 C 
HETATM    7  C7  UNL     1     -36.022  17.785  -2.561  1.00 20.00     0.038 C 
BRANCH   5   8
HETATM    8  C8  UNL     1     -33.828  17.149  -1.432  1.00 20.00     0.026 C 
HETATM    9  C5  UNL     1     -34.693  17.054  -0.180  1.00 20.00     0.007 C 
ENDBRANCH   5   8
ENDBRANCH   2   5
BRANCH   1  10
HETATM   10  C4  UNL     1     -33.959  13.886  -4.448  1.00 20.00     0.078 A 
HETATM   11  C2  UNL     1     -35.341  13.357  -4.255  1.00 20.00     0.015 A 
HETATM   12  C3  UNL     1     -34.888  13.800  -5.614  1.00 20.00     0.015 A 
ENDBRANCH   1  10
TORSDOF 3
ENDMDL
MODEL 8
REMARK VINA RESULT:      -3.9      2.125      4.542
REMARK  3 active torsions:
REMARK  status: ('A' for Active; 'I' for Inactive)
REMARK    1  A    between atoms: C1_1  and  C4_4 
REMARK       I    between atoms: C1_1  and  N10_10 
REMARK    2  A    between atoms: C8_8  and  C9_9 
REMARK    3  A    between atoms: C9_9  and  N10_10 
ROOT
HETATM    1  C1  UNL     1     -36.733  14.903  -4.611  1.00 20.00     0.222 C 
HETATM    2  N10 UNL     1     -35.489  15.488  -4.688  1.00 20.00    -0.352 N 
HETATM    3  O11 UNL     1     -37.110  14.088  -3.776  1.00 20.00    -0.273 OA
HETATM    4  H28 UNL     1     -35.310  16.149  -5.432  1.00 20.00     0.163 HD
ENDROOT
BRANCH   2   5
HETATM    5  C9  UNL     1     -34.421  15.197  -3.746  1.00 20.00     0.025 C 
HETATM    6  C6  UNL     1     -34.190  13.678  -3.733  1.00 20.00     0.038 C 
HETATM    7  C7  UNL     1     -33.133  15.891  -4.210  1.00 20.00     0.038 C 
BRANCH   5   8
HETATM    8  C8  UNL     1     -34.828  15.649  -2.323  1.00 20.00     0.026 C 
HETATM    9  C5  UNL     1     -34.012  16.805  -1.756  1.00 20.00     0.007 C 
ENDBRANCH   5   8
ENDBRANCH   2   5
BRANCH   1  10
HETATM   10  C4  UNL     1     -37.675  15.349  -5.680  1.00 20.00     0.078 A 
HETATM   11  C2  UNL     1     -37.326  16.562  -6.477  1.00 20.00     0.015 A 
HETATM   12  C3  UNL     1     -37.254  15.202  -7.104  1.00 20.00     0.015 A 
ENDBRANCH   1  10
TORSDOF 3
ENDMDL
MODEL 9
REMARK VINA RESULT:      -3.9     12.533     14.407
REMARK  3 active torsions:
REMARK  status: ('A' for Active; 'I' for Inactive)
REMARK    1  A    between atoms: C1_1  and  C4_4 
REMARK       I    between atoms: C1_1  and  N10_10 
REMARK    2  A    between atoms: C8_8  and  C9_9 
REMARK    3  A    between atoms: C9_9  and  N10_10 
ROOT
HETATM    1  C1  UNL     1     -42.189   3.125  -2.735  1.00 20.00     0.222 C 
HETATM    2  N10 UNL     1     -41.352   3.814  -1.885  1.00 20.00    -0.352 N 
HETATM    3  O11 UNL     1     -43.387   3.320  -2.902  1.00 20.00    -0.273 OA
HETATM    4  H28 UNL     1     -40.378   3.548  -1.845  1.00 20.00     0.163 HD
ENDROOT
BRANCH   2   5
HETATM    5  C9  UNL     1     -41.810   4.907  -1.043  1.00 20.00     0.025 C 
HETATM    6  C6  UNL     1     -42.656   4.316   0.096  1.00 20.00     0.038 C 
HETATM    7  C7  UNL     1     -40.595   5.623  -0.438  1.00 20.00     0.038 C 
BRANCH   5   8
HETATM    8  C8  UNL     1     -42.692   5.878  -1.864  1.00 20.00     0.026 C 
HETATM    9  C5  UNL     1     -41.947   7.050  -2.493  1.00 20.00     0.007 C 
ENDBRANCH   5   8
ENDBRANCH   2   5
BRANCH   1  10
HETATM   10  C4  UNL     1     -41.506   2.044  -3.505  1.00 20.00     0.078 A 
HETATM   11  C2  UNL     1     -42.113   0.680  -3.511  1.00 20.00     0.015 A 
HETATM   12  C3  UNL     1     -42.162   1.532  -4.744  1.00 20.00     0.015 A 
ENDBRANCH   1  10
TORSDOF 3
ENDMDL
