MODEL 1
REMARK VINA RESULT:      -4.3      0.000      0.000
REMARK  1 active torsions:
REMARK  status: ('A' for Active; 'I' for Inactive)
REMARK    1  A    between atoms: C7_7  and  C8_8 
ROOT
HETATM    1  C1  UNL     1     -34.600  13.265  -4.531  1.00 20.00     0.005 C 
HETATM    2  C2  UNL     1     -33.337  13.643  -3.742  1.00 20.00     0.005 C 
HETATM    3  C3  UNL     1     -34.089  15.557  -4.925  1.00 20.00     0.010 C 
HETATM    4  C4  UNL     1     -35.880  15.116  -3.423  1.00 20.00     0.010 C 
HETATM    5  C5  UNL     1     -35.286  14.623  -4.755  1.00 20.00    -0.014 C 
HETATM    6  C6  UNL     1     -33.476  15.168  -3.578  1.00 20.00    -0.009 C 
HETATM    7  C7  UNL     1     -34.628  15.446  -2.583  1.00 20.00     0.004 C 
ENDROOT
BRANCH   7   8
HETATM    8  C8  UNL     1     -34.635  16.883  -2.073  1.00 20.00     0.119 C 
HETATM    9 CL9  UNL     1     -34.657  16.902  -0.300  1.00 20.00    -0.130 Cl
ENDBRANCH   7   8
TORSDOF 1
ENDMDL
MODEL 2
REMARK VINA RESULT:      -4.3     11.657     12.576
REMARK  1 active torsions:
REMARK  status: ('A' for Active; 'I' for Inactive)
REMARK    1  A    between atoms: C7_7  and  C8_8 
ROOT
HETATM    1  C1  UNL     1     -34.935   4.529   6.049  1.00 20.00     0.005 C 
HETATM    2  C2  UNL     1     -34.753   3.790   4.715  1.00 20.00     0.005 C 
HETATM    3  C3  UNL     1     -35.523   5.988   4.263  1.00 20.00     0.010 C 
HETATM    4  C4  UNL     1     -33.404   6.360   5.278  1.00 20.00     0.010 C 
HETATM    5  C5  UNL     1     -34.859   6.008   5.639  1.00 20.00    -0.014 C 
HETATM    6  C6  UNL     1     -34.556   4.939   3.709  1.00 20.00    -0.009 C 
HETATM    7  C7  UNL     1     -33.170   5.578   3.967  1.00 20.00     0.004 C 
ENDROOT
BRANCH   7   8
HETATM    8  C8  UNL     1     -32.715   6.483   2.827  1.00 20.00     0.119 C 
HETATM    9 CL9  UNL     1     -31.562   7.690   3.428  1.00 20.00    -0.130 Cl
ENDBRANCH   7   8
TORSDOF 1
ENDMDL
MODEL 3
REMARK VINA RESULT:      -4.2     11.416     12.181
REMARK  1 active torsions:
REMARK  status: ('A' for Active; 'I' for Inactive)
REMARK    1  A    between atoms: C7_7  and  C8_8 
ROOT
HETATM    1  C1  UNL     1     -33.882   5.119   2.411  1.00 20.00     0.005 C 
HETATM    2  C2  UNL     1     -32.731   5.776   3.187  1.00 20.00     0.005 C 
HETATM    3  C3  UNL     1     -34.734   6.951   3.670  1.00 20.00     0.010 C 
HETATM    4  C4  UNL     1     -35.163   4.779   4.540  1.00 20.00     0.010 C 
HETATM    5  C5  UNL     1     -35.125   5.548   3.207  1.00 20.00    -0.014 C 
HETATM    6  C6  UNL     1     -33.455   6.469   4.356  1.00 20.00    -0.009 C 
HETATM    7  C7  UNL     1     -33.973   5.376   5.322  1.00 20.00     0.004 C 
ENDROOT
BRANCH   7   8
HETATM    8  C8  UNL     1     -34.393   5.936   6.677  1.00 20.00     0.119 C 
HETATM    9 CL9  UNL     1     -33.462   7.399   7.049  1.00 20.00    -0.130 Cl
ENDBRANCH   7   8
TORSDOF 1
ENDMDL
MODEL 4
REMARK VINA RESULT:      -4.2     12.140     13.039
REMARK  1 active torsions:
REMARK  status: ('A' for Active; 'I' for Inactive)
REMARK    1  A    between atoms: C7_7  and  C8_8 
ROOT
HETATM    1  C1  UNL     1     -35.393   5.043   6.654  1.00 20.00     0.005 C 
HETATM    2  C2  UNL     1     -34.326   6.145   6.607  1.00 20.00     0.005 C 
HETATM    3  C3  UNL     1     -33.499   4.244   5.454  1.00 20.00     0.010 C 
HETATM    4  C4  UNL     1     -35.383   4.885   4.151  1.00 20.00     0.010 C 
HETATM    5  C5  UNL     1     -35.024   4.152   5.456  1.00 20.00    -0.014 C 
HETATM    6  C6  UNL     1     -33.498   5.771   5.363  1.00 20.00    -0.009 C 
HETATM    7  C7  UNL     1     -34.361   6.041   4.107  1.00 20.00     0.004 C 
ENDROOT
BRANCH   7   8
HETATM    8  C8  UNL     1     -33.546   6.045   2.819  1.00 20.00     0.119 C 
HETATM    9 CL9  UNL     1     -32.065   6.996   3.036  1.00 20.00    -0.130 Cl
ENDBRANCH   7   8
TORSDOF 1
ENDMDL
MODEL 5
REMARK VINA RESULT:      -4.2      2.354      3.600
REMARK  1 active torsions:
REMARK  status: ('A' for Active; 'I' for Inactive)
REMARK    1  A    between atoms: C7_7  and  C8_8 
ROOT
HETATM    1  C1  UNL     1     -33.625  17.119  -2.125  1.00 20.00     0.005 C 
HETATM    2  C2  UNL     1     -34.740  16.259  -1.512  1.00 20.00     0.005 C 
HETATM    3  C3  UNL     1     -35.289  16.706  -3.776  1.00 20.00     0.010 C 
HETATM    4  C4  UNL     1     -33.288  15.432  -3.951  1.00 20.00     0.010 C 
HETATM    5  C5  UNL     1     -33.775  16.857  -3.633  1.00 20.00    -0.014 C 
HETATM    6  C6  UNL     1     -35.368  15.580  -2.743  1.00 20.00    -0.009 C 
HETATM    7  C7  UNL     1     -34.361  14.540  -3.290  1.00 20.00     0.004 C 
ENDROOT
BRANCH   7   8
HETATM    8  C8  UNL     1     -34.994  13.568  -4.279  1.00 20.00     0.119 C 
HETATM    9 CL9  UNL     1     -34.677  14.095  -5.943  1.00 20.00    -0.130 Cl
ENDBRANCH   7   8
TORSDOF 1
ENDMDL
MODEL 6
REMARK VINA RESULT:      -4.1      1.111      1.905
REMARK  1 active torsions:
REMARK  status: ('A' for Active; 'I' for Inactive)
REMARK    1  A    between atoms: C7_7  and  C8_8 
ROOT
HETATM    1  C1  UNL     1     -34.142  15.449  -5.537  1.00 20.00     0.005 C 
HETATM    2  C2  UNL     1     -34.899  14.451  -4.648  1.00 20.00     0.005 C 
HETATM    3  C3  UNL     1     -32.859  15.017  -3.579  1.00 20.00     0.010 C 
HETATM    4  C4  UNL     1     -34.024  17.090  -3.644  1.00 20.00     0.010 C 
HETATM    5  C5  UNL     1     -33.201  16.151  -4.545  1.00 20.00    -0.014 C 
HETATM    6  C6  UNL     1     -34.325  14.732  -3.248  1.00 20.00    -0.009 C 
HETATM    7  C7  UNL     1     -34.846  16.112  -2.777  1.00 20.00     0.004 C 
ENDROOT
BRANCH   7   8
HETATM    8  C8  UNL     1     -34.638  16.345  -1.285  1.00 20.00     0.119 C 
HETATM    9 CL9  UNL     1     -33.429  17.617  -1.028  1.00 20.00    -0.130 Cl
ENDBRANCH   7   8
TORSDOF 1
ENDMDL
MODEL 7
REMARK VINA RESULT:      -4.0      1.168      2.031
REMARK  1 active torsions:
REMARK  status: ('A' for Active; 'I' for Inactive)
REMARK    1  A    between atoms: C7_7  and  C8_8 
ROOT
HETATM    1  C1  UNL     1     -34.634  13.256  -5.275  1.00 20.00     0.005 C 
HETATM    2  C2  UNL     1     -35.005  14.526  -6.055  1.00 20.00     0.005 C 
HETATM    3  C3  UNL     1     -35.846  14.724  -3.845  1.00 20.00     0.010 C 
HETATM    4  C4  UNL     1     -33.491  14.635  -3.518  1.00 20.00     0.010 C 
HETATM    5  C5  UNL     1     -34.695  13.720  -3.810  1.00 20.00    -0.014 C 
HETATM    6  C6  UNL     1     -35.196  15.572  -4.941  1.00 20.00    -0.009 C 
HETATM    7  C7  UNL     1     -33.807  15.901  -4.342  1.00 20.00     0.004 C 
ENDROOT
BRANCH   7   8
HETATM    8  C8  UNL     1     -33.817  17.162  -3.485  1.00 20.00     0.119 C 
HETATM    9 CL9  UNL     1     -33.751  16.733  -1.766  1.00 20.00    -0.130 Cl
ENDBRANCH   7   8
TORSDOF 1
ENDMDL
MODEL 8
REMARK VINA RESULT:      -4.0     11.882     12.991
REMARK  1 active torsions:
REMARK  status: ('A' for Active; 'I' for Inactive)
REMARK    1  A    between atoms: C7_7  and  C8_8 
ROOT
HETATM    1  C1  UNL     1     -41.169   7.288  -0.793  1.00 20.00     0.005 C 
HETATM    2  C2  UNL     1     -40.524   6.044  -0.165  1.00 20.00     0.005 C 
HETATM    3  C3  UNL     1     -42.874   5.727  -0.226  1.00 20.00     0.010 C 
HETATM    4  C4  UNL     1     -42.290   5.866  -2.528  1.00 20.00     0.010 C 
HETATM    5  C5  UNL     1     -42.522   6.759  -1.296  1.00 20.00    -0.014 C 
HETATM    6  C6  UNL     1     -41.573   4.946  -0.419  1.00 20.00    -0.009 C 
HETATM    7  C7  UNL     1     -41.584   4.628  -1.934  1.00 20.00     0.004 C 
ENDROOT
BRANCH   7   8
HETATM    8  C8  UNL     1     -42.317   3.331  -2.260  1.00 20.00     0.119 C 
HETATM    9 CL9  UNL     1     -41.376   2.373  -3.419  1.00 20.00    -0.130 Cl
ENDBRANCH   7   8
TORSDOF 1
ENDMDL
MODEL 9
REMARK VINA RESULT:      -4.0     10.991     12.047
REMARK  1 active torsions:
REMARK  status: ('A' for Active; 'I' for Inactive)
REMARK    1  A    between atoms: C7_7  and  C8_8 
ROOT
HETATM    1  C1  UNL     1     -40.713   4.664  -0.690  1.00 20.00     0.005 C 
HETATM    2  C2  UNL     1     -41.517   4.349  -1.959  1.00 20.00     0.005 C 
HETATM    3  C3  UNL     1     -42.867   5.663  -0.517  1.00 20.00     0.010 C 
HETATM    4  C4  UNL     1     -41.064   7.122  -1.043  1.00 20.00     0.010 C 
HETATM    5  C5  UNL     1     -41.408   5.922  -0.143  1.00 20.00    -0.014 C 
HETATM    6  C6  UNL     1     -42.552   5.488  -2.004  1.00 20.00    -0.009 C 
HETATM    7  C7  UNL     1     -41.812   6.802  -2.355  1.00 20.00     0.004 C 
ENDROOT
BRANCH   7   8
HETATM    8  C8  UNL     1     -42.760   7.922  -2.770  1.00 20.00     0.119 C 
HETATM    9 CL9  UNL     1     -42.353   8.495  -4.398  1.00 20.00    -0.130 Cl
ENDBRANCH   7   8
TORSDOF 1
ENDMDL
