MODEL 1
REMARK VINA RESULT:      -4.2      0.000      0.000
REMARK  1 active torsions:
REMARK  status: ('A' for Active; 'I' for Inactive)
REMARK    1  A    between atoms: C1_1  and  C5_5 
ROOT
HETATM    1  C2  UNL     1     -35.026   4.633   6.464  1.00 20.00     0.002 C 
HETATM    2  C3  UNL     1     -34.389   4.036   5.197  1.00 20.00     0.016 C 
HETATM    3  C4  UNL     1     -34.486   6.006   6.029  1.00 20.00     0.016 C 
HETATM    4  C5  UNL     1     -34.388   5.464   4.567  1.00 20.00     0.009 C 
HETATM    5  C6  UNL     1     -35.631   5.759   3.724  1.00 20.00     0.023 C 
ENDROOT
BRANCH   4   6
HETATM    6  C1  UNL     1     -33.092   5.850   3.802  1.00 20.00     0.240 C 
HETATM    7  O7  UNL     1     -33.025   6.792   3.020  1.00 20.00    -0.306 OA
ENDBRANCH   4   6
TORSDOF 1
ENDMDL
MODEL 2
REMARK VINA RESULT:      -3.8      1.535      2.786
REMARK  1 active torsions:
REMARK  status: ('A' for Active; 'I' for Inactive)
REMARK    1  A    between atoms: C1_1  and  C5_5 
ROOT
HETATM    1  C2  UNL     1     -34.486   5.383   2.955  1.00 20.00     0.002 C 
HETATM    2  C3  UNL     1     -35.519   5.690   4.053  1.00 20.00     0.016 C 
HETATM    3  C4  UNL     1     -33.379   5.666   3.985  1.00 20.00     0.016 C 
HETATM    4  C5  UNL     1     -34.417   5.398   5.120  1.00 20.00     0.009 C 
HETATM    5  C6  UNL     1     -34.417   3.950   5.616  1.00 20.00     0.023 C 
ENDROOT
BRANCH   4   6
HETATM    6  C1  UNL     1     -34.368   6.395   6.312  1.00 20.00     0.240 C 
HETATM    7  O7  UNL     1     -33.347   6.972   6.668  1.00 20.00    -0.306 OA
ENDBRANCH   4   6
TORSDOF 1
ENDMDL
MODEL 3
REMARK VINA RESULT:      -3.6     11.943     12.830
REMARK  1 active torsions:
REMARK  status: ('A' for Active; 'I' for Inactive)
REMARK    1  A    between atoms: C1_1  and  C5_5 
ROOT
HETATM    1  C2  UNL     1     -33.750  16.780  -3.239  1.00 20.00     0.002 C 
HETATM    2  C3  UNL     1     -33.949  15.995  -4.548  1.00 20.00     0.016 C 
HETATM    3  C4  UNL     1     -34.483  15.645  -2.504  1.00 20.00     0.016 C 
HETATM    4  C5  UNL     1     -34.141  14.699  -3.699  1.00 20.00     0.009 C 
HETATM    5  C6  UNL     1     -32.848  13.906  -3.497  1.00 20.00     0.023 C 
ENDROOT
BRANCH   4   6
HETATM    6  C1  UNL     1     -35.298  13.770  -4.160  1.00 20.00     0.240 C 
HETATM    7  O7  UNL     1     -35.138  12.591  -4.461  1.00 20.00    -0.306 OA
ENDBRANCH   4   6
TORSDOF 1
ENDMDL
MODEL 4
REMARK VINA RESULT:      -3.5     12.265     13.433
REMARK  1 active torsions:
REMARK  status: ('A' for Active; 'I' for Inactive)
REMARK    1  A    between atoms: C1_1  and  C5_5 
ROOT
HETATM    1  C2  UNL     1     -33.353  16.766  -4.940  1.00 20.00     0.002 C 
HETATM    2  C3  UNL     1     -32.955  15.611  -4.005  1.00 20.00     0.016 C 
HETATM    3  C4  UNL     1     -34.325  15.800  -5.639  1.00 20.00     0.016 C 
HETATM    4  C5  UNL     1     -34.304  14.909  -4.356  1.00 20.00     0.009 C 
HETATM    5  C6  UNL     1     -35.432  15.229  -3.373  1.00 20.00     0.023 C 
ENDROOT
BRANCH   4   6
HETATM    6  C1  UNL     1     -34.207  13.380  -4.614  1.00 20.00     0.240 C 
HETATM    7  O7  UNL     1     -35.115  12.594  -4.363  1.00 20.00    -0.306 OA
ENDBRANCH   4   6
TORSDOF 1
ENDMDL
MODEL 5
REMARK VINA RESULT:      -3.5      1.667      2.348
REMARK  1 active torsions:
REMARK  status: ('A' for Active; 'I' for Inactive)
REMARK    1  A    between atoms: C1_1  and  C5_5 
ROOT
HETATM    1  C2  UNL     1     -35.135   3.881   4.726  1.00 20.00     0.002 C 
HETATM    2  C3  UNL     1     -34.103   4.255   5.803  1.00 20.00     0.016 C 
HETATM    3  C4  UNL     1     -35.510   5.370   4.636  1.00 20.00     0.016 C 
HETATM    4  C5  UNL     1     -34.122   5.719   5.261  1.00 20.00     0.009 C 
HETATM    5  C6  UNL     1     -33.037   5.998   4.218  1.00 20.00     0.023 C 
ENDROOT
BRANCH   4   6
HETATM    6  C1  UNL     1     -34.145   6.828   6.349  1.00 20.00     0.240 C 
HETATM    7  O7  UNL     1     -33.132   7.313   6.842  1.00 20.00    -0.306 OA
ENDBRANCH   4   6
TORSDOF 1
ENDMDL
MODEL 6
REMARK VINA RESULT:      -3.5      1.910      3.055
REMARK  1 active torsions:
REMARK  status: ('A' for Active; 'I' for Inactive)
REMARK    1  A    between atoms: C1_1  and  C5_5 
ROOT
HETATM    1  C2  UNL     1     -32.785   6.888   3.360  1.00 20.00     0.002 C 
HETATM    2  C3  UNL     1     -33.579   6.905   4.678  1.00 20.00     0.016 C 
HETATM    3  C4  UNL     1     -33.045   5.374   3.279  1.00 20.00     0.016 C 
HETATM    4  C5  UNL     1     -34.258   5.568   4.244  1.00 20.00     0.009 C 
HETATM    5  C6  UNL     1     -35.589   5.768   3.515  1.00 20.00     0.023 C 
ENDROOT
BRANCH   4   6
HETATM    6  C1  UNL     1     -34.392   4.498   5.363  1.00 20.00     0.240 C 
HETATM    7  O7  UNL     1     -35.148   3.535   5.290  1.00 20.00    -0.306 OA
ENDBRANCH   4   6
TORSDOF 1
ENDMDL
MODEL 7
REMARK VINA RESULT:      -3.4     12.148     13.082
REMARK  1 active torsions:
REMARK  status: ('A' for Active; 'I' for Inactive)
REMARK    1  A    between atoms: C1_1  and  C5_5 
ROOT
HETATM    1  C2  UNL     1     -33.377  15.773  -4.039  1.00 20.00     0.002 C 
HETATM    2  C3  UNL     1     -34.612  15.727  -4.956  1.00 20.00     0.016 C 
HETATM    3  C4  UNL     1     -34.275  15.291  -2.887  1.00 20.00     0.016 C 
HETATM    4  C5  UNL     1     -35.278  14.737  -3.949  1.00 20.00     0.009 C 
HETATM    5  C6  UNL     1     -35.046  13.265  -4.297  1.00 20.00     0.023 C 
ENDROOT
BRANCH   4   6
HETATM    6  C1  UNL     1     -36.778  15.008  -3.648  1.00 20.00     0.240 C 
HETATM    7  O7  UNL     1     -37.657  14.163  -3.781  1.00 20.00    -0.306 OA
ENDBRANCH   4   6
TORSDOF 1
ENDMDL
MODEL 8
REMARK VINA RESULT:      -3.4     12.992     14.204
REMARK  1 active torsions:
REMARK  status: ('A' for Active; 'I' for Inactive)
REMARK    1  A    between atoms: C1_1  and  C5_5 
ROOT
HETATM    1  C2  UNL     1     -34.369  16.210  -7.093  1.00 20.00     0.002 C 
HETATM    2  C3  UNL     1     -34.019  15.942  -5.618  1.00 20.00     0.016 C 
HETATM    3  C4  UNL     1     -34.781  14.733  -7.213  1.00 20.00     0.016 C 
HETATM    4  C5  UNL     1     -34.955  14.693  -5.661  1.00 20.00     0.009 C 
HETATM    5  C6  UNL     1     -36.385  14.986  -5.201  1.00 20.00     0.023 C 
ENDROOT
BRANCH   4   6
HETATM    6  C1  UNL     1     -34.396  13.422  -4.965  1.00 20.00     0.240 C 
HETATM    7  O7  UNL     1     -35.083  12.664  -4.289  1.00 20.00    -0.306 OA
ENDBRANCH   4   6
TORSDOF 1
ENDMDL
MODEL 9
REMARK VINA RESULT:      -3.4     12.113     12.893
REMARK  1 active torsions:
REMARK  status: ('A' for Active; 'I' for Inactive)
REMARK    1  A    between atoms: C1_1  and  C5_5 
ROOT
HETATM    1  C2  UNL     1     -33.709  16.328  -2.678  1.00 20.00     0.002 C 
HETATM    2  C3  UNL     1     -34.805  15.253  -2.775  1.00 20.00     0.016 C 
HETATM    3  C4  UNL     1     -32.911  15.541  -3.731  1.00 20.00     0.016 C 
HETATM    4  C5  UNL     1     -34.243  14.858  -4.177  1.00 20.00     0.009 C 
HETATM    5  C6  UNL     1     -34.937  15.577  -5.337  1.00 20.00     0.023 C 
ENDROOT
BRANCH   4   6
HETATM    6  C1  UNL     1     -34.147  13.331  -4.447  1.00 20.00     0.240 C 
HETATM    7  O7  UNL     1     -35.123  12.590  -4.490  1.00 20.00    -0.306 OA
ENDBRANCH   4   6
TORSDOF 1
ENDMDL
