MODEL 1
REMARK VINA RESULT:      -4.0      0.000      0.000
REMARK  2 active torsions:
REMARK  status: ('A' for Active; 'I' for Inactive)
REMARK    1  A    between atoms: C1_1  and  C9_9 
REMARK    2  A    between atoms: C2_2  and  C8_8 
ROOT
HETATM    1  C1  UNL     1     -34.664  15.856  -2.048  1.00 20.00    -0.016 C 
HETATM    2  C2  UNL     1     -34.386  16.982  -1.357  1.00 20.00    -0.087 C 
HETATM    3  C3  UNL     1     -34.863  17.112   0.071  1.00 20.00     0.043 C 
ENDROOT
BRANCH   1   4
HETATM    4  C9  UNL     1     -34.328  15.440  -3.477  1.00 20.00    -0.033 C 
HETATM    5  C5  UNL     1     -35.025  14.086  -3.755  1.00 20.00     0.018 C 
HETATM    6  C6  UNL     1     -34.838  16.432  -4.537  1.00 20.00     0.018 C 
HETATM    7  C7  UNL     1     -32.813  15.225  -3.630  1.00 20.00     0.018 C 
ENDBRANCH   1   4
BRANCH   2   8
HETATM    8  C8  UNL     1     -33.575  18.157  -1.850  1.00 20.00     0.029 C 
HETATM    9  C4  UNL     1     -32.897  18.920  -0.720  1.00 20.00     0.010 C 
ENDBRANCH   2   8
TORSDOF 2
ENDMDL
MODEL 2
REMARK VINA RESULT:      -3.9      1.252      2.484
REMARK  2 active torsions:
REMARK  status: ('A' for Active; 'I' for Inactive)
REMARK    1  A    between atoms: C1_1  and  C9_9 
REMARK    2  A    between atoms: C2_2  and  C8_8 
ROOT
HETATM    1  C1  UNL     1     -34.172  16.162  -4.043  1.00 20.00    -0.016 C 
HETATM    2  C2  UNL     1     -34.189  16.789  -2.848  1.00 20.00    -0.087 C 
HETATM    3  C3  UNL     1     -33.765  18.238  -2.765  1.00 20.00     0.043 C 
ENDROOT
BRANCH   1   4
HETATM    4  C9  UNL     1     -34.533  14.733  -4.439  1.00 20.00    -0.033 C 
HETATM    5  C5  UNL     1     -34.437  14.627  -5.980  1.00 20.00     0.018 C 
HETATM    6  C6  UNL     1     -33.574  13.680  -3.857  1.00 20.00     0.018 C 
HETATM    7  C7  UNL     1     -35.983  14.416  -4.038  1.00 20.00     0.018 C 
ENDBRANCH   1   4
BRANCH   2   8
HETATM    8  C8  UNL     1     -34.649  16.201  -1.535  1.00 20.00     0.029 C 
HETATM    9  C4  UNL     1     -34.503  17.172  -0.372  1.00 20.00     0.010 C 
ENDBRANCH   2   8
TORSDOF 2
ENDMDL
MODEL 3
REMARK VINA RESULT:      -3.9      1.214      3.972
REMARK  2 active torsions:
REMARK  status: ('A' for Active; 'I' for Inactive)
REMARK    1  A    between atoms: C1_1  and  C9_9 
REMARK    2  A    between atoms: C2_2  and  C8_8 
ROOT
HETATM    1  C1  UNL     1     -34.586  16.361  -1.425  1.00 20.00    -0.016 C 
HETATM    2  C2  UNL     1     -34.204  16.074  -2.688  1.00 20.00    -0.087 C 
HETATM    3  C3  UNL     1     -34.357  14.662  -3.205  1.00 20.00     0.043 C 
ENDROOT
BRANCH   1   4
HETATM    4  C9  UNL     1     -34.555  17.665  -0.633  1.00 20.00    -0.033 C 
HETATM    5  C5  UNL     1     -35.108  17.375   0.783  1.00 20.00     0.018 C 
HETATM    6  C6  UNL     1     -33.136  18.232  -0.452  1.00 20.00     0.018 C 
HETATM    7  C7  UNL     1     -35.471  18.712  -1.287  1.00 20.00     0.018 C 
ENDBRANCH   1   4
BRANCH   2   8
HETATM    8  C8  UNL     1     -33.663  17.052  -3.703  1.00 20.00     0.029 C 
HETATM    9  C4  UNL     1     -33.261  16.382  -5.010  1.00 20.00     0.010 C 
ENDBRANCH   2   8
TORSDOF 2
ENDMDL
MODEL 4
REMARK VINA RESULT:      -3.8     11.663     12.729
REMARK  2 active torsions:
REMARK  status: ('A' for Active; 'I' for Inactive)
REMARK    1  A    between atoms: C1_1  and  C9_9 
REMARK    2  A    between atoms: C2_2  and  C8_8 
ROOT
HETATM    1  C1  UNL     1     -33.162   6.716   4.566  1.00 20.00    -0.016 C 
HETATM    2  C2  UNL     1     -34.046   6.217   5.455  1.00 20.00    -0.087 C 
HETATM    3  C3  UNL     1     -34.073   6.767   6.862  1.00 20.00     0.043 C 
ENDROOT
BRANCH   1   4
HETATM    4  C9  UNL     1     -32.898   6.372   3.103  1.00 20.00    -0.033 C 
HETATM    5  C5  UNL     1     -31.788   5.294   3.061  1.00 20.00     0.018 C 
HETATM    6  C6  UNL     1     -34.124   5.779   2.386  1.00 20.00     0.018 C 
HETATM    7  C7  UNL     1     -32.381   7.606   2.346  1.00 20.00     0.018 C 
ENDBRANCH   1   4
BRANCH   2   8
HETATM    8  C8  UNL     1     -35.091   5.161   5.182  1.00 20.00     0.029 C 
HETATM    9  C4  UNL     1     -34.756   3.821   5.824  1.00 20.00     0.010 C 
ENDBRANCH   2   8
TORSDOF 2
ENDMDL
MODEL 5
REMARK VINA RESULT:      -3.8      1.155      3.920
REMARK  2 active torsions:
REMARK  status: ('A' for Active; 'I' for Inactive)
REMARK    1  A    between atoms: C1_1  and  C9_9 
REMARK    2  A    between atoms: C2_2  and  C8_8 
ROOT
HETATM    1  C1  UNL     1     -34.220  15.775  -2.300  1.00 20.00    -0.016 C 
HETATM    2  C2  UNL     1     -33.661  15.421  -3.477  1.00 20.00    -0.087 C 
HETATM    3  C3  UNL     1     -33.391  13.960  -3.758  1.00 20.00     0.043 C 
ENDROOT
BRANCH   1   4
HETATM    4  C9  UNL     1     -34.604  17.140  -1.736  1.00 20.00    -0.033 C 
HETATM    5  C5  UNL     1     -34.824  16.981  -0.212  1.00 20.00     0.018 C 
HETATM    6  C6  UNL     1     -33.509  18.205  -1.921  1.00 20.00     0.018 C 
HETATM    7  C7  UNL     1     -35.929  17.621  -2.351  1.00 20.00     0.018 C 
ENDBRANCH   1   4
BRANCH   2   8
HETATM    8  C8  UNL     1     -33.306  16.348  -4.614  1.00 20.00     0.029 C 
HETATM    9  C4  UNL     1     -33.979  15.959  -5.923  1.00 20.00     0.010 C 
ENDBRANCH   2   8
TORSDOF 2
ENDMDL
MODEL 6
REMARK VINA RESULT:      -3.7      2.021      4.790
REMARK  2 active torsions:
REMARK  status: ('A' for Active; 'I' for Inactive)
REMARK    1  A    between atoms: C1_1  and  C9_9 
REMARK    2  A    between atoms: C2_2  and  C8_8 
ROOT
HETATM    1  C1  UNL     1     -34.518  16.208  -4.820  1.00 20.00    -0.016 C 
HETATM    2  C2  UNL     1     -34.429  16.172  -6.167  1.00 20.00    -0.087 C 
HETATM    3  C3  UNL     1     -34.350  17.469  -6.939  1.00 20.00     0.043 C 
ENDROOT
BRANCH   1   4
HETATM    4  C9  UNL     1     -34.613  15.092  -3.784  1.00 20.00    -0.033 C 
HETATM    5  C5  UNL     1     -34.689  15.747  -2.384  1.00 20.00     0.018 C 
HETATM    6  C6  UNL     1     -35.873  14.222  -3.941  1.00 20.00     0.018 C 
HETATM    7  C7  UNL     1     -33.349  14.216  -3.822  1.00 20.00     0.018 C 
ENDBRANCH   1   4
BRANCH   2   8
HETATM    8  C8  UNL     1     -34.346  14.932  -7.025  1.00 20.00     0.029 C 
HETATM    9  C4  UNL     1     -35.679  14.567  -7.662  1.00 20.00     0.010 C 
ENDBRANCH   2   8
TORSDOF 2
ENDMDL
MODEL 7
REMARK VINA RESULT:      -3.7     11.689     12.813
REMARK  2 active torsions:
REMARK  status: ('A' for Active; 'I' for Inactive)
REMARK    1  A    between atoms: C1_1  and  C9_9 
REMARK    2  A    between atoms: C2_2  and  C8_8 
ROOT
HETATM    1  C1  UNL     1     -33.157   6.697   4.592  1.00 20.00    -0.016 C 
HETATM    2  C2  UNL     1     -34.044   6.232   5.497  1.00 20.00    -0.087 C 
HETATM    3  C3  UNL     1     -34.074   6.836   6.882  1.00 20.00     0.043 C 
ENDROOT
BRANCH   1   4
HETATM    4  C9  UNL     1     -32.889   6.296   3.144  1.00 20.00    -0.033 C 
HETATM    5  C5  UNL     1     -32.401   7.553   2.385  1.00 20.00     0.018 C 
HETATM    6  C6  UNL     1     -31.787   5.231   3.001  1.00 20.00     0.018 C 
HETATM    7  C7  UNL     1     -34.186   5.818   2.470  1.00 20.00     0.018 C 
ENDBRANCH   1   4
BRANCH   2   8
HETATM    8  C8  UNL     1     -35.087   5.165   5.262  1.00 20.00     0.029 C 
HETATM    9  C4  UNL     1     -34.690   3.815   5.842  1.00 20.00     0.010 C 
ENDBRANCH   2   8
TORSDOF 2
ENDMDL
MODEL 8
REMARK VINA RESULT:      -3.7     12.040     13.610
REMARK  2 active torsions:
REMARK  status: ('A' for Active; 'I' for Inactive)
REMARK    1  A    between atoms: C1_1  and  C9_9 
REMARK    2  A    between atoms: C2_2  and  C8_8 
ROOT
HETATM    1  C1  UNL     1     -42.306   5.646  -2.785  1.00 20.00    -0.016 C 
HETATM    2  C2  UNL     1     -42.302   6.982  -2.587  1.00 20.00    -0.087 C 
HETATM    3  C3  UNL     1     -42.603   7.903  -3.747  1.00 20.00     0.043 C 
ENDROOT
BRANCH   1   4
HETATM    4  C9  UNL     1     -42.043   4.484  -1.832  1.00 20.00    -0.033 C 
HETATM    5  C5  UNL     1     -41.916   3.194  -2.678  1.00 20.00     0.018 C 
HETATM    6  C6  UNL     1     -40.732   4.631  -1.040  1.00 20.00     0.018 C 
HETATM    7  C7  UNL     1     -43.231   4.298  -0.872  1.00 20.00     0.018 C 
ENDBRANCH   1   4
BRANCH   2   8
HETATM    8  C8  UNL     1     -42.070   7.691  -1.275  1.00 20.00     0.029 C 
HETATM    9  C4  UNL     1     -43.367   8.078  -0.577  1.00 20.00     0.010 C 
ENDBRANCH   2   8
TORSDOF 2
ENDMDL
MODEL 9
REMARK VINA RESULT:      -3.7      1.443      2.691
REMARK  2 active torsions:
REMARK  status: ('A' for Active; 'I' for Inactive)
REMARK    1  A    between atoms: C1_1  and  C9_9 
REMARK    2  A    between atoms: C2_2  and  C8_8 
ROOT
HETATM    1  C1  UNL     1     -35.746  15.539  -2.907  1.00 20.00    -0.016 C 
HETATM    2  C2  UNL     1     -34.545  16.085  -2.622  1.00 20.00    -0.087 C 
HETATM    3  C3  UNL     1     -34.294  16.643  -1.240  1.00 20.00     0.043 C 
ENDROOT
BRANCH   1   4
HETATM    4  C9  UNL     1     -36.291  14.908  -4.185  1.00 20.00    -0.033 C 
HETATM    5  C5  UNL     1     -37.811  14.688  -3.997  1.00 20.00     0.018 C 
HETATM    6  C6  UNL     1     -36.119  15.803  -5.426  1.00 20.00     0.018 C 
HETATM    7  C7  UNL     1     -35.644  13.534  -4.422  1.00 20.00     0.018 C 
ENDBRANCH   1   4
BRANCH   2   8
HETATM    8  C8  UNL     1     -33.354  16.161  -3.548  1.00 20.00     0.029 C 
HETATM    9  C4  UNL     1     -32.525  14.884  -3.546  1.00 20.00     0.010 C 
ENDBRANCH   2   8
TORSDOF 2
ENDMDL
