MODEL 1
REMARK VINA RESULT:      -4.5      0.000      0.000
REMARK  3 active torsions:
REMARK  status: ('A' for Active; 'I' for Inactive)
REMARK    1  A    between atoms: C4_4  and  C7_7 
REMARK    2  A    between atoms: C6_6  and  C7_7 
REMARK    3  A    between atoms: C7_7  and  O9_9 
ROOT
HETATM    1  C1  UNL     1     -34.174   6.016   5.863  1.00 20.00     0.035 C 
HETATM    2  C2  UNL     1     -34.501   4.536   5.837  1.00 20.00     0.168 C 
HETATM    3  C3  UNL     1     -35.228   5.485   3.835  1.00 20.00     0.174 C 
HETATM    4  C4  UNL     1     -34.138   6.384   4.395  1.00 20.00     0.040 C 
HETATM    5  O8  UNL     1     -35.236   4.289   4.630  1.00 20.00    -0.391 OA
ENDROOT
BRANCH   4   6
HETATM    6  C7  UNL     1     -32.778   6.088   3.763  1.00 20.00     0.124 C 
BRANCH   6   7
HETATM    7  C6  UNL     1     -31.954   7.368   3.583  1.00 20.00     0.027 C 
HETATM    8  C5  UNL     1     -32.138   7.990   2.206  1.00 20.00     0.007 C 
ENDBRANCH   6   7
BRANCH   6   9
HETATM    9  O9  UNL     1     -32.978   5.484   2.486  1.00 20.00    -0.395 OA
HETATM   10  H23 UNL     1     -33.932   5.512   2.316  1.00 20.00     0.210 HD
ENDBRANCH   6   9
ENDBRANCH   4   6
TORSDOF 3
ENDMDL
MODEL 2
REMARK VINA RESULT:      -4.1     11.658     12.218
REMARK  3 active torsions:
REMARK  status: ('A' for Active; 'I' for Inactive)
REMARK    1  A    between atoms: C4_4  and  C7_7 
REMARK    2  A    between atoms: C6_6  and  C7_7 
REMARK    3  A    between atoms: C7_7  and  O9_9 
ROOT
HETATM    1  C1  UNL     1     -35.512  15.279  -4.909  1.00 20.00     0.035 C 
HETATM    2  C2  UNL     1     -36.298  14.269  -4.097  1.00 20.00     0.168 C 
HETATM    3  C3  UNL     1     -34.414  13.206  -4.966  1.00 20.00     0.174 C 
HETATM    4  C4  UNL     1     -34.116  14.695  -4.920  1.00 20.00     0.040 C 
HETATM    5  O8  UNL     1     -35.645  13.002  -4.255  1.00 20.00    -0.391 OA
ENDROOT
BRANCH   4   6
HETATM    6  C7  UNL     1     -33.325  15.077  -3.669  1.00 20.00     0.124 C 
BRANCH   6   7
HETATM    7  C6  UNL     1     -33.668  16.496  -3.202  1.00 20.00     0.027 C 
HETATM    8  C5  UNL     1     -34.120  16.537  -1.748  1.00 20.00     0.007 C 
ENDBRANCH   6   7
BRANCH   6   9
HETATM    9  O9  UNL     1     -31.930  15.011  -3.961  1.00 20.00    -0.395 OA
HETATM   10  H23 UNL     1     -31.855  14.679  -4.868  1.00 20.00     0.210 HD
ENDBRANCH   6   9
ENDBRANCH   4   6
TORSDOF 3
ENDMDL
MODEL 3
REMARK VINA RESULT:      -4.0     11.523     12.511
REMARK  3 active torsions:
REMARK  status: ('A' for Active; 'I' for Inactive)
REMARK    1  A    between atoms: C4_4  and  C7_7 
REMARK    2  A    between atoms: C6_6  and  C7_7 
REMARK    3  A    between atoms: C7_7  and  O9_9 
ROOT
HETATM    1  C1  UNL     1     -33.221  15.966  -4.404  1.00 20.00     0.035 C 
HETATM    2  C2  UNL     1     -34.148  15.441  -5.482  1.00 20.00     0.168 C 
HETATM    3  C3  UNL     1     -34.254  13.996  -3.656  1.00 20.00     0.174 C 
HETATM    4  C4  UNL     1     -33.780  15.345  -3.141  1.00 20.00     0.040 C 
HETATM    5  O8  UNL     1     -34.666  14.187  -5.018  1.00 20.00    -0.391 OA
ENDROOT
BRANCH   4   6
HETATM    6  C7  UNL     1     -34.930  16.166  -2.559  1.00 20.00     0.124 C 
BRANCH   6   7
HETATM    7  C6  UNL     1     -34.679  16.518  -1.089  1.00 20.00     0.027 C 
HETATM    8  C5  UNL     1     -33.609  17.589  -0.921  1.00 20.00     0.007 C 
ENDBRANCH   6   7
BRANCH   6   9
HETATM    9  O9  UNL     1     -36.137  15.411  -2.654  1.00 20.00    -0.395 OA
HETATM   10  H23 UNL     1     -36.627  15.772  -3.408  1.00 20.00     0.210 HD
ENDBRANCH   6   9
ENDBRANCH   4   6
TORSDOF 3
ENDMDL
MODEL 4
REMARK VINA RESULT:      -3.9     12.052     12.633
REMARK  3 active torsions:
REMARK  status: ('A' for Active; 'I' for Inactive)
REMARK    1  A    between atoms: C4_4  and  C7_7 
REMARK    2  A    between atoms: C6_6  and  C7_7 
REMARK    3  A    between atoms: C7_7  and  O9_9 
ROOT
HETATM    1  C1  UNL     1     -35.551  14.035  -3.983  1.00 20.00     0.035 C 
HETATM    2  C2  UNL     1     -34.847  13.231  -5.058  1.00 20.00     0.168 C 
HETATM    3  C3  UNL     1     -34.839  15.473  -5.695  1.00 20.00     0.174 C 
HETATM    4  C4  UNL     1     -34.999  15.430  -4.184  1.00 20.00     0.040 C 
HETATM    5  O8  UNL     1     -34.531  14.138  -6.123  1.00 20.00    -0.391 OA
ENDROOT
BRANCH   4   6
HETATM    6  C7  UNL     1     -33.665  15.628  -3.466  1.00 20.00     0.124 C 
BRANCH   6   7
HETATM    7  C6  UNL     1     -33.728  16.798  -2.479  1.00 20.00     0.027 C 
HETATM    8  C5  UNL     1     -34.547  16.470  -1.238  1.00 20.00     0.007 C 
ENDBRANCH   6   7
BRANCH   6   9
HETATM    9  O9  UNL     1     -32.649  15.893  -4.433  1.00 20.00    -0.395 OA
HETATM   10  H23 UNL     1     -32.136  15.076  -4.523  1.00 20.00     0.210 HD
ENDBRANCH   6   9
ENDBRANCH   4   6
TORSDOF 3
ENDMDL
MODEL 5
REMARK VINA RESULT:      -3.9     11.307     12.561
REMARK  3 active torsions:
REMARK  status: ('A' for Active; 'I' for Inactive)
REMARK    1  A    between atoms: C4_4  and  C7_7 
REMARK    2  A    between atoms: C6_6  and  C7_7 
REMARK    3  A    between atoms: C7_7  and  O9_9 
ROOT
HETATM    1  C1  UNL     1     -34.516  16.065  -2.810  1.00 20.00     0.035 C 
HETATM    2  C2  UNL     1     -33.836  16.854  -3.911  1.00 20.00     0.168 C 
HETATM    3  C3  UNL     1     -32.820  14.760  -3.772  1.00 20.00     0.174 C 
HETATM    4  C4  UNL     1     -34.214  14.629  -3.183  1.00 20.00     0.040 C 
HETATM    5  O8  UNL     1     -32.744  16.055  -4.388  1.00 20.00    -0.391 OA
ENDROOT
BRANCH   4   6
HETATM    6  C7  UNL     1     -35.212  14.080  -4.202  1.00 20.00     0.124 C 
BRANCH   6   7
HETATM    7  C6  UNL     1     -36.639  14.553  -3.900  1.00 20.00     0.027 C 
HETATM    8  C5  UNL     1     -37.314  15.178  -5.113  1.00 20.00     0.007 C 
ENDBRANCH   6   7
BRANCH   6   9
HETATM    9  O9  UNL     1     -35.181  12.654  -4.163  1.00 20.00    -0.395 OA
HETATM   10  H23 UNL     1     -36.086  12.355  -4.333  1.00 20.00     0.210 HD
ENDBRANCH   6   9
ENDBRANCH   4   6
TORSDOF 3
ENDMDL
MODEL 6
REMARK VINA RESULT:      -3.8     10.985     12.172
REMARK  3 active torsions:
REMARK  status: ('A' for Active; 'I' for Inactive)
REMARK    1  A    between atoms: C4_4  and  C7_7 
REMARK    2  A    between atoms: C6_6  and  C7_7 
REMARK    3  A    between atoms: C7_7  and  O9_9 
ROOT
HETATM    1  C1  UNL     1     -34.215  14.873  -5.490  1.00 20.00     0.035 C 
HETATM    2  C2  UNL     1     -35.315  13.830  -5.480  1.00 20.00     0.168 C 
HETATM    3  C3  UNL     1     -33.972  13.498  -3.604  1.00 20.00     0.174 C 
HETATM    4  C4  UNL     1     -33.800  14.945  -4.036  1.00 20.00     0.040 C 
HETATM    5  O8  UNL     1     -35.056  12.956  -4.373  1.00 20.00    -0.391 OA
ENDROOT
BRANCH   4   6
HETATM    6  C7  UNL     1     -34.695  15.888  -3.231  1.00 20.00     0.124 C 
BRANCH   6   7
HETATM    7  C6  UNL     1     -33.898  16.632  -2.154  1.00 20.00     0.027 C 
HETATM    8  C5  UNL     1     -34.640  16.706  -0.827  1.00 20.00     0.007 C 
ENDBRANCH   6   7
BRANCH   6   9
HETATM    9  O9  UNL     1     -35.725  15.128  -2.601  1.00 20.00    -0.395 OA
HETATM   10  H23 UNL     1     -36.557  15.589  -2.785  1.00 20.00     0.210 HD
ENDBRANCH   6   9
ENDBRANCH   4   6
TORSDOF 3
ENDMDL
MODEL 7
REMARK VINA RESULT:      -3.8     11.837     12.786
REMARK  3 active torsions:
REMARK  status: ('A' for Active; 'I' for Inactive)
REMARK    1  A    between atoms: C4_4  and  C7_7 
REMARK    2  A    between atoms: C6_6  and  C7_7 
REMARK    3  A    between atoms: C7_7  and  O9_9 
ROOT
HETATM    1  C1  UNL     1     -34.811  16.065  -1.850  1.00 20.00     0.035 C 
HETATM    2  C2  UNL     1     -35.887  16.948  -2.449  1.00 20.00     0.168 C 
HETATM    3  C3  UNL     1     -33.808  17.817  -3.046  1.00 20.00     0.174 C 
HETATM    4  C4  UNL     1     -33.612  16.344  -2.731  1.00 20.00     0.040 C 
HETATM    5  O8  UNL     1     -35.224  18.056  -3.073  1.00 20.00    -0.391 OA
ENDROOT
BRANCH   4   6
HETATM    6  C7  UNL     1     -33.618  15.487  -3.996  1.00 20.00     0.124 C 
BRANCH   6   7
HETATM    7  C6  UNL     1     -33.738  13.996  -3.662  1.00 20.00     0.027 C 
HETATM    8  C5  UNL     1     -34.868  13.317  -4.424  1.00 20.00     0.007 C 
ENDBRANCH   6   7
BRANCH   6   9
HETATM    9  O9  UNL     1     -32.404  15.704  -4.713  1.00 20.00    -0.395 OA
HETATM   10  H23 UNL     1     -32.657  16.043  -5.584  1.00 20.00     0.210 HD
ENDBRANCH   6   9
ENDBRANCH   4   6
TORSDOF 3
ENDMDL
MODEL 8
REMARK VINA RESULT:      -3.7      8.827     10.138
REMARK  3 active torsions:
REMARK  status: ('A' for Active; 'I' for Inactive)
REMARK    1  A    between atoms: C4_4  and  C7_7 
REMARK    2  A    between atoms: C6_6  and  C7_7 
REMARK    3  A    between atoms: C7_7  and  O9_9 
ROOT
HETATM    1  C1  UNL     1     -42.333   6.510  -1.506  1.00 20.00     0.035 C 
HETATM    2  C2  UNL     1     -41.047   7.063  -0.925  1.00 20.00     0.168 C 
HETATM    3  C3  UNL     1     -41.603   5.122   0.239  1.00 20.00     0.174 C 
HETATM    4  C4  UNL     1     -42.281   5.048  -1.119  1.00 20.00     0.040 C 
HETATM    5  O8  UNL     1     -40.706   6.242   0.200  1.00 20.00    -0.391 OA
ENDROOT
BRANCH   4   6
HETATM    6  C7  UNL     1     -41.469   4.220  -2.114  1.00 20.00     0.124 C 
BRANCH   6   7
HETATM    7  C6  UNL     1     -42.264   3.010  -2.617  1.00 20.00     0.027 C 
HETATM    8  C5  UNL     1     -41.448   2.121  -3.545  1.00 20.00     0.007 C 
ENDBRANCH   6   7
BRANCH   6   9
HETATM    9  O9  UNL     1     -40.279   3.757  -1.476  1.00 20.00    -0.395 OA
HETATM   10  H23 UNL     1     -40.312   2.789  -1.503  1.00 20.00     0.210 HD
ENDBRANCH   6   9
ENDBRANCH   4   6
TORSDOF 3
ENDMDL
MODEL 9
REMARK VINA RESULT:      -3.7     11.372     13.235
REMARK  3 active torsions:
REMARK  status: ('A' for Active; 'I' for Inactive)
REMARK    1  A    between atoms: C4_4  and  C7_7 
REMARK    2  A    between atoms: C6_6  and  C7_7 
REMARK    3  A    between atoms: C7_7  and  O9_9 
ROOT
HETATM    1  C1  UNL     1     -34.010  15.849  -5.867  1.00 20.00     0.035 C 
HETATM    2  C2  UNL     1     -35.286  16.580  -6.235  1.00 20.00     0.168 C 
HETATM    3  C3  UNL     1     -35.533  14.336  -6.817  1.00 20.00     0.174 C 
HETATM    4  C4  UNL     1     -34.467  14.411  -5.736  1.00 20.00     0.040 C 
HETATM    5  O8  UNL     1     -36.133  15.638  -6.905  1.00 20.00    -0.391 OA
ENDROOT
BRANCH   4   6
HETATM    6  C7  UNL     1     -35.042  14.117  -4.351  1.00 20.00     0.124 C 
BRANCH   6   7
HETATM    7  C6  UNL     1     -34.145  14.677  -3.242  1.00 20.00     0.027 C 
HETATM    8  C5  UNL     1     -34.871  15.683  -2.359  1.00 20.00     0.007 C 
ENDBRANCH   6   7
BRANCH   6   9
HETATM    9  O9  UNL     1     -35.155  12.704  -4.184  1.00 20.00    -0.395 OA
HETATM   10  H23 UNL     1     -34.333  12.321  -4.523  1.00 20.00     0.210 HD
ENDBRANCH   6   9
ENDBRANCH   4   6
TORSDOF 3
ENDMDL
