MODEL 1
REMARK VINA RESULT:      -4.5      0.000      0.000
REMARK  3 active torsions:
REMARK  status: ('A' for Active; 'I' for Inactive)
REMARK    1  A    between atoms: C4_4  and  C7_7 
REMARK    2  A    between atoms: C6_6  and  C7_7 
REMARK    3  A    between atoms: C7_7  and  O9_9 
ROOT
HETATM    1  C1  UNL     1     -35.326   5.372   4.182  1.00 20.00     0.035 C 
HETATM    2  C2  UNL     1     -35.023   4.287   5.196  1.00 20.00     0.168 C 
HETATM    3  C3  UNL     1     -34.046   6.273   5.931  1.00 20.00     0.174 C 
HETATM    4  C4  UNL     1     -34.225   6.384   4.425  1.00 20.00     0.040 C 
HETATM    5  O8  UNL     1     -34.336   4.913   6.289  1.00 20.00    -0.391 OA
ENDROOT
BRANCH   4   6
HETATM    6  C7  UNL     1     -32.944   6.027   3.673  1.00 20.00     0.124 C 
BRANCH   6   7
HETATM    7  C6  UNL     1     -31.999   7.229   3.576  1.00 20.00     0.027 C 
HETATM    8  C5  UNL     1     -32.112   7.952   2.240  1.00 20.00     0.007 C 
ENDBRANCH   6   7
BRANCH   6   9
HETATM    9  O9  UNL     1     -33.280   5.596   2.356  1.00 20.00    -0.395 OA
HETATM   10  H23 UNL     1     -32.615   4.938   2.104  1.00 20.00     0.210 HD
ENDBRANCH   6   9
ENDBRANCH   4   6
TORSDOF 3
ENDMDL
MODEL 2
REMARK VINA RESULT:      -4.0     11.346     12.573
REMARK  3 active torsions:
REMARK  status: ('A' for Active; 'I' for Inactive)
REMARK    1  A    between atoms: C4_4  and  C7_7 
REMARK    2  A    between atoms: C6_6  and  C7_7 
REMARK    3  A    between atoms: C7_7  and  O9_9 
ROOT
HETATM    1  C1  UNL     1     -33.061  14.968  -3.788  1.00 20.00     0.035 C 
HETATM    2  C2  UNL     1     -33.348  16.375  -4.271  1.00 20.00     0.168 C 
HETATM    3  C3  UNL     1     -34.873  15.852  -2.588  1.00 20.00     0.174 C 
HETATM    4  C4  UNL     1     -34.379  14.540  -3.177  1.00 20.00     0.040 C 
HETATM    5  O8  UNL     1     -34.388  16.903  -3.436  1.00 20.00    -0.391 OA
ENDROOT
BRANCH   4   6
HETATM    6  C7  UNL     1     -35.344  13.992  -4.227  1.00 20.00     0.124 C 
BRANCH   6   7
HETATM    7  C6  UNL     1     -36.770  14.507  -4.001  1.00 20.00     0.027 C 
HETATM    8  C5  UNL     1     -37.331  15.224  -5.222  1.00 20.00     0.007 C 
ENDBRANCH   6   7
BRANCH   6   9
HETATM    9  O9  UNL     1     -35.351  12.567  -4.156  1.00 20.00    -0.395 OA
HETATM   10  H23 UNL     1     -36.127  12.271  -4.655  1.00 20.00     0.210 HD
ENDBRANCH   6   9
ENDBRANCH   4   6
TORSDOF 3
ENDMDL
MODEL 3
REMARK VINA RESULT:      -3.9     11.692     12.457
REMARK  3 active torsions:
REMARK  status: ('A' for Active; 'I' for Inactive)
REMARK    1  A    between atoms: C4_4  and  C7_7 
REMARK    2  A    between atoms: C6_6  and  C7_7 
REMARK    3  A    between atoms: C7_7  and  O9_9 
ROOT
HETATM    1  C1  UNL     1     -34.533  14.455  -5.801  1.00 20.00     0.035 C 
HETATM    2  C2  UNL     1     -34.453  13.029  -5.295  1.00 20.00     0.168 C 
HETATM    3  C3  UNL     1     -35.779  14.256  -3.823  1.00 20.00     0.174 C 
HETATM    4  C4  UNL     1     -34.880  15.241  -4.554  1.00 20.00     0.040 C 
HETATM    5  O8  UNL     1     -35.314  12.939  -4.152  1.00 20.00    -0.391 OA
ENDROOT
BRANCH   4   6
HETATM    6  C7  UNL     1     -33.639  15.592  -3.735  1.00 20.00     0.124 C 
BRANCH   6   7
HETATM    7  C6  UNL     1     -33.854  16.866  -2.910  1.00 20.00     0.027 C 
HETATM    8  C5  UNL     1     -34.272  16.568  -1.476  1.00 20.00     0.007 C 
ENDBRANCH   6   7
BRANCH   6   9
HETATM    9  O9  UNL     1     -32.538  15.795  -4.619  1.00 20.00    -0.395 OA
HETATM   10  H23 UNL     1     -31.842  16.221  -4.097  1.00 20.00     0.210 HD
ENDBRANCH   6   9
ENDBRANCH   4   6
TORSDOF 3
ENDMDL
MODEL 4
REMARK VINA RESULT:      -3.9     11.568     12.668
REMARK  3 active torsions:
REMARK  status: ('A' for Active; 'I' for Inactive)
REMARK    1  A    between atoms: C4_4  and  C7_7 
REMARK    2  A    between atoms: C6_6  and  C7_7 
REMARK    3  A    between atoms: C7_7  and  O9_9 
ROOT
HETATM    1  C1  UNL     1     -33.814  17.559  -3.291  1.00 20.00     0.035 C 
HETATM    2  C2  UNL     1     -35.275  17.530  -3.694  1.00 20.00     0.168 C 
HETATM    3  C3  UNL     1     -34.914  15.846  -2.122  1.00 20.00     0.174 C 
HETATM    4  C4  UNL     1     -33.575  16.156  -2.772  1.00 20.00     0.040 C 
HETATM    5  O8  UNL     1     -35.918  16.543  -2.875  1.00 20.00    -0.391 OA
ENDROOT
BRANCH   4   6
HETATM    6  C7  UNL     1     -33.253  15.177  -3.901  1.00 20.00     0.124 C 
BRANCH   6   7
HETATM    7  C6  UNL     1     -33.877  13.801  -3.643  1.00 20.00     0.027 C 
HETATM    8  C5  UNL     1     -34.656  13.280  -4.844  1.00 20.00     0.007 C 
ENDBRANCH   6   7
BRANCH   6   9
HETATM    9  O9  UNL     1     -31.837  15.030  -4.002  1.00 20.00    -0.395 OA
HETATM   10  H23 UNL     1     -31.560  14.510  -3.233  1.00 20.00     0.210 HD
ENDBRANCH   6   9
ENDBRANCH   4   6
TORSDOF 3
ENDMDL
MODEL 5
REMARK VINA RESULT:      -3.8     11.818     12.499
REMARK  3 active torsions:
REMARK  status: ('A' for Active; 'I' for Inactive)
REMARK    1  A    between atoms: C4_4  and  C7_7 
REMARK    2  A    between atoms: C6_6  and  C7_7 
REMARK    3  A    between atoms: C7_7  and  O9_9 
ROOT
HETATM    1  C1  UNL     1     -35.853  14.754  -3.751  1.00 20.00     0.035 C 
HETATM    2  C2  UNL     1     -35.876  14.896  -5.260  1.00 20.00     0.168 C 
HETATM    3  C3  UNL     1     -34.239  13.335  -4.695  1.00 20.00     0.174 C 
HETATM    4  C4  UNL     1     -34.461  14.222  -3.480  1.00 20.00     0.040 C 
HETATM    5  O8  UNL     1     -34.952  13.934  -5.788  1.00 20.00    -0.391 OA
ENDROOT
BRANCH   4   6
HETATM    6  C7  UNL     1     -33.426  15.342  -3.399  1.00 20.00     0.124 C 
BRANCH   6   7
HETATM    7  C6  UNL     1     -34.062  16.660  -2.942  1.00 20.00     0.027 C 
HETATM    8  C5  UNL     1     -33.946  16.872  -1.438  1.00 20.00     0.007 C 
ENDBRANCH   6   7
BRANCH   6   9
HETATM    9  O9  UNL     1     -32.843  15.533  -4.687  1.00 20.00    -0.395 OA
HETATM   10  H23 UNL     1     -32.011  16.009  -4.544  1.00 20.00     0.210 HD
ENDBRANCH   6   9
ENDBRANCH   4   6
TORSDOF 3
ENDMDL
MODEL 6
REMARK VINA RESULT:      -3.8     11.727     12.882
REMARK  3 active torsions:
REMARK  status: ('A' for Active; 'I' for Inactive)
REMARK    1  A    between atoms: C4_4  and  C7_7 
REMARK    2  A    between atoms: C6_6  and  C7_7 
REMARK    3  A    between atoms: C7_7  and  O9_9 
ROOT
HETATM    1  C1  UNL     1     -35.120  15.323  -2.865  1.00 20.00     0.035 C 
HETATM    2  C2  UNL     1     -36.537  15.123  -3.365  1.00 20.00     0.168 C 
HETATM    3  C3  UNL     1     -35.181  13.488  -4.326  1.00 20.00     0.174 C 
HETATM    4  C4  UNL     1     -34.282  14.649  -3.931  1.00 20.00     0.040 C 
HETATM    5  O8  UNL     1     -36.537  13.932  -4.164  1.00 20.00    -0.391 OA
ENDROOT
BRANCH   4   6
HETATM    6  C7  UNL     1     -34.005  15.578  -5.112  1.00 20.00     0.124 C 
BRANCH   6   7
HETATM    7  C6  UNL     1     -34.289  14.884  -6.449  1.00 20.00     0.027 C 
HETATM    8  C5  UNL     1     -35.139  15.739  -7.380  1.00 20.00     0.007 C 
ENDBRANCH   6   7
BRANCH   6   9
HETATM    9  O9  UNL     1     -32.635  15.976  -5.080  1.00 20.00    -0.395 OA
HETATM   10  H23 UNL     1     -32.246  15.559  -4.297  1.00 20.00     0.210 HD
ENDBRANCH   6   9
ENDBRANCH   4   6
TORSDOF 3
ENDMDL
MODEL 7
REMARK VINA RESULT:      -3.8     11.181     12.904
REMARK  3 active torsions:
REMARK  status: ('A' for Active; 'I' for Inactive)
REMARK    1  A    between atoms: C4_4  and  C7_7 
REMARK    2  A    between atoms: C6_6  and  C7_7 
REMARK    3  A    between atoms: C7_7  and  O9_9 
ROOT
HETATM    1  C1  UNL     1     -35.396  15.027  -4.951  1.00 20.00     0.035 C 
HETATM    2  C2  UNL     1     -34.777  13.833  -5.650  1.00 20.00     0.168 C 
HETATM    3  C3  UNL     1     -34.126  13.791  -3.412  1.00 20.00     0.174 C 
HETATM    4  C4  UNL     1     -34.492  15.227  -3.752  1.00 20.00     0.040 C 
HETATM    5  O8  UNL     1     -34.105  13.059  -4.647  1.00 20.00    -0.391 OA
ENDROOT
BRANCH   4   6
HETATM    6  C7  UNL     1     -33.259  16.060  -4.099  1.00 20.00     0.124 C 
BRANCH   6   7
HETATM    7  C6  UNL     1     -33.456  16.833  -5.408  1.00 20.00     0.027 C 
HETATM    8  C5  UNL     1     -33.550  18.337  -5.188  1.00 20.00     0.007 C 
ENDBRANCH   6   7
BRANCH   6   9
HETATM    9  O9  UNL     1     -32.135  15.193  -4.240  1.00 20.00    -0.395 OA
HETATM   10  H23 UNL     1     -32.461  14.388  -4.669  1.00 20.00     0.210 HD
ENDBRANCH   6   9
ENDBRANCH   4   6
TORSDOF 3
ENDMDL
MODEL 8
REMARK VINA RESULT:      -3.7     11.692     12.570
REMARK  3 active torsions:
REMARK  status: ('A' for Active; 'I' for Inactive)
REMARK    1  A    between atoms: C4_4  and  C7_7 
REMARK    2  A    between atoms: C6_6  and  C7_7 
REMARK    3  A    between atoms: C7_7  and  O9_9 
ROOT
HETATM    1  C1  UNL     1     -34.675  13.958  -3.833  1.00 20.00     0.035 C 
HETATM    2  C2  UNL     1     -34.853  14.531  -5.225  1.00 20.00     0.168 C 
HETATM    3  C3  UNL     1     -33.130  15.693  -4.167  1.00 20.00     0.174 C 
HETATM    4  C4  UNL     1     -34.006  15.089  -3.081  1.00 20.00     0.040 C 
HETATM    5  O8  UNL     1     -33.819  15.508  -5.413  1.00 20.00    -0.391 OA
ENDROOT
BRANCH   4   6
HETATM    6  C7  UNL     1     -35.021  16.098  -2.545  1.00 20.00     0.124 C 
BRANCH   6   7
HETATM    7  C6  UNL     1     -34.709  16.490  -1.096  1.00 20.00     0.027 C 
HETATM    8  C5  UNL     1     -33.639  17.570  -1.002  1.00 20.00     0.007 C 
ENDBRANCH   6   7
BRANCH   6   9
HETATM    9  O9  UNL     1     -36.324  15.521  -2.596  1.00 20.00    -0.395 OA
HETATM   10  H23 UNL     1     -36.204  14.594  -2.851  1.00 20.00     0.210 HD
ENDBRANCH   6   9
ENDBRANCH   4   6
TORSDOF 3
ENDMDL
MODEL 9
REMARK VINA RESULT:      -3.7     11.500     13.307
REMARK  3 active torsions:
REMARK  status: ('A' for Active; 'I' for Inactive)
REMARK    1  A    between atoms: C4_4  and  C7_7 
REMARK    2  A    between atoms: C6_6  and  C7_7 
REMARK    3  A    between atoms: C7_7  and  O9_9 
ROOT
HETATM    1  C1  UNL     1     -35.980  14.727  -6.605  1.00 20.00     0.035 C 
HETATM    2  C2  UNL     1     -36.236  16.192  -6.316  1.00 20.00     0.168 C 
HETATM    3  C3  UNL     1     -33.998  15.732  -5.853  1.00 20.00     0.174 C 
HETATM    4  C4  UNL     1     -34.760  14.420  -5.762  1.00 20.00     0.040 C 
HETATM    5  O8  UNL     1     -34.974  16.779  -5.965  1.00 20.00    -0.391 OA
ENDROOT
BRANCH   4   6
HETATM    6  C7  UNL     1     -35.132  14.079  -4.319  1.00 20.00     0.124 C 
BRANCH   6   7
HETATM    7  C6  UNL     1     -34.132  14.680  -3.326  1.00 20.00     0.027 C 
HETATM    8  C5  UNL     1     -34.781  15.679  -2.377  1.00 20.00     0.007 C 
ENDBRANCH   6   7
BRANCH   6   9
HETATM    9  O9  UNL     1     -35.144  12.661  -4.163  1.00 20.00    -0.395 OA
HETATM   10  H23 UNL     1     -35.305  12.289  -5.043  1.00 20.00     0.210 HD
ENDBRANCH   6   9
ENDBRANCH   4   6
TORSDOF 3
ENDMDL
