MODEL 1
REMARK VINA RESULT:      -5.1      0.000      0.000
REMARK  4 active torsions:
REMARK  status: ('A' for Active; 'I' for Inactive)
REMARK    1  A    between atoms: C2_2  and  C3_3 
REMARK    2  A    between atoms: C3_3  and  C5_5 
REMARK    3  A    between atoms: C5_5  and  C6_6 
REMARK    4  A    between atoms: C6_6  and  C7_7 
ROOT
HETATM    1  C3  UNL     1     -34.190   5.772   3.974  1.00 20.00     0.154 C 
HETATM    2  O8  UNL     1     -35.198   5.782   3.266  1.00 20.00    -0.293 OA
ENDROOT
BRANCH   1   3
HETATM    3  C2  UNL     1     -34.333   5.542   5.453  1.00 20.00    -0.025 C 
HETATM    4  C1  UNL     1     -34.016   6.490   6.347  1.00 20.00     0.022 C 
HETATM    5  C4  UNL     1     -34.846   4.197   5.875  1.00 20.00     0.051 C 
ENDBRANCH   1   3
BRANCH   1   6
HETATM    6  C5  UNL     1     -32.800   5.991   3.387  1.00 20.00     0.084 C 
BRANCH   6   7
HETATM    7  C6  UNL     1     -32.414   7.473   3.348  1.00 20.00     0.023 C 
BRANCH   7   8
HETATM    8  C7  UNL     1     -32.001   7.952   1.960  1.00 20.00     0.115 C 
HETATM    9 CL9  UNL     1     -32.513   9.626   1.652  1.00 20.00    -0.130 Cl
ENDBRANCH   7   8
ENDBRANCH   6   7
ENDBRANCH   1   6
TORSDOF 4
ENDMDL
MODEL 2
REMARK VINA RESULT:      -5.0      0.121      1.177
REMARK  4 active torsions:
REMARK  status: ('A' for Active; 'I' for Inactive)
REMARK    1  A    between atoms: C2_2  and  C3_3 
REMARK    2  A    between atoms: C3_3  and  C5_5 
REMARK    3  A    between atoms: C5_5  and  C6_6 
REMARK    4  A    between atoms: C6_6  and  C7_7 
ROOT
HETATM    1  C3  UNL     1     -34.300   5.693   3.944  1.00 20.00     0.154 C 
HETATM    2  O8  UNL     1     -35.323   5.774   3.264  1.00 20.00    -0.293 OA
ENDROOT
BRANCH   1   3
HETATM    3  C2  UNL     1     -34.414   5.358   5.406  1.00 20.00    -0.025 C 
HETATM    4  C1  UNL     1     -34.821   4.150   5.822  1.00 20.00     0.022 C 
HETATM    5  C4  UNL     1     -34.050   6.447   6.372  1.00 20.00     0.051 C 
ENDBRANCH   1   3
BRANCH   1   6
HETATM    6  C5  UNL     1     -32.920   5.927   3.342  1.00 20.00     0.084 C 
BRANCH   6   7
HETATM    7  C6  UNL     1     -32.522   7.406   3.361  1.00 20.00     0.023 C 
BRANCH   7   8
HETATM    8  C7  UNL     1     -32.006   7.909   2.017  1.00 20.00     0.115 C 
HETATM    9 CL9  UNL     1     -32.528   9.575   1.682  1.00 20.00    -0.130 Cl
ENDBRANCH   7   8
ENDBRANCH   6   7
ENDBRANCH   1   6
TORSDOF 4
ENDMDL
MODEL 3
REMARK VINA RESULT:      -4.8      1.340      1.630
REMARK  4 active torsions:
REMARK  status: ('A' for Active; 'I' for Inactive)
REMARK    1  A    between atoms: C2_2  and  C3_3 
REMARK    2  A    between atoms: C3_3  and  C5_5 
REMARK    3  A    between atoms: C5_5  and  C6_6 
REMARK    4  A    between atoms: C6_6  and  C7_7 
ROOT
HETATM    1  C3  UNL     1     -33.511   6.198   4.661  1.00 20.00     0.154 C 
HETATM    2  O8  UNL     1     -33.261   6.864   5.667  1.00 20.00    -0.293 OA
ENDROOT
BRANCH   1   3
HETATM    3  C2  UNL     1     -34.733   5.321   4.645  1.00 20.00    -0.025 C 
HETATM    4  C1  UNL     1     -35.690   5.465   3.718  1.00 20.00     0.022 C 
HETATM    5  C4  UNL     1     -34.822   4.279   5.721  1.00 20.00     0.051 C 
ENDBRANCH   1   3
BRANCH   1   6
HETATM    6  C5  UNL     1     -32.609   6.237   3.434  1.00 20.00     0.084 C 
BRANCH   6   7
HETATM    7  C6  UNL     1     -31.941   7.603   3.248  1.00 20.00     0.023 C 
BRANCH   7   8
HETATM    8  C7  UNL     1     -32.008   8.117   1.814  1.00 20.00     0.115 C 
HETATM    9 CL9  UNL     1     -32.529   9.815   1.737  1.00 20.00    -0.130 Cl
ENDBRANCH   7   8
ENDBRANCH   6   7
ENDBRANCH   1   6
TORSDOF 4
ENDMDL
MODEL 4
REMARK VINA RESULT:      -4.4      3.016      4.992
REMARK  4 active torsions:
REMARK  status: ('A' for Active; 'I' for Inactive)
REMARK    1  A    between atoms: C2_2  and  C3_3 
REMARK    2  A    between atoms: C3_3  and  C5_5 
REMARK    3  A    between atoms: C5_5  and  C6_6 
REMARK    4  A    between atoms: C6_6  and  C7_7 
ROOT
HETATM    1  C3  UNL     1     -32.058   7.576   2.906  1.00 20.00     0.154 C 
HETATM    2  O8  UNL     1     -31.237   7.754   3.807  1.00 20.00    -0.293 OA
ENDROOT
BRANCH   1   3
HETATM    3  C2  UNL     1     -32.133   8.563   1.774  1.00 20.00    -0.025 C 
HETATM    4  C1  UNL     1     -31.645   8.278   0.558  1.00 20.00     0.022 C 
HETATM    5  C4  UNL     1     -32.779   9.882   2.078  1.00 20.00     0.051 C 
ENDBRANCH   1   3
BRANCH   1   6
HETATM    6  C5  UNL     1     -33.005   6.381   2.913  1.00 20.00     0.084 C 
BRANCH   6   7
HETATM    7  C6  UNL     1     -33.972   6.414   4.099  1.00 20.00     0.023 C 
BRANCH   7   8
HETATM    8  C7  UNL     1     -34.879   5.190   4.172  1.00 20.00     0.115 C 
HETATM    9 CL9  UNL     1     -35.075   4.602   5.838  1.00 20.00    -0.130 Cl
ENDBRANCH   7   8
ENDBRANCH   6   7
ENDBRANCH   1   6
TORSDOF 4
ENDMDL
MODEL 5
REMARK VINA RESULT:      -4.3      2.323      4.256
REMARK  4 active torsions:
REMARK  status: ('A' for Active; 'I' for Inactive)
REMARK    1  A    between atoms: C2_2  and  C3_3 
REMARK    2  A    between atoms: C3_3  and  C5_5 
REMARK    3  A    between atoms: C5_5  and  C6_6 
REMARK    4  A    between atoms: C6_6  and  C7_7 
ROOT
HETATM    1  C3  UNL     1     -32.841   6.281   3.221  1.00 20.00     0.154 C 
HETATM    2  O8  UNL     1     -32.405   5.188   2.859  1.00 20.00    -0.293 OA
ENDROOT
BRANCH   1   3
HETATM    3  C2  UNL     1     -31.967   7.498   3.101  1.00 20.00    -0.025 C 
HETATM    4  C1  UNL     1     -31.149   7.878   4.093  1.00 20.00     0.022 C 
HETATM    5  C4  UNL     1     -32.059   8.264   1.814  1.00 20.00     0.051 C 
ENDBRANCH   1   3
BRANCH   1   6
HETATM    6  C5  UNL     1     -34.246   6.430   3.793  1.00 20.00     0.084 C 
BRANCH   6   7
HETATM    7  C6  UNL     1     -34.755   5.133   4.429  1.00 20.00     0.023 C 
BRANCH   7   8
HETATM    8  C7  UNL     1     -34.708   5.150   5.953  1.00 20.00     0.115 C 
HETATM    9 CL9  UNL     1     -34.002   6.654   6.583  1.00 20.00    -0.130 Cl
ENDBRANCH   7   8
ENDBRANCH   6   7
ENDBRANCH   1   6
TORSDOF 4
ENDMDL
MODEL 6
REMARK VINA RESULT:      -4.2     11.151     12.169
REMARK  4 active torsions:
REMARK  status: ('A' for Active; 'I' for Inactive)
REMARK    1  A    between atoms: C2_2  and  C3_3 
REMARK    2  A    between atoms: C3_3  and  C5_5 
REMARK    3  A    between atoms: C5_5  and  C6_6 
REMARK    4  A    between atoms: C6_6  and  C7_7 
ROOT
HETATM    1  C3  UNL     1     -34.540  13.765  -4.659  1.00 20.00     0.154 C 
HETATM    2  O8  UNL     1     -35.029  12.656  -4.437  1.00 20.00    -0.293 OA
ENDROOT
BRANCH   1   3
HETATM    3  C2  UNL     1     -35.085  14.595  -5.788  1.00 20.00    -0.025 C 
HETATM    4  C1  UNL     1     -34.336  14.915  -6.853  1.00 20.00     0.022 C 
HETATM    5  C4  UNL     1     -36.510  15.047  -5.659  1.00 20.00     0.051 C 
ENDBRANCH   1   3
BRANCH   1   6
HETATM    6  C5  UNL     1     -33.393  14.313  -3.820  1.00 20.00     0.084 C 
BRANCH   6   7
HETATM    7  C6  UNL     1     -33.697  15.705  -3.259  1.00 20.00     0.023 C 
BRANCH   7   8
HETATM    8  C7  UNL     1     -34.902  15.728  -2.324  1.00 20.00     0.115 C 
HETATM    9 CL9  UNL     1     -34.541  16.552  -0.791  1.00 20.00    -0.130 Cl
ENDBRANCH   7   8
ENDBRANCH   6   7
ENDBRANCH   1   6
TORSDOF 4
ENDMDL
MODEL 7
REMARK VINA RESULT:      -4.1     10.896     12.228
REMARK  4 active torsions:
REMARK  status: ('A' for Active; 'I' for Inactive)
REMARK    1  A    between atoms: C2_2  and  C3_3 
REMARK    2  A    between atoms: C3_3  and  C5_5 
REMARK    3  A    between atoms: C5_5  and  C6_6 
REMARK    4  A    between atoms: C6_6  and  C7_7 
ROOT
HETATM    1  C3  UNL     1     -34.751  13.681  -4.688  1.00 20.00     0.154 C 
HETATM    2  O8  UNL     1     -34.762  12.480  -4.962  1.00 20.00    -0.293 OA
ENDROOT
BRANCH   1   3
HETATM    3  C2  UNL     1     -35.313  14.665  -5.677  1.00 20.00    -0.025 C 
HETATM    4  C1  UNL     1     -36.463  15.315  -5.448  1.00 20.00     0.022 C 
HETATM    5  C4  UNL     1     -34.518  14.880  -6.932  1.00 20.00     0.051 C 
ENDBRANCH   1   3
BRANCH   1   6
HETATM    6  C5  UNL     1     -34.178  14.195  -3.373  1.00 20.00     0.084 C 
BRANCH   6   7
HETATM    7  C6  UNL     1     -33.262  15.406  -3.573  1.00 20.00     0.023 C 
BRANCH   7   8
HETATM    8  C7  UNL     1     -33.733  16.649  -2.825  1.00 20.00     0.115 C 
HETATM    9 CL9  UNL     1     -34.693  16.239  -1.386  1.00 20.00    -0.130 Cl
ENDBRANCH   7   8
ENDBRANCH   6   7
ENDBRANCH   1   6
TORSDOF 4
ENDMDL
MODEL 8
REMARK VINA RESULT:      -4.0     11.364     12.134
REMARK  4 active torsions:
REMARK  status: ('A' for Active; 'I' for Inactive)
REMARK    1  A    between atoms: C2_2  and  C3_3 
REMARK    2  A    between atoms: C3_3  and  C5_5 
REMARK    3  A    between atoms: C5_5  and  C6_6 
REMARK    4  A    between atoms: C6_6  and  C7_7 
ROOT
HETATM    1  C3  UNL     1     -35.165  13.962  -3.921  1.00 20.00     0.154 C 
HETATM    2  O8  UNL     1     -34.854  12.782  -4.089  1.00 20.00    -0.293 OA
ENDROOT
BRANCH   1   3
HETATM    3  C2  UNL     1     -34.171  14.903  -3.300  1.00 20.00    -0.025 C 
HETATM    4  C1  UNL     1     -32.886  14.923  -3.682  1.00 20.00     0.022 C 
HETATM    5  C4  UNL     1     -34.692  15.817  -2.230  1.00 20.00     0.051 C 
ENDBRANCH   1   3
BRANCH   1   6
HETATM    6  C5  UNL     1     -36.536  14.490  -4.325  1.00 20.00     0.084 C 
BRANCH   6   7
HETATM    7  C6  UNL     1     -36.465  15.421  -5.539  1.00 20.00     0.023 C 
BRANCH   7   8
HETATM    8  C7  UNL     1     -35.945  14.734  -6.797  1.00 20.00     0.115 C 
HETATM    9 CL9  UNL     1     -34.256  15.166  -7.145  1.00 20.00    -0.130 Cl
ENDBRANCH   7   8
ENDBRANCH   6   7
ENDBRANCH   1   6
TORSDOF 4
ENDMDL
MODEL 9
REMARK VINA RESULT:      -4.0     11.355     12.373
REMARK  4 active torsions:
REMARK  status: ('A' for Active; 'I' for Inactive)
REMARK    1  A    between atoms: C2_2  and  C3_3 
REMARK    2  A    between atoms: C3_3  and  C5_5 
REMARK    3  A    between atoms: C5_5  and  C6_6 
REMARK    4  A    between atoms: C6_6  and  C7_7 
ROOT
HETATM    1  C3  UNL     1     -34.777  13.770  -4.682  1.00 20.00     0.154 C 
HETATM    2  O8  UNL     1     -34.900  12.549  -4.574  1.00 20.00    -0.293 OA
ENDROOT
BRANCH   1   3
HETATM    3  C2  UNL     1     -33.981  14.522  -3.651  1.00 20.00    -0.025 C 
HETATM    4  C1  UNL     1     -32.653  14.371  -3.539  1.00 20.00     0.022 C 
HETATM    5  C4  UNL     1     -34.751  15.447  -2.755  1.00 20.00     0.051 C 
ENDBRANCH   1   3
BRANCH   1   6
HETATM    6  C5  UNL     1     -35.415  14.538  -5.833  1.00 20.00     0.084 C 
BRANCH   6   7
HETATM    7  C6  UNL     1     -34.371  15.165  -6.761  1.00 20.00     0.023 C 
BRANCH   7   8
HETATM    8  C7  UNL     1     -34.466  16.686  -6.836  1.00 20.00     0.115 C 
HETATM    9 CL9  UNL     1     -33.486  17.479  -5.583  1.00 20.00    -0.130 Cl
ENDBRANCH   7   8
ENDBRANCH   6   7
ENDBRANCH   1   6
TORSDOF 4
ENDMDL
