MODEL 1
REMARK VINA RESULT:      -5.9      0.000      0.000
REMARK  2 active torsions:
REMARK  status: ('A' for Active; 'I' for Inactive)
REMARK    1  A    between atoms: C8_8  and  C11_11 
REMARK    2  A    between atoms: C10_10  and  C11_11 
ROOT
HETATM    1  C11 UNL     1     -32.512   6.585   3.534  1.00 20.00     0.046 C 
ENDROOT
BRANCH   1   2
HETATM    2  C8  UNL     1     -32.358   7.674   2.539  1.00 20.00    -0.076 A 
HETATM    3  C4  UNL     1     -31.802   7.612   1.319  1.00 20.00     0.003 A 
HETATM    4  C3  UNL     1     -31.866   8.907   0.695  1.00 20.00    -0.003 A 
HETATM    5  C5  UNL     1     -32.461   9.777   1.524  1.00 20.00    -0.022 A 
HETATM    6  C9  UNL     1     -32.841   9.076   2.798  1.00 20.00     0.061 A 
ENDBRANCH   1   2
BRANCH   1   7
HETATM    7  C10 UNL     1     -33.915   6.577   4.113  1.00 20.00     0.034 A 
HETATM    8  C6  UNL     1     -33.918   6.354   5.604  1.00 20.00    -0.018 A 
HETATM    9  C1  UNL     1     -34.613   5.245   5.891  1.00 20.00    -0.004 A 
HETATM   10  C2  UNL     1     -35.111   4.659   4.674  1.00 20.00    -0.004 A 
HETATM   11  C7  UNL     1     -34.727   5.402   3.627  1.00 20.00    -0.018 A 
ENDBRANCH   1   7
TORSDOF 2
ENDMDL
MODEL 2
REMARK VINA RESULT:      -5.3      1.134      1.834
REMARK  2 active torsions:
REMARK  status: ('A' for Active; 'I' for Inactive)
REMARK    1  A    between atoms: C8_8  and  C11_11 
REMARK    2  A    between atoms: C10_10  and  C11_11 
ROOT
HETATM    1  C11 UNL     1     -34.097   5.320   2.920  1.00 20.00     0.046 C 
ENDROOT
BRANCH   1   2
HETATM    2  C8  UNL     1     -33.061   6.381   2.936  1.00 20.00    -0.076 A 
HETATM    3  C4  UNL     1     -31.896   6.395   3.602  1.00 20.00     0.003 A 
HETATM    4  C3  UNL     1     -31.201   7.625   3.328  1.00 20.00    -0.003 A 
HETATM    5  C5  UNL     1     -31.930   8.377   2.492  1.00 20.00    -0.022 A 
HETATM    6  C9  UNL     1     -33.203   7.657   2.151  1.00 20.00     0.061 A 
ENDBRANCH   1   2
BRANCH   1   7
HETATM    7  C10 UNL     1     -35.037   5.465   4.103  1.00 20.00     0.034 A 
HETATM    8  C6  UNL     1     -34.439   6.298   5.209  1.00 20.00    -0.018 A 
HETATM    9  C1  UNL     1     -34.366   5.569   6.331  1.00 20.00    -0.004 A 
HETATM   10  C2  UNL     1     -34.881   4.248   6.082  1.00 20.00    -0.004 A 
HETATM   11  C7  UNL     1     -35.278   4.152   4.806  1.00 20.00    -0.018 A 
ENDBRANCH   1   7
TORSDOF 2
ENDMDL
MODEL 3
REMARK VINA RESULT:      -5.1     10.109     11.131
REMARK  2 active torsions:
REMARK  status: ('A' for Active; 'I' for Inactive)
REMARK    1  A    between atoms: C8_8  and  C11_11 
REMARK    2  A    between atoms: C10_10  and  C11_11 
ROOT
HETATM    1  C11 UNL     1     -33.763  16.244  -3.018  1.00 20.00     0.046 C 
ENDROOT
BRANCH   1   2
HETATM    2  C8  UNL     1     -33.965  16.952  -1.731  1.00 20.00    -0.076 A 
HETATM    3  C4  UNL     1     -34.712  16.574  -0.683  1.00 20.00     0.003 A 
HETATM    4  C3  UNL     1     -34.620  17.565   0.356  1.00 20.00    -0.003 A 
HETATM    5  C5  UNL     1     -33.817  18.562  -0.043  1.00 20.00    -0.022 A 
HETATM    6  C9  UNL     1     -33.310  18.273  -1.427  1.00 20.00     0.061 A 
ENDBRANCH   1   2
BRANCH   1   7
HETATM    7  C10 UNL     1     -34.391  14.863  -2.980  1.00 20.00     0.034 A 
HETATM    8  C6  UNL     1     -33.587  13.847  -3.751  1.00 20.00    -0.018 A 
HETATM    9  C1  UNL     1     -34.339  13.328  -4.731  1.00 20.00    -0.004 A 
HETATM   10  C2  UNL     1     -35.648  13.926  -4.702  1.00 20.00    -0.004 A 
HETATM   11  C7  UNL     1     -35.714  14.817  -3.704  1.00 20.00    -0.018 A 
ENDBRANCH   1   7
TORSDOF 2
ENDMDL
MODEL 4
REMARK VINA RESULT:      -5.0      9.882     11.318
REMARK  2 active torsions:
REMARK  status: ('A' for Active; 'I' for Inactive)
REMARK    1  A    between atoms: C8_8  and  C11_11 
REMARK    2  A    between atoms: C10_10  and  C11_11 
ROOT
HETATM    1  C11 UNL     1     -35.038  15.732  -2.355  1.00 20.00     0.046 C 
ENDROOT
BRANCH   1   2
HETATM    2  C8  UNL     1     -34.429  16.742  -1.457  1.00 20.00    -0.076 A 
HETATM    3  C4  UNL     1     -33.385  17.549  -1.701  1.00 20.00     0.003 A 
HETATM    4  C3  UNL     1     -33.133  18.371  -0.547  1.00 20.00    -0.003 A 
HETATM    5  C5  UNL     1     -34.017  18.076   0.417  1.00 20.00    -0.022 A 
HETATM    6  C9  UNL     1     -34.944  16.997  -0.066  1.00 20.00     0.061 A 
ENDBRANCH   1   2
BRANCH   1   7
HETATM    7  C10 UNL     1     -34.021  15.215  -3.356  1.00 20.00     0.034 A 
HETATM    8  C6  UNL     1     -34.314  15.679  -4.761  1.00 20.00    -0.018 A 
HETATM    9  C1  UNL     1     -34.503  14.616  -5.555  1.00 20.00    -0.004 A 
HETATM   10  C2  UNL     1     -34.362  13.408  -4.785  1.00 20.00    -0.004 A 
HETATM   11  C7  UNL     1     -34.083  13.715  -3.511  1.00 20.00    -0.018 A 
ENDBRANCH   1   7
TORSDOF 2
ENDMDL
MODEL 5
REMARK VINA RESULT:      -5.0     10.066     11.292
REMARK  2 active torsions:
REMARK  status: ('A' for Active; 'I' for Inactive)
REMARK    1  A    between atoms: C8_8  and  C11_11 
REMARK    2  A    between atoms: C10_10  and  C11_11 
ROOT
HETATM    1  C11 UNL     1     -34.073  17.086  -2.756  1.00 20.00     0.046 C 
ENDROOT
BRANCH   1   2
HETATM    2  C8  UNL     1     -34.077  15.683  -3.237  1.00 20.00    -0.076 A 
HETATM    3  C4  UNL     1     -33.026  14.901  -3.526  1.00 20.00     0.003 A 
HETATM    4  C3  UNL     1     -33.492  13.610  -3.959  1.00 20.00    -0.003 A 
HETATM    5  C5  UNL     1     -34.832  13.587  -3.941  1.00 20.00    -0.022 A 
HETATM    6  C9  UNL     1     -35.351  14.917  -3.474  1.00 20.00     0.061 A 
ENDBRANCH   1   2
BRANCH   1   7
HETATM    7  C10 UNL     1     -33.627  17.160  -1.307  1.00 20.00     0.034 A 
HETATM    8  C6  UNL     1     -34.734  16.800  -0.349  1.00 20.00    -0.018 A 
HETATM    9  C1  UNL     1     -34.976  17.834   0.467  1.00 20.00    -0.004 A 
HETATM   10  C2  UNL     1     -34.094  18.924   0.140  1.00 20.00    -0.004 A 
HETATM   11  C7  UNL     1     -33.300  18.569  -0.881  1.00 20.00    -0.018 A 
ENDBRANCH   1   7
TORSDOF 2
ENDMDL
MODEL 6
REMARK VINA RESULT:      -5.0      0.644      4.978
REMARK  2 active torsions:
REMARK  status: ('A' for Active; 'I' for Inactive)
REMARK    1  A    between atoms: C8_8  and  C11_11 
REMARK    2  A    between atoms: C10_10  and  C11_11 
ROOT
HETATM    1  C11 UNL     1     -33.479   6.335   2.866  1.00 20.00     0.046 C 
ENDROOT
BRANCH   1   2
HETATM    2  C8  UNL     1     -33.969   5.957   4.214  1.00 20.00    -0.076 A 
HETATM    3  C4  UNL     1     -33.656   6.509   5.396  1.00 20.00     0.003 A 
HETATM    4  C3  UNL     1     -34.364   5.826   6.447  1.00 20.00    -0.003 A 
HETATM    5  C5  UNL     1     -35.116   4.849   5.922  1.00 20.00    -0.022 A 
HETATM    6  C9  UNL     1     -34.942   4.830   4.430  1.00 20.00     0.061 A 
ENDBRANCH   1   2
BRANCH   1   7
HETATM    7  C10 UNL     1     -32.534   7.520   2.947  1.00 20.00     0.034 A 
HETATM    8  C6  UNL     1     -33.240   8.832   2.717  1.00 20.00    -0.018 A 
HETATM    9  C1  UNL     1     -32.705   9.450   1.655  1.00 20.00    -0.004 A 
HETATM   10  C2  UNL     1     -31.646   8.642   1.109  1.00 20.00    -0.004 A 
HETATM   11  C7  UNL     1     -31.519   7.519   1.831  1.00 20.00    -0.018 A 
ENDBRANCH   1   7
TORSDOF 2
ENDMDL
MODEL 7
REMARK VINA RESULT:      -4.9     10.041     11.317
REMARK  2 active torsions:
REMARK  status: ('A' for Active; 'I' for Inactive)
REMARK    1  A    between atoms: C8_8  and  C11_11 
REMARK    2  A    between atoms: C10_10  and  C11_11 
ROOT
HETATM    1  C11 UNL     1     -33.119  15.963  -3.088  1.00 20.00     0.046 C 
ENDROOT
BRANCH   1   2
HETATM    2  C8  UNL     1     -33.811  14.995  -3.973  1.00 20.00    -0.076 A 
HETATM    3  C4  UNL     1     -34.000  13.681  -3.781  1.00 20.00     0.003 A 
HETATM    4  C3  UNL     1     -34.724  13.131  -4.897  1.00 20.00    -0.003 A 
HETATM    5  C5  UNL     1     -34.985  14.100  -5.785  1.00 20.00    -0.022 A 
HETATM    6  C9  UNL     1     -34.427  15.402  -5.285  1.00 20.00     0.061 A 
ENDBRANCH   1   2
BRANCH   1   7
HETATM    7  C10 UNL     1     -34.107  16.937  -2.474  1.00 20.00     0.034 A 
HETATM    8  C6  UNL     1     -33.421  18.065  -1.745  1.00 20.00    -0.018 A 
HETATM    9  C1  UNL     1     -33.792  18.059  -0.458  1.00 20.00    -0.004 A 
HETATM   10  C2  UNL     1     -34.712  16.977  -0.225  1.00 20.00    -0.004 A 
HETATM   11  C7  UNL     1     -34.917  16.307  -1.367  1.00 20.00    -0.018 A 
ENDBRANCH   1   7
TORSDOF 2
ENDMDL
MODEL 8
REMARK VINA RESULT:      -4.8      1.087      4.872
REMARK  2 active torsions:
REMARK  status: ('A' for Active; 'I' for Inactive)
REMARK    1  A    between atoms: C8_8  and  C11_11 
REMARK    2  A    between atoms: C10_10  and  C11_11 
ROOT
HETATM    1  C11 UNL     1     -34.353   6.628   3.342  1.00 20.00     0.046 C 
ENDROOT
BRANCH   1   2
HETATM    2  C8  UNL     1     -34.546   5.718   4.498  1.00 20.00    -0.076 A 
HETATM    3  C4  UNL     1     -34.999   4.455   4.494  1.00 20.00     0.003 A 
HETATM    4  C3  UNL     1     -35.026   3.950   5.841  1.00 20.00    -0.003 A 
HETATM    5  C5  UNL     1     -34.591   4.897   6.685  1.00 20.00    -0.022 A 
HETATM    6  C9  UNL     1     -34.236   6.134   5.911  1.00 20.00     0.061 A 
ENDBRANCH   1   2
BRANCH   1   7
HETATM    7  C10 UNL     1     -32.923   6.564   2.838  1.00 20.00     0.034 A 
HETATM    8  C6  UNL     1     -31.920   6.866   3.922  1.00 20.00    -0.018 A 
HETATM    9  C1  UNL     1     -31.190   7.934   3.573  1.00 20.00    -0.004 A 
HETATM   10  C2  UNL     1     -31.623   8.416   2.287  1.00 20.00    -0.004 A 
HETATM   11  C7  UNL     1     -32.623   7.648   1.832  1.00 20.00    -0.018 A 
ENDBRANCH   1   7
TORSDOF 2
ENDMDL
MODEL 9
REMARK VINA RESULT:      -4.5     10.131     11.698
REMARK  2 active torsions:
REMARK  status: ('A' for Active; 'I' for Inactive)
REMARK    1  A    between atoms: C8_8  and  C11_11 
REMARK    2  A    between atoms: C10_10  and  C11_11 
ROOT
HETATM    1  C11 UNL     1     -34.826  15.796  -1.997  1.00 20.00     0.046 C 
ENDROOT
BRANCH   1   2
HETATM    2  C8  UNL     1     -34.844  14.865  -3.152  1.00 20.00    -0.076 A 
HETATM    3  C4  UNL     1     -33.872  14.042  -3.571  1.00 20.00     0.003 A 
HETATM    4  C3  UNL     1     -34.321  13.320  -4.732  1.00 20.00    -0.003 A 
HETATM    5  C5  UNL     1     -35.572  13.692  -5.038  1.00 20.00    -0.022 A 
HETATM    6  C9  UNL     1     -36.041  14.725  -4.054  1.00 20.00     0.061 A 
ENDBRANCH   1   2
BRANCH   1   7
HETATM    7  C10 UNL     1     -33.633  16.731  -2.076  1.00 20.00     0.034 A 
HETATM    8  C6  UNL     1     -33.555  17.660  -0.890  1.00 20.00    -0.018 A 
HETATM    9  C1  UNL     1     -33.615  18.931  -1.310  1.00 20.00    -0.004 A 
HETATM   10  C2  UNL     1     -33.734  18.960  -2.745  1.00 20.00    -0.004 A 
HETATM   11  C7  UNL     1     -33.748  17.707  -3.221  1.00 20.00    -0.018 A 
ENDBRANCH   1   7
TORSDOF 2
ENDMDL
