MODEL 1
REMARK VINA RESULT:      -4.4      0.000      0.000
REMARK  3 active torsions:
REMARK  status: ('A' for Active; 'I' for Inactive)
REMARK    1  A    between atoms: C4_4  and  C7_7 
REMARK    2  A    between atoms: C6_6  and  C7_7 
REMARK    3  A    between atoms: C7_7  and  O9_9 
ROOT
HETATM    1  C1  UNL     1     -34.879   4.433   4.694  1.00 20.00     0.035 C 
HETATM    2  C2  UNL     1     -35.156   4.458   6.183  1.00 20.00     0.168 C 
HETATM    3  C3  UNL     1     -33.907   6.348   5.638  1.00 20.00     0.174 C 
HETATM    4  C4  UNL     1     -34.662   5.901   4.399  1.00 20.00     0.040 C 
HETATM    5  O8  UNL     1     -34.408   5.556   6.727  1.00 20.00    -0.391 OA
ENDROOT
BRANCH   4   6
HETATM    6  C7  UNL     1     -33.923   6.171   3.102  1.00 20.00     0.124 C 
BRANCH   6   7
HETATM    7  C6  UNL     1     -32.450   6.511   3.356  1.00 20.00     0.027 C 
HETATM    8  C5  UNL     1     -31.986   7.724   2.560  1.00 20.00     0.007 C 
ENDBRANCH   6   7
BRANCH   6   9
HETATM    9  O9  UNL     1     -33.993   5.011   2.274  1.00 20.00    -0.395 OA
HETATM   10  H23 UNL     1     -34.240   4.275   2.853  1.00 20.00     0.210 HD
ENDBRANCH   6   9
ENDBRANCH   4   6
TORSDOF 3
ENDMDL
MODEL 2
REMARK VINA RESULT:      -4.0      1.041      1.159
REMARK  3 active torsions:
REMARK  status: ('A' for Active; 'I' for Inactive)
REMARK    1  A    between atoms: C4_4  and  C7_7 
REMARK    2  A    between atoms: C6_6  and  C7_7 
REMARK    3  A    between atoms: C7_7  and  O9_9 
ROOT
HETATM    1  C1  UNL     1     -34.573   4.957   4.138  1.00 20.00     0.035 C 
HETATM    2  C2  UNL     1     -35.170   4.996   5.530  1.00 20.00     0.168 C 
HETATM    3  C3  UNL     1     -33.460   6.575   5.421  1.00 20.00     0.174 C 
HETATM    4  C4  UNL     1     -33.990   6.348   4.016  1.00 20.00     0.040 C 
HETATM    5  O8  UNL     1     -34.352   5.881   6.309  1.00 20.00    -0.391 OA
ENDROOT
BRANCH   4   6
HETATM    6  C7  UNL     1     -32.935   6.487   2.935  1.00 20.00     0.124 C 
BRANCH   6   7
HETATM    7  C6  UNL     1     -32.212   7.835   3.028  1.00 20.00     0.027 C 
HETATM    8  C5  UNL     1     -32.029   8.493   1.666  1.00 20.00     0.007 C 
ENDBRANCH   6   7
BRANCH   6   9
HETATM    9  O9  UNL     1     -31.977   5.439   3.080  1.00 20.00    -0.395 OA
HETATM   10  H23 UNL     1     -31.978   4.949   2.244  1.00 20.00     0.210 HD
ENDBRANCH   6   9
ENDBRANCH   4   6
TORSDOF 3
ENDMDL
MODEL 3
REMARK VINA RESULT:      -4.0     11.613     12.512
REMARK  3 active torsions:
REMARK  status: ('A' for Active; 'I' for Inactive)
REMARK    1  A    between atoms: C4_4  and  C7_7 
REMARK    2  A    between atoms: C6_6  and  C7_7 
REMARK    3  A    between atoms: C7_7  and  O9_9 
ROOT
HETATM    1  C1  UNL     1     -35.548  14.650  -4.015  1.00 20.00     0.035 C 
HETATM    2  C2  UNL     1     -35.126  13.224  -4.302  1.00 20.00     0.168 C 
HETATM    3  C3  UNL     1     -33.235  14.441  -3.691  1.00 20.00     0.174 C 
HETATM    4  C4  UNL     1     -34.452  15.112  -3.080  1.00 20.00     0.040 C 
HETATM    5  O8  UNL     1     -33.692  13.196  -4.244  1.00 20.00    -0.391 OA
ENDROOT
BRANCH   4   6
HETATM    6  C7  UNL     1     -34.327  16.619  -2.967  1.00 20.00     0.124 C 
BRANCH   6   7
HETATM    7  C6  UNL     1     -33.744  17.032  -1.611  1.00 20.00     0.027 C 
HETATM    8  C5  UNL     1     -34.727  16.824  -0.466  1.00 20.00     0.007 C 
ENDBRANCH   6   7
BRANCH   6   9
HETATM    9  O9  UNL     1     -33.469  17.096  -4.003  1.00 20.00    -0.395 OA
HETATM   10  H23 UNL     1     -33.573  18.059  -4.024  1.00 20.00     0.210 HD
ENDBRANCH   6   9
ENDBRANCH   4   6
TORSDOF 3
ENDMDL
MODEL 4
REMARK VINA RESULT:      -4.0     11.424     13.267
REMARK  3 active torsions:
REMARK  status: ('A' for Active; 'I' for Inactive)
REMARK    1  A    between atoms: C4_4  and  C7_7 
REMARK    2  A    between atoms: C6_6  and  C7_7 
REMARK    3  A    between atoms: C7_7  and  O9_9 
ROOT
HETATM    1  C1  UNL     1     -35.179  14.409  -6.929  1.00 20.00     0.035 C 
HETATM    2  C2  UNL     1     -36.236  15.453  -7.222  1.00 20.00     0.168 C 
HETATM    3  C3  UNL     1     -36.454  14.792  -4.999  1.00 20.00     0.174 C 
HETATM    4  C4  UNL     1     -35.020  14.546  -5.431  1.00 20.00     0.040 C 
HETATM    5  O8  UNL     1     -37.079  15.528  -6.062  1.00 20.00    -0.391 OA
ENDROOT
BRANCH   4   6
HETATM    6  C7  UNL     1     -34.376  13.346  -4.762  1.00 20.00     0.124 C 
BRANCH   6   7
HETATM    7  C6  UNL     1     -33.347  13.775  -3.711  1.00 20.00     0.027 C 
HETATM    8  C5  UNL     1     -33.038  15.266  -3.774  1.00 20.00     0.007 C 
ENDBRANCH   6   7
BRANCH   6   9
HETATM    9  O9  UNL     1     -35.389  12.568  -4.126  1.00 20.00    -0.395 OA
HETATM   10  H23 UNL     1     -35.471  11.750  -4.639  1.00 20.00     0.210 HD
ENDBRANCH   6   9
ENDBRANCH   4   6
TORSDOF 3
ENDMDL
MODEL 5
REMARK VINA RESULT:      -4.0     11.776     12.629
REMARK  3 active torsions:
REMARK  status: ('A' for Active; 'I' for Inactive)
REMARK    1  A    between atoms: C4_4  and  C7_7 
REMARK    2  A    between atoms: C6_6  and  C7_7 
REMARK    3  A    between atoms: C7_7  and  O9_9 
ROOT
HETATM    1  C1  UNL     1     -33.731  15.400  -3.315  1.00 20.00     0.035 C 
HETATM    2  C2  UNL     1     -33.855  16.489  -2.269  1.00 20.00     0.168 C 
HETATM    3  C3  UNL     1     -35.990  15.966  -3.041  1.00 20.00     0.174 C 
HETATM    4  C4  UNL     1     -35.098  14.755  -3.250  1.00 20.00     0.040 C 
HETATM    5  O8  UNL     1     -35.230  16.902  -2.261  1.00 20.00    -0.391 OA
ENDROOT
BRANCH   4   6
HETATM    6  C7  UNL     1     -35.457  13.935  -4.475  1.00 20.00     0.124 C 
BRANCH   6   7
HETATM    7  C6  UNL     1     -34.532  14.254  -5.654  1.00 20.00     0.027 C 
HETATM    8  C5  UNL     1     -35.297  14.449  -6.957  1.00 20.00     0.007 C 
ENDBRANCH   6   7
BRANCH   6   9
HETATM    9  O9  UNL     1     -35.339  12.548  -4.158  1.00 20.00    -0.395 OA
HETATM   10  H23 UNL     1     -34.615  12.202  -4.702  1.00 20.00     0.210 HD
ENDBRANCH   6   9
ENDBRANCH   4   6
TORSDOF 3
ENDMDL
MODEL 6
REMARK VINA RESULT:      -3.9     12.087     12.970
REMARK  3 active torsions:
REMARK  status: ('A' for Active; 'I' for Inactive)
REMARK    1  A    between atoms: C4_4  and  C7_7 
REMARK    2  A    between atoms: C6_6  and  C7_7 
REMARK    3  A    between atoms: C7_7  and  O9_9 
ROOT
HETATM    1  C1  UNL     1     -34.445  16.268  -1.668  1.00 20.00     0.035 C 
HETATM    2  C2  UNL     1     -35.427  17.421  -1.662  1.00 20.00     0.168 C 
HETATM    3  C3  UNL     1     -34.349  17.386  -3.728  1.00 20.00     0.174 C 
HETATM    4  C4  UNL     1     -34.316  15.983  -3.148  1.00 20.00     0.040 C 
HETATM    5  O8  UNL     1     -35.211  18.157  -2.875  1.00 20.00    -0.391 OA
ENDROOT
BRANCH   4   6
HETATM    6  C7  UNL     1     -33.075  15.196  -3.523  1.00 20.00     0.124 C 
BRANCH   6   7
HETATM    7  C6  UNL     1     -33.406  13.724  -3.795  1.00 20.00     0.027 C 
HETATM    8  C5  UNL     1     -34.873  13.512  -4.145  1.00 20.00     0.007 C 
ENDBRANCH   6   7
BRANCH   6   9
HETATM    9  O9  UNL     1     -32.499  15.764  -4.699  1.00 20.00    -0.395 OA
HETATM   10  H23 UNL     1     -32.615  16.724  -4.625  1.00 20.00     0.210 HD
ENDBRANCH   6   9
ENDBRANCH   4   6
TORSDOF 3
ENDMDL
MODEL 7
REMARK VINA RESULT:      -3.8     11.712     13.571
REMARK  3 active torsions:
REMARK  status: ('A' for Active; 'I' for Inactive)
REMARK    1  A    between atoms: C4_4  and  C7_7 
REMARK    2  A    between atoms: C6_6  and  C7_7 
REMARK    3  A    between atoms: C7_7  and  O9_9 
ROOT
HETATM    1  C1  UNL     1     -36.089  15.538  -5.210  1.00 20.00     0.035 C 
HETATM    2  C2  UNL     1     -36.349  16.307  -6.488  1.00 20.00     0.168 C 
HETATM    3  C3  UNL     1     -34.502  14.927  -6.825  1.00 20.00     0.174 C 
HETATM    4  C4  UNL     1     -35.359  14.319  -5.729  1.00 20.00     0.040 C 
HETATM    5  O8  UNL     1     -35.261  16.015  -7.378  1.00 20.00    -0.391 OA
ENDROOT
BRANCH   4   6
HETATM    6  C7  UNL     1     -34.563  13.575  -4.673  1.00 20.00     0.124 C 
BRANCH   6   7
HETATM    7  C6  UNL     1     -34.160  14.500  -3.520  1.00 20.00     0.027 C 
HETATM    8  C5  UNL     1     -32.707  14.948  -3.615  1.00 20.00     0.007 C 
ENDBRANCH   6   7
BRANCH   6   9
HETATM    9  O9  UNL     1     -35.359  12.510  -4.154  1.00 20.00    -0.395 OA
HETATM   10  H23 UNL     1     -36.269  12.839  -4.117  1.00 20.00     0.210 HD
ENDBRANCH   6   9
ENDBRANCH   4   6
TORSDOF 3
ENDMDL
MODEL 8
REMARK VINA RESULT:      -3.7      1.766      2.593
REMARK  3 active torsions:
REMARK  status: ('A' for Active; 'I' for Inactive)
REMARK    1  A    between atoms: C4_4  and  C7_7 
REMARK    2  A    between atoms: C6_6  and  C7_7 
REMARK    3  A    between atoms: C7_7  and  O9_9 
ROOT
HETATM    1  C1  UNL     1     -33.522   6.451   4.957  1.00 20.00     0.035 C 
HETATM    2  C2  UNL     1     -34.670   5.468   5.048  1.00 20.00     0.168 C 
HETATM    3  C3  UNL     1     -34.027   5.641   2.815  1.00 20.00     0.174 C 
HETATM    4  C4  UNL     1     -32.837   6.006   3.684  1.00 20.00     0.040 C 
HETATM    5  O8  UNL     1     -35.037   5.131   3.702  1.00 20.00    -0.391 OA
ENDROOT
BRANCH   4   6
HETATM    6  C7  UNL     1     -31.928   7.053   3.068  1.00 20.00     0.124 C 
BRANCH   6   7
HETATM    7  C6  UNL     1     -32.728   8.091   2.274  1.00 20.00     0.027 C 
HETATM    8  C5  UNL     1     -31.908   8.728   1.159  1.00 20.00     0.007 C 
ENDBRANCH   6   7
BRANCH   6   9
HETATM    9  O9  UNL     1     -31.211   7.718   4.107  1.00 20.00    -0.395 OA
HETATM   10  H23 UNL     1     -31.268   7.148   4.889  1.00 20.00     0.210 HD
ENDBRANCH   6   9
ENDBRANCH   4   6
TORSDOF 3
ENDMDL
MODEL 9
REMARK VINA RESULT:      -3.7     12.571     13.937
REMARK  3 active torsions:
REMARK  status: ('A' for Active; 'I' for Inactive)
REMARK    1  A    between atoms: C4_4  and  C7_7 
REMARK    2  A    between atoms: C6_6  and  C7_7 
REMARK    3  A    between atoms: C7_7  and  O9_9 
ROOT
HETATM    1  C1  UNL     1     -34.145  16.057  -6.790  1.00 20.00     0.035 C 
HETATM    2  C2  UNL     1     -34.994  15.138  -7.644  1.00 20.00     0.168 C 
HETATM    3  C3  UNL     1     -34.735  14.158  -5.547  1.00 20.00     0.174 C 
HETATM    4  C4  UNL     1     -34.573  15.660  -5.394  1.00 20.00     0.040 C 
HETATM    5  O8  UNL     1     -35.188  13.932  -6.891  1.00 20.00    -0.391 OA
ENDROOT
BRANCH   4   6
HETATM    6  C7  UNL     1     -33.596  16.063  -4.306  1.00 20.00     0.124 C 
BRANCH   6   7
HETATM    7  C6  UNL     1     -33.915  15.363  -2.980  1.00 20.00     0.027 C 
HETATM    8  C5  UNL     1     -34.934  16.129  -2.148  1.00 20.00     0.007 C 
ENDBRANCH   6   7
BRANCH   6   9
HETATM    9  O9  UNL     1     -32.275  15.707  -4.710  1.00 20.00    -0.395 OA
HETATM   10  H23 UNL     1     -31.745  16.517  -4.661  1.00 20.00     0.210 HD
ENDBRANCH   6   9
ENDBRANCH   4   6
TORSDOF 3
ENDMDL
