MODEL 1
REMARK VINA RESULT:      -4.6      0.000      0.000
REMARK  1 active torsions:
REMARK  status: ('A' for Active; 'I' for Inactive)
REMARK    1  A    between atoms: C1_1  and  C4_4 
ROOT
HETATM    1  C1  UNL     1     -33.478   6.257   4.409  1.00 20.00     0.172 C 
HETATM    2  C2  UNL     1     -34.553   5.844   6.350  1.00 20.00     0.160 C 
HETATM    3  C3  UNL     1     -35.120   4.720   5.495  1.00 20.00     0.103 C 
HETATM    4  N5  UNL     1     -33.378   6.443   5.683  1.00 20.00    -0.278 NA
HETATM    5  S9  UNL     1     -34.818   5.309   3.819  1.00 20.00    -0.104 SA
ENDROOT
BRANCH   1   6
HETATM    6  C4  UNL     1     -32.490   6.776   3.421  1.00 20.00     0.440 C 
HETATM    7  F6  UNL     1     -31.489   7.444   4.033  1.00 20.00    -0.164 F 
HETATM    8  F7  UNL     1     -31.935   5.771   2.709  1.00 20.00    -0.164 F 
HETATM    9  F8  UNL     1     -33.070   7.625   2.543  1.00 20.00    -0.164 F 
ENDBRANCH   1   6
TORSDOF 1
ENDMDL
MODEL 2
REMARK VINA RESULT:      -4.6      0.002      1.258
REMARK  1 active torsions:
REMARK  status: ('A' for Active; 'I' for Inactive)
REMARK    1  A    between atoms: C1_1  and  C4_4 
ROOT
HETATM    1  C1  UNL     1     -33.478   6.257   4.409  1.00 20.00     0.172 C 
HETATM    2  C2  UNL     1     -34.553   5.844   6.350  1.00 20.00     0.160 C 
HETATM    3  C3  UNL     1     -35.120   4.720   5.496  1.00 20.00     0.103 C 
HETATM    4  N5  UNL     1     -33.379   6.444   5.683  1.00 20.00    -0.278 NA
HETATM    5  S9  UNL     1     -34.817   5.307   3.819  1.00 20.00    -0.104 SA
ENDROOT
BRANCH   1   6
HETATM    6  C4  UNL     1     -32.490   6.775   3.420  1.00 20.00     0.440 C 
HETATM    7  F6  UNL     1     -31.936   5.769   2.709  1.00 20.00    -0.164 F 
HETATM    8  F7  UNL     1     -33.071   7.622   2.543  1.00 20.00    -0.164 F 
HETATM    9  F8  UNL     1     -31.487   7.444   4.030  1.00 20.00    -0.164 F 
ENDBRANCH   1   6
TORSDOF 1
ENDMDL
MODEL 3
REMARK VINA RESULT:      -3.9      3.222      3.918
REMARK  1 active torsions:
REMARK  status: ('A' for Active; 'I' for Inactive)
REMARK    1  A    between atoms: C1_1  and  C4_4 
ROOT
HETATM    1  C1  UNL     1     -34.281   5.469   4.886  1.00 20.00     0.172 C 
HETATM    2  C2  UNL     1     -34.310   5.461   2.629  1.00 20.00     0.160 C 
HETATM    3  C3  UNL     1     -32.954   6.108   2.869  1.00 20.00     0.103 C 
HETATM    4  N5  UNL     1     -34.809   4.854   3.880  1.00 20.00    -0.278 NA
HETATM    5  S9  UNL     1     -33.096   6.708   4.562  1.00 20.00    -0.104 SA
ENDROOT
BRANCH   1   6
HETATM    6  C4  UNL     1     -34.599   5.151   6.307  1.00 20.00     0.440 C 
HETATM    7  F6  UNL     1     -34.780   6.276   7.032  1.00 20.00    -0.164 F 
HETATM    8  F7  UNL     1     -35.728   4.416   6.405  1.00 20.00    -0.164 F 
HETATM    9  F8  UNL     1     -33.603   4.447   6.890  1.00 20.00    -0.164 F 
ENDBRANCH   1   6
TORSDOF 1
ENDMDL
MODEL 4
REMARK VINA RESULT:      -3.8     11.851     12.968
REMARK  1 active torsions:
REMARK  status: ('A' for Active; 'I' for Inactive)
REMARK    1  A    between atoms: C1_1  and  C4_4 
ROOT
HETATM    1  C1  UNL     1     -33.838  15.082  -4.848  1.00 20.00     0.172 C 
HETATM    2  C2  UNL     1     -33.472  17.254  -5.337  1.00 20.00     0.160 C 
HETATM    3  C3  UNL     1     -34.584  16.949  -6.330  1.00 20.00     0.103 C 
HETATM    4  N5  UNL     1     -33.379  16.173  -4.334  1.00 20.00    -0.278 NA
HETATM    5  S9  UNL     1     -34.523  15.152  -6.451  1.00 20.00    -0.104 SA
ENDROOT
BRANCH   1   6
HETATM    6  C4  UNL     1     -33.852  13.775  -4.131  1.00 20.00     0.440 C 
HETATM    7  F6  UNL     1     -34.707  13.798  -3.086  1.00 20.00    -0.164 F 
HETATM    8  F7  UNL     1     -34.235  12.770  -4.949  1.00 20.00    -0.164 F 
HETATM    9  F8  UNL     1     -32.628  13.464  -3.650  1.00 20.00    -0.164 F 
ENDBRANCH   1   6
TORSDOF 1
ENDMDL
MODEL 5
REMARK VINA RESULT:      -3.8     11.861     12.988
REMARK  1 active torsions:
REMARK  status: ('A' for Active; 'I' for Inactive)
REMARK    1  A    between atoms: C1_1  and  C4_4 
ROOT
HETATM    1  C1  UNL     1     -33.840  15.091  -4.854  1.00 20.00     0.172 C 
HETATM    2  C2  UNL     1     -33.479  17.263  -5.345  1.00 20.00     0.160 C 
HETATM    3  C3  UNL     1     -34.587  16.954  -6.340  1.00 20.00     0.103 C 
HETATM    4  N5  UNL     1     -33.385  16.185  -4.340  1.00 20.00    -0.278 NA
HETATM    5  S9  UNL     1     -34.520  15.157  -6.459  1.00 20.00    -0.104 SA
ENDROOT
BRANCH   1   6
HETATM    6  C4  UNL     1     -33.852  13.785  -4.135  1.00 20.00     0.440 C 
HETATM    7  F6  UNL     1     -34.231  12.779  -4.954  1.00 20.00    -0.164 F 
HETATM    8  F7  UNL     1     -32.628  13.479  -3.653  1.00 20.00    -0.164 F 
HETATM    9  F8  UNL     1     -34.709  13.804  -3.090  1.00 20.00    -0.164 F 
ENDBRANCH   1   6
TORSDOF 1
ENDMDL
MODEL 6
REMARK VINA RESULT:      -3.8     11.897     12.966
REMARK  1 active torsions:
REMARK  status: ('A' for Active; 'I' for Inactive)
REMARK    1  A    between atoms: C1_1  and  C4_4 
ROOT
HETATM    1  C1  UNL     1     -34.197  14.676  -5.103  1.00 20.00     0.172 C 
HETATM    2  C2  UNL     1     -35.478  14.368  -6.935  1.00 20.00     0.160 C 
HETATM    3  C3  UNL     1     -34.599  15.509  -7.424  1.00 20.00     0.103 C 
HETATM    4  N5  UNL     1     -34.910  13.782  -5.703  1.00 20.00    -0.278 NA
HETATM    5  S9  UNL     1     -33.986  16.221  -5.886  1.00 20.00    -0.104 SA
ENDROOT
BRANCH   1   6
HETATM    6  C4  UNL     1     -33.513  14.447  -3.799  1.00 20.00     0.440 C 
HETATM    7  F6  UNL     1     -32.927  13.230  -3.761  1.00 20.00    -0.164 F 
HETATM    8  F7  UNL     1     -32.552  15.370  -3.579  1.00 20.00    -0.164 F 
HETATM    9  F8  UNL     1     -34.384  14.512  -2.767  1.00 20.00    -0.164 F 
ENDBRANCH   1   6
TORSDOF 1
ENDMDL
MODEL 7
REMARK VINA RESULT:      -3.8      9.986     10.521
REMARK  1 active torsions:
REMARK  status: ('A' for Active; 'I' for Inactive)
REMARK    1  A    between atoms: C1_1  and  C4_4 
ROOT
HETATM    1  C1  UNL     1     -41.766   5.935  -1.500  1.00 20.00     0.172 C 
HETATM    2  C2  UNL     1     -42.999   6.370  -3.340  1.00 20.00     0.160 C 
HETATM    3  C3  UNL     1     -42.527   7.777  -3.006  1.00 20.00     0.103 C 
HETATM    4  N5  UNL     1     -42.214   5.378  -2.576  1.00 20.00    -0.278 NA
HETATM    5  S9  UNL     1     -42.068   7.638  -1.269  1.00 20.00    -0.104 SA
ENDROOT
BRANCH   1   6
HETATM    6  C4  UNL     1     -40.972   5.212  -0.466  1.00 20.00     0.440 C 
HETATM    7  F6  UNL     1     -40.225   6.068   0.264  1.00 20.00    -0.164 F 
HETATM    8  F7  UNL     1     -41.774   4.540   0.387  1.00 20.00    -0.164 F 
HETATM    9  F8  UNL     1     -40.132   4.315  -1.028  1.00 20.00    -0.164 F 
ENDBRANCH   1   6
TORSDOF 1
ENDMDL
MODEL 8
REMARK VINA RESULT:      -3.7     11.622     12.510
REMARK  1 active torsions:
REMARK  status: ('A' for Active; 'I' for Inactive)
REMARK    1  A    between atoms: C1_1  and  C4_4 
ROOT
HETATM    1  C1  UNL     1     -33.889  15.382  -3.894  1.00 20.00     0.172 C 
HETATM    2  C2  UNL     1     -33.643  17.597  -4.243  1.00 20.00     0.160 C 
HETATM    3  C3  UNL     1     -33.854  17.594  -2.737  1.00 20.00     0.103 C 
HETATM    4  N5  UNL     1     -33.364  16.226  -4.718  1.00 20.00    -0.278 NA
HETATM    5  S9  UNL     1     -34.650  16.003  -2.453  1.00 20.00    -0.104 SA
ENDROOT
BRANCH   1   6
HETATM    6  C4  UNL     1     -33.845  13.904  -4.088  1.00 20.00     0.440 C 
HETATM    7  F6  UNL     1     -34.820  13.289  -3.385  1.00 20.00    -0.164 F 
HETATM    8  F7  UNL     1     -34.008  13.574  -5.388  1.00 20.00    -0.164 F 
HETATM    9  F8  UNL     1     -32.663  13.388  -3.683  1.00 20.00    -0.164 F 
ENDBRANCH   1   6
TORSDOF 1
ENDMDL
MODEL 9
REMARK VINA RESULT:      -3.7     11.611     12.085
REMARK  1 active torsions:
REMARK  status: ('A' for Active; 'I' for Inactive)
REMARK    1  A    between atoms: C1_1  and  C4_4 
ROOT
HETATM    1  C1  UNL     1     -34.758  15.560  -2.837  1.00 20.00     0.172 C 
HETATM    2  C2  UNL     1     -35.844  14.158  -4.233  1.00 20.00     0.160 C 
HETATM    3  C3  UNL     1     -34.455  13.538  -4.272  1.00 20.00     0.103 C 
HETATM    4  N5  UNL     1     -35.939  15.116  -3.112  1.00 20.00    -0.278 NA
HETATM    5  S9  UNL     1     -33.403  14.889  -3.708  1.00 20.00    -0.104 SA
ENDROOT
BRANCH   1   6
HETATM    6  C4  UNL     1     -34.485  16.585  -1.789  1.00 20.00     0.440 C 
HETATM    7  F6  UNL     1     -34.842  16.140  -0.565  1.00 20.00    -0.164 F 
HETATM    8  F7  UNL     1     -33.173  16.902  -1.742  1.00 20.00    -0.164 F 
HETATM    9  F8  UNL     1     -35.172  17.725  -2.025  1.00 20.00    -0.164 F 
ENDBRANCH   1   6
TORSDOF 1
ENDMDL
