MODEL 1
REMARK VINA RESULT:      -5.1      0.000      0.000
REMARK  2 active torsions:
REMARK  status: ('A' for Active; 'I' for Inactive)
REMARK    1  A    between atoms: C2_2  and  C3_3 
REMARK    2  A    between atoms: C2_2  and  C4_4 
ROOT
HETATM    1  C2  UNL     1     -33.864   6.158   4.571  1.00 20.00     0.154 C 
ENDROOT
BRANCH   1   2
HETATM    2  C3  UNL     1     -34.788   4.945   4.620  1.00 20.00     0.174 C 
HETATM    3  C1  UNL     1     -35.008   4.458   6.041  1.00 20.00     0.045 C 
HETATM    4  F5  UNL     1     -36.000   5.298   4.107  1.00 20.00    -0.250 F 
ENDBRANCH   1   2
BRANCH   1   5
HETATM    5  C4  UNL     1     -33.081   6.222   3.276  1.00 20.00     0.390 C 
HETATM    6  F6  UNL     1     -33.678   5.472   2.324  1.00 20.00    -0.171 F 
HETATM    7  F7  UNL     1     -31.824   5.756   3.434  1.00 20.00    -0.171 F 
HETATM    8  F8  UNL     1     -33.003   7.487   2.812  1.00 20.00    -0.171 F 
ENDBRANCH   1   5
TORSDOF 2
ENDMDL
MODEL 2
REMARK VINA RESULT:      -5.1      0.040      1.338
REMARK  2 active torsions:
REMARK  status: ('A' for Active; 'I' for Inactive)
REMARK    1  A    between atoms: C2_2  and  C3_3 
REMARK    2  A    between atoms: C2_2  and  C4_4 
ROOT
HETATM    1  C2  UNL     1     -33.839   6.174   4.553  1.00 20.00     0.154 C 
ENDROOT
BRANCH   1   2
HETATM    2  C3  UNL     1     -34.777   4.972   4.600  1.00 20.00     0.174 C 
HETATM    3  C1  UNL     1     -35.009   4.489   6.021  1.00 20.00     0.045 C 
HETATM    4  F5  UNL     1     -35.983   5.338   4.082  1.00 20.00    -0.250 F 
ENDBRANCH   1   2
BRANCH   1   5
HETATM    5  C4  UNL     1     -33.057   6.233   3.257  1.00 20.00     0.390 C 
HETATM    6  F6  UNL     1     -31.800   5.773   3.443  1.00 20.00    -0.171 F 
HETATM    7  F7  UNL     1     -32.965   7.497   2.792  1.00 20.00    -0.171 F 
HETATM    8  F8  UNL     1     -33.634   5.476   2.300  1.00 20.00    -0.171 F 
ENDBRANCH   1   5
TORSDOF 2
ENDMDL
MODEL 3
REMARK VINA RESULT:      -5.1      1.363      3.431
REMARK  2 active torsions:
REMARK  status: ('A' for Active; 'I' for Inactive)
REMARK    1  A    between atoms: C2_2  and  C3_3 
REMARK    2  A    between atoms: C2_2  and  C4_4 
ROOT
HETATM    1  C2  UNL     1     -33.835   5.577   4.869  1.00 20.00     0.154 C 
ENDROOT
BRANCH   1   2
HETATM    2  C3  UNL     1     -33.729   6.138   3.454  1.00 20.00     0.174 C 
HETATM    3  C1  UNL     1     -32.346   6.693   3.167  1.00 20.00     0.045 C 
HETATM    4  F5  UNL     1     -33.970   5.133   2.567  1.00 20.00    -0.250 F 
ENDBRANCH   1   2
BRANCH   1   5
HETATM    5  C4  UNL     1     -35.117   4.796   5.075  1.00 20.00     0.390 C 
HETATM    6  F6  UNL     1     -35.540   4.912   6.353  1.00 20.00    -0.171 F 
HETATM    7  F7  UNL     1     -34.941   3.482   4.821  1.00 20.00    -0.171 F 
HETATM    8  F8  UNL     1     -36.103   5.249   4.274  1.00 20.00    -0.171 F 
ENDBRANCH   1   5
TORSDOF 2
ENDMDL
MODEL 4
REMARK VINA RESULT:      -5.0      1.442      3.498
REMARK  2 active torsions:
REMARK  status: ('A' for Active; 'I' for Inactive)
REMARK    1  A    between atoms: C2_2  and  C3_3 
REMARK    2  A    between atoms: C2_2  and  C4_4 
ROOT
HETATM    1  C2  UNL     1     -33.771   5.491   4.891  1.00 20.00     0.154 C 
ENDROOT
BRANCH   1   2
HETATM    2  C3  UNL     1     -33.757   6.039   3.468  1.00 20.00     0.174 C 
HETATM    3  C1  UNL     1     -32.376   6.519   3.060  1.00 20.00     0.045 C 
HETATM    4  F5  UNL     1     -34.123   5.044   2.613  1.00 20.00    -0.250 F 
ENDBRANCH   1   2
BRANCH   1   5
HETATM    5  C4  UNL     1     -35.069   4.778   5.212  1.00 20.00     0.390 C 
HETATM    6  F6  UNL     1     -34.929   3.445   5.047  1.00 20.00    -0.171 F 
HETATM    7  F7  UNL     1     -36.071   5.187   4.404  1.00 20.00    -0.171 F 
HETATM    8  F8  UNL     1     -35.447   4.996   6.489  1.00 20.00    -0.171 F 
ENDBRANCH   1   5
TORSDOF 2
ENDMDL
MODEL 5
REMARK VINA RESULT:      -4.8      2.130      3.592
REMARK  2 active torsions:
REMARK  status: ('A' for Active; 'I' for Inactive)
REMARK    1  A    between atoms: C2_2  and  C3_3 
REMARK    2  A    between atoms: C2_2  and  C4_4 
ROOT
HETATM    1  C2  UNL     1     -34.965   4.446   4.734  1.00 20.00     0.154 C 
ENDROOT
BRANCH   1   2
HETATM    2  C3  UNL     1     -34.875   5.744   3.937  1.00 20.00     0.174 C 
HETATM    3  C1  UNL     1     -33.524   5.902   3.262  1.00 20.00     0.045 C 
HETATM    4  F5  UNL     1     -35.829   5.726   2.964  1.00 20.00    -0.250 F 
ENDBRANCH   1   2
BRANCH   1   5
HETATM    5  C4  UNL     1     -34.804   4.682   6.222  1.00 20.00     0.390 C 
HETATM    6  F6  UNL     1     -33.653   4.131   6.665  1.00 20.00    -0.171 F 
HETATM    7  F7  UNL     1     -35.817   4.129   6.922  1.00 20.00    -0.171 F 
HETATM    8  F8  UNL     1     -34.766   5.999   6.509  1.00 20.00    -0.171 F 
ENDBRANCH   1   5
TORSDOF 2
ENDMDL
MODEL 6
REMARK VINA RESULT:      -4.7      1.726      2.756
REMARK  2 active torsions:
REMARK  status: ('A' for Active; 'I' for Inactive)
REMARK    1  A    between atoms: C2_2  and  C3_3 
REMARK    2  A    between atoms: C2_2  and  C4_4 
ROOT
HETATM    1  C2  UNL     1     -34.169   6.350   4.436  1.00 20.00     0.154 C 
ENDROOT
BRANCH   1   2
HETATM    2  C3  UNL     1     -34.016   5.969   5.905  1.00 20.00     0.174 C 
HETATM    3  C1  UNL     1     -33.550   7.141   6.749  1.00 20.00     0.045 C 
HETATM    4  F5  UNL     1     -35.228   5.568   6.380  1.00 20.00    -0.250 F 
ENDBRANCH   1   2
BRANCH   1   5
HETATM    5  C4  UNL     1     -34.934   5.302   3.654  1.00 20.00     0.390 C 
HETATM    6  F6  UNL     1     -34.354   5.092   2.452  1.00 20.00    -0.171 F 
HETATM    7  F7  UNL     1     -36.210   5.684   3.432  1.00 20.00    -0.171 F 
HETATM    8  F8  UNL     1     -34.960   4.122   4.308  1.00 20.00    -0.171 F 
ENDBRANCH   1   5
TORSDOF 2
ENDMDL
MODEL 7
REMARK VINA RESULT:      -4.6      1.416      3.525
REMARK  2 active torsions:
REMARK  status: ('A' for Active; 'I' for Inactive)
REMARK    1  A    between atoms: C2_2  and  C3_3 
REMARK    2  A    between atoms: C2_2  and  C4_4 
ROOT
HETATM    1  C2  UNL     1     -33.825   6.447   3.934  1.00 20.00     0.154 C 
ENDROOT
BRANCH   1   2
HETATM    2  C3  UNL     1     -32.664   6.470   2.944  1.00 20.00     0.174 C 
HETATM    3  C1  UNL     1     -32.090   7.865   2.776  1.00 20.00     0.045 C 
HETATM    4  F5  UNL     1     -31.672   5.664   3.416  1.00 20.00    -0.250 F 
ENDBRANCH   1   2
BRANCH   1   5
HETATM    5  C4  UNL     1     -34.815   5.344   3.622  1.00 20.00     0.390 C 
HETATM    6  F6  UNL     1     -34.491   4.732   2.462  1.00 20.00    -0.171 F 
HETATM    7  F7  UNL     1     -36.069   5.826   3.494  1.00 20.00    -0.171 F 
HETATM    8  F8  UNL     1     -34.826   4.405   4.592  1.00 20.00    -0.171 F 
ENDBRANCH   1   5
TORSDOF 2
ENDMDL
MODEL 8
REMARK VINA RESULT:      -4.6      2.089      3.691
REMARK  2 active torsions:
REMARK  status: ('A' for Active; 'I' for Inactive)
REMARK    1  A    between atoms: C2_2  and  C3_3 
REMARK    2  A    between atoms: C2_2  and  C4_4 
ROOT
HETATM    1  C2  UNL     1     -35.152   5.011   4.643  1.00 20.00     0.154 C 
ENDROOT
BRANCH   1   2
HETATM    2  C3  UNL     1     -34.034   5.793   3.961  1.00 20.00     0.174 C 
HETATM    3  C1  UNL     1     -33.837   5.359   2.520  1.00 20.00     0.045 C 
HETATM    4  F5  UNL     1     -34.365   7.114   3.957  1.00 20.00    -0.250 F 
ENDBRANCH   1   2
BRANCH   1   5
HETATM    5  C4  UNL     1     -34.844   4.734   6.101  1.00 20.00     0.390 C 
HETATM    6  F6  UNL     1     -34.722   5.892   6.786  1.00 20.00    -0.171 F 
HETATM    7  F7  UNL     1     -33.687   4.053   6.241  1.00 20.00    -0.171 F 
HETATM    8  F8  UNL     1     -35.826   4.014   6.683  1.00 20.00    -0.171 F 
ENDBRANCH   1   5
TORSDOF 2
ENDMDL
MODEL 9
REMARK VINA RESULT:      -4.2      1.543      3.433
REMARK  2 active torsions:
REMARK  status: ('A' for Active; 'I' for Inactive)
REMARK    1  A    between atoms: C2_2  and  C3_3 
REMARK    2  A    between atoms: C2_2  and  C4_4 
ROOT
HETATM    1  C2  UNL     1     -33.871   6.808   3.894  1.00 20.00     0.154 C 
ENDROOT
BRANCH   1   2
HETATM    2  C3  UNL     1     -32.453   6.848   3.335  1.00 20.00     0.174 C 
HETATM    3  C1  UNL     1     -32.318   7.850   2.203  1.00 20.00     0.045 C 
HETATM    4  F5  UNL     1     -31.601   7.224   4.329  1.00 20.00    -0.250 F 
ENDBRANCH   1   2
BRANCH   1   5
HETATM    5  C4  UNL     1     -34.576   5.508   3.565  1.00 20.00     0.390 C 
HETATM    6  F6  UNL     1     -35.898   5.718   3.390  1.00 20.00    -0.171 F 
HETATM    7  F7  UNL     1     -34.433   4.604   4.558  1.00 20.00    -0.171 F 
HETATM    8  F8  UNL     1     -34.093   4.962   2.430  1.00 20.00    -0.171 F 
ENDBRANCH   1   5
TORSDOF 2
ENDMDL
