MODEL 1
REMARK VINA RESULT:      -4.0      0.000      0.000
REMARK  1 active torsions:
REMARK  status: ('A' for Active; 'I' for Inactive)
REMARK    1  A    between atoms: C4_4  and  C6_6 
ROOT
HETATM    1  C1  UNL     1     -35.122  13.176  -4.460  1.00 20.00     0.135 A 
HETATM    2  C2  UNL     1     -35.987  14.176  -4.073  1.00 20.00     0.136 A 
HETATM    3  C3  UNL     1     -33.366  14.361  -3.597  1.00 20.00     0.144 A 
HETATM    4  C4  UNL     1     -34.232  15.362  -3.211  1.00 20.00     0.065 A 
HETATM    5  N7  UNL     1     -33.797  13.251  -4.228  1.00 20.00    -0.270 NA
HETATM    6  N8  UNL     1     -35.557  15.287  -3.442  1.00 20.00    -0.261 NA
ENDROOT
BRANCH   4   7
HETATM    7  C6  UNL     1     -33.721  16.574  -2.515  1.00 20.00     0.107 C 
HETATM    8  C5  UNL     1     -33.854  17.841  -3.318  1.00 20.00     0.029 C 
HETATM    9 BR9  UNL     1     -34.636  16.790  -0.791  1.00 20.00    -0.085 Br
ENDBRANCH   4   7
TORSDOF 1
ENDMDL
MODEL 2
REMARK VINA RESULT:      -3.8      1.196      1.249
REMARK  1 active torsions:
REMARK  status: ('A' for Active; 'I' for Inactive)
REMARK    1  A    between atoms: C4_4  and  C6_6 
ROOT
HETATM    1  C1  UNL     1     -34.793  13.215  -5.319  1.00 20.00     0.135 A 
HETATM    2  C2  UNL     1     -34.750  14.444  -5.940  1.00 20.00     0.136 A 
HETATM    3  C3  UNL     1     -34.098  14.178  -3.365  1.00 20.00     0.144 A 
HETATM    4  C4  UNL     1     -34.054  15.407  -3.986  1.00 20.00     0.065 A 
HETATM    5  N7  UNL     1     -34.469  13.060  -4.021  1.00 20.00    -0.270 NA
HETATM    6  N8  UNL     1     -34.379  15.562  -5.285  1.00 20.00    -0.261 NA
ENDROOT
BRANCH   4   7
HETATM    7  C6  UNL     1     -33.641  16.620  -3.230  1.00 20.00     0.107 C 
HETATM    8  C5  UNL     1     -33.903  17.912  -3.958  1.00 20.00     0.029 C 
HETATM    9 BR9  UNL     1     -34.538  16.656  -1.483  1.00 20.00    -0.085 Br
ENDBRANCH   4   7
TORSDOF 1
ENDMDL
MODEL 3
REMARK VINA RESULT:      -3.8      1.594      2.135
REMARK  1 active torsions:
REMARK  status: ('A' for Active; 'I' for Inactive)
REMARK    1  A    between atoms: C4_4  and  C6_6 
ROOT
HETATM    1  C1  UNL     1     -34.958  13.241  -4.473  1.00 20.00     0.135 A 
HETATM    2  C2  UNL     1     -33.802  13.822  -4.000  1.00 20.00     0.136 A 
HETATM    3  C3  UNL     1     -36.190  14.923  -3.533  1.00 20.00     0.144 A 
HETATM    4  C4  UNL     1     -35.034  15.504  -3.059  1.00 20.00     0.065 A 
HETATM    5  N7  UNL     1     -36.171  13.781  -4.249  1.00 20.00    -0.270 NA
HETATM    6  N8  UNL     1     -33.820  14.964  -3.283  1.00 20.00    -0.261 NA
ENDROOT
BRANCH   4   7
HETATM    7  C6  UNL     1     -35.092  16.766  -2.272  1.00 20.00     0.107 C 
HETATM    8  C5  UNL     1     -34.627  16.619  -0.847  1.00 20.00     0.029 C 
HETATM    9 BR9  UNL     1     -34.036  18.159  -3.167  1.00 20.00    -0.085 Br
ENDBRANCH   4   7
TORSDOF 1
ENDMDL
MODEL 4
REMARK VINA RESULT:      -3.7      2.995      3.782
REMARK  1 active torsions:
REMARK  status: ('A' for Active; 'I' for Inactive)
REMARK    1  A    between atoms: C4_4  and  C6_6 
ROOT
HETATM    1  C1  UNL     1     -34.042  13.663  -3.419  1.00 20.00     0.135 A 
HETATM    2  C2  UNL     1     -33.600  14.932  -3.722  1.00 20.00     0.136 A 
HETATM    3  C3  UNL     1     -34.858  13.439  -5.543  1.00 20.00     0.144 A 
HETATM    4  C4  UNL     1     -34.417  14.709  -5.846  1.00 20.00     0.065 A 
HETATM    5  N7  UNL     1     -34.678  12.894  -4.324  1.00 20.00    -0.270 NA
HETATM    6  N8  UNL     1     -33.780  15.478  -4.941  1.00 20.00    -0.261 NA
ENDROOT
BRANCH   4   7
HETATM    7  C6  UNL     1     -34.633  15.279  -7.204  1.00 20.00     0.107 C 
HETATM    8  C5  UNL     1     -35.834  14.717  -7.918  1.00 20.00     0.029 C 
HETATM    9 BR9  UNL     1     -34.791  17.233  -7.090  1.00 20.00    -0.085 Br
ENDBRANCH   4   7
TORSDOF 1
ENDMDL
MODEL 5
REMARK VINA RESULT:      -3.5      2.348      3.646
REMARK  1 active torsions:
REMARK  status: ('A' for Active; 'I' for Inactive)
REMARK    1  A    between atoms: C4_4  and  C6_6 
ROOT
HETATM    1  C1  UNL     1     -38.476  16.221  -3.510  1.00 20.00     0.135 A 
HETATM    2  C2  UNL     1     -38.447  14.877  -3.811  1.00 20.00     0.136 A 
HETATM    3  C3  UNL     1     -36.198  16.226  -3.307  1.00 20.00     0.144 A 
HETATM    4  C4  UNL     1     -36.169  14.881  -3.607  1.00 20.00     0.065 A 
HETATM    5  N7  UNL     1     -37.353  16.919  -3.253  1.00 20.00    -0.270 NA
HETATM    6  N8  UNL     1     -37.293  14.183  -3.865  1.00 20.00    -0.261 NA
ENDROOT
BRANCH   4   7
HETATM    7  C6  UNL     1     -34.875  14.147  -3.658  1.00 20.00     0.107 C 
HETATM    8  C5  UNL     1     -34.738  13.233  -4.846  1.00 20.00     0.029 C 
HETATM    9 BR9  UNL     1     -33.383  15.424  -3.634  1.00 20.00    -0.085 Br
ENDBRANCH   4   7
TORSDOF 1
ENDMDL
MODEL 6
REMARK VINA RESULT:      -3.5      2.450      3.213
REMARK  1 active torsions:
REMARK  status: ('A' for Active; 'I' for Inactive)
REMARK    1  A    between atoms: C4_4  and  C6_6 
ROOT
HETATM    1  C1  UNL     1     -38.757  15.443  -3.560  1.00 20.00     0.135 A 
HETATM    2  C2  UNL     1     -38.123  16.622  -3.234  1.00 20.00     0.136 A 
HETATM    3  C3  UNL     1     -36.727  14.432  -3.854  1.00 20.00     0.144 A 
HETATM    4  C4  UNL     1     -36.093  15.611  -3.529  1.00 20.00     0.065 A 
HETATM    5  N7  UNL     1     -38.071  14.328  -3.875  1.00 20.00    -0.270 NA
HETATM    6  N8  UNL     1     -36.779  16.727  -3.213  1.00 20.00    -0.261 NA
ENDROOT
BRANCH   4   7
HETATM    7  C6  UNL     1     -34.607  15.690  -3.516  1.00 20.00     0.107 C 
HETATM    8  C5  UNL     1     -34.037  16.273  -2.250  1.00 20.00     0.029 C 
HETATM    9 BR9  UNL     1     -33.842  13.906  -3.821  1.00 20.00    -0.085 Br
ENDBRANCH   4   7
TORSDOF 1
ENDMDL
MODEL 7
REMARK VINA RESULT:      -3.5      2.499      3.933
REMARK  1 active torsions:
REMARK  status: ('A' for Active; 'I' for Inactive)
REMARK    1  A    between atoms: C4_4  and  C6_6 
ROOT
HETATM    1  C1  UNL     1     -34.056  17.621  -2.202  1.00 20.00     0.135 A 
HETATM    2  C2  UNL     1     -34.511  16.392  -1.778  1.00 20.00     0.136 A 
HETATM    3  C3  UNL     1     -33.658  16.756  -4.282  1.00 20.00     0.144 A 
HETATM    4  C4  UNL     1     -34.112  15.526  -3.857  1.00 20.00     0.065 A 
HETATM    5  N7  UNL     1     -33.622  17.825  -3.461  1.00 20.00    -0.270 NA
HETATM    6  N8  UNL     1     -34.546  15.322  -2.597  1.00 20.00    -0.261 NA
ENDROOT
BRANCH   4   7
HETATM    7  C6  UNL     1     -34.138  14.368  -4.791  1.00 20.00     0.107 C 
HETATM    8  C5  UNL     1     -35.109  13.287  -4.396  1.00 20.00     0.029 C 
HETATM    9 BR9  UNL     1     -34.546  14.986  -6.610  1.00 20.00    -0.085 Br
ENDBRANCH   4   7
TORSDOF 1
ENDMDL
MODEL 8
REMARK VINA RESULT:      -3.4      2.968      3.556
REMARK  1 active torsions:
REMARK  status: ('A' for Active; 'I' for Inactive)
REMARK    1  A    between atoms: C4_4  and  C6_6 
ROOT
HETATM    1  C1  UNL     1     -38.669  14.948  -4.714  1.00 20.00     0.135 A 
HETATM    2  C2  UNL     1     -38.139  15.364  -5.915  1.00 20.00     0.136 A 
HETATM    3  C3  UNL     1     -36.585  14.320  -4.011  1.00 20.00     0.144 A 
HETATM    4  C4  UNL     1     -36.055  14.735  -5.213  1.00 20.00     0.065 A 
HETATM    5  N7  UNL     1     -37.902  14.419  -3.741  1.00 20.00    -0.270 NA
HETATM    6  N8  UNL     1     -36.822  15.265  -6.187  1.00 20.00    -0.261 NA
ENDROOT
BRANCH   4   7
HETATM    7  C6  UNL     1     -34.595  14.611  -5.477  1.00 20.00     0.107 C 
HETATM    8  C5  UNL     1     -33.937  15.902  -5.887  1.00 20.00     0.029 C 
HETATM    9 BR9  UNL     1     -33.690  13.885  -3.892  1.00 20.00    -0.085 Br
ENDBRANCH   4   7
TORSDOF 1
ENDMDL
MODEL 9
REMARK VINA RESULT:      -3.4      2.858      4.007
REMARK  1 active torsions:
REMARK  status: ('A' for Active; 'I' for Inactive)
REMARK    1  A    between atoms: C4_4  and  C6_6 
ROOT
HETATM    1  C1  UNL     1     -34.007  17.973  -0.548  1.00 20.00     0.135 A 
HETATM    2  C2  UNL     1     -33.547  18.545  -1.713  1.00 20.00     0.136 A 
HETATM    3  C3  UNL     1     -34.631  16.105  -1.711  1.00 20.00     0.144 A 
HETATM    4  C4  UNL     1     -34.172  16.679  -2.877  1.00 20.00     0.065 A 
HETATM    5  N7  UNL     1     -34.557  16.743  -0.526  1.00 20.00    -0.270 NA
HETATM    6  N8  UNL     1     -33.622  17.908  -2.899  1.00 20.00    -0.261 NA
ENDROOT
BRANCH   4   7
HETATM    7  C6  UNL     1     -34.270  15.944  -4.168  1.00 20.00     0.107 C 
HETATM    8  C5  UNL     1     -33.353  16.470  -5.241  1.00 20.00     0.029 C 
HETATM    9 BR9  UNL     1     -33.916  14.034  -3.879  1.00 20.00    -0.085 Br
ENDBRANCH   4   7
TORSDOF 1
ENDMDL
