MODEL 1
REMARK VINA RESULT:      -5.2      0.000      0.000
REMARK  2 active torsions:
REMARK  status: ('A' for Active; 'I' for Inactive)
REMARK    1  A    between atoms: C3_3  and  C6_6 
REMARK    2  A    between atoms: C4_4  and  C7_7 
ROOT
HETATM    1  C1  UNL     1     -31.987   7.894   2.377  1.00 20.00    -0.176 C 
HETATM    2  C2  UNL     1     -31.992   8.481   1.219  1.00 20.00     0.091 C 
HETATM    3  C3  UNL     1     -31.979   7.309   3.537  1.00 20.00     0.072 C 
ENDROOT
BRANCH   3   4
HETATM    4  C6  UNL     1     -32.778   6.111   3.748  1.00 20.00     0.017 A 
HETATM    5  C5  UNL     1     -33.975   5.870   2.874  1.00 20.00     0.022 A 
HETATM    6  C7  UNL     1     -34.172   6.254   4.318  1.00 20.00     0.092 A 
BRANCH   6   7
HETATM    7  C4  UNL     1     -34.628   5.222   5.230  1.00 20.00     0.177 C 
HETATM    8  O8  UNL     1     -34.491   5.488   6.456  1.00 20.00    -0.648 OA
HETATM    9  O9  UNL     1     -35.102   4.194   4.671  1.00 20.00    -0.648 OA
ENDBRANCH   6   7
ENDBRANCH   3   4
TORSDOF 2
ENDMDL
MODEL 2
REMARK VINA RESULT:      -5.2      0.207      1.098
REMARK  2 active torsions:
REMARK  status: ('A' for Active; 'I' for Inactive)
REMARK    1  A    between atoms: C3_3  and  C6_6 
REMARK    2  A    between atoms: C4_4  and  C7_7 
ROOT
HETATM    1  C1  UNL     1     -32.055   7.799   2.459  1.00 20.00    -0.176 C 
HETATM    2  C2  UNL     1     -32.038   8.430   1.325  1.00 20.00     0.091 C 
HETATM    3  C3  UNL     1     -32.070   7.171   3.596  1.00 20.00     0.072 C 
ENDROOT
BRANCH   3   4
HETATM    4  C6  UNL     1     -32.861   5.958   3.742  1.00 20.00     0.017 A 
HETATM    5  C5  UNL     1     -34.052   5.754   2.850  1.00 20.00     0.022 A 
HETATM    6  C7  UNL     1     -34.260   6.064   4.310  1.00 20.00     0.092 A 
BRANCH   6   7
HETATM    7  C4  UNL     1     -34.714   4.985   5.166  1.00 20.00     0.177 C 
HETATM    8  O8  UNL     1     -35.178   3.978   4.563  1.00 20.00    -0.648 OA
HETATM    9  O9  UNL     1     -34.585   5.201   6.404  1.00 20.00    -0.648 OA
ENDBRANCH   6   7
ENDBRANCH   3   4
TORSDOF 2
ENDMDL
MODEL 3
REMARK VINA RESULT:      -4.9     11.110     11.571
REMARK  2 active torsions:
REMARK  status: ('A' for Active; 'I' for Inactive)
REMARK    1  A    between atoms: C3_3  and  C6_6 
REMARK    2  A    between atoms: C4_4  and  C7_7 
ROOT
HETATM    1  C1  UNL     1     -34.426  16.896  -1.071  1.00 20.00    -0.176 C 
HETATM    2  C2  UNL     1     -34.794  17.253   0.121  1.00 20.00     0.091 C 
HETATM    3  C3  UNL     1     -34.056  16.543  -2.266  1.00 20.00     0.072 C 
ENDROOT
BRANCH   3   4
HETATM    4  C6  UNL     1     -34.198  15.157  -2.687  1.00 20.00     0.017 A 
HETATM    5  C5  UNL     1     -33.304  14.630  -3.772  1.00 20.00     0.022 A 
HETATM    6  C7  UNL     1     -34.765  14.866  -4.059  1.00 20.00     0.092 A 
BRANCH   6   7
HETATM    7  C4  UNL     1     -35.618  13.700  -4.193  1.00 20.00     0.177 C 
HETATM    8  O8  UNL     1     -35.031  12.641  -4.546  1.00 20.00    -0.648 OA
HETATM    9  O9  UNL     1     -36.838  13.905  -3.939  1.00 20.00    -0.648 OA
ENDBRANCH   6   7
ENDBRANCH   3   4
TORSDOF 2
ENDMDL
MODEL 4
REMARK VINA RESULT:      -4.8      3.009      4.536
REMARK  2 active torsions:
REMARK  status: ('A' for Active; 'I' for Inactive)
REMARK    1  A    between atoms: C3_3  and  C6_6 
REMARK    2  A    between atoms: C4_4  and  C7_7 
ROOT
HETATM    1  C1  UNL     1     -34.346   5.442   5.242  1.00 20.00    -0.176 C 
HETATM    2  C2  UNL     1     -35.035   4.393   5.576  1.00 20.00     0.091 C 
HETATM    3  C3  UNL     1     -33.657   6.493   4.913  1.00 20.00     0.072 C 
ENDROOT
BRANCH   3   4
HETATM    4  C6  UNL     1     -33.349   6.746   3.513  1.00 20.00     0.017 A 
HETATM    5  C5  UNL     1     -32.181   6.041   2.885  1.00 20.00     0.022 A 
HETATM    6  C7  UNL     1     -32.095   7.519   3.170  1.00 20.00     0.092 A 
BRANCH   6   7
HETATM    7  C4  UNL     1     -32.158   8.424   2.038  1.00 20.00     0.177 C 
HETATM    8  O8  UNL     1     -32.783   9.500   2.245  1.00 20.00    -0.648 OA
HETATM    9  O9  UNL     1     -31.578   8.010   0.996  1.00 20.00    -0.648 OA
ENDBRANCH   6   7
ENDBRANCH   3   4
TORSDOF 2
ENDMDL
MODEL 5
REMARK VINA RESULT:      -4.7     10.899     11.860
REMARK  2 active torsions:
REMARK  status: ('A' for Active; 'I' for Inactive)
REMARK    1  A    between atoms: C3_3  and  C6_6 
REMARK    2  A    between atoms: C4_4  and  C7_7 
ROOT
HETATM    1  C1  UNL     1     -34.325  16.611  -1.448  1.00 20.00    -0.176 C 
HETATM    2  C2  UNL     1     -34.748  16.969  -0.274  1.00 20.00     0.091 C 
HETATM    3  C3  UNL     1     -33.900  16.256  -2.623  1.00 20.00     0.072 C 
ENDROOT
BRANCH   3   4
HETATM    4  C6  UNL     1     -34.201  14.925  -3.130  1.00 20.00     0.017 A 
HETATM    5  C5  UNL     1     -33.068  14.028  -3.537  1.00 20.00     0.022 A 
HETATM    6  C7  UNL     1     -33.959  14.630  -4.594  1.00 20.00     0.092 A 
BRANCH   6   7
HETATM    7  C4  UNL     1     -34.898  13.749  -5.260  1.00 20.00     0.177 C 
HETATM    8  O8  UNL     1     -35.644  14.303  -6.113  1.00 20.00    -0.648 OA
HETATM    9  O9  UNL     1     -34.842  12.542  -4.894  1.00 20.00    -0.648 OA
ENDBRANCH   6   7
ENDBRANCH   3   4
TORSDOF 2
ENDMDL
MODEL 6
REMARK VINA RESULT:      -4.6     10.769     11.547
REMARK  2 active torsions:
REMARK  status: ('A' for Active; 'I' for Inactive)
REMARK    1  A    between atoms: C3_3  and  C6_6 
REMARK    2  A    between atoms: C4_4  and  C7_7 
ROOT
HETATM    1  C1  UNL     1     -34.418  17.195  -0.831  1.00 20.00    -0.176 C 
HETATM    2  C2  UNL     1     -33.914  17.977   0.075  1.00 20.00     0.091 C 
HETATM    3  C3  UNL     1     -34.925  16.415  -1.737  1.00 20.00     0.072 C 
ENDROOT
BRANCH   3   4
HETATM    4  C6  UNL     1     -34.068  15.475  -2.446  1.00 20.00     0.017 A 
HETATM    5  C5  UNL     1     -33.493  15.873  -3.774  1.00 20.00     0.022 A 
HETATM    6  C7  UNL     1     -34.582  14.832  -3.715  1.00 20.00     0.092 A 
BRANCH   6   7
HETATM    7  C4  UNL     1     -34.205  13.454  -3.963  1.00 20.00     0.177 C 
HETATM    8  O8  UNL     1     -32.993  13.180  -3.746  1.00 20.00    -0.648 OA
HETATM    9  O9  UNL     1     -35.145  12.713  -4.365  1.00 20.00    -0.648 OA
ENDBRANCH   6   7
ENDBRANCH   3   4
TORSDOF 2
ENDMDL
MODEL 7
REMARK VINA RESULT:      -4.5      2.590      4.457
REMARK  2 active torsions:
REMARK  status: ('A' for Active; 'I' for Inactive)
REMARK    1  A    between atoms: C3_3  and  C6_6 
REMARK    2  A    between atoms: C4_4  and  C7_7 
ROOT
HETATM    1  C1  UNL     1     -34.664   4.983   5.937  1.00 20.00    -0.176 C 
HETATM    2  C2  UNL     1     -35.235   3.818   5.949  1.00 20.00     0.091 C 
HETATM    3  C3  UNL     1     -34.092   6.150   5.930  1.00 20.00     0.072 C 
ENDROOT
BRANCH   3   4
HETATM    4  C6  UNL     1     -33.815   6.812   4.663  1.00 20.00     0.017 A 
HETATM    5  C5  UNL     1     -33.962   6.033   3.388  1.00 20.00     0.022 A 
HETATM    6  C7  UNL     1     -32.586   6.403   3.881  1.00 20.00     0.092 A 
BRANCH   6   7
HETATM    7  C4  UNL     1     -31.876   7.446   3.165  1.00 20.00     0.177 C 
HETATM    8  O8  UNL     1     -32.260   7.642   1.979  1.00 20.00    -0.648 OA
HETATM    9  O9  UNL     1     -30.965   8.017   3.828  1.00 20.00    -0.648 OA
ENDBRANCH   6   7
ENDBRANCH   3   4
TORSDOF 2
ENDMDL
MODEL 8
REMARK VINA RESULT:      -4.2     11.563     12.528
REMARK  2 active torsions:
REMARK  status: ('A' for Active; 'I' for Inactive)
REMARK    1  A    between atoms: C3_3  and  C6_6 
REMARK    2  A    between atoms: C4_4  and  C7_7 
ROOT
HETATM    1  C1  UNL     1     -34.652  17.458   0.260  1.00 20.00    -0.176 C 
HETATM    2  C2  UNL     1     -34.614  18.320   1.230  1.00 20.00     0.091 C 
HETATM    3  C3  UNL     1     -34.694  16.593  -0.709  1.00 20.00     0.072 C 
ENDROOT
BRANCH   3   4
HETATM    4  C6  UNL     1     -33.789  16.731  -1.841  1.00 20.00     0.017 A 
HETATM    5  C5  UNL     1     -34.172  17.641  -2.972  1.00 20.00     0.022 A 
HETATM    6  C7  UNL     1     -34.197  16.147  -3.176  1.00 20.00     0.092 A 
BRANCH   6   7
HETATM    7  C4  UNL     1     -33.152  15.565  -3.996  1.00 20.00     0.177 C 
HETATM    8  O8  UNL     1     -32.677  16.326  -4.883  1.00 20.00    -0.648 OA
HETATM    9  O9  UNL     1     -32.858  14.371  -3.709  1.00 20.00    -0.648 OA
ENDBRANCH   6   7
ENDBRANCH   3   4
TORSDOF 2
ENDMDL
MODEL 9
REMARK VINA RESULT:      -4.1      1.124      1.591
REMARK  2 active torsions:
REMARK  status: ('A' for Active; 'I' for Inactive)
REMARK    1  A    between atoms: C3_3  and  C6_6 
REMARK    2  A    between atoms: C4_4  and  C7_7 
ROOT
HETATM    1  C1  UNL     1     -32.288   8.992   1.692  1.00 20.00    -0.176 C 
HETATM    2  C2  UNL     1     -32.509  10.257   1.503  1.00 20.00     0.091 C 
HETATM    3  C3  UNL     1     -32.065   7.725   1.878  1.00 20.00     0.072 C 
ENDROOT
BRANCH   3   4
HETATM    4  C6  UNL     1     -32.504   7.087   3.110  1.00 20.00     0.017 A 
HETATM    5  C5  UNL     1     -32.029   5.696   3.419  1.00 20.00     0.022 A 
HETATM    6  C7  UNL     1     -33.467   5.923   3.026  1.00 20.00     0.092 A 
BRANCH   6   7
HETATM    7  C4  UNL     1     -34.472   5.812   4.066  1.00 20.00     0.177 C 
HETATM    8  O8  UNL     1     -34.057   6.019   5.239  1.00 20.00    -0.648 OA
HETATM    9  O9  UNL     1     -35.630   5.522   3.654  1.00 20.00    -0.648 OA
ENDBRANCH   6   7
ENDBRANCH   3   4
TORSDOF 2
ENDMDL
