MODEL 1
REMARK VINA RESULT:      -3.9      0.000      0.000
REMARK  0 active torsions:
REMARK  status: ('A' for Active; 'I' for Inactive)
ROOT
HETATM    1  C1  UNL     1     -34.198  14.496  -3.464  1.00 20.00     0.025 A 
HETATM    2  C2  UNL     1     -34.629  15.648  -2.929  1.00 20.00     0.091 A 
HETATM    3  C3  UNL     1     -35.238  13.710  -4.180  1.00 20.00     0.227 A 
HETATM    4  C4  UNL     1     -32.819  13.918  -3.422  1.00 20.00     0.055 C 
HETATM    5  O5  UNL     1     -35.029  12.632  -4.717  1.00 20.00    -0.279 OA
HETATM    6  S6  UNL     1     -36.284  16.118  -3.098  1.00 20.00    -0.036 SA
HETATM    7  S7  UNL     1     -36.809  14.480  -4.189  1.00 20.00    -0.009 SA
HETATM    8 CL8  UNL     1     -33.598  16.721  -2.054  1.00 20.00    -0.075 Cl
ENDROOT
TORSDOF 0
ENDMDL
MODEL 2
REMARK VINA RESULT:      -3.8      3.000      3.309
REMARK  0 active torsions:
REMARK  status: ('A' for Active; 'I' for Inactive)
ROOT
HETATM    1  C1  UNL     1     -34.673  14.742  -6.103  1.00 20.00     0.025 A 
HETATM    2  C2  UNL     1     -34.179  15.975  -5.909  1.00 20.00     0.091 A 
HETATM    3  C3  UNL     1     -34.406  13.782  -4.999  1.00 20.00     0.227 A 
HETATM    4  C4  UNL     1     -35.442  14.230  -7.278  1.00 20.00     0.055 C 
HETATM    5  O5  UNL     1     -34.769  12.615  -5.008  1.00 20.00    -0.279 OA
HETATM    6  S6  UNL     1     -33.308  16.344  -4.463  1.00 20.00    -0.036 SA
HETATM    7  S7  UNL     1     -33.519  14.483  -3.664  1.00 20.00    -0.009 SA
HETATM    8 CL8  UNL     1     -34.367  17.251  -7.057  1.00 20.00    -0.075 Cl
ENDROOT
TORSDOF 0
ENDMDL
MODEL 3
REMARK VINA RESULT:      -3.5      2.132      2.586
REMARK  0 active torsions:
REMARK  status: ('A' for Active; 'I' for Inactive)
ROOT
HETATM    1  C1  UNL     1     -35.900  14.843  -3.688  1.00 20.00     0.025 A 
HETATM    2  C2  UNL     1     -35.387  15.986  -3.206  1.00 20.00     0.091 A 
HETATM    3  C3  UNL     1     -34.900  13.782  -3.979  1.00 20.00     0.227 A 
HETATM    4  C4  UNL     1     -37.334  14.519  -3.965  1.00 20.00     0.055 C 
HETATM    5  O5  UNL     1     -35.184  12.684  -4.433  1.00 20.00    -0.279 OA
HETATM    6  S6  UNL     1     -33.682  16.140  -2.969  1.00 20.00    -0.036 SA
HETATM    7  S7  UNL     1     -33.257  14.251  -3.602  1.00 20.00    -0.009 SA
HETATM    8 CL8  UNL     1     -36.360  17.352  -2.797  1.00 20.00    -0.075 Cl
ENDROOT
TORSDOF 0
ENDMDL
MODEL 4
REMARK VINA RESULT:      -3.5      2.397      2.474
REMARK  0 active torsions:
REMARK  status: ('A' for Active; 'I' for Inactive)
ROOT
HETATM    1  C1  UNL     1     -34.019  15.077  -4.748  1.00 20.00     0.025 A 
HETATM    2  C2  UNL     1     -34.059  16.215  -5.458  1.00 20.00     0.091 A 
HETATM    3  C3  UNL     1     -34.661  13.907  -5.404  1.00 20.00     0.227 A 
HETATM    4  C4  UNL     1     -33.420  14.853  -3.396  1.00 20.00     0.055 C 
HETATM    5  O5  UNL     1     -34.730  12.796  -4.901  1.00 20.00    -0.279 OA
HETATM    6  S6  UNL     1     -34.817  16.243  -7.011  1.00 20.00    -0.036 SA
HETATM    7  S7  UNL     1     -35.312  14.268  -6.988  1.00 20.00    -0.009 SA
HETATM    8 CL8  UNL     1     -33.377  17.697  -4.894  1.00 20.00    -0.075 Cl
ENDROOT
TORSDOF 0
ENDMDL
MODEL 5
REMARK VINA RESULT:      -3.5      2.038      2.206
REMARK  0 active torsions:
REMARK  status: ('A' for Active; 'I' for Inactive)
ROOT
HETATM    1  C1  UNL     1     -35.513  14.719  -3.946  1.00 20.00     0.025 A 
HETATM    2  C2  UNL     1     -34.707  15.787  -3.846  1.00 20.00     0.091 A 
HETATM    3  C3  UNL     1     -36.954  14.999  -3.714  1.00 20.00     0.227 A 
HETATM    4  C4  UNL     1     -35.137  13.305  -4.256  1.00 20.00     0.055 C 
HETATM    5  O5  UNL     1     -37.829  14.147  -3.753  1.00 20.00    -0.279 OA
HETATM    6  S6  UNL     1     -35.366  17.340  -3.470  1.00 20.00    -0.036 SA
HETATM    7  S7  UNL     1     -37.292  16.683  -3.381  1.00 20.00    -0.009 SA
HETATM    8 CL8  UNL     1     -32.998  15.698  -4.076  1.00 20.00    -0.075 Cl
ENDROOT
TORSDOF 0
ENDMDL
MODEL 6
REMARK VINA RESULT:      -3.5      2.326      2.858
REMARK  0 active torsions:
REMARK  status: ('A' for Active; 'I' for Inactive)
ROOT
HETATM    1  C1  UNL     1     -34.620  15.627  -2.904  1.00 20.00     0.025 A 
HETATM    2  C2  UNL     1     -34.174  14.515  -3.508  1.00 20.00     0.091 A 
HETATM    3  C3  UNL     1     -36.068  15.905  -3.095  1.00 20.00     0.227 A 
HETATM    4  C4  UNL     1     -33.844  16.603  -2.079  1.00 20.00     0.055 C 
HETATM    5  O5  UNL     1     -36.643  16.877  -2.628  1.00 20.00    -0.279 OA
HETATM    6  S6  UNL     1     -35.260  13.530  -4.424  1.00 20.00    -0.036 SA
HETATM    7  S7  UNL     1     -36.889  14.694  -4.056  1.00 20.00    -0.009 SA
HETATM    8 CL8  UNL     1     -32.530  13.996  -3.423  1.00 20.00    -0.075 Cl
ENDROOT
TORSDOF 0
ENDMDL
MODEL 7
REMARK VINA RESULT:      -3.5     11.917     12.156
REMARK  0 active torsions:
REMARK  status: ('A' for Active; 'I' for Inactive)
ROOT
HETATM    1  C1  UNL     1     -33.540   6.346   4.392  1.00 20.00     0.025 A 
HETATM    2  C2  UNL     1     -33.799   6.338   5.709  1.00 20.00     0.091 A 
HETATM    3  C3  UNL     1     -34.269   5.317   3.605  1.00 20.00     0.227 A 
HETATM    4  C4  UNL     1     -32.619   7.251   3.638  1.00 20.00     0.055 C 
HETATM    5  O5  UNL     1     -34.149   5.170   2.398  1.00 20.00    -0.279 OA
HETATM    6  S6  UNL     1     -34.906   5.187   6.369  1.00 20.00    -0.036 SA
HETATM    7  S7  UNL     1     -35.335   4.325   4.575  1.00 20.00    -0.009 SA
HETATM    8 CL8  UNL     1     -33.067   7.443   6.815  1.00 20.00    -0.075 Cl
ENDROOT
TORSDOF 0
ENDMDL
MODEL 8
REMARK VINA RESULT:      -3.4      2.495      2.891
REMARK  0 active torsions:
REMARK  status: ('A' for Active; 'I' for Inactive)
ROOT
HETATM    1  C1  UNL     1     -34.910  14.590  -3.767  1.00 20.00     0.025 A 
HETATM    2  C2  UNL     1     -36.029  15.270  -3.475  1.00 20.00     0.091 A 
HETATM    3  C3  UNL     1     -33.645  15.273  -3.385  1.00 20.00     0.227 A 
HETATM    4  C4  UNL     1     -34.787  13.252  -4.423  1.00 20.00     0.055 C 
HETATM    5  O5  UNL     1     -32.533  14.809  -3.584  1.00 20.00    -0.279 OA
HETATM    6  S6  UNL     1     -35.930  16.818  -2.713  1.00 20.00    -0.036 SA
HETATM    7  S7  UNL     1     -33.897  16.820  -2.607  1.00 20.00    -0.009 SA
HETATM    8 CL8  UNL     1     -37.609  14.671  -3.827  1.00 20.00    -0.075 Cl
ENDROOT
TORSDOF 0
ENDMDL
MODEL 9
REMARK VINA RESULT:      -3.4      1.921      2.362
REMARK  0 active torsions:
REMARK  status: ('A' for Active; 'I' for Inactive)
ROOT
HETATM    1  C1  UNL     1     -34.499  15.649  -3.030  1.00 20.00     0.025 A 
HETATM    2  C2  UNL     1     -35.819  15.721  -3.263  1.00 20.00     0.091 A 
HETATM    3  C3  UNL     1     -33.821  14.469  -3.629  1.00 20.00     0.227 A 
HETATM    4  C4  UNL     1     -33.647  16.598  -2.249  1.00 20.00     0.055 C 
HETATM    5  O5  UNL     1     -32.628  14.235  -3.510  1.00 20.00    -0.279 OA
HETATM    6  S6  UNL     1     -36.603  14.496  -4.197  1.00 20.00    -0.036 SA
HETATM    7  S7  UNL     1     -34.899  13.434  -4.539  1.00 20.00    -0.009 SA
HETATM    8 CL8  UNL     1     -36.809  17.003  -2.666  1.00 20.00    -0.075 Cl
ENDROOT
TORSDOF 0
ENDMDL
