MODEL 1
REMARK VINA RESULT:      -5.0      0.000      0.000
REMARK  1 active torsions:
REMARK  status: ('A' for Active; 'I' for Inactive)
REMARK    1  A    between atoms: C3_3  and  C5_5 
ROOT
HETATM    1  C1  UNL     1     -34.415  16.838  -0.803  1.00 20.00     0.012 C 
HETATM    2  C2  UNL     1     -34.845  16.355  -1.815  1.00 20.00    -0.111 C 
HETATM    3  C4  UNL     1     -35.357  15.776  -3.024  1.00 20.00     0.088 A 
HETATM    4  C5  UNL     1     -34.631  14.594  -3.628  1.00 20.00     0.112 A 
HETATM    5  C6  UNL     1     -34.612  15.936  -4.337  1.00 20.00    -0.018 A 
HETATM    6  C7  UNL     1     -35.449  16.149  -5.578  1.00 20.00     0.017 C 
HETATM    7  C8  UNL     1     -33.293  16.671  -4.381  1.00 20.00     0.017 C 
ENDROOT
BRANCH   4   8
HETATM    8  C3  UNL     1     -35.438  13.516  -4.168  1.00 20.00     0.179 C 
HETATM    9  O9  UNL     1     -34.793  12.601  -4.751  1.00 20.00    -0.648 OA
HETATM   10  O10 UNL     1     -36.681  13.638  -3.982  1.00 20.00    -0.648 OA
ENDBRANCH   4   8
TORSDOF 1
ENDMDL
MODEL 2
REMARK VINA RESULT:      -4.6      2.072      2.728
REMARK  1 active torsions:
REMARK  status: ('A' for Active; 'I' for Inactive)
REMARK    1  A    between atoms: C3_3  and  C5_5 
ROOT
HETATM    1  C1  UNL     1     -34.772  17.368   0.189  1.00 20.00     0.012 C 
HETATM    2  C2  UNL     1     -34.655  16.694  -0.799  1.00 20.00    -0.111 C 
HETATM    3  C4  UNL     1     -34.515  15.891  -1.979  1.00 20.00     0.088 A 
HETATM    4  C5  UNL     1     -34.155  16.570  -3.281  1.00 20.00     0.112 A 
HETATM    5  C6  UNL     1     -35.538  15.971  -3.098  1.00 20.00    -0.018 A 
HETATM    6  C7  UNL     1     -35.901  14.677  -3.789  1.00 20.00     0.017 C 
HETATM    7  C8  UNL     1     -36.697  16.936  -3.004  1.00 20.00     0.017 C 
ENDROOT
BRANCH   4   8
HETATM    8  C3  UNL     1     -33.200  15.901  -4.146  1.00 20.00     0.179 C 
HETATM    9  O9  UNL     1     -32.539  14.974  -3.601  1.00 20.00    -0.648 OA
HETATM   10  O10 UNL     1     -33.158  16.339  -5.329  1.00 20.00    -0.648 OA
ENDBRANCH   4   8
TORSDOF 1
ENDMDL
MODEL 3
REMARK VINA RESULT:      -4.6      2.042      2.867
REMARK  1 active torsions:
REMARK  status: ('A' for Active; 'I' for Inactive)
REMARK    1  A    between atoms: C3_3  and  C5_5 
ROOT
HETATM    1  C1  UNL     1     -34.816  16.852  -0.590  1.00 20.00     0.012 C 
HETATM    2  C2  UNL     1     -34.546  16.279  -1.610  1.00 20.00    -0.111 C 
HETATM    3  C4  UNL     1     -34.224  15.595  -2.829  1.00 20.00     0.088 A 
HETATM    4  C5  UNL     1     -34.605  16.237  -4.145  1.00 20.00     0.112 A 
HETATM    5  C6  UNL     1     -35.316  14.977  -3.684  1.00 20.00    -0.018 A 
HETATM    6  C7  UNL     1     -35.005  13.651  -4.339  1.00 20.00     0.017 C 
HETATM    7  C8  UNL     1     -36.766  15.113  -3.284  1.00 20.00     0.017 C 
ENDROOT
BRANCH   4   8
HETATM    8  C3  UNL     1     -33.649  16.157  -5.234  1.00 20.00     0.179 C 
HETATM    9  O9  UNL     1     -34.144  16.241  -6.392  1.00 20.00    -0.648 OA
HETATM   10  O10 UNL     1     -32.447  16.013  -4.875  1.00 20.00    -0.648 OA
ENDBRANCH   4   8
TORSDOF 1
ENDMDL
MODEL 4
REMARK VINA RESULT:      -4.4     11.843     12.784
REMARK  1 active torsions:
REMARK  status: ('A' for Active; 'I' for Inactive)
REMARK    1  A    between atoms: C3_3  and  C5_5 
ROOT
HETATM    1  C1  UNL     1     -31.480   7.349   3.313  1.00 20.00     0.012 C 
HETATM    2  C2  UNL     1     -32.538   6.978   3.742  1.00 20.00    -0.111 C 
HETATM    3  C4  UNL     1     -33.802   6.533   4.255  1.00 20.00     0.088 A 
HETATM    4  C5  UNL     1     -33.938   5.095   4.705  1.00 20.00     0.112 A 
HETATM    5  C6  UNL     1     -34.667   5.570   3.461  1.00 20.00    -0.018 A 
HETATM    6  C7  UNL     1     -36.160   5.800   3.500  1.00 20.00     0.017 C 
HETATM    7  C8  UNL     1     -34.186   5.030   2.135  1.00 20.00     0.017 C 
ENDROOT
BRANCH   4   8
HETATM    8  C3  UNL     1     -34.693   4.839   5.918  1.00 20.00     0.179 C 
HETATM    9  O9  UNL     1     -34.749   5.804   6.730  1.00 20.00    -0.648 OA
HETATM   10  O10 UNL     1     -35.193   3.683   5.997  1.00 20.00    -0.648 OA
ENDBRANCH   4   8
TORSDOF 1
ENDMDL
MODEL 5
REMARK VINA RESULT:      -4.4      1.776      2.633
REMARK  1 active torsions:
REMARK  status: ('A' for Active; 'I' for Inactive)
REMARK    1  A    between atoms: C3_3  and  C5_5 
ROOT
HETATM    1  C1  UNL     1     -38.734  15.193  -3.471  1.00 20.00     0.012 C 
HETATM    2  C2  UNL     1     -37.682  14.953  -3.997  1.00 20.00    -0.111 C 
HETATM    3  C4  UNL     1     -36.424  14.666  -4.625  1.00 20.00     0.088 A 
HETATM    4  C5  UNL     1     -35.220  14.398  -3.749  1.00 20.00     0.112 A 
HETATM    5  C6  UNL     1     -35.286  15.670  -4.576  1.00 20.00    -0.018 A 
HETATM    6  C7  UNL     1     -34.441  15.807  -5.822  1.00 20.00     0.017 C 
HETATM    7  C8  UNL     1     -35.448  16.970  -3.825  1.00 20.00     0.017 C 
ENDROOT
BRANCH   4   8
HETATM    8  C3  UNL     1     -34.320  13.333  -4.152  1.00 20.00     0.179 C 
HETATM    9  O9  UNL     1     -34.815  12.478  -4.937  1.00 20.00    -0.648 OA
HETATM   10  O10 UNL     1     -33.159  13.406  -3.661  1.00 20.00    -0.648 OA
ENDBRANCH   4   8
TORSDOF 1
ENDMDL
MODEL 6
REMARK VINA RESULT:      -4.4      1.744      2.548
REMARK  1 active torsions:
REMARK  status: ('A' for Active; 'I' for Inactive)
REMARK    1  A    between atoms: C3_3  and  C5_5 
ROOT
HETATM    1  C1  UNL     1     -38.645  15.242  -3.443  1.00 20.00     0.012 C 
HETATM    2  C2  UNL     1     -37.598  14.988  -3.974  1.00 20.00    -0.111 C 
HETATM    3  C4  UNL     1     -36.348  14.683  -4.607  1.00 20.00     0.088 A 
HETATM    4  C5  UNL     1     -35.141  14.407  -3.737  1.00 20.00     0.112 A 
HETATM    5  C6  UNL     1     -35.197  15.674  -4.570  1.00 20.00    -0.018 A 
HETATM    6  C7  UNL     1     -34.358  15.796  -5.820  1.00 20.00     0.017 C 
HETATM    7  C8  UNL     1     -35.340  16.980  -3.824  1.00 20.00     0.017 C 
ENDROOT
BRANCH   4   8
HETATM    8  C3  UNL     1     -34.256  13.330  -4.139  1.00 20.00     0.179 C 
HETATM    9  O9  UNL     1     -33.084  13.395  -3.675  1.00 20.00    -0.648 OA
HETATM   10  O10 UNL     1     -34.779  12.470  -4.902  1.00 20.00    -0.648 OA
ENDBRANCH   4   8
TORSDOF 1
ENDMDL
MODEL 7
REMARK VINA RESULT:      -4.4      1.543      1.945
REMARK  1 active torsions:
REMARK  status: ('A' for Active; 'I' for Inactive)
REMARK    1  A    between atoms: C3_3  and  C5_5 
ROOT
HETATM    1  C1  UNL     1     -36.443  17.458  -2.862  1.00 20.00     0.012 C 
HETATM    2  C2  UNL     1     -36.018  16.549  -3.522  1.00 20.00    -0.111 C 
HETATM    3  C4  UNL     1     -35.511  15.464  -4.310  1.00 20.00     0.088 A 
HETATM    4  C5  UNL     1     -34.180  14.852  -3.932  1.00 20.00     0.112 A 
HETATM    5  C6  UNL     1     -34.305  15.657  -5.212  1.00 20.00    -0.018 A 
HETATM    6  C7  UNL     1     -34.330  14.953  -6.550  1.00 20.00     0.017 C 
HETATM    7  C8  UNL     1     -33.593  16.989  -5.258  1.00 20.00     0.017 C 
ENDROOT
BRANCH   4   8
HETATM    8  C3  UNL     1     -34.059  13.407  -4.009  1.00 20.00     0.179 C 
HETATM    9  O9  UNL     1     -35.126  12.791  -4.279  1.00 20.00    -0.648 OA
HETATM   10  O10 UNL     1     -32.898  12.960  -3.793  1.00 20.00    -0.648 OA
ENDBRANCH   4   8
TORSDOF 1
ENDMDL
MODEL 8
REMARK VINA RESULT:      -4.3      1.643      3.230
REMARK  1 active torsions:
REMARK  status: ('A' for Active; 'I' for Inactive)
REMARK    1  A    between atoms: C3_3  and  C5_5 
ROOT
HETATM    1  C1  UNL     1     -33.670  18.491  -6.013  1.00 20.00     0.012 C 
HETATM    2  C2  UNL     1     -33.608  17.701  -5.110  1.00 20.00    -0.111 C 
HETATM    3  C4  UNL     1     -33.535  16.756  -4.033  1.00 20.00     0.088 A 
HETATM    4  C5  UNL     1     -34.174  15.397  -4.214  1.00 20.00     0.112 A 
HETATM    5  C6  UNL     1     -34.775  16.390  -3.236  1.00 20.00    -0.018 A 
HETATM    6  C7  UNL     1     -34.599  16.189  -1.749  1.00 20.00     0.017 C 
HETATM    7  C8  UNL     1     -36.116  16.984  -3.598  1.00 20.00     0.017 C 
ENDROOT
BRANCH   4   8
HETATM    8  C3  UNL     1     -33.455  14.244  -3.705  1.00 20.00     0.179 C 
HETATM    9  O9  UNL     1     -34.157  13.212  -3.516  1.00 20.00    -0.648 OA
HETATM   10  O10 UNL     1     -32.219  14.429  -3.518  1.00 20.00    -0.648 OA
ENDBRANCH   4   8
TORSDOF 1
ENDMDL
MODEL 9
REMARK VINA RESULT:      -4.3      1.482      2.394
REMARK  1 active torsions:
REMARK  status: ('A' for Active; 'I' for Inactive)
REMARK    1  A    between atoms: C3_3  and  C5_5 
ROOT
HETATM    1  C1  UNL     1     -37.309  17.902  -3.746  1.00 20.00     0.012 C 
HETATM    2  C2  UNL     1     -36.448  17.111  -4.022  1.00 20.00    -0.111 C 
HETATM    3  C4  UNL     1     -35.420  16.166  -4.350  1.00 20.00     0.088 A 
HETATM    4  C5  UNL     1     -35.563  14.740  -3.867  1.00 20.00     0.112 A 
HETATM    5  C6  UNL     1     -34.485  15.632  -3.279  1.00 20.00    -0.018 A 
HETATM    6  C7  UNL     1     -33.039  15.431  -3.670  1.00 20.00     0.017 C 
HETATM    7  C8  UNL     1     -34.655  16.057  -1.839  1.00 20.00     0.017 C 
ENDROOT
BRANCH   4   8
HETATM    8  C3  UNL     1     -35.187  13.679  -4.783  1.00 20.00     0.179 C 
HETATM    9  O9  UNL     1     -35.153  14.007  -6.001  1.00 20.00    -0.648 OA
HETATM   10  O10 UNL     1     -34.944  12.567  -4.236  1.00 20.00    -0.648 OA
ENDBRANCH   4   8
TORSDOF 1
ENDMDL
