MODEL 1
REMARK VINA RESULT:      -4.5      0.000      0.000
REMARK  2 active torsions:
REMARK  status: ('A' for Active; 'I' for Inactive)
REMARK    1  A    between atoms: C1_1  and  C3_3 
REMARK    2  A    between atoms: C1_1  and  O7_7 
ROOT
HETATM    1  C2  UNL     1     -34.268   5.994   6.230  1.00 20.00     0.055 A 
HETATM    2  C3  UNL     1     -34.812   5.620   4.891  1.00 20.00     0.122 A 
HETATM    3  C4  UNL     1     -34.477   4.558   5.872  1.00 20.00     0.184 A 
HETATM    4  F8  UNL     1     -35.542   3.901   6.462  1.00 20.00    -0.248 F 
ENDROOT
BRANCH   2   5
HETATM    5  C1  UNL     1     -33.927   5.786   3.694  1.00 20.00     0.265 C 
HETATM    6  O6  UNL     1     -34.153   5.289   2.599  1.00 20.00    -0.265 OA
BRANCH   5   7
HETATM    7  O7  UNL     1     -32.855   6.562   4.024  1.00 20.00    -0.326 OA
HETATM    8  C5  UNL     1     -32.225   7.238   2.931  1.00 20.00     0.213 C 
ENDBRANCH   5   7
ENDBRANCH   2   5
TORSDOF 2
ENDMDL
MODEL 2
REMARK VINA RESULT:      -4.1      2.618      3.383
REMARK  2 active torsions:
REMARK  status: ('A' for Active; 'I' for Inactive)
REMARK    1  A    between atoms: C1_1  and  C3_3 
REMARK    2  A    between atoms: C1_1  and  O7_7 
ROOT
HETATM    1  C2  UNL     1     -34.389   5.406   2.740  1.00 20.00     0.055 A 
HETATM    2  C3  UNL     1     -34.492   5.863   4.158  1.00 20.00     0.122 A 
HETATM    3  C4  UNL     1     -33.162   5.789   3.503  1.00 20.00     0.184 A 
HETATM    4  F8  UNL     1     -32.561   6.993   3.184  1.00 20.00    -0.248 F 
ENDROOT
BRANCH   2   5
HETATM    5  C1  UNL     1     -34.825   4.847   5.208  1.00 20.00     0.265 C 
HETATM    6  O6  UNL     1     -35.099   3.678   4.969  1.00 20.00    -0.265 OA
BRANCH   5   7
HETATM    7  O7  UNL     1     -34.773   5.430   6.439  1.00 20.00    -0.326 OA
HETATM    8  C5  UNL     1     -34.001   6.632   6.518  1.00 20.00     0.213 C 
ENDBRANCH   5   7
ENDBRANCH   2   5
TORSDOF 2
ENDMDL
MODEL 3
REMARK VINA RESULT:      -4.1      2.685      3.889
REMARK  2 active torsions:
REMARK  status: ('A' for Active; 'I' for Inactive)
REMARK    1  A    between atoms: C1_1  and  C3_3 
REMARK    2  A    between atoms: C1_1  and  O7_7 
ROOT
HETATM    1  C2  UNL     1     -33.626   5.607   2.881  1.00 20.00     0.055 A 
HETATM    2  C3  UNL     1     -33.872   6.635   3.936  1.00 20.00     0.122 A 
HETATM    3  C4  UNL     1     -32.489   6.386   3.457  1.00 20.00     0.184 A 
HETATM    4  F8  UNL     1     -31.921   7.369   2.666  1.00 20.00    -0.248 F 
ENDROOT
BRANCH   2   5
HETATM    5  C1  UNL     1     -34.243   6.166   5.310  1.00 20.00     0.265 C 
HETATM    6  O6  UNL     1     -33.766   6.621   6.342  1.00 20.00    -0.265 OA
BRANCH   5   7
HETATM    7  O7  UNL     1     -35.174   5.174   5.217  1.00 20.00    -0.326 OA
HETATM    8  C5  UNL     1     -34.830   3.946   5.865  1.00 20.00     0.213 C 
ENDBRANCH   5   7
ENDBRANCH   2   5
TORSDOF 2
ENDMDL
MODEL 4
REMARK VINA RESULT:      -4.1      2.829      4.024
REMARK  2 active torsions:
REMARK  status: ('A' for Active; 'I' for Inactive)
REMARK    1  A    between atoms: C1_1  and  C3_3 
REMARK    2  A    between atoms: C1_1  and  O7_7 
ROOT
HETATM    1  C2  UNL     1     -31.522   7.439   3.750  1.00 20.00     0.055 A 
HETATM    2  C3  UNL     1     -32.377   6.446   3.036  1.00 20.00     0.122 A 
HETATM    3  C4  UNL     1     -32.296   7.841   2.536  1.00 20.00     0.184 A 
HETATM    4  F8  UNL     1     -31.588   8.040   1.364  1.00 20.00    -0.248 F 
ENDROOT
BRANCH   2   5
HETATM    5  C1  UNL     1     -33.647   6.000   3.694  1.00 20.00     0.265 C 
HETATM    6  O6  UNL     1     -34.515   5.343   3.136  1.00 20.00    -0.265 OA
BRANCH   5   7
HETATM    7  O7  UNL     1     -33.670   6.441   4.984  1.00 20.00    -0.326 OA
HETATM    8  C5  UNL     1     -34.393   5.615   5.903  1.00 20.00     0.213 C 
ENDBRANCH   5   7
ENDBRANCH   2   5
TORSDOF 2
ENDMDL
MODEL 5
REMARK VINA RESULT:      -4.1      1.766      2.062
REMARK  2 active torsions:
REMARK  status: ('A' for Active; 'I' for Inactive)
REMARK    1  A    between atoms: C1_1  and  C3_3 
REMARK    2  A    between atoms: C1_1  and  O7_7 
ROOT
HETATM    1  C2  UNL     1     -34.266   5.551   5.035  1.00 20.00     0.055 A 
HETATM    2  C3  UNL     1     -33.920   6.496   3.932  1.00 20.00     0.122 A 
HETATM    3  C4  UNL     1     -34.849   5.368   3.671  1.00 20.00     0.184 A 
HETATM    4  F8  UNL     1     -36.183   5.691   3.498  1.00 20.00    -0.248 F 
ENDROOT
BRANCH   2   5
HETATM    5  C1  UNL     1     -32.541   6.430   3.349  1.00 20.00     0.265 C 
HETATM    6  O6  UNL     1     -31.992   5.393   3.002  1.00 20.00    -0.265 OA
BRANCH   5   7
HETATM    7  O7  UNL     1     -32.018   7.687   3.273  1.00 20.00    -0.326 OA
HETATM    8  C5  UNL     1     -32.070   8.297   1.979  1.00 20.00     0.213 C 
ENDBRANCH   5   7
ENDBRANCH   2   5
TORSDOF 2
ENDMDL
MODEL 6
REMARK VINA RESULT:      -3.9      1.361      1.850
REMARK  2 active torsions:
REMARK  status: ('A' for Active; 'I' for Inactive)
REMARK    1  A    between atoms: C1_1  and  C3_3 
REMARK    2  A    between atoms: C1_1  and  O7_7 
ROOT
HETATM    1  C2  UNL     1     -35.578   5.622   3.731  1.00 20.00     0.055 A 
HETATM    2  C3  UNL     1     -34.129   5.268   3.677  1.00 20.00     0.122 A 
HETATM    3  C4  UNL     1     -34.946   4.851   4.845  1.00 20.00     0.184 A 
HETATM    4  F8  UNL     1     -35.246   3.505   4.941  1.00 20.00    -0.248 F 
ENDROOT
BRANCH   2   5
HETATM    5  C1  UNL     1     -33.124   6.363   3.869  1.00 20.00     0.265 C 
HETATM    6  O6  UNL     1     -32.968   6.975   4.917  1.00 20.00    -0.265 OA
BRANCH   5   7
HETATM    7  O7  UNL     1     -32.435   6.557   2.708  1.00 20.00    -0.326 OA
HETATM    8  C5  UNL     1     -32.095   7.916   2.415  1.00 20.00     0.213 C 
ENDBRANCH   5   7
ENDBRANCH   2   5
TORSDOF 2
ENDMDL
MODEL 7
REMARK VINA RESULT:      -3.8      2.425      3.590
REMARK  2 active torsions:
REMARK  status: ('A' for Active; 'I' for Inactive)
REMARK    1  A    between atoms: C1_1  and  C3_3 
REMARK    2  A    between atoms: C1_1  and  O7_7 
ROOT
HETATM    1  C2  UNL     1     -32.742   6.606   3.793  1.00 20.00     0.055 A 
HETATM    2  C3  UNL     1     -33.495   5.644   4.650  1.00 20.00     0.122 A 
HETATM    3  C4  UNL     1     -34.115   6.164   3.405  1.00 20.00     0.184 A 
HETATM    4  F8  UNL     1     -34.227   5.275   2.351  1.00 20.00    -0.248 F 
ENDROOT
BRANCH   2   5
HETATM    5  C1  UNL     1     -34.026   6.129   5.964  1.00 20.00     0.265 C 
HETATM    6  O6  UNL     1     -33.580   7.095   6.570  1.00 20.00    -0.265 OA
BRANCH   5   7
HETATM    7  O7  UNL     1     -35.061   5.334   6.360  1.00 20.00    -0.326 OA
HETATM    8  C5  UNL     1     -35.042   4.000   5.843  1.00 20.00     0.213 C 
ENDBRANCH   5   7
ENDBRANCH   2   5
TORSDOF 2
ENDMDL
MODEL 8
REMARK VINA RESULT:      -3.8     12.568     13.390
REMARK  2 active torsions:
REMARK  status: ('A' for Active; 'I' for Inactive)
REMARK    1  A    between atoms: C1_1  and  C3_3 
REMARK    2  A    between atoms: C1_1  and  O7_7 
ROOT
HETATM    1  C2  UNL     1     -35.763  15.159  -5.784  1.00 20.00     0.055 A 
HETATM    2  C3  UNL     1     -34.463  14.484  -5.495  1.00 20.00     0.122 A 
HETATM    3  C4  UNL     1     -35.136  14.260  -6.800  1.00 20.00     0.184 A 
HETATM    4  F8  UNL     1     -34.555  14.853  -7.906  1.00 20.00    -0.248 F 
ENDROOT
BRANCH   2   5
HETATM    5  C1  UNL     1     -34.451  13.364  -4.501  1.00 20.00     0.265 C 
HETATM    6  O6  UNL     1     -35.360  12.555  -4.368  1.00 20.00    -0.265 OA
BRANCH   5   7
HETATM    7  O7  UNL     1     -33.289  13.399  -3.788  1.00 20.00    -0.326 OA
HETATM    8  C5  UNL     1     -32.692  14.692  -3.650  1.00 20.00     0.213 C 
ENDBRANCH   5   7
ENDBRANCH   2   5
TORSDOF 2
ENDMDL
MODEL 9
REMARK VINA RESULT:      -3.7     12.064     12.852
REMARK  2 active torsions:
REMARK  status: ('A' for Active; 'I' for Inactive)
REMARK    1  A    between atoms: C1_1  and  C3_3 
REMARK    2  A    between atoms: C1_1  and  O7_7 
ROOT
HETATM    1  C2  UNL     1     -35.514  15.450  -3.017  1.00 20.00     0.055 A 
HETATM    2  C3  UNL     1     -34.495  14.403  -3.322  1.00 20.00     0.122 A 
HETATM    3  C4  UNL     1     -34.091  15.830  -3.267  1.00 20.00     0.184 A 
HETATM    4  F8  UNL     1     -33.332  16.217  -2.177  1.00 20.00    -0.248 F 
ENDROOT
BRANCH   2   5
HETATM    5  C1  UNL     1     -34.548  13.730  -4.660  1.00 20.00     0.265 C 
HETATM    6  O6  UNL     1     -34.777  12.539  -4.821  1.00 20.00    -0.265 OA
BRANCH   5   7
HETATM    7  O7  UNL     1     -34.303  14.646  -5.640  1.00 20.00    -0.326 OA
HETATM    8  C5  UNL     1     -35.078  14.492  -6.833  1.00 20.00     0.213 C 
ENDBRANCH   5   7
ENDBRANCH   2   5
TORSDOF 2
ENDMDL
