MODEL 1
REMARK VINA RESULT:      -4.2      0.000      0.000
REMARK  1 active torsions:
REMARK  status: ('A' for Active; 'I' for Inactive)
REMARK    1  A    between atoms: C1_1  and  C2_2 
ROOT
HETATM    1  C2  UNL     1     -35.975  14.370  -4.382  1.00 20.00     0.064 A 
HETATM    2  C3  UNL     1     -34.612  14.741  -3.818  1.00 20.00    -0.030 A 
HETATM    3  C4  UNL     1     -35.088  15.332  -5.157  1.00 20.00    -0.030 A 
HETATM    4  C5  UNL     1     -33.545  13.667  -3.818  1.00 20.00     0.016 C 
HETATM    5  C6  UNL     1     -34.511  15.635  -2.602  1.00 20.00     0.016 C 
HETATM    6  C7  UNL     1     -35.448  16.799  -5.238  1.00 20.00     0.016 C 
HETATM    7  C8  UNL     1     -34.479  14.828  -6.448  1.00 20.00     0.016 C 
ENDROOT
BRANCH   1   8
HETATM    8  C1  UNL     1     -37.215  14.827  -3.740  1.00 20.00     0.237 C 
HETATM    9  O9  UNL     1     -38.258  14.181  -3.748  1.00 20.00    -0.306 OA
ENDBRANCH   1   8
TORSDOF 1
ENDMDL
MODEL 2
REMARK VINA RESULT:      -4.1      1.775      3.268
REMARK  1 active torsions:
REMARK  status: ('A' for Active; 'I' for Inactive)
REMARK    1  A    between atoms: C1_1  and  C2_2 
ROOT
HETATM    1  C2  UNL     1     -35.188  14.848  -4.304  1.00 20.00     0.064 A 
HETATM    2  C3  UNL     1     -34.684  16.216  -4.739  1.00 20.00    -0.030 A 
HETATM    3  C4  UNL     1     -34.088  15.523  -3.500  1.00 20.00    -0.030 A 
HETATM    4  C5  UNL     1     -35.618  17.392  -4.553  1.00 20.00     0.016 C 
HETATM    5  C6  UNL     1     -33.847  16.353  -5.992  1.00 20.00     0.016 C 
HETATM    6  C7  UNL     1     -32.673  14.990  -3.554  1.00 20.00     0.016 C 
HETATM    7  C8  UNL     1     -34.447  16.032  -2.121  1.00 20.00     0.016 C 
ENDROOT
BRANCH   1   8
HETATM    8  C1  UNL     1     -34.919  13.646  -5.106  1.00 20.00     0.237 C 
HETATM    9  O9  UNL     1     -34.913  12.511  -4.641  1.00 20.00    -0.306 OA
ENDBRANCH   1   8
TORSDOF 1
ENDMDL
MODEL 3
REMARK VINA RESULT:      -4.1      0.774      1.984
REMARK  1 active torsions:
REMARK  status: ('A' for Active; 'I' for Inactive)
REMARK    1  A    between atoms: C1_1  and  C2_2 
ROOT
HETATM    1  C2  UNL     1     -35.712  14.833  -3.429  1.00 20.00     0.064 A 
HETATM    2  C3  UNL     1     -34.705  15.961  -3.588  1.00 20.00    -0.030 A 
HETATM    3  C4  UNL     1     -34.483  14.613  -4.296  1.00 20.00    -0.030 A 
HETATM    4  C5  UNL     1     -33.860  16.312  -2.382  1.00 20.00     0.016 C 
HETATM    5  C6  UNL     1     -35.056  17.185  -4.405  1.00 20.00     0.016 C 
HETATM    6  C7  UNL     1     -34.621  14.530  -5.801  1.00 20.00     0.016 C 
HETATM    7  C8  UNL     1     -33.425  13.665  -3.774  1.00 20.00     0.016 C 
ENDROOT
BRANCH   1   8
HETATM    8  C1  UNL     1     -37.056  14.923  -4.019  1.00 20.00     0.237 C 
HETATM    9  O9  UNL     1     -37.972  14.159  -3.732  1.00 20.00    -0.306 OA
ENDBRANCH   1   8
TORSDOF 1
ENDMDL
MODEL 4
REMARK VINA RESULT:      -4.1      1.030      2.220
REMARK  1 active torsions:
REMARK  status: ('A' for Active; 'I' for Inactive)
REMARK    1  A    between atoms: C1_1  and  C2_2 
ROOT
HETATM    1  C2  UNL     1     -35.818  15.477  -4.656  1.00 20.00     0.064 A 
HETATM    2  C3  UNL     1     -34.732  14.637  -5.312  1.00 20.00    -0.030 A 
HETATM    3  C4  UNL     1     -34.358  15.828  -4.412  1.00 20.00    -0.030 A 
HETATM    4  C5  UNL     1     -34.569  14.761  -6.811  1.00 20.00     0.016 C 
HETATM    5  C6  UNL     1     -34.469  13.227  -4.831  1.00 20.00     0.016 C 
HETATM    6  C7  UNL     1     -33.733  15.572  -3.058  1.00 20.00     0.016 C 
HETATM    7  C8  UNL     1     -33.834  17.099  -5.043  1.00 20.00     0.016 C 
ENDROOT
BRANCH   1   8
HETATM    8  C1  UNL     1     -36.660  14.931  -3.583  1.00 20.00     0.237 C 
HETATM    9  O9  UNL     1     -37.642  14.224  -3.789  1.00 20.00    -0.306 OA
ENDBRANCH   1   8
TORSDOF 1
ENDMDL
MODEL 5
REMARK VINA RESULT:      -4.0      2.368      3.375
REMARK  1 active torsions:
REMARK  status: ('A' for Active; 'I' for Inactive)
REMARK    1  A    between atoms: C1_1  and  C2_2 
ROOT
HETATM    1  C2  UNL     1     -34.387  15.692  -4.691  1.00 20.00     0.064 A 
HETATM    2  C3  UNL     1     -35.072  15.337  -3.380  1.00 20.00    -0.030 A 
HETATM    3  C4  UNL     1     -34.176  14.309  -4.094  1.00 20.00    -0.030 A 
HETATM    4  C5  UNL     1     -36.575  15.157  -3.408  1.00 20.00     0.016 C 
HETATM    5  C6  UNL     1     -34.603  15.963  -2.084  1.00 20.00     0.016 C 
HETATM    6  C7  UNL     1     -32.839  13.939  -3.490  1.00 20.00     0.016 C 
HETATM    7  C8  UNL     1     -34.815  13.139  -4.810  1.00 20.00     0.016 C 
ENDROOT
BRANCH   1   8
HETATM    8  C1  UNL     1     -33.296  16.676  -4.739  1.00 20.00     0.237 C 
HETATM    9  O9  UNL     1     -33.386  17.756  -5.313  1.00 20.00    -0.306 OA
ENDBRANCH   1   8
TORSDOF 1
ENDMDL
MODEL 6
REMARK VINA RESULT:      -4.0      1.700      2.488
REMARK  1 active torsions:
REMARK  status: ('A' for Active; 'I' for Inactive)
REMARK    1  A    between atoms: C1_1  and  C2_2 
ROOT
HETATM    1  C2  UNL     1     -34.191  14.739  -4.255  1.00 20.00     0.064 A 
HETATM    2  C3  UNL     1     -35.149  15.562  -3.408  1.00 20.00    -0.030 A 
HETATM    3  C4  UNL     1     -34.541  16.153  -4.692  1.00 20.00    -0.030 A 
HETATM    4  C5  UNL     1     -34.648  16.041  -2.062  1.00 20.00     0.016 C 
HETATM    5  C6  UNL     1     -36.621  15.215  -3.370  1.00 20.00     0.016 C 
HETATM    6  C7  UNL     1     -35.424  16.378  -5.900  1.00 20.00     0.016 C 
HETATM    7  C8  UNL     1     -33.455  17.202  -4.584  1.00 20.00     0.016 C 
ENDROOT
BRANCH   1   8
HETATM    8  C1  UNL     1     -34.658  13.570  -5.014  1.00 20.00     0.237 C 
HETATM    9  O9  UNL     1     -34.940  12.495  -4.494  1.00 20.00    -0.306 OA
ENDBRANCH   1   8
TORSDOF 1
ENDMDL
MODEL 7
REMARK VINA RESULT:      -3.9      2.128      2.643
REMARK  1 active torsions:
REMARK  status: ('A' for Active; 'I' for Inactive)
REMARK    1  A    between atoms: C1_1  and  C2_2 
ROOT
HETATM    1  C2  UNL     1     -34.936  15.621  -3.073  1.00 20.00     0.064 A 
HETATM    2  C3  UNL     1     -34.286  14.499  -3.867  1.00 20.00    -0.030 A 
HETATM    3  C4  UNL     1     -34.544  15.867  -4.521  1.00 20.00    -0.030 A 
HETATM    4  C5  UNL     1     -35.158  13.320  -4.245  1.00 20.00     0.016 C 
HETATM    5  C6  UNL     1     -32.867  14.074  -3.560  1.00 20.00     0.016 C 
HETATM    6  C7  UNL     1     -33.375  16.770  -4.848  1.00 20.00     0.016 C 
HETATM    7  C8  UNL     1     -35.664  16.009  -5.530  1.00 20.00     0.016 C 
ENDROOT
BRANCH   1   8
HETATM    8  C1  UNL     1     -34.227  16.282  -1.968  1.00 20.00     0.237 C 
HETATM    9  O9  UNL     1     -34.670  16.351  -0.826  1.00 20.00    -0.306 OA
ENDBRANCH   1   8
TORSDOF 1
ENDMDL
MODEL 8
REMARK VINA RESULT:      -3.9      0.849      2.755
REMARK  1 active torsions:
REMARK  status: ('A' for Active; 'I' for Inactive)
REMARK    1  A    between atoms: C1_1  and  C2_2 
ROOT
HETATM    1  C2  UNL     1     -35.763  15.626  -4.309  1.00 20.00     0.064 A 
HETATM    2  C3  UNL     1     -34.571  15.742  -5.246  1.00 20.00    -0.030 A 
HETATM    3  C4  UNL     1     -34.399  15.151  -3.835  1.00 20.00    -0.030 A 
HETATM    4  C5  UNL     1     -34.049  17.133  -5.537  1.00 20.00     0.016 C 
HETATM    5  C6  UNL     1     -34.462  14.835  -6.453  1.00 20.00     0.016 C 
HETATM    6  C7  UNL     1     -34.123  13.672  -3.675  1.00 20.00     0.016 C 
HETATM    7  C8  UNL     1     -33.710  15.972  -2.766  1.00 20.00     0.016 C 
ENDROOT
BRANCH   1   8
HETATM    8  C1  UNL     1     -36.851  14.674  -4.575  1.00 20.00     0.237 C 
HETATM    9  O9  UNL     1     -37.611  14.257  -3.707  1.00 20.00    -0.306 OA
ENDBRANCH   1   8
TORSDOF 1
ENDMDL
MODEL 9
REMARK VINA RESULT:      -3.9      1.738      2.614
REMARK  1 active torsions:
REMARK  status: ('A' for Active; 'I' for Inactive)
REMARK    1  A    between atoms: C1_1  and  C2_2 
ROOT
HETATM    1  C2  UNL     1     -34.408  14.837  -5.032  1.00 20.00     0.064 A 
HETATM    2  C3  UNL     1     -34.133  16.110  -4.247  1.00 20.00    -0.030 A 
HETATM    3  C4  UNL     1     -35.575  15.713  -4.606  1.00 20.00    -0.030 A 
HETATM    4  C5  UNL     1     -33.472  17.254  -4.988  1.00 20.00     0.016 C 
HETATM    5  C6  UNL     1     -33.673  16.031  -2.808  1.00 20.00     0.016 C 
HETATM    6  C7  UNL     1     -36.514  15.248  -3.514  1.00 20.00     0.016 C 
HETATM    7  C8  UNL     1     -36.306  16.473  -5.691  1.00 20.00     0.016 C 
ENDROOT
BRANCH   1   8
HETATM    8  C1  UNL     1     -34.191  13.512  -4.434  1.00 20.00     0.237 C 
HETATM    9  O9  UNL     1     -34.803  12.507  -4.780  1.00 20.00    -0.306 OA
ENDBRANCH   1   8
TORSDOF 1
ENDMDL
