MODEL 1
REMARK VINA RESULT:      -3.8      0.000      0.000
REMARK  2 active torsions:
REMARK  status: ('A' for Active; 'I' for Inactive)
REMARK    1  A    between atoms: C1_1  and  C4_4 
REMARK    2  A    between atoms: C4_4  and  C5_5 
ROOT
HETATM    1  C4  UNL     1     -34.967  15.031  -4.778  1.00 20.00     0.137 C 
ENDROOT
BRANCH   1   2
HETATM    2  C1  UNL     1     -35.691  13.792  -4.244  1.00 20.00     0.174 C 
HETATM    3  O6  UNL     1     -35.008  12.728  -4.246  1.00 20.00    -0.648 OA
HETATM    4  O7  UNL     1     -36.887  13.981  -3.887  1.00 20.00    -0.648 OA
ENDBRANCH   1   2
BRANCH   1   5
HETATM    5  C5  UNL     1     -34.041  15.726  -3.766  1.00 20.00     0.039 C 
HETATM    6  C2  UNL     1     -33.641  17.131  -4.223  1.00 20.00     0.032 C 
HETATM    7  C3  UNL     1     -34.660  15.783  -2.365  1.00 20.00     0.032 C 
HETATM    8 CL8  UNL     1     -32.530  14.738  -3.653  1.00 20.00    -0.119 Cl
ENDBRANCH   1   5
TORSDOF 2
ENDMDL
MODEL 2
REMARK VINA RESULT:      -3.8      1.794      2.430
REMARK  2 active torsions:
REMARK  status: ('A' for Active; 'I' for Inactive)
REMARK    1  A    between atoms: C1_1  and  C4_4 
REMARK    2  A    between atoms: C4_4  and  C5_5 
ROOT
HETATM    1  C4  UNL     1     -34.852  14.913  -3.909  1.00 20.00     0.137 C 
ENDROOT
BRANCH   1   2
HETATM    2  C1  UNL     1     -34.312  13.484  -4.021  1.00 20.00     0.174 C 
HETATM    3  O6  UNL     1     -35.164  12.613  -4.360  1.00 20.00    -0.648 OA
HETATM    4  O7  UNL     1     -33.089  13.349  -3.741  1.00 20.00    -0.648 OA
ENDBRANCH   1   2
BRANCH   1   5
HETATM    5  C5  UNL     1     -34.562  15.810  -5.124  1.00 20.00     0.039 C 
HETATM    6  C2  UNL     1     -35.693  16.809  -5.383  1.00 20.00     0.032 C 
HETATM    7  C3  UNL     1     -33.227  16.548  -4.989  1.00 20.00     0.032 C 
HETATM    8 CL8  UNL     1     -34.444  14.733  -6.572  1.00 20.00    -0.119 Cl
ENDBRANCH   1   5
TORSDOF 2
ENDMDL
MODEL 3
REMARK VINA RESULT:      -3.8      2.039      2.706
REMARK  2 active torsions:
REMARK  status: ('A' for Active; 'I' for Inactive)
REMARK    1  A    between atoms: C1_1  and  C4_4 
REMARK    2  A    between atoms: C4_4  and  C5_5 
ROOT
HETATM    1  C4  UNL     1     -34.846  14.901  -4.006  1.00 20.00     0.137 C 
ENDROOT
BRANCH   1   2
HETATM    2  C1  UNL     1     -34.305  13.469  -4.055  1.00 20.00     0.174 C 
HETATM    3  O6  UNL     1     -35.147  12.588  -4.390  1.00 20.00    -0.648 OA
HETATM    4  O7  UNL     1     -33.091  13.342  -3.733  1.00 20.00    -0.648 OA
ENDBRANCH   1   2
BRANCH   1   5
HETATM    5  C5  UNL     1     -34.527  15.755  -5.244  1.00 20.00     0.039 C 
HETATM    6  C2  UNL     1     -33.222  16.540  -5.081  1.00 20.00     0.032 C 
HETATM    7  C3  UNL     1     -34.480  14.915  -6.526  1.00 20.00     0.032 C 
HETATM    8 CL8  UNL     1     -35.866  16.955  -5.430  1.00 20.00    -0.119 Cl
ENDBRANCH   1   5
TORSDOF 2
ENDMDL
MODEL 4
REMARK VINA RESULT:      -3.7      1.506      2.100
REMARK  2 active torsions:
REMARK  status: ('A' for Active; 'I' for Inactive)
REMARK    1  A    between atoms: C1_1  and  C4_4 
REMARK    2  A    between atoms: C4_4  and  C5_5 
ROOT
HETATM    1  C4  UNL     1     -35.097  14.912  -3.932  1.00 20.00     0.137 C 
ENDROOT
BRANCH   1   2
HETATM    2  C1  UNL     1     -35.004  13.736  -4.909  1.00 20.00     0.174 C 
HETATM    3  O6  UNL     1     -34.920  14.057  -6.129  1.00 20.00    -0.648 OA
HETATM    4  O7  UNL     1     -35.044  12.592  -4.377  1.00 20.00    -0.648 OA
ENDBRANCH   1   2
BRANCH   1   5
HETATM    5  C5  UNL     1     -33.767  15.634  -3.661  1.00 20.00     0.039 C 
HETATM    6  C2  UNL     1     -32.586  14.661  -3.599  1.00 20.00     0.032 C 
HETATM    7  C3  UNL     1     -33.490  16.735  -4.690  1.00 20.00     0.032 C 
HETATM    8 CL8  UNL     1     -33.905  16.427  -2.041  1.00 20.00    -0.119 Cl
ENDBRANCH   1   5
TORSDOF 2
ENDMDL
MODEL 5
REMARK VINA RESULT:      -3.7      1.520      1.964
REMARK  2 active torsions:
REMARK  status: ('A' for Active; 'I' for Inactive)
REMARK    1  A    between atoms: C1_1  and  C4_4 
REMARK    2  A    between atoms: C4_4  and  C5_5 
ROOT
HETATM    1  C4  UNL     1     -35.046  14.919  -3.961  1.00 20.00     0.137 C 
ENDROOT
BRANCH   1   2
HETATM    2  C1  UNL     1     -34.945  13.745  -4.940  1.00 20.00     0.174 C 
HETATM    3  O6  UNL     1     -34.814  14.068  -6.155  1.00 20.00    -0.648 OA
HETATM    4  O7  UNL     1     -35.026  12.600  -4.414  1.00 20.00    -0.648 OA
ENDBRANCH   1   2
BRANCH   1   5
HETATM    5  C5  UNL     1     -33.707  15.590  -3.616  1.00 20.00     0.039 C 
HETATM    6  C2  UNL     1     -33.785  16.392  -2.314  1.00 20.00     0.032 C 
HETATM    7  C3  UNL     1     -32.558  14.579  -3.545  1.00 20.00     0.032 C 
HETATM    8 CL8  UNL     1     -33.327  16.752  -4.949  1.00 20.00    -0.119 Cl
ENDBRANCH   1   5
TORSDOF 2
ENDMDL
MODEL 6
REMARK VINA RESULT:      -3.7      1.653      2.289
REMARK  2 active torsions:
REMARK  status: ('A' for Active; 'I' for Inactive)
REMARK    1  A    between atoms: C1_1  and  C4_4 
REMARK    2  A    between atoms: C4_4  and  C5_5 
ROOT
HETATM    1  C4  UNL     1     -34.942  14.865  -3.974  1.00 20.00     0.137 C 
ENDROOT
BRANCH   1   2
HETATM    2  C1  UNL     1     -34.429  13.423  -4.017  1.00 20.00     0.174 C 
HETATM    3  O6  UNL     1     -33.198  13.282  -3.763  1.00 20.00    -0.648 OA
HETATM    4  O7  UNL     1     -35.293  12.554  -4.323  1.00 20.00    -0.648 OA
ENDBRANCH   1   2
BRANCH   1   5
HETATM    5  C5  UNL     1     -34.670  15.686  -5.245  1.00 20.00     0.039 C 
HETATM    6  C2  UNL     1     -34.599  14.805  -6.495  1.00 20.00     0.032 C 
HETATM    7  C3  UNL     1     -35.705  16.799  -5.443  1.00 20.00     0.032 C 
HETATM    8 CL8  UNL     1     -33.056  16.475  -5.041  1.00 20.00    -0.119 Cl
ENDBRANCH   1   5
TORSDOF 2
ENDMDL
MODEL 7
REMARK VINA RESULT:      -3.7      1.817      2.185
REMARK  2 active torsions:
REMARK  status: ('A' for Active; 'I' for Inactive)
REMARK    1  A    between atoms: C1_1  and  C4_4 
REMARK    2  A    between atoms: C4_4  and  C5_5 
ROOT
HETATM    1  C4  UNL     1     -34.002  14.579  -3.585  1.00 20.00     0.137 C 
ENDROOT
BRANCH   1   2
HETATM    2  C1  UNL     1     -34.532  13.717  -4.735  1.00 20.00     0.174 C 
HETATM    3  O6  UNL     1     -34.988  12.588  -4.395  1.00 20.00    -0.648 OA
HETATM    4  O7  UNL     1     -34.428  14.232  -5.884  1.00 20.00    -0.648 OA
ENDBRANCH   1   2
BRANCH   1   5
HETATM    5  C5  UNL     1     -34.941  15.713  -3.142  1.00 20.00     0.039 C 
HETATM    6  C2  UNL     1     -36.416  15.338  -3.309  1.00 20.00     0.032 C 
HETATM    7  C3  UNL     1     -34.669  16.154  -1.699  1.00 20.00     0.032 C 
HETATM    8 CL8  UNL     1     -34.615  17.132  -4.214  1.00 20.00    -0.119 Cl
ENDBRANCH   1   5
TORSDOF 2
ENDMDL
MODEL 8
REMARK VINA RESULT:      -3.7      1.653      1.955
REMARK  2 active torsions:
REMARK  status: ('A' for Active; 'I' for Inactive)
REMARK    1  A    between atoms: C1_1  and  C4_4 
REMARK    2  A    between atoms: C4_4  and  C5_5 
ROOT
HETATM    1  C4  UNL     1     -34.486  14.535  -5.315  1.00 20.00     0.137 C 
ENDROOT
BRANCH   1   2
HETATM    2  C1  UNL     1     -34.329  13.312  -4.407  1.00 20.00     0.174 C 
HETATM    3  O6  UNL     1     -33.193  13.185  -3.869  1.00 20.00    -0.648 OA
HETATM    4  O7  UNL     1     -35.348  12.570  -4.326  1.00 20.00    -0.648 OA
ENDBRANCH   1   2
BRANCH   1   5
HETATM    5  C5  UNL     1     -34.673  15.870  -4.575  1.00 20.00     0.039 C 
HETATM    6  C2  UNL     1     -33.377  16.685  -4.525  1.00 20.00     0.032 C 
HETATM    7  C3  UNL     1     -35.802  16.711  -5.181  1.00 20.00     0.032 C 
HETATM    8 CL8  UNL     1     -35.139  15.481  -2.872  1.00 20.00    -0.119 Cl
ENDBRANCH   1   5
TORSDOF 2
ENDMDL
MODEL 9
REMARK VINA RESULT:      -3.3      1.931      2.557
REMARK  2 active torsions:
REMARK  status: ('A' for Active; 'I' for Inactive)
REMARK    1  A    between atoms: C1_1  and  C4_4 
REMARK    2  A    between atoms: C4_4  and  C5_5 
ROOT
HETATM    1  C4  UNL     1     -36.144  15.437  -5.212  1.00 20.00     0.137 C 
ENDROOT
BRANCH   1   2
HETATM    2  C1  UNL     1     -36.569  14.951  -3.823  1.00 20.00     0.174 C 
HETATM    3  O6  UNL     1     -37.501  14.097  -3.815  1.00 20.00    -0.648 OA
HETATM    4  O7  UNL     1     -35.951  15.480  -2.857  1.00 20.00    -0.648 OA
ENDBRANCH   1   2
BRANCH   1   5
HETATM    5  C5  UNL     1     -34.745  14.979  -5.657  1.00 20.00     0.039 C 
HETATM    6  C2  UNL     1     -34.655  14.799  -7.175  1.00 20.00     0.032 C 
HETATM    7  C3  UNL     1     -33.647  15.932  -5.173  1.00 20.00     0.032 C 
HETATM    8 CL8  UNL     1     -34.439  13.367  -4.897  1.00 20.00    -0.119 Cl
ENDBRANCH   1   5
TORSDOF 2
ENDMDL
