MODEL 1
REMARK VINA RESULT:      -3.7      0.000      0.000
REMARK  0 active torsions:
REMARK  status: ('A' for Active; 'I' for Inactive)
ROOT
HETATM    1  C1  UNL     1     -33.045   6.222   3.718  1.00 20.00     0.064 C 
HETATM    2  C2  UNL     1     -34.186   6.418   5.919  1.00 20.00     0.030 C 
HETATM    3  C3  UNL     1     -33.966   4.979   6.366  1.00 20.00     0.075 C 
HETATM    4  C4  UNL     1     -35.329   5.306   4.070  1.00 20.00     0.093 C 
HETATM    5  C5  UNL     1     -34.339   6.419   4.398  1.00 20.00     0.103 C 
HETATM    6  N6  UNL     1     -32.027   6.065   3.183  1.00 20.00    -0.197 NA
HETATM    7  S7  UNL     1     -35.012   3.978   5.273  1.00 20.00    -0.168 SA
ENDROOT
TORSDOF 0
ENDMDL
MODEL 2
REMARK VINA RESULT:      -3.6     12.477     13.116
REMARK  0 active torsions:
REMARK  status: ('A' for Active; 'I' for Inactive)
ROOT
HETATM    1  C1  UNL     1     -34.404  13.761  -3.912  1.00 20.00     0.064 C 
HETATM    2  C2  UNL     1     -34.632  15.729  -2.409  1.00 20.00     0.030 C 
HETATM    3  C3  UNL     1     -35.673  16.470  -3.238  1.00 20.00     0.075 C 
HETATM    4  C4  UNL     1     -33.343  15.938  -4.471  1.00 20.00     0.093 C 
HETATM    5  C5  UNL     1     -33.730  14.956  -3.370  1.00 20.00     0.103 C 
HETATM    6  N6  UNL     1     -34.935  12.821  -4.338  1.00 20.00    -0.197 NA
HETATM    7  S7  UNL     1     -34.797  16.999  -4.735  1.00 20.00    -0.168 SA
ENDROOT
TORSDOF 0
ENDMDL
MODEL 3
REMARK VINA RESULT:      -3.5     12.586     13.192
REMARK  0 active torsions:
REMARK  status: ('A' for Active; 'I' for Inactive)
ROOT
HETATM    1  C1  UNL     1     -36.078  14.020  -4.254  1.00 20.00     0.064 C 
HETATM    2  C2  UNL     1     -33.632  13.824  -3.848  1.00 20.00     0.030 C 
HETATM    3  C3  UNL     1     -33.384  15.291  -3.522  1.00 20.00     0.075 C 
HETATM    4  C4  UNL     1     -34.426  14.780  -5.949  1.00 20.00     0.093 C 
HETATM    5  C5  UNL     1     -34.765  13.755  -4.872  1.00 20.00     0.103 C 
HETATM    6  N6  UNL     1     -37.111  14.230  -3.768  1.00 20.00    -0.197 NA
HETATM    7  S7  UNL     1     -33.629  16.171  -5.089  1.00 20.00    -0.168 SA
ENDROOT
TORSDOF 0
ENDMDL
MODEL 4
REMARK VINA RESULT:      -3.5     12.403     12.977
REMARK  0 active torsions:
REMARK  status: ('A' for Active; 'I' for Inactive)
ROOT
HETATM    1  C1  UNL     1     -33.408  16.089  -4.347  1.00 20.00     0.064 C 
HETATM    2  C2  UNL     1     -33.818  13.712  -3.739  1.00 20.00     0.030 C 
HETATM    3  C3  UNL     1     -34.950  13.465  -4.727  1.00 20.00     0.075 C 
HETATM    4  C4  UNL     1     -35.351  15.435  -2.940  1.00 20.00     0.093 C 
HETATM    5  C5  UNL     1     -33.891  15.173  -3.296  1.00 20.00     0.103 C 
HETATM    6  N6  UNL     1     -33.029  16.809  -5.175  1.00 20.00    -0.197 NA
HETATM    7  S7  UNL     1     -36.340  14.454  -4.110  1.00 20.00    -0.168 SA
ENDROOT
TORSDOF 0
ENDMDL
MODEL 5
REMARK VINA RESULT:      -3.3     12.397     13.128
REMARK  0 active torsions:
REMARK  status: ('A' for Active; 'I' for Inactive)
ROOT
HETATM    1  C1  UNL     1     -36.683  14.389  -4.343  1.00 20.00     0.064 C 
HETATM    2  C2  UNL     1     -34.517  13.290  -4.879  1.00 20.00     0.030 C 
HETATM    3  C3  UNL     1     -33.760  13.774  -3.650  1.00 20.00     0.075 C 
HETATM    4  C4  UNL     1     -34.766  15.690  -5.246  1.00 20.00     0.093 C 
HETATM    5  C5  UNL     1     -35.529  14.369  -5.262  1.00 20.00     0.103 C 
HETATM    6  N6  UNL     1     -37.590  14.405  -3.619  1.00 20.00    -0.197 NA
HETATM    7  S7  UNL     1     -33.561  15.560  -3.889  1.00 20.00    -0.168 SA
ENDROOT
TORSDOF 0
ENDMDL
MODEL 6
REMARK VINA RESULT:      -3.2     13.456     14.233
REMARK  0 active torsions:
REMARK  status: ('A' for Active; 'I' for Inactive)
ROOT
HETATM    1  C1  UNL     1     -35.030  13.589  -5.300  1.00 20.00     0.064 C 
HETATM    2  C2  UNL     1     -34.220  15.425  -6.769  1.00 20.00     0.030 C 
HETATM    3  C3  UNL     1     -33.671  16.314  -5.662  1.00 20.00     0.075 C 
HETATM    4  C4  UNL     1     -36.290  15.722  -5.509  1.00 20.00     0.093 C 
HETATM    5  C5  UNL     1     -35.431  14.676  -6.213  1.00 20.00     0.103 C 
HETATM    6  N6  UNL     1     -34.714  12.735  -4.580  1.00 20.00    -0.197 NA
HETATM    7  S7  UNL     1     -35.131  16.910  -4.765  1.00 20.00    -0.168 SA
ENDROOT
TORSDOF 0
ENDMDL
MODEL 7
REMARK VINA RESULT:      -3.2     12.387     13.222
REMARK  0 active torsions:
REMARK  status: ('A' for Active; 'I' for Inactive)
ROOT
HETATM    1  C1  UNL     1     -34.102  15.847  -2.470  1.00 20.00     0.064 C 
HETATM    2  C2  UNL     1     -33.269  16.108  -4.799  1.00 20.00     0.030 C 
HETATM    3  C3  UNL     1     -34.562  15.713  -5.499  1.00 20.00     0.075 C 
HETATM    4  C4  UNL     1     -33.501  13.870  -3.852  1.00 20.00     0.093 C 
HETATM    5  C5  UNL     1     -33.181  15.317  -3.494  1.00 20.00     0.103 C 
HETATM    6  N6  UNL     1     -34.827  16.263  -1.665  1.00 20.00    -0.197 NA
HETATM    7  S7  UNL     1     -34.759  13.941  -5.164  1.00 20.00    -0.168 SA
ENDROOT
TORSDOF 0
ENDMDL
MODEL 8
REMARK VINA RESULT:      -3.0     12.402     13.081
REMARK  0 active torsions:
REMARK  status: ('A' for Active; 'I' for Inactive)
ROOT
HETATM    1  C1  UNL     1     -34.777  14.290  -5.931  1.00 20.00     0.064 C 
HETATM    2  C2  UNL     1     -36.432  14.281  -4.074  1.00 20.00     0.030 C 
HETATM    3  C3  UNL     1     -36.110  15.670  -3.539  1.00 20.00     0.075 C 
HETATM    4  C4  UNL     1     -34.070  13.917  -3.577  1.00 20.00     0.093 C 
HETATM    5  C5  UNL     1     -35.142  13.684  -4.636  1.00 20.00     0.103 C 
HETATM    6  N6  UNL     1     -34.490  14.767  -6.949  1.00 20.00    -0.197 NA
HETATM    7  S7  UNL     1     -34.451  15.527  -2.819  1.00 20.00    -0.168 SA
ENDROOT
TORSDOF 0
ENDMDL
MODEL 9
REMARK VINA RESULT:      -3.0     12.801     13.461
REMARK  0 active torsions:
REMARK  status: ('A' for Active; 'I' for Inactive)
ROOT
HETATM    1  C1  UNL     1     -35.270  13.647  -4.187  1.00 20.00     0.064 C 
HETATM    2  C2  UNL     1     -37.416  14.863  -3.871  1.00 20.00     0.030 C 
HETATM    3  C3  UNL     1     -37.604  15.279  -5.324  1.00 20.00     0.075 C 
HETATM    4  C4  UNL     1     -35.347  16.131  -4.135  1.00 20.00     0.093 C 
HETATM    5  C5  UNL     1     -35.916  14.828  -3.583  1.00 20.00     0.103 C 
HETATM    6  N6  UNL     1     -34.762  12.718  -4.662  1.00 20.00    -0.197 NA
HETATM    7  S7  UNL     1     -36.302  16.501  -5.639  1.00 20.00    -0.168 SA
ENDROOT
TORSDOF 0
ENDMDL
