MODEL 1
REMARK VINA RESULT:      -4.2      0.000      0.000
REMARK  1 active torsions:
REMARK  status: ('A' for Active; 'I' for Inactive)
REMARK    1  A    between atoms: C2_2  and  C8_8 
ROOT
HETATM    1  C1  UNL     1     -36.259  16.222  -3.197  1.00 20.00     0.203 C 
HETATM    2  C2  UNL     1     -34.839  16.777  -3.369  1.00 20.00     0.244 C 
HETATM    3  C3  UNL     1     -35.124  15.599  -5.486  1.00 20.00     0.245 C 
HETATM    4  C4  UNL     1     -35.783  14.430  -4.718  1.00 20.00     0.150 C 
HETATM    5  C5  UNL     1     -34.397  15.161  -6.756  1.00 20.00     0.045 C 
HETATM    6  C6  UNL     1     -34.876  13.223  -4.482  1.00 20.00     0.042 C 
HETATM    7  N9  UNL     1     -34.202  16.342  -4.622  1.00 20.00     0.097 N 
HETATM    8  O10 UNL     1     -36.281  14.817  -3.425  1.00 20.00    -0.382 OA
HETATM    9  H27 UNL     1     -33.842  17.164  -5.124  1.00 20.00     0.317 HD
ENDROOT
BRANCH   2  10
HETATM   10  C8  UNL     1     -33.950  16.387  -2.183  1.00 20.00     0.033 C 
HETATM   11  C7  UNL     1     -34.623  16.654  -0.876  1.00 20.00     0.007 C 
ENDBRANCH   2  10
TORSDOF 1
ENDMDL
MODEL 2
REMARK VINA RESULT:      -4.1      1.060      3.559
REMARK  1 active torsions:
REMARK  status: ('A' for Active; 'I' for Inactive)
REMARK    1  A    between atoms: C2_2  and  C8_8 
ROOT
HETATM    1  C1  UNL     1     -35.457  13.441  -4.343  1.00 20.00     0.203 C 
HETATM    2  C2  UNL     1     -34.251  14.137  -4.989  1.00 20.00     0.244 C 
HETATM    3  C3  UNL     1     -34.417  15.373  -2.893  1.00 20.00     0.245 C 
HETATM    4  C4  UNL     1     -35.953  15.409  -3.064  1.00 20.00     0.150 C 
HETATM    5  C5  UNL     1     -33.861  16.573  -2.126  1.00 20.00     0.045 C 
HETATM    6  C6  UNL     1     -36.514  16.735  -3.574  1.00 20.00     0.042 C 
HETATM    7  N9  UNL     1     -33.746  15.266  -4.191  1.00 20.00     0.097 N 
HETATM    8  O10 UNL     1     -36.442  14.395  -3.960  1.00 20.00    -0.382 OA
HETATM    9  H27 UNL     1     -32.733  15.156  -4.051  1.00 20.00     0.317 HD
ENDROOT
BRANCH   2  10
HETATM   10  C8  UNL     1     -34.591  14.623  -6.402  1.00 20.00     0.033 C 
HETATM   11  C7  UNL     1     -34.245  16.065  -6.589  1.00 20.00     0.007 C 
ENDBRANCH   2  10
TORSDOF 1
ENDMDL
MODEL 3
REMARK VINA RESULT:      -4.1      1.874      2.559
REMARK  1 active torsions:
REMARK  status: ('A' for Active; 'I' for Inactive)
REMARK    1  A    between atoms: C2_2  and  C8_8 
ROOT
HETATM    1  C1  UNL     1     -33.169  15.350  -3.676  1.00 20.00     0.203 C 
HETATM    2  C2  UNL     1     -34.605  14.881  -3.408  1.00 20.00     0.244 C 
HETATM    3  C3  UNL     1     -34.513  14.694  -5.838  1.00 20.00     0.245 C 
HETATM    4  C4  UNL     1     -33.771  16.050  -5.889  1.00 20.00     0.150 C 
HETATM    5  C5  UNL     1     -35.356  14.414  -7.081  1.00 20.00     0.045 C 
HETATM    6  C6  UNL     1     -34.636  17.244  -6.286  1.00 20.00     0.042 C 
HETATM    7  N9  UNL     1     -35.355  14.602  -4.643  1.00 20.00     0.097 N 
HETATM    8  O10 UNL     1     -33.153  16.399  -4.638  1.00 20.00    -0.382 OA
HETATM    9  H27 UNL     1     -35.772  13.663  -4.582  1.00 20.00     0.317 HD
ENDROOT
BRANCH   2  10
HETATM   10  C8  UNL     1     -35.370  15.909  -2.567  1.00 20.00     0.033 C 
HETATM   11  C7  UNL     1     -34.572  16.364  -1.389  1.00 20.00     0.007 C 
ENDBRANCH   2  10
TORSDOF 1
ENDMDL
MODEL 4
REMARK VINA RESULT:      -4.0      1.990      2.463
REMARK  1 active torsions:
REMARK  status: ('A' for Active; 'I' for Inactive)
REMARK    1  A    between atoms: C2_2  and  C8_8 
ROOT
HETATM    1  C1  UNL     1     -34.092  17.400  -4.612  1.00 20.00     0.203 C 
HETATM    2  C2  UNL     1     -33.194  16.168  -4.786  1.00 20.00     0.244 C 
HETATM    3  C3  UNL     1     -34.650  15.944  -6.729  1.00 20.00     0.245 C 
HETATM    4  C4  UNL     1     -35.854  16.335  -5.841  1.00 20.00     0.150 C 
HETATM    5  C5  UNL     1     -35.022  15.018  -7.886  1.00 20.00     0.045 C 
HETATM    6  C6  UNL     1     -36.729  15.166  -5.392  1.00 20.00     0.042 C 
HETATM    7  N9  UNL     1     -33.586  15.331  -5.931  1.00 20.00     0.097 N 
HETATM    8  O10 UNL     1     -35.465  17.029  -4.643  1.00 20.00    -0.382 OA
HETATM    9  H27 UNL     1     -32.762  15.159  -6.523  1.00 20.00     0.317 HD
ENDROOT
BRANCH   2  10
HETATM   10  C8  UNL     1     -33.180  15.315  -3.513  1.00 20.00     0.033 C 
HETATM   11  C7  UNL     1     -33.542  13.893  -3.795  1.00 20.00     0.007 C 
ENDBRANCH   2  10
TORSDOF 1
ENDMDL
MODEL 5
REMARK VINA RESULT:      -4.0      1.626      2.341
REMARK  1 active torsions:
REMARK  status: ('A' for Active; 'I' for Inactive)
REMARK    1  A    between atoms: C2_2  and  C8_8 
ROOT
HETATM    1  C1  UNL     1     -35.147  13.443  -4.162  1.00 20.00     0.203 C 
HETATM    2  C2  UNL     1     -35.543  14.783  -3.527  1.00 20.00     0.244 C 
HETATM    3  C3  UNL     1     -36.484  15.045  -5.762  1.00 20.00     0.245 C 
HETATM    4  C4  UNL     1     -35.195  14.423  -6.350  1.00 20.00     0.150 C 
HETATM    5  C5  UNL     1     -37.162  16.041  -6.701  1.00 20.00     0.045 C 
HETATM    6  C6  UNL     1     -34.209  15.427  -6.944  1.00 20.00     0.042 C 
HETATM    7  N9  UNL     1     -36.216  15.687  -4.473  1.00 20.00     0.097 N 
HETATM    8  O10 UNL     1     -34.454  13.653  -5.387  1.00 20.00    -0.382 OA
HETATM    9  H27 UNL     1     -37.098  16.017  -4.059  1.00 20.00     0.317 HD
ENDROOT
BRANCH   2  10
HETATM   10  C8  UNL     1     -34.323  15.489  -2.927  1.00 20.00     0.033 C 
HETATM   11  C7  UNL     1     -34.670  16.225  -1.674  1.00 20.00     0.007 C 
ENDBRANCH   2  10
TORSDOF 1
ENDMDL
MODEL 6
REMARK VINA RESULT:      -4.0      1.632      2.908
REMARK  1 active torsions:
REMARK  status: ('A' for Active; 'I' for Inactive)
REMARK    1  A    between atoms: C2_2  and  C8_8 
ROOT
HETATM    1  C1  UNL     1     -33.703  16.098  -2.720  1.00 20.00     0.203 C 
HETATM    2  C2  UNL     1     -33.151  15.149  -3.792  1.00 20.00     0.244 C 
HETATM    3  C3  UNL     1     -33.909  17.005  -5.180  1.00 20.00     0.245 C 
HETATM    4  C4  UNL     1     -35.189  17.095  -4.317  1.00 20.00     0.150 C 
HETATM    5  C5  UNL     1     -34.116  17.454  -6.626  1.00 20.00     0.045 C 
HETATM    6  C6  UNL     1     -36.434  16.472  -4.947  1.00 20.00     0.042 C 
HETATM    7  N9  UNL     1     -33.356  15.648  -5.160  1.00 20.00     0.097 N 
HETATM    8  O10 UNL     1     -35.040  16.478  -3.026  1.00 20.00    -0.382 OA
HETATM    9  H27 UNL     1     -32.461  15.630  -5.667  1.00 20.00     0.317 HD
ENDROOT
BRANCH   2  10
HETATM   10  C8  UNL     1     -33.769  13.753  -3.659  1.00 20.00     0.033 C 
HETATM   11  C7  UNL     1     -34.474  13.340  -4.911  1.00 20.00     0.007 C 
ENDBRANCH   2  10
TORSDOF 1
ENDMDL
MODEL 7
REMARK VINA RESULT:      -4.0      1.597      2.111
REMARK  1 active torsions:
REMARK  status: ('A' for Active; 'I' for Inactive)
REMARK    1  A    between atoms: C2_2  and  C8_8 
ROOT
HETATM    1  C1  UNL     1     -33.693  17.018  -3.808  1.00 20.00     0.203 C 
HETATM    2  C2  UNL     1     -33.705  15.927  -2.730  1.00 20.00     0.244 C 
HETATM    3  C3  UNL     1     -34.327  14.626  -4.697  1.00 20.00     0.245 C 
HETATM    4  C4  UNL     1     -35.262  15.779  -5.132  1.00 20.00     0.150 C 
HETATM    5  C5  UNL     1     -34.801  13.250  -5.160  1.00 20.00     0.045 C 
HETATM    6  C6  UNL     1     -36.744  15.548  -4.848  1.00 20.00     0.042 C 
HETATM    7  N9  UNL     1     -34.144  14.620  -3.243  1.00 20.00     0.097 N 
HETATM    8  O10 UNL     1     -34.925  17.036  -4.520  1.00 20.00    -0.382 OA
HETATM    9  H27 UNL     1     -33.454  13.903  -2.983  1.00 20.00     0.317 HD
ENDROOT
BRANCH   2  10
HETATM   10  C8  UNL     1     -34.590  16.334  -1.547  1.00 20.00     0.033 C 
HETATM   11  C7  UNL     1     -33.995  17.466  -0.775  1.00 20.00     0.007 C 
ENDBRANCH   2  10
TORSDOF 1
ENDMDL
MODEL 8
REMARK VINA RESULT:      -4.0      1.483      2.999
REMARK  1 active torsions:
REMARK  status: ('A' for Active; 'I' for Inactive)
REMARK    1  A    between atoms: C2_2  and  C8_8 
ROOT
HETATM    1  C1  UNL     1     -34.887  13.439  -4.367  1.00 20.00     0.203 C 
HETATM    2  C2  UNL     1     -35.921  14.423  -4.931  1.00 20.00     0.244 C 
HETATM    3  C3  UNL     1     -33.907  15.797  -4.995  1.00 20.00     0.245 C 
HETATM    4  C4  UNL     1     -33.523  15.256  -3.598  1.00 20.00     0.150 C 
HETATM    5  C5  UNL     1     -33.391  17.210  -5.262  1.00 20.00     0.045 C 
HETATM    6  C6  UNL     1     -33.807  16.208  -2.438  1.00 20.00     0.042 C 
HETATM    7  N9  UNL     1     -35.357  15.757  -5.193  1.00 20.00     0.097 N 
HETATM    8  O10 UNL     1     -34.184  14.020  -3.275  1.00 20.00    -0.382 OA
HETATM    9  H27 UNL     1     -35.585  16.039  -6.156  1.00 20.00     0.317 HD
ENDROOT
BRANCH   2  10
HETATM   10  C8  UNL     1     -37.124  14.553  -3.991  1.00 20.00     0.033 C 
HETATM   11  C7  UNL     1     -37.379  15.976  -3.612  1.00 20.00     0.007 C 
ENDBRANCH   2  10
TORSDOF 1
ENDMDL
MODEL 9
REMARK VINA RESULT:      -3.9      1.650      2.909
REMARK  1 active torsions:
REMARK  status: ('A' for Active; 'I' for Inactive)
REMARK    1  A    between atoms: C2_2  and  C8_8 
ROOT
HETATM    1  C1  UNL     1     -33.469  15.955  -3.048  1.00 20.00     0.203 C 
HETATM    2  C2  UNL     1     -34.245  16.846  -4.027  1.00 20.00     0.244 C 
HETATM    3  C3  UNL     1     -35.913  15.130  -3.558  1.00 20.00     0.245 C 
HETATM    4  C4  UNL     1     -34.803  14.059  -3.660  1.00 20.00     0.150 C 
HETATM    5  C5  UNL     1     -37.295  14.617  -3.961  1.00 20.00     0.045 C 
HETATM    6  C6  UNL     1     -34.775  13.285  -4.977  1.00 20.00     0.042 C 
HETATM    7  N9  UNL     1     -35.577  16.313  -4.355  1.00 20.00     0.097 N 
HETATM    8  O10 UNL     1     -33.483  14.600  -3.483  1.00 20.00    -0.382 OA
HETATM    9  H27 UNL     1     -36.283  17.046  -4.205  1.00 20.00     0.317 HD
ENDROOT
BRANCH   2  10
HETATM   10  C8  UNL     1     -33.450  17.064  -5.319  1.00 20.00     0.033 C 
HETATM   11  C7  UNL     1     -34.235  16.662  -6.525  1.00 20.00     0.007 C 
ENDBRANCH   2  10
TORSDOF 1
ENDMDL
