MODEL 1
REMARK VINA RESULT:      -5.0      0.000      0.000
REMARK  3 active torsions:
REMARK  status: ('A' for Active; 'I' for Inactive)
REMARK    1  A    between atoms: C3_3  and  C7_7 
REMARK    2  A    between atoms: C5_5  and  C6_6 
REMARK    3  A    between atoms: C6_6  and  C7_7 
ROOT
HETATM    1  C1  UNL     1     -31.775   7.315   3.278  1.00 20.00     0.012 C 
HETATM    2  C2  UNL     1     -32.686   6.557   3.089  1.00 20.00    -0.117 C 
HETATM    3  C5  UNL     1     -33.799   5.627   2.850  1.00 20.00     0.093 C 
ENDROOT
BRANCH   3   4
HETATM    4  C6  UNL     1     -34.828   5.648   3.987  1.00 20.00     0.023 C 
BRANCH   4   5
HETATM    5  C7  UNL     1     -34.282   5.159   5.339  1.00 20.00     0.044 C 
HETATM    6  C4  UNL     1     -35.104   3.980   5.854  1.00 20.00     0.017 C 
BRANCH   5   7
HETATM    7  C3  UNL     1     -34.300   6.236   6.411  1.00 20.00     0.235 C 
HETATM    8  O8  UNL     1     -33.393   7.034   6.621  1.00 20.00    -0.306 OA
ENDBRANCH   5   7
ENDBRANCH   4   5
ENDBRANCH   3   4
TORSDOF 3
ENDMDL
MODEL 2
REMARK VINA RESULT:      -4.9      1.773      2.246
REMARK  3 active torsions:
REMARK  status: ('A' for Active; 'I' for Inactive)
REMARK    1  A    between atoms: C3_3  and  C7_7 
REMARK    2  A    between atoms: C5_5  and  C6_6 
REMARK    3  A    between atoms: C6_6  and  C7_7 
ROOT
HETATM    1  C1  UNL     1     -32.100   8.292   1.888  1.00 20.00     0.012 C 
HETATM    2  C2  UNL     1     -32.289   7.452   2.724  1.00 20.00    -0.117 C 
HETATM    3  C5  UNL     1     -32.513   6.424   3.751  1.00 20.00     0.093 C 
ENDROOT
BRANCH   3   4
HETATM    4  C6  UNL     1     -33.945   5.876   3.721  1.00 20.00     0.023 C 
BRANCH   4   5
HETATM    5  C7  UNL     1     -34.629   5.829   5.097  1.00 20.00     0.044 C 
HETATM    6  C4  UNL     1     -33.785   6.557   6.141  1.00 20.00     0.017 C 
BRANCH   5   7
HETATM    7  C3  UNL     1     -34.860   4.413   5.598  1.00 20.00     0.235 C 
HETATM    8  O8  UNL     1     -35.134   3.452   4.888  1.00 20.00    -0.306 OA
ENDBRANCH   5   7
ENDBRANCH   4   5
ENDBRANCH   3   4
TORSDOF 3
ENDMDL
MODEL 3
REMARK VINA RESULT:      -4.9      0.952      1.146
REMARK  3 active torsions:
REMARK  status: ('A' for Active; 'I' for Inactive)
REMARK    1  A    between atoms: C3_3  and  C7_7 
REMARK    2  A    between atoms: C5_5  and  C6_6 
REMARK    3  A    between atoms: C6_6  and  C7_7 
ROOT
HETATM    1  C1  UNL     1     -32.094   8.572   1.842  1.00 20.00     0.012 C 
HETATM    2  C2  UNL     1     -32.247   7.589   2.514  1.00 20.00    -0.117 C 
HETATM    3  C5  UNL     1     -32.427   6.384   3.337  1.00 20.00     0.093 C 
ENDROOT
BRANCH   3   4
HETATM    4  C6  UNL     1     -33.879   6.203   3.792  1.00 20.00     0.023 C 
BRANCH   4   5
HETATM    5  C7  UNL     1     -34.039   5.360   5.068  1.00 20.00     0.044 C 
HETATM    6  C4  UNL     1     -35.247   4.434   4.951  1.00 20.00     0.017 C 
BRANCH   5   7
HETATM    7  C3  UNL     1     -34.224   6.204   6.318  1.00 20.00     0.235 C 
HETATM    8  O8  UNL     1     -33.467   7.097   6.682  1.00 20.00    -0.306 OA
ENDBRANCH   5   7
ENDBRANCH   4   5
ENDBRANCH   3   4
TORSDOF 3
ENDMDL
MODEL 4
REMARK VINA RESULT:      -4.6      1.249      1.810
REMARK  3 active torsions:
REMARK  status: ('A' for Active; 'I' for Inactive)
REMARK    1  A    between atoms: C3_3  and  C7_7 
REMARK    2  A    between atoms: C5_5  and  C6_6 
REMARK    3  A    between atoms: C6_6  and  C7_7 
ROOT
HETATM    1  C1  UNL     1     -32.143   8.612   1.738  1.00 20.00     0.012 C 
HETATM    2  C2  UNL     1     -32.201   7.628   2.423  1.00 20.00    -0.117 C 
HETATM    3  C5  UNL     1     -32.268   6.420   3.257  1.00 20.00     0.093 C 
ENDROOT
BRANCH   3   4
HETATM    4  C6  UNL     1     -33.336   6.527   4.351  1.00 20.00     0.023 C 
BRANCH   4   5
HETATM    5  C7  UNL     1     -34.279   5.314   4.431  1.00 20.00     0.044 C 
HETATM    6  C4  UNL     1     -35.529   5.552   3.587  1.00 20.00     0.017 C 
BRANCH   5   7
HETATM    7  C3  UNL     1     -34.732   5.007   5.848  1.00 20.00     0.235 C 
HETATM    8  O8  UNL     1     -34.711   5.802   6.781  1.00 20.00    -0.306 OA
ENDBRANCH   5   7
ENDBRANCH   4   5
ENDBRANCH   3   4
TORSDOF 3
ENDMDL
MODEL 5
REMARK VINA RESULT:      -4.3      2.321      4.328
REMARK  3 active torsions:
REMARK  status: ('A' for Active; 'I' for Inactive)
REMARK    1  A    between atoms: C3_3  and  C7_7 
REMARK    2  A    between atoms: C5_5  and  C6_6 
REMARK    3  A    between atoms: C6_6  and  C7_7 
ROOT
HETATM    1  C1  UNL     1     -34.906   4.298   5.814  1.00 20.00     0.012 C 
HETATM    2  C2  UNL     1     -34.411   5.265   5.302  1.00 20.00    -0.117 C 
HETATM    3  C5  UNL     1     -33.808   6.453   4.681  1.00 20.00     0.093 C 
ENDROOT
BRANCH   3   4
HETATM    4  C6  UNL     1     -33.254   6.159   3.282  1.00 20.00     0.023 C 
BRANCH   4   5
HETATM    5  C7  UNL     1     -32.034   7.012   2.896  1.00 20.00     0.044 C 
HETATM    6  C4  UNL     1     -31.388   7.617   4.141  1.00 20.00     0.017 C 
BRANCH   5   7
HETATM    7  C3  UNL     1     -32.382   8.155   1.957  1.00 20.00     0.235 C 
HETATM    8  O8  UNL     1     -31.639   8.605   1.092  1.00 20.00    -0.306 OA
ENDBRANCH   5   7
ENDBRANCH   4   5
ENDBRANCH   3   4
TORSDOF 3
ENDMDL
MODEL 6
REMARK VINA RESULT:      -4.1     11.815     12.449
REMARK  3 active torsions:
REMARK  status: ('A' for Active; 'I' for Inactive)
REMARK    1  A    between atoms: C3_3  and  C7_7 
REMARK    2  A    between atoms: C5_5  and  C6_6 
REMARK    3  A    between atoms: C6_6  and  C7_7 
ROOT
HETATM    1  C1  UNL     1     -35.088  17.393   0.490  1.00 20.00     0.012 C 
HETATM    2  C2  UNL     1     -34.600  17.029  -0.544  1.00 20.00    -0.117 C 
HETATM    3  C5  UNL     1     -33.998  16.588  -1.810  1.00 20.00     0.093 C 
ENDROOT
BRANCH   3   4
HETATM    4  C6  UNL     1     -34.923  15.655  -2.600  1.00 20.00     0.023 C 
BRANCH   4   5
HETATM    5  C7  UNL     1     -34.217  14.424  -3.194  1.00 20.00     0.044 C 
HETATM    6  C4  UNL     1     -32.848  14.809  -3.751  1.00 20.00     0.017 C 
BRANCH   5   7
HETATM    7  C3  UNL     1     -35.005  13.772  -4.317  1.00 20.00     0.235 C 
HETATM    8  O8  UNL     1     -34.838  12.626  -4.720  1.00 20.00    -0.306 OA
ENDBRANCH   5   7
ENDBRANCH   4   5
ENDBRANCH   3   4
TORSDOF 3
ENDMDL
MODEL 7
REMARK VINA RESULT:      -4.1      1.806      3.324
REMARK  3 active torsions:
REMARK  status: ('A' for Active; 'I' for Inactive)
REMARK    1  A    between atoms: C3_3  and  C7_7 
REMARK    2  A    between atoms: C5_5  and  C6_6 
REMARK    3  A    between atoms: C6_6  and  C7_7 
ROOT
HETATM    1  C1  UNL     1     -33.653   7.204   6.729  1.00 20.00     0.012 C 
HETATM    2  C2  UNL     1     -34.178   6.139   6.556  1.00 20.00    -0.117 C 
HETATM    3  C5  UNL     1     -34.822   4.833   6.352  1.00 20.00     0.093 C 
ENDROOT
BRANCH   3   4
HETATM    4  C6  UNL     1     -34.959   4.479   4.866  1.00 20.00     0.023 C 
BRANCH   4   5
HETATM    5  C7  UNL     1     -34.821   5.682   3.917  1.00 20.00     0.044 C 
HETATM    6  C4  UNL     1     -36.113   5.894   3.131  1.00 20.00     0.017 C 
BRANCH   5   7
HETATM    7  C3  UNL     1     -33.692   5.520   2.914  1.00 20.00     0.235 C 
HETATM    8  O8  UNL     1     -32.584   6.036   3.013  1.00 20.00    -0.306 OA
ENDBRANCH   5   7
ENDBRANCH   4   5
ENDBRANCH   3   4
TORSDOF 3
ENDMDL
MODEL 8
REMARK VINA RESULT:      -4.0      1.771      4.022
REMARK  3 active torsions:
REMARK  status: ('A' for Active; 'I' for Inactive)
REMARK    1  A    between atoms: C3_3  and  C7_7 
REMARK    2  A    between atoms: C5_5  and  C6_6 
REMARK    3  A    between atoms: C6_6  and  C7_7 
ROOT
HETATM    1  C1  UNL     1     -35.194   4.053   6.140  1.00 20.00     0.012 C 
HETATM    2  C2  UNL     1     -34.617   5.105   6.171  1.00 20.00    -0.117 C 
HETATM    3  C5  UNL     1     -33.911   6.393   6.217  1.00 20.00     0.093 C 
ENDROOT
BRANCH   3   4
HETATM    4  C6  UNL     1     -33.787   7.037   4.831  1.00 20.00     0.023 C 
BRANCH   4   5
HETATM    5  C7  UNL     1     -32.838   6.294   3.875  1.00 20.00     0.044 C 
HETATM    6  C4  UNL     1     -31.857   7.271   3.229  1.00 20.00     0.017 C 
BRANCH   5   7
HETATM    7  C3  UNL     1     -33.568   5.569   2.758  1.00 20.00     0.235 C 
HETATM    8  O8  UNL     1     -34.758   5.274   2.771  1.00 20.00    -0.306 OA
ENDBRANCH   5   7
ENDBRANCH   4   5
ENDBRANCH   3   4
TORSDOF 3
ENDMDL
MODEL 9
REMARK VINA RESULT:      -4.0     11.785     12.691
REMARK  3 active torsions:
REMARK  status: ('A' for Active; 'I' for Inactive)
REMARK    1  A    between atoms: C3_3  and  C7_7 
REMARK    2  A    between atoms: C5_5  and  C6_6 
REMARK    3  A    between atoms: C6_6  and  C7_7 
ROOT
HETATM    1  C1  UNL     1     -34.558  17.336   0.045  1.00 20.00     0.012 C 
HETATM    2  C2  UNL     1     -34.711  16.665  -0.939  1.00 20.00    -0.117 C 
HETATM    3  C5  UNL     1     -34.904  15.842  -2.141  1.00 20.00     0.093 C 
ENDROOT
BRANCH   3   4
HETATM    4  C6  UNL     1     -33.639  15.767  -3.003  1.00 20.00     0.023 C 
BRANCH   4   5
HETATM    5  C7  UNL     1     -33.722  14.752  -4.156  1.00 20.00     0.044 C 
HETATM    6  C4  UNL     1     -34.088  15.455  -5.462  1.00 20.00     0.017 C 
BRANCH   5   7
HETATM    7  C3  UNL     1     -34.752  13.663  -3.915  1.00 20.00     0.235 C 
HETATM    8  O8  UNL     1     -34.863  12.639  -4.581  1.00 20.00    -0.306 OA
ENDBRANCH   5   7
ENDBRANCH   4   5
ENDBRANCH   3   4
TORSDOF 3
ENDMDL
