MODEL 1
REMARK VINA RESULT:      -4.2      0.000      0.000
REMARK  1 active torsions:
REMARK  status: ('A' for Active; 'I' for Inactive)
REMARK    1  A    between atoms: C1_1  and  C2_2 
ROOT
HETATM    1  C1  UNL     1     -34.919   4.795   4.713  1.00 20.00     0.417 C 
HETATM    2  F3  UNL     1     -36.003   5.360   4.125  1.00 20.00    -0.208 F 
HETATM    3  F4  UNL     1     -35.125   3.457   4.720  1.00 20.00    -0.208 F 
ENDROOT
BRANCH   1   4
HETATM    4  C2  UNL     1     -34.796   5.298   6.125  1.00 20.00     0.417 C 
HETATM    5  F5  UNL     1     -33.975   4.486   6.831  1.00 20.00    -0.208 F 
HETATM    6  F6  UNL     1     -34.228   6.530   6.119  1.00 20.00    -0.208 F 
ENDBRANCH   1   4
TORSDOF 1
ENDMDL
MODEL 2
REMARK VINA RESULT:      -4.2      0.041      2.423
REMARK  1 active torsions:
REMARK  status: ('A' for Active; 'I' for Inactive)
REMARK    1  A    between atoms: C1_1  and  C2_2 
ROOT
HETATM    1  C1  UNL     1     -34.778   5.337   6.110  1.00 20.00     0.417 C 
HETATM    2  F3  UNL     1     -34.168   6.548   6.074  1.00 20.00    -0.208 F 
HETATM    3  F4  UNL     1     -33.984   4.516   6.837  1.00 20.00    -0.208 F 
ENDROOT
BRANCH   1   4
HETATM    4  C2  UNL     1     -34.916   4.804   4.711  1.00 20.00     0.417 C 
HETATM    5  F5  UNL     1     -35.125   3.467   4.748  1.00 20.00    -0.208 F 
HETATM    6  F6  UNL     1     -36.003   5.360   4.120  1.00 20.00    -0.208 F 
ENDBRANCH   1   4
TORSDOF 1
ENDMDL
MODEL 3
REMARK VINA RESULT:      -4.2      1.107      2.528
REMARK  1 active torsions:
REMARK  status: ('A' for Active; 'I' for Inactive)
REMARK    1  A    between atoms: C1_1  and  C2_2 
ROOT
HETATM    1  C1  UNL     1     -34.476   5.123   5.945  1.00 20.00     0.417 C 
HETATM    2  F3  UNL     1     -35.507   4.353   6.373  1.00 20.00    -0.208 F 
HETATM    3  F4  UNL     1     -34.539   6.287   6.632  1.00 20.00    -0.208 F 
ENDROOT
BRANCH   1   4
HETATM    4  C2  UNL     1     -34.630   5.392   4.473  1.00 20.00     0.417 C 
HETATM    5  F5  UNL     1     -35.927   5.245   4.114  1.00 20.00    -0.208 F 
HETATM    6  F6  UNL     1     -34.287   6.677   4.210  1.00 20.00    -0.208 F 
ENDBRANCH   1   4
TORSDOF 1
ENDMDL
MODEL 4
REMARK VINA RESULT:      -4.2      1.107      1.810
REMARK  1 active torsions:
REMARK  status: ('A' for Active; 'I' for Inactive)
REMARK    1  A    between atoms: C1_1  and  C2_2 
ROOT
HETATM    1  C1  UNL     1     -34.643   5.364   4.477  1.00 20.00     0.417 C 
HETATM    2  F3  UNL     1     -34.279   6.643   4.209  1.00 20.00    -0.208 F 
HETATM    3  F4  UNL     1     -35.944   5.240   4.121  1.00 20.00    -0.208 F 
ENDROOT
BRANCH   1   4
HETATM    4  C2  UNL     1     -34.490   5.098   5.949  1.00 20.00     0.417 C 
HETATM    5  F5  UNL     1     -34.585   6.260   6.637  1.00 20.00    -0.208 F 
HETATM    6  F6  UNL     1     -35.503   4.302   6.372  1.00 20.00    -0.208 F 
ENDBRANCH   1   4
TORSDOF 1
ENDMDL
MODEL 5
REMARK VINA RESULT:      -4.1      1.002      2.730
REMARK  1 active torsions:
REMARK  status: ('A' for Active; 'I' for Inactive)
REMARK    1  A    between atoms: C1_1  and  C2_2 
ROOT
HETATM    1  C1  UNL     1     -34.099   5.846   5.676  1.00 20.00     0.417 C 
HETATM    2  F3  UNL     1     -34.348   6.638   6.748  1.00 20.00    -0.208 F 
HETATM    3  F4  UNL     1     -34.111   6.644   4.582  1.00 20.00    -0.208 F 
ENDROOT
BRANCH   1   4
HETATM    4  C2  UNL     1     -35.179   4.807   5.559  1.00 20.00     0.417 C 
HETATM    5  F5  UNL     1     -35.817   4.940   4.373  1.00 20.00    -0.208 F 
HETATM    6  F6  UNL     1     -34.622   3.570   5.574  1.00 20.00    -0.208 F 
ENDBRANCH   1   4
TORSDOF 1
ENDMDL
MODEL 6
REMARK VINA RESULT:      -4.1      1.156      1.713
REMARK  1 active torsions:
REMARK  status: ('A' for Active; 'I' for Inactive)
REMARK    1  A    between atoms: C1_1  and  C2_2 
ROOT
HETATM    1  C1  UNL     1     -34.930   4.750   5.155  1.00 20.00     0.417 C 
HETATM    2  F3  UNL     1     -35.943   5.085   4.318  1.00 20.00    -0.208 F 
HETATM    3  F4  UNL     1     -35.490   4.431   6.346  1.00 20.00    -0.208 F 
ENDROOT
BRANCH   1   4
HETATM    4  C2  UNL     1     -34.009   5.926   5.324  1.00 20.00     0.417 C 
HETATM    5  F5  UNL     1     -34.182   6.795   4.300  1.00 20.00    -0.208 F 
HETATM    6  F6  UNL     1     -34.326   6.588   6.465  1.00 20.00    -0.208 F 
ENDBRANCH   1   4
TORSDOF 1
ENDMDL
MODEL 7
REMARK VINA RESULT:      -4.1      1.196      2.661
REMARK  1 active torsions:
REMARK  status: ('A' for Active; 'I' for Inactive)
REMARK    1  A    between atoms: C1_1  and  C2_2 
ROOT
HETATM    1  C1  UNL     1     -34.529   4.795   5.266  1.00 20.00     0.417 C 
HETATM    2  F3  UNL     1     -35.063   3.552   5.179  1.00 20.00    -0.208 F 
HETATM    3  F4  UNL     1     -35.073   5.385   6.356  1.00 20.00    -0.208 F 
ENDROOT
BRANCH   1   4
HETATM    4  C2  UNL     1     -34.883   5.580   4.033  1.00 20.00     0.417 C 
HETATM    5  F5  UNL     1     -34.234   5.068   2.961  1.00 20.00    -0.208 F 
HETATM    6  F6  UNL     1     -36.212   5.461   3.787  1.00 20.00    -0.208 F 
ENDBRANCH   1   4
TORSDOF 1
ENDMDL
MODEL 8
REMARK VINA RESULT:      -4.0      1.398      1.935
REMARK  1 active torsions:
REMARK  status: ('A' for Active; 'I' for Inactive)
REMARK    1  A    between atoms: C1_1  and  C2_2 
ROOT
HETATM    1  C1  UNL     1     -34.436   5.684   4.510  1.00 20.00     0.417 C 
HETATM    2  F3  UNL     1     -34.976   4.647   3.823  1.00 20.00    -0.208 F 
HETATM    3  F4  UNL     1     -33.178   5.859   4.041  1.00 20.00    -0.208 F 
ENDROOT
BRANCH   1   4
HETATM    4  C2  UNL     1     -34.390   5.345   5.974  1.00 20.00     0.417 C 
HETATM    5  F5  UNL     1     -34.450   6.480   6.710  1.00 20.00    -0.208 F 
HETATM    6  F6  UNL     1     -35.477   4.603   6.301  1.00 20.00    -0.208 F 
ENDBRANCH   1   4
TORSDOF 1
ENDMDL
MODEL 9
REMARK VINA RESULT:      -4.0      1.203      2.521
REMARK  1 active torsions:
REMARK  status: ('A' for Active; 'I' for Inactive)
REMARK    1  A    between atoms: C1_1  and  C2_2 
ROOT
HETATM    1  C1  UNL     1     -34.211   6.230   5.352  1.00 20.00     0.417 C 
HETATM    2  F3  UNL     1     -33.091   6.278   4.589  1.00 20.00    -0.208 F 
HETATM    3  F4  UNL     1     -33.816   6.337   6.643  1.00 20.00    -0.208 F 
ENDROOT
BRANCH   1   4
HETATM    4  C2  UNL     1     -34.906   4.914   5.140  1.00 20.00     0.417 C 
HETATM    5  F5  UNL     1     -35.431   4.479   6.310  1.00 20.00    -0.208 F 
HETATM    6  F6  UNL     1     -35.939   5.081   4.278  1.00 20.00    -0.208 F 
ENDBRANCH   1   4
TORSDOF 1
ENDMDL
