MODEL 1
REMARK VINA RESULT:      -3.3      0.000      0.000
REMARK  2 active torsions:
REMARK  status: ('A' for Active; 'I' for Inactive)
REMARK    1  A    between atoms: C4_4  and  C5_5 
REMARK    2  A    between atoms: C5_5  and  N6_6 
ROOT
HETATM    1  C1  UNL     1     -33.332  17.023  -5.043  1.00 20.00     0.158 C 
HETATM    2  N6  UNL     1     -32.951  16.043  -4.529  1.00 20.00    -0.264 NA
HETATM    3  S7  UNL     1     -33.815  18.371  -5.741  1.00 20.00    -0.055 SA
ENDROOT
BRANCH   2   4
HETATM    4  C5  UNL     1     -33.981  15.007  -4.347  1.00 20.00     0.060 C 
HETATM    5  C2  UNL     1     -34.530  14.651  -5.733  1.00 20.00     0.041 C 
HETATM    6  C3  UNL     1     -33.310  13.778  -3.730  1.00 20.00     0.041 C 
BRANCH   4   7
HETATM    7  C4  UNL     1     -35.115  15.566  -3.474  1.00 20.00     0.147 C 
HETATM    8 CL8  UNL     1     -34.585  16.019  -1.831  1.00 20.00    -0.128 Cl
ENDBRANCH   4   7
ENDBRANCH   2   4
TORSDOF 2
ENDMDL
MODEL 2
REMARK VINA RESULT:      -3.3      2.812      3.212
REMARK  2 active torsions:
REMARK  status: ('A' for Active; 'I' for Inactive)
REMARK    1  A    between atoms: C4_4  and  C5_5 
REMARK    2  A    between atoms: C5_5  and  N6_6 
ROOT
HETATM    1  C1  UNL     1     -34.979  15.783  -2.592  1.00 20.00     0.158 C 
HETATM    2  N6  UNL     1     -35.319  15.196  -3.546  1.00 20.00    -0.264 NA
HETATM    3  S7  UNL     1     -34.553  16.584  -1.283  1.00 20.00    -0.055 SA
ENDROOT
BRANCH   2   4
HETATM    4  C5  UNL     1     -34.223  14.804  -4.446  1.00 20.00     0.060 C 
HETATM    5  C2  UNL     1     -33.447  16.074  -4.813  1.00 20.00     0.041 C 
HETATM    6  C3  UNL     1     -33.306  13.845  -3.683  1.00 20.00     0.041 C 
BRANCH   4   7
HETATM    7  C4  UNL     1     -34.811  14.176  -5.720  1.00 20.00     0.147 C 
HETATM    8 CL8  UNL     1     -34.301  15.002  -7.217  1.00 20.00    -0.128 Cl
ENDBRANCH   4   7
ENDBRANCH   2   4
TORSDOF 2
ENDMDL
MODEL 3
REMARK VINA RESULT:      -3.3      1.902      2.161
REMARK  2 active torsions:
REMARK  status: ('A' for Active; 'I' for Inactive)
REMARK    1  A    between atoms: C4_4  and  C5_5 
REMARK    2  A    between atoms: C5_5  and  N6_6 
ROOT
HETATM    1  C1  UNL     1     -34.611  15.233  -5.977  1.00 20.00     0.158 C 
HETATM    2  N6  UNL     1     -34.094  15.813  -5.101  1.00 20.00    -0.264 NA
HETATM    3  S7  UNL     1     -35.301  14.471  -7.194  1.00 20.00    -0.055 SA
ENDROOT
BRANCH   2   4
HETATM    4  C5  UNL     1     -34.246  15.186  -3.779  1.00 20.00     0.060 C 
HETATM    5  C2  UNL     1     -35.746  15.003  -3.521  1.00 20.00     0.041 C 
HETATM    6  C3  UNL     1     -33.563  13.816  -3.825  1.00 20.00     0.041 C 
BRANCH   4   7
HETATM    7  C4  UNL     1     -33.649  16.110  -2.706  1.00 20.00     0.147 C 
HETATM    8 CL8  UNL     1     -34.685  16.282  -1.263  1.00 20.00    -0.128 Cl
ENDBRANCH   4   7
ENDBRANCH   2   4
TORSDOF 2
ENDMDL
MODEL 4
REMARK VINA RESULT:      -3.2      3.473      3.961
REMARK  2 active torsions:
REMARK  status: ('A' for Active; 'I' for Inactive)
REMARK    1  A    between atoms: C4_4  and  C5_5 
REMARK    2  A    between atoms: C5_5  and  N6_6 
ROOT
HETATM    1  C1  UNL     1     -38.199  15.039  -3.712  1.00 20.00     0.158 C 
HETATM    2  N6  UNL     1     -37.425  14.166  -3.808  1.00 20.00    -0.264 NA
HETATM    3  S7  UNL     1     -39.280  16.201  -3.572  1.00 20.00    -0.055 SA
ENDROOT
BRANCH   2   4
HETATM    4  C5  UNL     1     -36.057  14.595  -4.137  1.00 20.00     0.060 C 
HETATM    5  C2  UNL     1     -36.118  15.365  -5.462  1.00 20.00     0.041 C 
HETATM    6  C3  UNL     1     -35.574  15.529  -3.024  1.00 20.00     0.041 C 
BRANCH   4   7
HETATM    7  C4  UNL     1     -35.162  13.357  -4.303  1.00 20.00     0.147 C 
HETATM    8 CL8  UNL     1     -33.467  13.639  -3.821  1.00 20.00    -0.128 Cl
ENDBRANCH   4   7
ENDBRANCH   2   4
TORSDOF 2
ENDMDL
MODEL 5
REMARK VINA RESULT:      -3.2      2.528      3.104
REMARK  2 active torsions:
REMARK  status: ('A' for Active; 'I' for Inactive)
REMARK    1  A    between atoms: C4_4  and  C5_5 
REMARK    2  A    between atoms: C5_5  and  N6_6 
ROOT
HETATM    1  C1  UNL     1     -34.960  15.857  -2.593  1.00 20.00     0.158 C 
HETATM    2  N6  UNL     1     -35.251  15.337  -3.600  1.00 20.00    -0.264 NA
HETATM    3  S7  UNL     1     -34.603  16.568  -1.213  1.00 20.00    -0.055 SA
ENDROOT
BRANCH   2   4
HETATM    4  C5  UNL     1     -34.106  14.941  -4.437  1.00 20.00     0.060 C 
HETATM    5  C2  UNL     1     -33.387  13.790  -3.725  1.00 20.00     0.041 C 
HETATM    6  C3  UNL     1     -34.651  14.452  -5.781  1.00 20.00     0.041 C 
BRANCH   4   7
HETATM    7  C4  UNL     1     -33.149  16.134  -4.583  1.00 20.00     0.147 C 
HETATM    8 CL8  UNL     1     -33.702  17.346  -5.770  1.00 20.00    -0.128 Cl
ENDBRANCH   4   7
ENDBRANCH   2   4
TORSDOF 2
ENDMDL
MODEL 6
REMARK VINA RESULT:      -3.2      3.120      3.535
REMARK  2 active torsions:
REMARK  status: ('A' for Active; 'I' for Inactive)
REMARK    1  A    between atoms: C4_4  and  C5_5 
REMARK    2  A    between atoms: C5_5  and  N6_6 
ROOT
HETATM    1  C1  UNL     1     -36.493  15.022  -3.573  1.00 20.00     0.158 C 
HETATM    2  N6  UNL     1     -35.376  15.129  -3.240  1.00 20.00    -0.264 NA
HETATM    3  S7  UNL     1     -38.024  14.890  -3.991  1.00 20.00    -0.055 SA
ENDROOT
BRANCH   2   4
HETATM    4  C5  UNL     1     -34.392  14.782  -4.278  1.00 20.00     0.060 C 
HETATM    5  C2  UNL     1     -32.995  14.955  -3.670  1.00 20.00     0.041 C 
HETATM    6  C3  UNL     1     -34.606  13.315  -4.661  1.00 20.00     0.041 C 
BRANCH   4   7
HETATM    7  C4  UNL     1     -34.555  15.736  -5.471  1.00 20.00     0.147 C 
HETATM    8 CL8  UNL     1     -34.329  14.940  -7.052  1.00 20.00    -0.128 Cl
ENDBRANCH   4   7
ENDBRANCH   2   4
TORSDOF 2
ENDMDL
MODEL 7
REMARK VINA RESULT:      -3.2      1.870      2.210
REMARK  2 active torsions:
REMARK  status: ('A' for Active; 'I' for Inactive)
REMARK    1  A    between atoms: C4_4  and  C5_5 
REMARK    2  A    between atoms: C5_5  and  N6_6 
ROOT
HETATM    1  C1  UNL     1     -33.388  17.057  -4.817  1.00 20.00     0.158 C 
HETATM    2  N6  UNL     1     -33.080  15.959  -4.550  1.00 20.00    -0.264 NA
HETATM    3  S7  UNL     1     -33.771  18.557  -5.193  1.00 20.00    -0.055 SA
ENDROOT
BRANCH   2   4
HETATM    4  C5  UNL     1     -34.157  15.148  -3.961  1.00 20.00     0.060 C 
HETATM    5  C2  UNL     1     -33.631  13.715  -3.814  1.00 20.00     0.041 C 
HETATM    6  C3  UNL     1     -34.476  15.721  -2.577  1.00 20.00     0.041 C 
BRANCH   4   7
HETATM    7  C4  UNL     1     -35.372  15.156  -4.901  1.00 20.00     0.147 C 
HETATM    8 CL8  UNL     1     -35.133  14.178  -6.375  1.00 20.00    -0.128 Cl
ENDBRANCH   4   7
ENDBRANCH   2   4
TORSDOF 2
ENDMDL
MODEL 8
REMARK VINA RESULT:      -3.2     13.617     14.139
REMARK  2 active torsions:
REMARK  status: ('A' for Active; 'I' for Inactive)
REMARK    1  A    between atoms: C4_4  and  C5_5 
REMARK    2  A    between atoms: C5_5  and  N6_6 
ROOT
HETATM    1  C1  UNL     1     -41.311   3.529  -2.335  1.00 20.00     0.158 C 
HETATM    2  N6  UNL     1     -40.739   4.308  -1.673  1.00 20.00    -0.264 NA
HETATM    3  S7  UNL     1     -42.055   2.450  -3.240  1.00 20.00    -0.055 SA
ENDROOT
BRANCH   2   4
HETATM    4  C5  UNL     1     -41.583   5.383  -1.128  1.00 20.00     0.060 C 
HETATM    5  C2  UNL     1     -40.728   6.190  -0.144  1.00 20.00     0.041 C 
HETATM    6  C3  UNL     1     -42.013   6.282  -2.290  1.00 20.00     0.041 C 
BRANCH   4   7
HETATM    7  C4  UNL     1     -42.776   4.764  -0.383  1.00 20.00     0.147 C 
HETATM    8 CL8  UNL     1     -43.186   5.615   1.131  1.00 20.00    -0.128 Cl
ENDBRANCH   4   7
ENDBRANCH   2   4
TORSDOF 2
ENDMDL
MODEL 9
REMARK VINA RESULT:      -3.1      2.012      2.374
REMARK  2 active torsions:
REMARK  status: ('A' for Active; 'I' for Inactive)
REMARK    1  A    between atoms: C4_4  and  C5_5 
REMARK    2  A    between atoms: C5_5  and  N6_6 
ROOT
HETATM    1  C1  UNL     1     -34.476  16.621  -5.343  1.00 20.00     0.158 C 
HETATM    2  N6  UNL     1     -34.476  16.904  -4.207  1.00 20.00    -0.264 NA
HETATM    3  S7  UNL     1     -34.478  16.275  -6.898  1.00 20.00    -0.055 SA
ENDROOT
BRANCH   2   4
HETATM    4  C5  UNL     1     -34.379  15.756  -3.291  1.00 20.00     0.060 C 
HETATM    5  C2  UNL     1     -33.059  15.035  -3.589  1.00 20.00     0.041 C 
HETATM    6  C3  UNL     1     -34.357  16.295  -1.859  1.00 20.00     0.041 C 
BRANCH   4   7
HETATM    7  C4  UNL     1     -35.555  14.801  -3.547  1.00 20.00     0.147 C 
HETATM    8 CL8  UNL     1     -35.055  13.225  -4.220  1.00 20.00    -0.128 Cl
ENDBRANCH   4   7
ENDBRANCH   2   4
TORSDOF 2
ENDMDL
