MODEL 1
REMARK VINA RESULT:      -4.9      0.000      0.000
REMARK  3 active torsions:
REMARK  status: ('A' for Active; 'I' for Inactive)
REMARK    1  A    between atoms: C3_3  and  C4_4 
REMARK    2  A    between atoms: C4_4  and  C5_5 
REMARK    3  A    between atoms: C5_5  and  C6_6 
ROOT
HETATM    1  C4  UNL     1     -34.412   5.523   3.609  1.00 20.00     0.005 C 
ENDROOT
BRANCH   1   2
HETATM    2  C3  UNL     1     -35.241   5.125   4.819  1.00 20.00    -0.014 A 
HETATM    3  C1  UNL     1     -34.864   3.919   5.633  1.00 20.00     0.005 A 
HETATM    4  C2  UNL     1     -34.688   5.297   6.206  1.00 20.00     0.005 A 
ENDBRANCH   1   2
BRANCH   1   5
HETATM    5  C5  UNL     1     -33.438   6.653   3.944  1.00 20.00     0.015 C 
BRANCH   5   6
HETATM    6  C6  UNL     1     -32.203   6.593   3.056  1.00 20.00     0.114 C 
HETATM    7 CL7  UNL     1     -32.058   8.082   2.093  1.00 20.00    -0.130 Cl
ENDBRANCH   5   6
ENDBRANCH   1   5
TORSDOF 3
ENDMDL
MODEL 2
REMARK VINA RESULT:      -4.9      0.757      1.128
REMARK  3 active torsions:
REMARK  status: ('A' for Active; 'I' for Inactive)
REMARK    1  A    between atoms: C3_3  and  C4_4 
REMARK    2  A    between atoms: C4_4  and  C5_5 
REMARK    3  A    between atoms: C5_5  and  C6_6 
ROOT
HETATM    1  C4  UNL     1     -34.669   5.637   3.820  1.00 20.00     0.005 C 
ENDROOT
BRANCH   1   2
HETATM    2  C3  UNL     1     -34.149   5.113   5.149  1.00 20.00    -0.014 A 
HETATM    3  C1  UNL     1     -34.501   5.817   6.430  1.00 20.00     0.005 A 
HETATM    4  C2  UNL     1     -35.090   4.467   6.128  1.00 20.00     0.005 A 
ENDBRANCH   1   2
BRANCH   1   5
HETATM    5  C5  UNL     1     -33.544   5.776   2.794  1.00 20.00     0.015 C 
BRANCH   5   6
HETATM    6  C6  UNL     1     -32.407   6.629   3.340  1.00 20.00     0.114 C 
HETATM    7 CL7  UNL     1     -32.069   7.989   2.244  1.00 20.00    -0.130 Cl
ENDBRANCH   5   6
ENDBRANCH   1   5
TORSDOF 3
ENDMDL
MODEL 3
REMARK VINA RESULT:      -4.6      2.303      4.102
REMARK  3 active torsions:
REMARK  status: ('A' for Active; 'I' for Inactive)
REMARK    1  A    between atoms: C3_3  and  C4_4 
REMARK    2  A    between atoms: C4_4  and  C5_5 
REMARK    3  A    between atoms: C5_5  and  C6_6 
ROOT
HETATM    1  C4  UNL     1     -33.949   6.497   4.020  1.00 20.00     0.005 C 
ENDROOT
BRANCH   1   2
HETATM    2  C3  UNL     1     -32.654   6.492   3.224  1.00 20.00    -0.014 A 
HETATM    3  C1  UNL     1     -32.264   7.692   2.405  1.00 20.00     0.005 A 
HETATM    4  C2  UNL     1     -31.499   7.353   3.653  1.00 20.00     0.005 A 
ENDBRANCH   1   2
BRANCH   1   5
HETATM    5  C5  UNL     1     -34.819   5.286   3.682  1.00 20.00     0.015 C 
BRANCH   5   6
HETATM    6  C6  UNL     1     -35.151   4.483   4.933  1.00 20.00     0.114 C 
HETATM    7 CL7  UNL     1     -34.648   5.370   6.390  1.00 20.00    -0.130 Cl
ENDBRANCH   5   6
ENDBRANCH   1   5
TORSDOF 3
ENDMDL
MODEL 4
REMARK VINA RESULT:      -4.5      1.247      1.838
REMARK  3 active torsions:
REMARK  status: ('A' for Active; 'I' for Inactive)
REMARK    1  A    between atoms: C3_3  and  C4_4 
REMARK    2  A    between atoms: C4_4  and  C5_5 
REMARK    3  A    between atoms: C5_5  and  C6_6 
ROOT
HETATM    1  C4  UNL     1     -32.714   6.235   3.269  1.00 20.00     0.005 C 
ENDROOT
BRANCH   1   2
HETATM    2  C3  UNL     1     -34.036   6.384   4.004  1.00 20.00    -0.014 A 
HETATM    3  C1  UNL     1     -35.033   5.259   4.006  1.00 20.00     0.005 A 
HETATM    4  C2  UNL     1     -34.292   5.608   5.266  1.00 20.00     0.005 A 
ENDBRANCH   1   2
BRANCH   1   5
HETATM    5  C5  UNL     1     -31.964   7.564   3.190  1.00 20.00     0.015 C 
BRANCH   5   6
HETATM    6  C6  UNL     1     -31.951   8.102   1.765  1.00 20.00     0.114 C 
HETATM    7 CL7  UNL     1     -32.566   9.771   1.726  1.00 20.00    -0.130 Cl
ENDBRANCH   5   6
ENDBRANCH   1   5
TORSDOF 3
ENDMDL
MODEL 5
REMARK VINA RESULT:      -4.5      2.422      4.072
REMARK  3 active torsions:
REMARK  status: ('A' for Active; 'I' for Inactive)
REMARK    1  A    between atoms: C3_3  and  C4_4 
REMARK    2  A    between atoms: C4_4  and  C5_5 
REMARK    3  A    between atoms: C5_5  and  C6_6 
ROOT
HETATM    1  C4  UNL     1     -33.992   6.303   4.034  1.00 20.00     0.005 C 
ENDROOT
BRANCH   1   2
HETATM    2  C3  UNL     1     -32.633   6.386   3.358  1.00 20.00    -0.014 A 
HETATM    3  C1  UNL     1     -32.305   7.541   2.452  1.00 20.00     0.005 A 
HETATM    4  C2  UNL     1     -31.634   7.423   3.791  1.00 20.00     0.005 A 
ENDBRANCH   1   2
BRANCH   1   5
HETATM    5  C5  UNL     1     -33.871   6.425   5.552  1.00 20.00     0.015 C 
BRANCH   5   6
HETATM    6  C6  UNL     1     -34.636   5.311   6.254  1.00 20.00     0.114 C 
HETATM    7 CL7  UNL     1     -35.064   4.029   5.098  1.00 20.00    -0.130 Cl
ENDBRANCH   5   6
ENDBRANCH   1   5
TORSDOF 3
ENDMDL
MODEL 6
REMARK VINA RESULT:      -4.1      2.562      4.871
REMARK  3 active torsions:
REMARK  status: ('A' for Active; 'I' for Inactive)
REMARK    1  A    between atoms: C3_3  and  C4_4 
REMARK    2  A    between atoms: C4_4  and  C5_5 
REMARK    3  A    between atoms: C5_5  and  C6_6 
ROOT
HETATM    1  C4  UNL     1     -31.824   7.567   3.064  1.00 20.00     0.005 C 
ENDROOT
BRANCH   1   2
HETATM    2  C3  UNL     1     -32.515   8.225   1.881  1.00 20.00    -0.014 A 
HETATM    3  C1  UNL     1     -32.433   9.715   1.689  1.00 20.00     0.005 A 
HETATM    4  C2  UNL     1     -31.703   8.794   0.751  1.00 20.00     0.005 A 
ENDBRANCH   1   2
BRANCH   1   5
HETATM    5  C5  UNL     1     -32.408   6.185   3.356  1.00 20.00     0.015 C 
BRANCH   5   6
HETATM    6  C6  UNL     1     -33.614   6.284   4.282  1.00 20.00     0.114 C 
HETATM    7 CL7  UNL     1     -34.998   5.405   3.593  1.00 20.00    -0.130 Cl
ENDBRANCH   5   6
ENDBRANCH   1   5
TORSDOF 3
ENDMDL
MODEL 7
REMARK VINA RESULT:      -3.6      1.939      3.122
REMARK  3 active torsions:
REMARK  status: ('A' for Active; 'I' for Inactive)
REMARK    1  A    between atoms: C3_3  and  C4_4 
REMARK    2  A    between atoms: C4_4  and  C5_5 
REMARK    3  A    between atoms: C5_5  and  C6_6 
ROOT
HETATM    1  C4  UNL     1     -34.275   4.764   6.137  1.00 20.00     0.005 C 
ENDROOT
BRANCH   1   2
HETATM    2  C3  UNL     1     -34.341   6.280   6.051  1.00 20.00    -0.014 A 
HETATM    3  C1  UNL     1     -33.509   7.129   6.973  1.00 20.00     0.005 A 
HETATM    4  C2  UNL     1     -33.175   7.059   5.509  1.00 20.00     0.005 A 
ENDBRANCH   1   2
BRANCH   1   5
HETATM    5  C5  UNL     1     -35.107   4.104   5.039  1.00 20.00     0.015 C 
BRANCH   5   6
HETATM    6  C6  UNL     1     -35.517   5.117   3.977  1.00 20.00     0.114 C 
HETATM    7 CL7  UNL     1     -34.256   5.251   2.730  1.00 20.00    -0.130 Cl
ENDBRANCH   5   6
ENDBRANCH   1   5
TORSDOF 3
ENDMDL
MODEL 8
REMARK VINA RESULT:      -3.5     11.628     12.150
REMARK  3 active torsions:
REMARK  status: ('A' for Active; 'I' for Inactive)
REMARK    1  A    between atoms: C3_3  and  C4_4 
REMARK    2  A    between atoms: C4_4  and  C5_5 
REMARK    3  A    between atoms: C5_5  and  C6_6 
ROOT
HETATM    1  C4  UNL     1     -34.806  15.520  -2.424  1.00 20.00     0.005 C 
ENDROOT
BRANCH   1   2
HETATM    2  C3  UNL     1     -34.838  16.885  -1.757  1.00 20.00    -0.014 A 
HETATM    3  C1  UNL     1     -34.774  16.999  -0.259  1.00 20.00     0.005 A 
HETATM    4  C2  UNL     1     -33.605  17.435  -1.096  1.00 20.00     0.005 A 
ENDBRANCH   1   2
BRANCH   1   5
HETATM    5  C5  UNL     1     -33.581  15.365  -3.324  1.00 20.00     0.015 C 
BRANCH   5   6
HETATM    6  C6  UNL     1     -33.469  13.943  -3.857  1.00 20.00     0.114 C 
HETATM    7 CL7  UNL     1     -35.085  13.269  -4.171  1.00 20.00    -0.130 Cl
ENDBRANCH   5   6
ENDBRANCH   1   5
TORSDOF 3
ENDMDL
MODEL 9
REMARK VINA RESULT:      -3.5     11.711     12.313
REMARK  3 active torsions:
REMARK  status: ('A' for Active; 'I' for Inactive)
REMARK    1  A    between atoms: C3_3  and  C4_4 
REMARK    2  A    between atoms: C4_4  and  C5_5 
REMARK    3  A    between atoms: C5_5  and  C6_6 
ROOT
HETATM    1  C4  UNL     1     -33.514  15.231  -3.418  1.00 20.00     0.005 C 
ENDROOT
BRANCH   1   2
HETATM    2  C3  UNL     1     -34.732  15.528  -2.559  1.00 20.00    -0.014 A 
HETATM    3  C1  UNL     1     -34.608  16.409  -1.346  1.00 20.00     0.005 A 
HETATM    4  C2  UNL     1     -35.343  16.902  -2.561  1.00 20.00     0.005 A 
ENDBRANCH   1   2
BRANCH   1   5
HETATM    5  C5  UNL     1     -33.437  13.750  -3.788  1.00 20.00     0.015 C 
BRANCH   5   6
HETATM    6  C6  UNL     1     -34.565  13.362  -4.735  1.00 20.00     0.114 C 
HETATM    7 CL7  UNL     1     -34.608  14.462  -6.132  1.00 20.00    -0.130 Cl
ENDBRANCH   5   6
ENDBRANCH   1   5
TORSDOF 3
ENDMDL
