MODEL 1
REMARK VINA RESULT:      -5.8      0.000      0.000
REMARK  2 active torsions:
REMARK  status: ('A' for Active; 'I' for Inactive)
REMARK    1  A    between atoms: C1_1  and  C2_2 
REMARK    2  A    between atoms: C2_2  and  C3_3 
ROOT
HETATM    1  C2  UNL     1     -35.063   4.962   4.557  1.00 20.00     0.396 C 
HETATM    2  F6  UNL     1     -34.950   3.639   4.280  1.00 20.00    -0.190 F 
HETATM    3  F7  UNL     1     -36.319   5.332   4.198  1.00 20.00    -0.190 F 
ENDROOT
BRANCH   1   4
HETATM    4  C1  UNL     1     -34.893   5.169   6.043  1.00 20.00     0.434 C 
HETATM    5  F4  UNL     1     -34.387   6.408   6.265  1.00 20.00    -0.207 F 
HETATM    6  F5  UNL     1     -33.994   4.285   6.539  1.00 20.00    -0.207 F 
ENDBRANCH   1   4
BRANCH   1   7
HETATM    7  C3  UNL     1     -34.070   5.725   3.721  1.00 20.00     0.460 C 
HETATM    8  F8  UNL     1     -34.076   5.280   2.446  1.00 20.00    -0.165 F 
HETATM    9  F9  UNL     1     -32.815   5.582   4.200  1.00 20.00    -0.165 F 
HETATM   10  F10 UNL     1     -34.355   7.044   3.698  1.00 20.00    -0.165 F 
ENDBRANCH   1   7
TORSDOF 2
ENDMDL
MODEL 2
REMARK VINA RESULT:      -5.7      0.657      2.974
REMARK  2 active torsions:
REMARK  status: ('A' for Active; 'I' for Inactive)
REMARK    1  A    between atoms: C1_1  and  C2_2 
REMARK    2  A    between atoms: C2_2  and  C3_3 
ROOT
HETATM    1  C2  UNL     1     -34.971   4.873   4.601  1.00 20.00     0.396 C 
HETATM    2  F6  UNL     1     -36.205   5.347   4.295  1.00 20.00    -0.190 F 
HETATM    3  F7  UNL     1     -34.958   3.561   4.256  1.00 20.00    -0.190 F 
ENDROOT
BRANCH   1   4
HETATM    4  C1  UNL     1     -33.943   5.611   3.778  1.00 20.00     0.434 C 
HETATM    5  F4  UNL     1     -34.214   6.940   3.813  1.00 20.00    -0.207 F 
HETATM    6  F5  UNL     1     -34.020   5.230   2.481  1.00 20.00    -0.207 F 
ENDBRANCH   1   4
BRANCH   1   7
HETATM    7  C3  UNL     1     -34.756   4.991   6.087  1.00 20.00     0.460 C 
HETATM    8  F8  UNL     1     -33.674   4.277   6.471  1.00 20.00    -0.165 F 
HETATM    9  F9  UNL     1     -35.821   4.525   6.775  1.00 20.00    -0.165 F 
HETATM   10  F10 UNL     1     -34.554   6.273   6.456  1.00 20.00    -0.165 F 
ENDBRANCH   1   7
TORSDOF 2
ENDMDL
MODEL 3
REMARK VINA RESULT:      -5.7      0.536      1.564
REMARK  2 active torsions:
REMARK  status: ('A' for Active; 'I' for Inactive)
REMARK    1  A    between atoms: C1_1  and  C2_2 
REMARK    2  A    between atoms: C2_2  and  C3_3 
ROOT
HETATM    1  C2  UNL     1     -34.929   4.917   4.539  1.00 20.00     0.396 C 
HETATM    2  F6  UNL     1     -34.863   3.617   4.157  1.00 20.00    -0.190 F 
HETATM    3  F7  UNL     1     -36.210   5.319   4.342  1.00 20.00    -0.190 F 
ENDROOT
BRANCH   1   4
HETATM    4  C1  UNL     1     -34.601   5.014   6.010  1.00 20.00     0.434 C 
HETATM    5  F4  UNL     1     -35.586   4.418   6.727  1.00 20.00    -0.207 F 
HETATM    6  F5  UNL     1     -34.565   6.312   6.397  1.00 20.00    -0.207 F 
ENDBRANCH   1   4
BRANCH   1   7
HETATM    7  C3  UNL     1     -34.019   5.733   3.660  1.00 20.00     0.460 C 
HETATM    8  F8  UNL     1     -34.392   7.032   3.660  1.00 20.00    -0.165 F 
HETATM    9  F9  UNL     1     -34.050   5.297   2.382  1.00 20.00    -0.165 F 
HETATM   10  F10 UNL     1     -32.739   5.674   4.085  1.00 20.00    -0.165 F 
ENDBRANCH   1   7
TORSDOF 2
ENDMDL
MODEL 4
REMARK VINA RESULT:      -5.7      0.698      2.339
REMARK  2 active torsions:
REMARK  status: ('A' for Active; 'I' for Inactive)
REMARK    1  A    between atoms: C1_1  and  C2_2 
REMARK    2  A    between atoms: C2_2  and  C3_3 
ROOT
HETATM    1  C2  UNL     1     -34.109   6.022   4.616  1.00 20.00     0.396 C 
HETATM    2  F6  UNL     1     -34.215   7.300   4.173  1.00 20.00    -0.190 F 
HETATM    3  F7  UNL     1     -32.816   5.650   4.437  1.00 20.00    -0.190 F 
ENDROOT
BRANCH   1   4
HETATM    4  C1  UNL     1     -34.434   5.984   6.090  1.00 20.00     0.434 C 
HETATM    5  F4  UNL     1     -33.769   6.985   6.719  1.00 20.00    -0.207 F 
HETATM    6  F5  UNL     1     -34.000   4.822   6.636  1.00 20.00    -0.207 F 
ENDBRANCH   1   4
BRANCH   1   7
HETATM    7  C3  UNL     1     -34.994   5.137   3.778  1.00 20.00     0.460 C 
HETATM    8  F8  UNL     1     -34.459   4.950   2.552  1.00 20.00    -0.165 F 
HETATM    9  F9  UNL     1     -36.218   5.684   3.613  1.00 20.00    -0.165 F 
HETATM   10  F10 UNL     1     -35.157   3.923   4.345  1.00 20.00    -0.165 F 
ENDBRANCH   1   7
TORSDOF 2
ENDMDL
MODEL 5
REMARK VINA RESULT:      -5.4      0.977      3.055
REMARK  2 active torsions:
REMARK  status: ('A' for Active; 'I' for Inactive)
REMARK    1  A    between atoms: C1_1  and  C2_2 
REMARK    2  A    between atoms: C2_2  and  C3_3 
ROOT
HETATM    1  C2  UNL     1     -34.471   5.716   4.777  1.00 20.00     0.396 C 
HETATM    2  F6  UNL     1     -34.296   6.710   5.683  1.00 20.00    -0.190 F 
HETATM    3  F7  UNL     1     -35.576   6.032   4.055  1.00 20.00    -0.190 F 
ENDROOT
BRANCH   1   4
HETATM    4  C1  UNL     1     -33.275   5.673   3.857  1.00 20.00     0.434 C 
HETATM    5  F4  UNL     1     -32.664   6.885   3.863  1.00 20.00    -0.207 F 
HETATM    6  F5  UNL     1     -33.672   5.442   2.583  1.00 20.00    -0.207 F 
ENDBRANCH   1   4
BRANCH   1   7
HETATM    7  C3  UNL     1     -34.719   4.423   5.509  1.00 20.00     0.460 C 
HETATM    8  F8  UNL     1     -35.643   4.592   6.479  1.00 20.00    -0.165 F 
HETATM    9  F9  UNL     1     -33.589   3.967   6.093  1.00 20.00    -0.165 F 
HETATM   10  F10 UNL     1     -35.169   3.463   4.675  1.00 20.00    -0.165 F 
ENDBRANCH   1   7
TORSDOF 2
ENDMDL
MODEL 6
REMARK VINA RESULT:      -5.4      1.071      2.238
REMARK  2 active torsions:
REMARK  status: ('A' for Active; 'I' for Inactive)
REMARK    1  A    between atoms: C1_1  and  C2_2 
REMARK    2  A    between atoms: C2_2  and  C3_3 
ROOT
HETATM    1  C2  UNL     1     -34.595   5.255   5.768  1.00 20.00     0.396 C 
HETATM    2  F6  UNL     1     -33.613   4.429   6.210  1.00 20.00    -0.190 F 
HETATM    3  F7  UNL     1     -35.614   5.166   6.658  1.00 20.00    -0.190 F 
ENDROOT
BRANCH   1   4
HETATM    4  C1  UNL     1     -34.074   6.673   5.752  1.00 20.00     0.434 C 
HETATM    5  F4  UNL     1     -32.848   6.691   5.171  1.00 20.00    -0.207 F 
HETATM    6  F5  UNL     1     -33.913   7.126   7.018  1.00 20.00    -0.207 F 
ENDBRANCH   1   4
BRANCH   1   7
HETATM    7  C3  UNL     1     -35.074   4.771   4.424  1.00 20.00     0.460 C 
HETATM    8  F8  UNL     1     -35.212   3.427   4.422  1.00 20.00    -0.165 F 
HETATM    9  F9  UNL     1     -34.201   5.097   3.447  1.00 20.00    -0.165 F 
HETATM   10  F10 UNL     1     -36.270   5.308   4.105  1.00 20.00    -0.165 F 
ENDBRANCH   1   7
TORSDOF 2
ENDMDL
MODEL 7
REMARK VINA RESULT:      -5.3      0.991      3.205
REMARK  2 active torsions:
REMARK  status: ('A' for Active; 'I' for Inactive)
REMARK    1  A    between atoms: C1_1  and  C2_2 
REMARK    2  A    between atoms: C2_2  and  C3_3 
ROOT
HETATM    1  C2  UNL     1     -34.114   5.844   4.597  1.00 20.00     0.396 C 
HETATM    2  F6  UNL     1     -32.797   5.617   4.365  1.00 20.00    -0.190 F 
HETATM    3  F7  UNL     1     -34.312   7.180   4.466  1.00 20.00    -0.190 F 
ENDROOT
BRANCH   1   4
HETATM    4  C1  UNL     1     -34.930   5.119   3.553  1.00 20.00     0.434 C 
HETATM    5  F4  UNL     1     -34.266   5.147   2.370  1.00 20.00    -0.207 F 
HETATM    6  F5  UNL     1     -36.109   5.755   3.355  1.00 20.00    -0.207 F 
ENDBRANCH   1   4
BRANCH   1   7
HETATM    7  C3  UNL     1     -34.440   5.437   6.010  1.00 20.00     0.460 C 
HETATM    8  F8  UNL     1     -34.371   6.500   6.841  1.00 20.00    -0.165 F 
HETATM    9  F9  UNL     1     -33.575   4.504   6.463  1.00 20.00    -0.165 F 
HETATM   10  F10 UNL     1     -35.685   4.925   6.101  1.00 20.00    -0.165 F 
ENDBRANCH   1   7
TORSDOF 2
ENDMDL
MODEL 8
REMARK VINA RESULT:      -5.3      0.919      3.142
REMARK  2 active torsions:
REMARK  status: ('A' for Active; 'I' for Inactive)
REMARK    1  A    between atoms: C1_1  and  C2_2 
REMARK    2  A    between atoms: C2_2  and  C3_3 
ROOT
HETATM    1  C2  UNL     1     -34.168   5.637   4.873  1.00 20.00     0.396 C 
HETATM    2  F6  UNL     1     -32.856   5.469   4.571  1.00 20.00    -0.190 F 
HETATM    3  F7  UNL     1     -34.255   6.751   5.642  1.00 20.00    -0.190 F 
ENDROOT
BRANCH   1   4
HETATM    4  C1  UNL     1     -34.941   5.857   3.595  1.00 20.00     0.434 C 
HETATM    5  F4  UNL     1     -36.228   5.468   3.779  1.00 20.00    -0.207 F 
HETATM    6  F5  UNL     1     -34.437   5.084   2.603  1.00 20.00    -0.207 F 
ENDBRANCH   1   4
BRANCH   1   7
HETATM    7  C3  UNL     1     -34.643   4.452   5.671  1.00 20.00     0.460 C 
HETATM    8  F8  UNL     1     -35.668   4.800   6.480  1.00 20.00    -0.165 F 
HETATM    9  F9  UNL     1     -33.656   3.957   6.449  1.00 20.00    -0.165 F 
HETATM   10  F10 UNL     1     -35.074   3.457   4.868  1.00 20.00    -0.165 F 
ENDBRANCH   1   7
TORSDOF 2
ENDMDL
MODEL 9
REMARK VINA RESULT:      -5.3      1.310      2.061
REMARK  2 active torsions:
REMARK  status: ('A' for Active; 'I' for Inactive)
REMARK    1  A    between atoms: C1_1  and  C2_2 
REMARK    2  A    between atoms: C2_2  and  C3_3 
ROOT
HETATM    1  C2  UNL     1     -33.990   6.093   3.773  1.00 20.00     0.396 C 
HETATM    2  F6  UNL     1     -34.427   5.260   2.795  1.00 20.00    -0.190 F 
HETATM    3  F7  UNL     1     -34.810   7.174   3.764  1.00 20.00    -0.190 F 
ENDROOT
BRANCH   1   4
HETATM    4  C1  UNL     1     -34.110   5.392   5.105  1.00 20.00     0.434 C 
HETATM    5  F4  UNL     1     -35.204   4.591   5.091  1.00 20.00    -0.207 F 
HETATM    6  F5  UNL     1     -34.300   6.298   6.095  1.00 20.00    -0.207 F 
ENDBRANCH   1   4
BRANCH   1   7
HETATM    7  C3  UNL     1     -32.588   6.538   3.447  1.00 20.00     0.460 C 
HETATM    8  F8  UNL     1     -31.793   5.474   3.205  1.00 20.00    -0.165 F 
HETATM    9  F9  UNL     1     -32.045   7.234   4.469  1.00 20.00    -0.165 F 
HETATM   10  F10 UNL     1     -32.564   7.326   2.352  1.00 20.00    -0.165 F 
ENDBRANCH   1   7
TORSDOF 2
ENDMDL
