MODEL 1
REMARK VINA RESULT:      -5.3      0.000      0.000
REMARK  2 active torsions:
REMARK  status: ('A' for Active; 'I' for Inactive)
REMARK    1  A    between atoms: C1_1  and  C2_2 
REMARK    2  A    between atoms: C2_2  and  C3_3 
ROOT
HETATM    1  C2  UNL     1     -33.934   6.115   3.792  1.00 20.00     0.365 C 
HETATM    2  F5  UNL     1     -34.253   5.248   2.789  1.00 20.00    -0.193 F 
HETATM    3  F6  UNL     1     -34.697   7.223   3.582  1.00 20.00    -0.193 F 
ENDROOT
BRANCH   1   4
HETATM    4  C1  UNL     1     -32.470   6.494   3.630  1.00 20.00     0.345 C 
HETATM    5  F4  UNL     1     -31.803   5.398   3.167  1.00 20.00    -0.226 F 
HETATM    6 CL9  UNL     1     -32.216   7.822   2.481  1.00 20.00    -0.083 Cl
ENDBRANCH   1   4
BRANCH   1   7
HETATM    7  C3  UNL     1     -34.357   5.490   5.112  1.00 20.00     0.388 C 
HETATM    8  F7  UNL     1     -33.664   4.333   5.286  1.00 20.00    -0.181 F 
HETATM    9  F8  UNL     1     -35.667   5.145   5.077  1.00 20.00    -0.181 F 
HETATM   10 CL10 UNL     1     -34.062   6.550   6.499  1.00 20.00    -0.042 Cl
ENDBRANCH   1   7
TORSDOF 2
ENDMDL
MODEL 2
REMARK VINA RESULT:      -5.3      1.401      3.475
REMARK  2 active torsions:
REMARK  status: ('A' for Active; 'I' for Inactive)
REMARK    1  A    between atoms: C1_1  and  C2_2 
REMARK    2  A    between atoms: C2_2  and  C3_3 
ROOT
HETATM    1  C2  UNL     1     -33.809   6.188   3.802  1.00 20.00     0.365 C 
HETATM    2  F5  UNL     1     -34.667   7.248   3.824  1.00 20.00    -0.193 F 
HETATM    3  F6  UNL     1     -34.207   5.409   2.759  1.00 20.00    -0.193 F 
ENDROOT
BRANCH   1   4
HETATM    4  C1  UNL     1     -34.000   5.408   5.094  1.00 20.00     0.345 C 
HETATM    5  F4  UNL     1     -34.389   6.289   6.060  1.00 20.00    -0.226 F 
HETATM    6 CL9  UNL     1     -35.240   4.144   4.968  1.00 20.00    -0.083 Cl
ENDBRANCH   1   4
BRANCH   1   7
HETATM    7  C3  UNL     1     -32.414   6.713   3.498  1.00 20.00     0.388 C 
HETATM    8  F7  UNL     1     -31.611   5.657   3.197  1.00 20.00    -0.181 F 
HETATM    9  F8  UNL     1     -31.875   7.297   4.595  1.00 20.00    -0.181 F 
HETATM   10 CL10 UNL     1     -32.390   7.856   2.146  1.00 20.00    -0.042 Cl
ENDBRANCH   1   7
TORSDOF 2
ENDMDL
MODEL 3
REMARK VINA RESULT:      -5.1      1.376      1.644
REMARK  2 active torsions:
REMARK  status: ('A' for Active; 'I' for Inactive)
REMARK    1  A    between atoms: C1_1  and  C2_2 
REMARK    2  A    between atoms: C2_2  and  C3_3 
ROOT
HETATM    1  C2  UNL     1     -34.030   6.172   4.413  1.00 20.00     0.365 C 
HETATM    2  F5  UNL     1     -34.718   7.242   3.922  1.00 20.00    -0.193 F 
HETATM    3  F6  UNL     1     -33.572   6.554   5.637  1.00 20.00    -0.193 F 
ENDROOT
BRANCH   1   4
HETATM    4  C1  UNL     1     -32.837   5.927   3.502  1.00 20.00     0.345 C 
HETATM    5  F4  UNL     1     -33.315   5.645   2.256  1.00 20.00    -0.226 F 
HETATM    6 CL9  UNL     1     -31.757   7.330   3.375  1.00 20.00    -0.083 Cl
ENDBRANCH   1   4
BRANCH   1   7
HETATM    7  C3  UNL     1     -35.010   5.027   4.611  1.00 20.00     0.388 C 
HETATM    8  F7  UNL     1     -34.562   3.947   3.915  1.00 20.00    -0.181 F 
HETATM    9  F8  UNL     1     -36.219   5.339   4.084  1.00 20.00    -0.181 F 
HETATM   10 CL10 UNL     1     -35.205   4.573   6.311  1.00 20.00    -0.042 Cl
ENDBRANCH   1   7
TORSDOF 2
ENDMDL
MODEL 4
REMARK VINA RESULT:      -5.1      1.553      3.322
REMARK  2 active torsions:
REMARK  status: ('A' for Active; 'I' for Inactive)
REMARK    1  A    between atoms: C1_1  and  C2_2 
REMARK    2  A    between atoms: C2_2  and  C3_3 
ROOT
HETATM    1  C2  UNL     1     -34.988   4.985   4.617  1.00 20.00     0.365 C 
HETATM    2  F5  UNL     1     -36.263   5.349   4.300  1.00 20.00    -0.193 F 
HETATM    3  F6  UNL     1     -34.896   3.659   4.324  1.00 20.00    -0.193 F 
ENDROOT
BRANCH   1   4
HETATM    4  C1  UNL     1     -34.812   5.165   6.117  1.00 20.00     0.345 C 
HETATM    5  F4  UNL     1     -34.016   4.154   6.569  1.00 20.00    -0.226 F 
HETATM    6 CL9  UNL     1     -34.046   6.707   6.549  1.00 20.00    -0.083 Cl
ENDBRANCH   1   4
BRANCH   1   7
HETATM    7  C3  UNL     1     -34.037   5.740   3.702  1.00 20.00     0.388 C 
HETATM    8  F7  UNL     1     -32.776   5.627   4.199  1.00 20.00    -0.181 F 
HETATM    9  F8  UNL     1     -34.326   7.064   3.702  1.00 20.00    -0.181 F 
HETATM   10 CL10 UNL     1     -34.054   5.131   2.039  1.00 20.00    -0.042 Cl
ENDBRANCH   1   7
TORSDOF 2
ENDMDL
MODEL 5
REMARK VINA RESULT:      -5.0      1.629      1.924
REMARK  2 active torsions:
REMARK  status: ('A' for Active; 'I' for Inactive)
REMARK    1  A    between atoms: C1_1  and  C2_2 
REMARK    2  A    between atoms: C2_2  and  C3_3 
ROOT
HETATM    1  C2  UNL     1     -34.945   5.006   4.379  1.00 20.00     0.365 C 
HETATM    2  F5  UNL     1     -34.776   3.735   3.916  1.00 20.00    -0.193 F 
HETATM    3  F6  UNL     1     -36.272   5.279   4.244  1.00 20.00    -0.193 F 
ENDROOT
BRANCH   1   4
HETATM    4  C1  UNL     1     -34.161   5.941   3.470  1.00 20.00     0.345 C 
HETATM    5  F4  UNL     1     -34.491   7.222   3.804  1.00 20.00    -0.226 F 
HETATM    6 CL9  UNL     1     -32.403   5.762   3.635  1.00 20.00    -0.083 Cl
ENDBRANCH   1   4
BRANCH   1   7
HETATM    7  C3  UNL     1     -34.606   5.020   5.862  1.00 20.00     0.388 C 
HETATM    8  F7  UNL     1     -33.658   4.075   6.098  1.00 20.00    -0.181 F 
HETATM    9  F8  UNL     1     -35.686   4.665   6.599  1.00 20.00    -0.181 F 
HETATM   10 CL10 UNL     1     -34.002   6.590   6.414  1.00 20.00    -0.042 Cl
ENDBRANCH   1   7
TORSDOF 2
ENDMDL
MODEL 6
REMARK VINA RESULT:      -5.0      1.557      1.982
REMARK  2 active torsions:
REMARK  status: ('A' for Active; 'I' for Inactive)
REMARK    1  A    between atoms: C1_1  and  C2_2 
REMARK    2  A    between atoms: C2_2  and  C3_3 
ROOT
HETATM    1  C2  UNL     1     -33.971   6.205   4.610  1.00 20.00     0.365 C 
HETATM    2  F5  UNL     1     -34.744   7.227   4.144  1.00 20.00    -0.193 F 
HETATM    3  F6  UNL     1     -33.204   6.740   5.599  1.00 20.00    -0.193 F 
ENDROOT
BRANCH   1   4
HETATM    4  C1  UNL     1     -33.061   5.755   3.477  1.00 20.00     0.345 C 
HETATM    5  F4  UNL     1     -33.850   5.257   2.482  1.00 20.00    -0.226 F 
HETATM    6 CL9  UNL     1     -32.086   7.074   2.800  1.00 20.00    -0.083 Cl
ENDBRANCH   1   4
BRANCH   1   7
HETATM    7  C3  UNL     1     -34.888   5.163   5.232  1.00 20.00     0.388 C 
HETATM    8  F7  UNL     1     -36.024   5.087   4.490  1.00 20.00    -0.181 F 
HETATM    9  F8  UNL     1     -35.272   5.548   6.473  1.00 20.00    -0.181 F 
HETATM   10 CL10 UNL     1     -34.147   3.557   5.313  1.00 20.00    -0.042 Cl
ENDBRANCH   1   7
TORSDOF 2
ENDMDL
MODEL 7
REMARK VINA RESULT:      -4.9      1.507      3.473
REMARK  2 active torsions:
REMARK  status: ('A' for Active; 'I' for Inactive)
REMARK    1  A    between atoms: C1_1  and  C2_2 
REMARK    2  A    between atoms: C2_2  and  C3_3 
ROOT
HETATM    1  C2  UNL     1     -33.543   6.444   4.465  1.00 20.00     0.365 C 
HETATM    2  F5  UNL     1     -32.778   7.188   5.313  1.00 20.00    -0.193 F 
HETATM    3  F6  UNL     1     -34.614   7.223   4.150  1.00 20.00    -0.193 F 
ENDROOT
BRANCH   1   4
HETATM    4  C1  UNL     1     -34.037   5.226   5.231  1.00 20.00     0.345 C 
HETATM    5  F4  UNL     1     -34.289   5.614   6.514  1.00 20.00    -0.226 F 
HETATM    6 CL9  UNL     1     -35.527   4.536   4.559  1.00 20.00    -0.083 Cl
ENDBRANCH   1   4
BRANCH   1   7
HETATM    7  C3  UNL     1     -32.744   6.199   3.195  1.00 20.00     0.388 C 
HETATM    8  F7  UNL     1     -33.510   5.478   2.334  1.00 20.00    -0.181 F 
HETATM    9  F8  UNL     1     -31.653   5.440   3.458  1.00 20.00    -0.181 F 
HETATM   10 CL10 UNL     1     -32.243   7.700   2.398  1.00 20.00    -0.042 Cl
ENDBRANCH   1   7
TORSDOF 2
ENDMDL
MODEL 8
REMARK VINA RESULT:      -4.8      1.782      3.037
REMARK  2 active torsions:
REMARK  status: ('A' for Active; 'I' for Inactive)
REMARK    1  A    between atoms: C1_1  and  C2_2 
REMARK    2  A    between atoms: C2_2  and  C3_3 
ROOT
HETATM    1  C2  UNL     1     -34.086   6.046   4.603  1.00 20.00     0.365 C 
HETATM    2  F5  UNL     1     -32.785   5.682   4.421  1.00 20.00    -0.193 F 
HETATM    3  F6  UNL     1     -34.189   7.312   4.112  1.00 20.00    -0.193 F 
ENDROOT
BRANCH   1   4
HETATM    4  C1  UNL     1     -34.356   6.081   6.099  1.00 20.00     0.345 C 
HETATM    5  F4  UNL     1     -34.003   4.868   6.615  1.00 20.00    -0.226 F 
HETATM    6 CL9  UNL     1     -33.426   7.333   6.947  1.00 20.00    -0.083 Cl
ENDBRANCH   1   4
BRANCH   1   7
HETATM    7  C3  UNL     1     -34.958   5.136   3.752  1.00 20.00     0.388 C 
HETATM    8  F7  UNL     1     -36.198   5.684   3.661  1.00 20.00    -0.181 F 
HETATM    9  F8  UNL     1     -35.119   3.933   4.355  1.00 20.00    -0.181 F 
HETATM   10 CL10 UNL     1     -34.315   4.897   2.120  1.00 20.00    -0.042 Cl
ENDBRANCH   1   7
TORSDOF 2
ENDMDL
MODEL 9
REMARK VINA RESULT:      -4.5      1.612      2.146
REMARK  2 active torsions:
REMARK  status: ('A' for Active; 'I' for Inactive)
REMARK    1  A    between atoms: C1_1  and  C2_2 
REMARK    2  A    between atoms: C2_2  and  C3_3 
ROOT
HETATM    1  C2  UNL     1     -32.860   6.224   3.316  1.00 20.00     0.365 C 
HETATM    2  F5  UNL     1     -31.776   5.417   3.498  1.00 20.00    -0.193 F 
HETATM    3  F6  UNL     1     -33.376   5.885   2.103  1.00 20.00    -0.193 F 
ENDROOT
BRANCH   1   4
HETATM    4  C1  UNL     1     -32.365   7.661   3.252  1.00 20.00     0.345 C 
HETATM    5  F4  UNL     1     -31.222   7.742   3.992  1.00 20.00    -0.226 F 
HETATM    6 CL9  UNL     1     -31.995   8.197   1.601  1.00 20.00    -0.083 Cl
ENDBRANCH   1   4
BRANCH   1   7
HETATM    7  C3  UNL     1     -33.890   5.882   4.382  1.00 20.00     0.388 C 
HETATM    8  F7  UNL     1     -33.963   6.916   5.261  1.00 20.00    -0.181 F 
HETATM    9  F8  UNL     1     -33.492   4.803   5.099  1.00 20.00    -0.181 F 
HETATM   10 CL10 UNL     1     -35.501   5.584   3.710  1.00 20.00    -0.042 Cl
ENDBRANCH   1   7
TORSDOF 2
ENDMDL
