MODEL 1
REMARK VINA RESULT:      -5.1      0.000      0.000
REMARK  0 active torsions:
REMARK  status: ('A' for Active; 'I' for Inactive)
ROOT
HETATM    1  C1  UNL     1     -34.389   5.566   6.544  1.00 20.00    -0.030 A 
HETATM    2  C2  UNL     1     -35.156   4.649   5.945  1.00 20.00    -0.030 A 
HETATM    3  C3  UNL     1     -33.477   6.497   5.805  1.00 20.00     0.036 A 
HETATM    4  C4  UNL     1     -35.196   4.440   4.463  1.00 20.00     0.036 A 
HETATM    5  C5  UNL     1     -34.865   6.881   3.647  1.00 20.00     0.020 A 
HETATM    6  C6  UNL     1     -33.552   6.483   4.287  1.00 20.00    -0.032 A 
HETATM    7  C7  UNL     1     -34.431   5.431   3.600  1.00 20.00    -0.032 A 
HETATM    8  C8  UNL     1     -32.287   6.970   3.624  1.00 20.00     0.016 C 
HETATM    9  C9  UNL     1     -34.042   4.872   2.254  1.00 20.00     0.016 C 
ENDROOT
TORSDOF 0
ENDMDL
MODEL 2
REMARK VINA RESULT:      -4.3     11.843     13.364
REMARK  0 active torsions:
REMARK  status: ('A' for Active; 'I' for Inactive)
ROOT
HETATM    1  C1  UNL     1     -34.626  14.435  -6.211  1.00 20.00    -0.030 A 
HETATM    2  C2  UNL     1     -35.051  13.653  -5.212  1.00 20.00    -0.030 A 
HETATM    3  C3  UNL     1     -34.014  15.787  -6.002  1.00 20.00     0.036 A 
HETATM    4  C4  UNL     1     -34.967  14.032  -3.767  1.00 20.00     0.036 A 
HETATM    5  C5  UNL     1     -32.749  15.378  -3.774  1.00 20.00     0.020 A 
HETATM    6  C6  UNL     1     -33.734  16.209  -4.570  1.00 20.00    -0.032 A 
HETATM    7  C7  UNL     1     -34.221  15.312  -3.426  1.00 20.00    -0.032 A 
HETATM    8  C8  UNL     1     -33.674  17.707  -4.392  1.00 20.00     0.016 C 
HETATM    9  C9  UNL     1     -34.645  15.916  -2.109  1.00 20.00     0.016 C 
ENDROOT
TORSDOF 0
ENDMDL
MODEL 3
REMARK VINA RESULT:      -4.2     12.228     13.558
REMARK  0 active torsions:
REMARK  status: ('A' for Active; 'I' for Inactive)
ROOT
HETATM    1  C1  UNL     1     -32.952  14.962  -3.623  1.00 20.00    -0.030 A 
HETATM    2  C2  UNL     1     -33.505  13.767  -3.855  1.00 20.00    -0.030 A 
HETATM    3  C3  UNL     1     -33.231  16.180  -4.450  1.00 20.00     0.036 A 
HETATM    4  C4  UNL     1     -34.470  13.500  -4.968  1.00 20.00     0.036 A 
HETATM    5  C5  UNL     1     -35.724  15.771  -5.041  1.00 20.00     0.020 A 
HETATM    6  C6  UNL     1     -34.315  16.067  -5.509  1.00 20.00    -0.032 A 
HETATM    7  C7  UNL     1     -34.948  14.697  -5.775  1.00 20.00    -0.032 A 
HETATM    8  C8  UNL     1     -34.157  17.065  -6.631  1.00 20.00     0.016 C 
HETATM    9  C9  UNL     1     -35.423  14.330  -7.159  1.00 20.00     0.016 C 
ENDROOT
TORSDOF 0
ENDMDL
MODEL 4
REMARK VINA RESULT:      -4.2     12.036     13.599
REMARK  0 active torsions:
REMARK  status: ('A' for Active; 'I' for Inactive)
ROOT
HETATM    1  C1  UNL     1     -33.728  17.371  -5.582  1.00 20.00    -0.030 A 
HETATM    2  C2  UNL     1     -33.954  16.328  -6.388  1.00 20.00    -0.030 A 
HETATM    3  C3  UNL     1     -33.770  17.287  -4.086  1.00 20.00     0.036 A 
HETATM    4  C4  UNL     1     -34.276  14.952  -5.895  1.00 20.00     0.036 A 
HETATM    5  C5  UNL     1     -32.841  14.891  -3.735  1.00 20.00     0.020 A 
HETATM    6  C6  UNL     1     -33.932  15.907  -3.471  1.00 20.00    -0.032 A 
HETATM    7  C7  UNL     1     -34.191  14.712  -4.396  1.00 20.00    -0.032 A 
HETATM    8  C8  UNL     1     -34.524  15.939  -2.083  1.00 20.00     0.016 C 
HETATM    9  C9  UNL     1     -35.040  13.555  -3.929  1.00 20.00     0.016 C 
ENDROOT
TORSDOF 0
ENDMDL
MODEL 5
REMARK VINA RESULT:      -4.2      0.852      2.093
REMARK  0 active torsions:
REMARK  status: ('A' for Active; 'I' for Inactive)
ROOT
HETATM    1  C1  UNL     1     -33.260   7.368   5.688  1.00 20.00    -0.030 A 
HETATM    2  C2  UNL     1     -33.882   6.667   6.642  1.00 20.00    -0.030 A 
HETATM    3  C3  UNL     1     -33.232   6.962   4.246  1.00 20.00     0.036 A 
HETATM    4  C4  UNL     1     -34.625   5.393   6.387  1.00 20.00     0.036 A 
HETATM    5  C5  UNL     1     -35.583   5.887   4.026  1.00 20.00     0.020 A 
HETATM    6  C6  UNL     1     -34.084   5.771   3.843  1.00 20.00    -0.032 A 
HETATM    7  C7  UNL     1     -34.797   4.968   4.937  1.00 20.00    -0.032 A 
HETATM    8  C8  UNL     1     -33.595   5.085   2.590  1.00 20.00     0.016 C 
HETATM    9  C9  UNL     1     -35.018   3.484   4.775  1.00 20.00     0.016 C 
ENDROOT
TORSDOF 0
ENDMDL
MODEL 6
REMARK VINA RESULT:      -4.1      8.806     10.104
REMARK  0 active torsions:
REMARK  status: ('A' for Active; 'I' for Inactive)
ROOT
HETATM    1  C1  UNL     1     -40.916   6.211   0.183  1.00 20.00    -0.030 A 
HETATM    2  C2  UNL     1     -40.915   6.953  -0.930  1.00 20.00    -0.030 A 
HETATM    3  C3  UNL     1     -41.640   4.905   0.309  1.00 20.00     0.036 A 
HETATM    4  C4  UNL     1     -41.637   6.570  -2.184  1.00 20.00     0.036 A 
HETATM    5  C5  UNL     1     -41.360   3.991  -2.103  1.00 20.00     0.020 A 
HETATM    6  C6  UNL     1     -42.277   4.339  -0.949  1.00 20.00    -0.032 A 
HETATM    7  C7  UNL     1     -42.276   5.190  -2.225  1.00 20.00    -0.032 A 
HETATM    8  C8  UNL     1     -43.417   3.392  -0.666  1.00 20.00     0.016 C 
HETATM    9  C9  UNL     1     -43.414   5.090  -3.211  1.00 20.00     0.016 C 
ENDROOT
TORSDOF 0
ENDMDL
MODEL 7
REMARK VINA RESULT:      -4.1     12.136     13.101
REMARK  0 active torsions:
REMARK  status: ('A' for Active; 'I' for Inactive)
ROOT
HETATM    1  C1  UNL     1     -34.775  15.888  -2.332  1.00 20.00    -0.030 A 
HETATM    2  C2  UNL     1     -33.561  15.885  -2.892  1.00 20.00    -0.030 A 
HETATM    3  C3  UNL     1     -36.025  15.493  -3.059  1.00 20.00     0.036 A 
HETATM    4  C4  UNL     1     -33.301  15.488  -4.311  1.00 20.00     0.036 A 
HETATM    5  C5  UNL     1     -35.088  13.630  -4.601  1.00 20.00     0.020 A 
HETATM    6  C6  UNL     1     -35.864  14.922  -4.458  1.00 20.00    -0.032 A 
HETATM    7  C7  UNL     1     -34.471  14.919  -5.099  1.00 20.00    -0.032 A 
HETATM    8  C8  UNL     1     -37.096  15.085  -5.313  1.00 20.00     0.016 C 
HETATM    9  C9  UNL     1     -34.317  15.078  -6.592  1.00 20.00     0.016 C 
ENDROOT
TORSDOF 0
ENDMDL
MODEL 8
REMARK VINA RESULT:      -4.0      8.838     10.169
REMARK  0 active torsions:
REMARK  status: ('A' for Active; 'I' for Inactive)
ROOT
HETATM    1  C1  UNL     1     -43.417   7.974  -1.188  1.00 20.00    -0.030 A 
HETATM    2  C2  UNL     1     -42.728   7.771  -2.316  1.00 20.00    -0.030 A 
HETATM    3  C3  UNL     1     -43.389   7.038  -0.018  1.00 20.00     0.036 A 
HETATM    4  C4  UNL     1     -41.844   6.585  -2.547  1.00 20.00     0.036 A 
HETATM    5  C5  UNL     1     -40.931   6.219  -0.146  1.00 20.00     0.020 A 
HETATM    6  C6  UNL     1     -42.405   5.881  -0.078  1.00 20.00    -0.032 A 
HETATM    7  C7  UNL     1     -41.615   5.649  -1.371  1.00 20.00    -0.032 A 
HETATM    8  C8  UNL     1     -42.805   4.715   0.792  1.00 20.00     0.016 C 
HETATM    9  C9  UNL     1     -41.227   4.252  -1.788  1.00 20.00     0.016 C 
ENDROOT
TORSDOF 0
ENDMDL
MODEL 9
REMARK VINA RESULT:      -4.0     11.584     13.099
REMARK  0 active torsions:
REMARK  status: ('A' for Active; 'I' for Inactive)
ROOT
HETATM    1  C1  UNL     1     -34.349  13.409  -4.887  1.00 20.00    -0.030 A 
HETATM    2  C2  UNL     1     -34.954  14.015  -5.914  1.00 20.00    -0.030 A 
HETATM    3  C3  UNL     1     -34.314  13.967  -3.497  1.00 20.00     0.036 A 
HETATM    4  C4  UNL     1     -35.670  15.325  -5.800  1.00 20.00     0.036 A 
HETATM    5  C5  UNL     1     -36.641  15.109  -3.404  1.00 20.00     0.020 A 
HETATM    6  C6  UNL     1     -35.141  15.213  -3.228  1.00 20.00    -0.032 A 
HETATM    7  C7  UNL     1     -35.835  15.908  -4.405  1.00 20.00    -0.032 A 
HETATM    8  C8  UNL     1     -34.639  16.020  -2.056  1.00 20.00     0.016 C 
HETATM    9  C9  UNL     1     -36.025  17.405  -4.405  1.00 20.00     0.016 C 
ENDROOT
TORSDOF 0
ENDMDL
