MODEL 1
REMARK VINA RESULT:      -4.5      0.000      0.000
REMARK  4 active torsions:
REMARK  status: ('A' for Active; 'I' for Inactive)
REMARK    1  A    between atoms: C2_2  and  C8_8 
REMARK    2  A    between atoms: C3_3  and  C9_9 
REMARK    3  A    between atoms: C8_8  and  C9_9 
REMARK    4  A    between atoms: C9_9  and  C10_10 
ROOT
HETATM    1  C9  UNL     1     -34.200  15.548  -3.929  1.00 20.00     0.062 C 
ENDROOT
BRANCH   1   2
HETATM    2  C3  UNL     1     -34.072  14.021  -3.971  1.00 20.00     0.127 C 
HETATM    3  C5  UNL     1     -35.321  13.245  -4.303  1.00 20.00     0.091 C 
HETATM    4  O11 UNL     1     -33.016  13.439  -3.722  1.00 20.00    -0.298 OA
ENDBRANCH   1   2
BRANCH   1   5
HETATM    5  C8  UNL     1     -33.714  16.110  -2.576  1.00 20.00     0.045 C 
BRANCH   5   6
HETATM    6  C2  UNL     1     -34.816  16.724  -1.737  1.00 20.00    -0.092 C 
HETATM    7  C1  UNL     1     -34.687  16.880  -0.410  1.00 20.00     0.014 C 
HETATM    8  C4  UNL     1     -36.084  17.109  -2.445  1.00 20.00     0.042 C 
ENDBRANCH   5   6
ENDBRANCH   1   5
BRANCH   1   9
HETATM    9  C10 UNL     1     -33.487  16.157  -5.166  1.00 20.00    -0.011 C 
HETATM   10  C6  UNL     1     -33.458  17.687  -5.092  1.00 20.00     0.010 C 
HETATM   11  C7  UNL     1     -34.086  15.718  -6.505  1.00 20.00     0.010 C 
ENDBRANCH   1   9
TORSDOF 4
ENDMDL
MODEL 2
REMARK VINA RESULT:      -4.4      1.756      2.464
REMARK  4 active torsions:
REMARK  status: ('A' for Active; 'I' for Inactive)
REMARK    1  A    between atoms: C2_2  and  C8_8 
REMARK    2  A    between atoms: C3_3  and  C9_9 
REMARK    3  A    between atoms: C8_8  and  C9_9 
REMARK    4  A    between atoms: C9_9  and  C10_10 
ROOT
HETATM    1  C9  UNL     1     -35.543  14.707  -3.508  1.00 20.00     0.062 C 
ENDROOT
BRANCH   1   2
HETATM    2  C3  UNL     1     -34.587  13.595  -3.956  1.00 20.00     0.127 C 
HETATM    3  C5  UNL     1     -33.125  13.793  -3.646  1.00 20.00     0.091 C 
HETATM    4  O11 UNL     1     -34.974  12.597  -4.563  1.00 20.00    -0.298 OA
ENDBRANCH   1   2
BRANCH   1   5
HETATM    5  C8  UNL     1     -34.791  16.043  -3.320  1.00 20.00     0.045 C 
BRANCH   5   6
HETATM    6  C2  UNL     1     -35.196  16.802  -2.073  1.00 20.00    -0.092 C 
HETATM    7  C1  UNL     1     -34.609  16.572  -0.888  1.00 20.00     0.014 C 
HETATM    8  C4  UNL     1     -36.318  17.792  -2.206  1.00 20.00     0.042 C 
ENDBRANCH   5   6
ENDBRANCH   1   5
BRANCH   1   9
HETATM    9  C10 UNL     1     -36.741  14.782  -4.492  1.00 20.00    -0.011 C 
HETATM   10  C6  UNL     1     -36.565  15.928  -5.494  1.00 20.00     0.010 C 
HETATM   11  C7  UNL     1     -38.102  14.905  -3.802  1.00 20.00     0.010 C 
ENDBRANCH   1   9
TORSDOF 4
ENDMDL
MODEL 3
REMARK VINA RESULT:      -4.4      1.999      2.857
REMARK  4 active torsions:
REMARK  status: ('A' for Active; 'I' for Inactive)
REMARK    1  A    between atoms: C2_2  and  C8_8 
REMARK    2  A    between atoms: C3_3  and  C9_9 
REMARK    3  A    between atoms: C8_8  and  C9_9 
REMARK    4  A    between atoms: C9_9  and  C10_10 
ROOT
HETATM    1  C9  UNL     1     -35.635  15.363  -4.072  1.00 20.00     0.062 C 
ENDROOT
BRANCH   1   2
HETATM    2  C3  UNL     1     -37.133  15.236  -3.770  1.00 20.00     0.127 C 
HETATM    3  C5  UNL     1     -37.873  16.514  -3.464  1.00 20.00     0.091 C 
HETATM    4  O11 UNL     1     -37.713  14.152  -3.748  1.00 20.00    -0.298 OA
ENDBRANCH   1   2
BRANCH   1   5
HETATM    5  C8  UNL     1     -34.792  15.160  -2.795  1.00 20.00     0.045 C 
BRANCH   5   6
HETATM    6  C2  UNL     1     -34.399  16.453  -2.109  1.00 20.00    -0.092 C 
HETATM    7  C1  UNL     1     -34.599  16.641  -0.796  1.00 20.00     0.014 C 
HETATM    8  C4  UNL     1     -33.819  17.538  -2.971  1.00 20.00     0.042 C 
ENDBRANCH   5   6
ENDBRANCH   1   5
BRANCH   1   9
HETATM    9  C10 UNL     1     -35.265  14.411  -5.240  1.00 20.00    -0.011 C 
HETATM   10  C6  UNL     1     -34.465  13.204  -4.739  1.00 20.00     0.010 C 
HETATM   11  C7  UNL     1     -34.505  15.094  -6.380  1.00 20.00     0.010 C 
ENDBRANCH   1   9
TORSDOF 4
ENDMDL
MODEL 4
REMARK VINA RESULT:      -4.3      1.402      1.850
REMARK  4 active torsions:
REMARK  status: ('A' for Active; 'I' for Inactive)
REMARK    1  A    between atoms: C2_2  and  C8_8 
REMARK    2  A    between atoms: C3_3  and  C9_9 
REMARK    3  A    between atoms: C8_8  and  C9_9 
REMARK    4  A    between atoms: C9_9  and  C10_10 
ROOT
HETATM    1  C9  UNL     1     -34.790  15.163  -3.550  1.00 20.00     0.062 C 
ENDROOT
BRANCH   1   2
HETATM    2  C3  UNL     1     -34.394  13.704  -3.804  1.00 20.00     0.127 C 
HETATM    3  C5  UNL     1     -32.952  13.340  -3.551  1.00 20.00     0.091 C 
HETATM    4  O11 UNL     1     -35.192  12.865  -4.219  1.00 20.00    -0.298 OA
ENDBRANCH   1   2
BRANCH   1   5
HETATM    5  C8  UNL     1     -33.614  15.961  -2.949  1.00 20.00     0.045 C 
BRANCH   5   6
HETATM    6  C2  UNL     1     -34.033  16.974  -1.903  1.00 20.00    -0.092 C 
HETATM    7  C1  UNL     1     -34.662  16.603  -0.777  1.00 20.00     0.014 C 
HETATM    8  C4  UNL     1     -33.759  18.421  -2.199  1.00 20.00     0.042 C 
ENDBRANCH   5   6
ENDBRANCH   1   5
BRANCH   1   9
HETATM    9  C10 UNL     1     -35.375  15.770  -4.853  1.00 20.00    -0.011 C 
HETATM   10  C6  UNL     1     -34.277  16.417  -5.704  1.00 20.00     0.010 C 
HETATM   11  C7  UNL     1     -36.503  16.779  -4.615  1.00 20.00     0.010 C 
ENDBRANCH   1   9
TORSDOF 4
ENDMDL
MODEL 5
REMARK VINA RESULT:      -4.3      1.305      1.996
REMARK  4 active torsions:
REMARK  status: ('A' for Active; 'I' for Inactive)
REMARK    1  A    between atoms: C2_2  and  C8_8 
REMARK    2  A    between atoms: C3_3  and  C9_9 
REMARK    3  A    between atoms: C8_8  and  C9_9 
REMARK    4  A    between atoms: C9_9  and  C10_10 
ROOT
HETATM    1  C9  UNL     1     -34.890  14.985  -4.900  1.00 20.00     0.062 C 
ENDROOT
BRANCH   1   2
HETATM    2  C3  UNL     1     -34.401  13.652  -4.322  1.00 20.00     0.127 C 
HETATM    3  C5  UNL     1     -33.055  13.662  -3.642  1.00 20.00     0.091 C 
HETATM    4  O11 UNL     1     -35.049  12.611  -4.421  1.00 20.00    -0.298 OA
ENDBRANCH   1   2
BRANCH   1   5
HETATM    5  C8  UNL     1     -34.424  16.172  -4.030  1.00 20.00     0.045 C 
BRANCH   5   6
HETATM    6  C2  UNL     1     -35.317  16.444  -2.836  1.00 20.00    -0.092 C 
HETATM    7  C1  UNL     1     -36.605  16.788  -2.985  1.00 20.00     0.014 C 
HETATM    8  C4  UNL     1     -34.687  16.357  -1.475  1.00 20.00     0.042 C 
ENDBRANCH   5   6
ENDBRANCH   1   5
BRANCH   1   9
HETATM    9  C10 UNL     1     -34.471  15.083  -6.391  1.00 20.00    -0.011 C 
HETATM   10  C6  UNL     1     -34.218  16.537  -6.802  1.00 20.00     0.010 C 
HETATM   11  C7  UNL     1     -35.470  14.441  -7.359  1.00 20.00     0.010 C 
ENDBRANCH   1   9
TORSDOF 4
ENDMDL
MODEL 6
REMARK VINA RESULT:      -4.2      1.690      4.145
REMARK  4 active torsions:
REMARK  status: ('A' for Active; 'I' for Inactive)
REMARK    1  A    between atoms: C2_2  and  C8_8 
REMARK    2  A    between atoms: C3_3  and  C9_9 
REMARK    3  A    between atoms: C8_8  and  C9_9 
REMARK    4  A    between atoms: C9_9  and  C10_10 
ROOT
HETATM    1  C9  UNL     1     -34.463  15.971  -3.944  1.00 20.00     0.062 C 
ENDROOT
BRANCH   1   2
HETATM    2  C3  UNL     1     -34.154  16.879  -2.748  1.00 20.00     0.127 C 
HETATM    3  C5  UNL     1     -34.602  16.391  -1.394  1.00 20.00     0.091 C 
HETATM    4  O11 UNL     1     -33.592  17.967  -2.872  1.00 20.00    -0.298 OA
ENDBRANCH   1   2
BRANCH   1   5
HETATM    5  C8  UNL     1     -33.472  16.221  -5.101  1.00 20.00     0.045 C 
BRANCH   5   6
HETATM    6  C2  UNL     1     -34.125  16.255  -6.468  1.00 20.00    -0.092 C 
HETATM    7  C1  UNL     1     -34.333  15.135  -7.177  1.00 20.00     0.014 C 
HETATM    8  C4  UNL     1     -34.489  17.604  -7.021  1.00 20.00     0.042 C 
ENDBRANCH   5   6
ENDBRANCH   1   5
BRANCH   1   9
HETATM    9  C10 UNL     1     -34.527  14.496  -3.465  1.00 20.00    -0.011 C 
HETATM   10  C6  UNL     1     -33.194  13.778  -3.704  1.00 20.00     0.010 C 
HETATM   11  C7  UNL     1     -35.666  13.689  -4.094  1.00 20.00     0.010 C 
ENDBRANCH   1   9
TORSDOF 4
ENDMDL
MODEL 7
REMARK VINA RESULT:      -4.2      1.909      3.864
REMARK  4 active torsions:
REMARK  status: ('A' for Active; 'I' for Inactive)
REMARK    1  A    between atoms: C2_2  and  C8_8 
REMARK    2  A    between atoms: C3_3  and  C9_9 
REMARK    3  A    between atoms: C8_8  and  C9_9 
REMARK    4  A    between atoms: C9_9  and  C10_10 
ROOT
HETATM    1  C9  UNL     1     -33.991  16.457  -2.593  1.00 20.00     0.062 C 
ENDROOT
BRANCH   1   2
HETATM    2  C3  UNL     1     -34.058  17.086  -1.197  1.00 20.00     0.127 C 
HETATM    3  C5  UNL     1     -33.223  18.321  -0.970  1.00 20.00     0.091 C 
HETATM    4  O11 UNL     1     -34.734  16.607  -0.287  1.00 20.00    -0.298 OA
ENDBRANCH   1   2
BRANCH   1   5
HETATM    5  C8  UNL     1     -34.954  15.256  -2.708  1.00 20.00     0.045 C 
BRANCH   5   6
HETATM    6  C2  UNL     1     -34.438  14.141  -3.594  1.00 20.00    -0.092 C 
HETATM    7  C1  UNL     1     -35.266  13.400  -4.346  1.00 20.00     0.014 C 
HETATM    8  C4  UNL     1     -32.961  13.865  -3.561  1.00 20.00     0.042 C 
ENDBRANCH   5   6
ENDBRANCH   1   5
BRANCH   1   9
HETATM    9  C10 UNL     1     -34.213  17.559  -3.664  1.00 20.00    -0.011 C 
HETATM   10  C6  UNL     1     -35.701  17.718  -3.994  1.00 20.00     0.010 C 
HETATM   11  C7  UNL     1     -33.420  17.338  -4.954  1.00 20.00     0.010 C 
ENDBRANCH   1   9
TORSDOF 4
ENDMDL
MODEL 8
REMARK VINA RESULT:      -4.2      2.115      3.306
REMARK  4 active torsions:
REMARK  status: ('A' for Active; 'I' for Inactive)
REMARK    1  A    between atoms: C2_2  and  C8_8 
REMARK    2  A    between atoms: C3_3  and  C9_9 
REMARK    3  A    between atoms: C8_8  and  C9_9 
REMARK    4  A    between atoms: C9_9  and  C10_10 
ROOT
HETATM    1  C9  UNL     1     -35.067  15.115  -3.819  1.00 20.00     0.062 C 
ENDROOT
BRANCH   1   2
HETATM    2  C3  UNL     1     -34.456  13.715  -3.943  1.00 20.00     0.127 C 
HETATM    3  C5  UNL     1     -32.990  13.583  -3.612  1.00 20.00     0.091 C 
HETATM    4  O11 UNL     1     -35.107  12.740  -4.318  1.00 20.00    -0.298 OA
ENDBRANCH   1   2
BRANCH   1   5
HETATM    5  C8  UNL     1     -36.514  15.044  -3.287  1.00 20.00     0.045 C 
BRANCH   5   6
HETATM    6  C2  UNL     1     -37.569  15.159  -4.368  1.00 20.00    -0.092 C 
HETATM    7  C1  UNL     1     -38.835  14.765  -4.160  1.00 20.00     0.014 C 
HETATM    8  C4  UNL     1     -37.129  15.690  -5.703  1.00 20.00     0.042 C 
ENDBRANCH   5   6
ENDBRANCH   1   5
BRANCH   1   9
HETATM    9  C10 UNL     1     -34.121  16.015  -2.979  1.00 20.00    -0.011 C 
HETATM   10  C6  UNL     1     -34.703  16.284  -1.587  1.00 20.00     0.010 C 
HETATM   11  C7  UNL     1     -33.768  17.343  -3.654  1.00 20.00     0.010 C 
ENDBRANCH   1   9
TORSDOF 4
ENDMDL
MODEL 9
REMARK VINA RESULT:      -4.2      1.808      2.932
REMARK  4 active torsions:
REMARK  status: ('A' for Active; 'I' for Inactive)
REMARK    1  A    between atoms: C2_2  and  C8_8 
REMARK    2  A    between atoms: C3_3  and  C9_9 
REMARK    3  A    between atoms: C8_8  and  C9_9 
REMARK    4  A    between atoms: C9_9  and  C10_10 
ROOT
HETATM    1  C9  UNL     1     -34.761  15.018  -5.058  1.00 20.00     0.062 C 
ENDROOT
BRANCH   1   2
HETATM    2  C3  UNL     1     -34.346  13.702  -4.389  1.00 20.00     0.127 C 
HETATM    3  C5  UNL     1     -33.057  13.717  -3.607  1.00 20.00     0.091 C 
HETATM    4  O11 UNL     1     -35.007  12.669  -4.496  1.00 20.00    -0.298 OA
ENDBRANCH   1   2
BRANCH   1   5
HETATM    5  C8  UNL     1     -33.532  15.907  -5.343  1.00 20.00     0.045 C 
BRANCH   5   6
HETATM    6  C2  UNL     1     -33.674  17.327  -4.831  1.00 20.00    -0.092 C 
HETATM    7  C1  UNL     1     -33.841  17.590  -3.526  1.00 20.00     0.014 C 
HETATM    8  C4  UNL     1     -33.667  18.428  -5.853  1.00 20.00     0.042 C 
ENDBRANCH   5   6
ENDBRANCH   1   5
BRANCH   1   9
HETATM    9  C10 UNL     1     -35.628  14.707  -6.308  1.00 20.00    -0.011 C 
HETATM   10  C6  UNL     1     -34.794  14.774  -7.591  1.00 20.00     0.010 C 
HETATM   11  C7  UNL     1     -36.860  15.606  -6.447  1.00 20.00     0.010 C 
ENDBRANCH   1   9
TORSDOF 4
ENDMDL
