MODEL 1
REMARK VINA RESULT:      -4.2      0.000      0.000
REMARK  6 active torsions:
REMARK  status: ('A' for Active; 'I' for Inactive)
REMARK    1  A    between atoms: C5_5  and  C6_6 
REMARK    2  A    between atoms: C5_5  and  C7_7 
REMARK    3  A    between atoms: C6_6  and  C9_9 
REMARK    4  A    between atoms: C7_7  and  O11_11 
REMARK    5  A    between atoms: C8_8  and  C9_9 
REMARK    6  A    between atoms: C9_9  and  C10_10 
ROOT
HETATM    1  C9  UNL     1     -34.360  16.125  -2.606  1.00 20.00     0.007 C 
ENDROOT
BRANCH   1   2
HETATM    2  C6  UNL     1     -35.492  16.801  -3.429  1.00 20.00     0.008 C 
BRANCH   2   3
HETATM    3  C5  UNL     1     -36.857  16.110  -3.296  1.00 20.00     0.027 C 
BRANCH   3   4
HETATM    4  C7  UNL     1     -36.896  14.772  -4.026  1.00 20.00     0.167 C 
BRANCH   4   5
HETATM    5  O11 UNL     1     -38.118  14.105  -3.748  1.00 20.00    -0.396 OA
HETATM    6  C4  UNL     1     -39.238  14.861  -4.189  1.00 20.00     0.201 C 
ENDBRANCH   4   5
ENDBRANCH   3   4
ENDBRANCH   2   3
ENDBRANCH   1   2
BRANCH   1   7
HETATM    7  C8  UNL     1     -33.862  17.002  -1.407  1.00 20.00    -0.017 C 
HETATM    8  C1  UNL     1     -33.541  18.442  -1.825  1.00 20.00     0.010 C 
HETATM    9  C2  UNL     1     -34.769  17.018  -0.175  1.00 20.00     0.010 C 
ENDBRANCH   1   7
BRANCH   1  10
HETATM   10  C10 UNL     1     -33.230  15.546  -3.512  1.00 20.00     0.082 C 
HETATM   11  C3  UNL     1     -33.173  16.216  -4.886  1.00 20.00     0.027 C 
HETATM   12 CL12 UNL     1     -33.356  13.778  -3.758  1.00 20.00    -0.125 Cl
ENDBRANCH   1  10
TORSDOF 6
ENDMDL
MODEL 2
REMARK VINA RESULT:      -4.2      2.379      2.735
REMARK  6 active torsions:
REMARK  status: ('A' for Active; 'I' for Inactive)
REMARK    1  A    between atoms: C5_5  and  C6_6 
REMARK    2  A    between atoms: C5_5  and  C7_7 
REMARK    3  A    between atoms: C6_6  and  C9_9 
REMARK    4  A    between atoms: C7_7  and  O11_11 
REMARK    5  A    between atoms: C8_8  and  C9_9 
REMARK    6  A    between atoms: C9_9  and  C10_10 
ROOT
HETATM    1  C9  UNL     1     -33.880  16.480  -2.854  1.00 20.00     0.007 C 
ENDROOT
BRANCH   1   2
HETATM    2  C6  UNL     1     -34.764  15.202  -2.805  1.00 20.00     0.008 C 
BRANCH   2   3
HETATM    3  C5  UNL     1     -34.145  13.988  -3.512  1.00 20.00     0.027 C 
BRANCH   3   4
HETATM    4  C7  UNL     1     -34.981  13.529  -4.701  1.00 20.00     0.167 C 
BRANCH   4   5
HETATM    5  O11 UNL     1     -34.450  14.066  -5.904  1.00 20.00    -0.396 OA
HETATM    6  C4  UNL     1     -35.479  14.456  -6.803  1.00 20.00     0.201 C 
ENDBRANCH   4   5
ENDBRANCH   3   4
ENDBRANCH   2   3
ENDBRANCH   1   2
BRANCH   1   7
HETATM    7  C8  UNL     1     -33.670  17.138  -1.448  1.00 20.00    -0.017 C 
HETATM    8  C1  UNL     1     -33.421  18.649  -1.538  1.00 20.00     0.010 C 
HETATM    9  C2  UNL     1     -34.765  16.862  -0.416  1.00 20.00     0.010 C 
ENDBRANCH   1   7
BRANCH   1  10
HETATM   10  C10 UNL     1     -34.318  17.462  -3.983  1.00 20.00     0.082 C 
HETATM   11  C3  UNL     1     -35.805  17.348  -4.323  1.00 20.00     0.027 C 
HETATM   12 CL12 UNL     1     -33.382  17.264  -5.496  1.00 20.00    -0.125 Cl
ENDBRANCH   1  10
TORSDOF 6
ENDMDL
MODEL 3
REMARK VINA RESULT:      -4.2      2.487      3.730
REMARK  6 active torsions:
REMARK  status: ('A' for Active; 'I' for Inactive)
REMARK    1  A    between atoms: C5_5  and  C6_6 
REMARK    2  A    between atoms: C5_5  and  C7_7 
REMARK    3  A    between atoms: C6_6  and  C9_9 
REMARK    4  A    between atoms: C7_7  and  O11_11 
REMARK    5  A    between atoms: C8_8  and  C9_9 
REMARK    6  A    between atoms: C9_9  and  C10_10 
ROOT
HETATM    1  C9  UNL     1     -33.975  16.272  -3.162  1.00 20.00     0.007 C 
ENDROOT
BRANCH   1   2
HETATM    2  C6  UNL     1     -32.846  15.319  -3.647  1.00 20.00     0.008 C 
BRANCH   2   3
HETATM    3  C5  UNL     1     -33.242  13.835  -3.652  1.00 20.00     0.027 C 
BRANCH   3   4
HETATM    4  C7  UNL     1     -34.741  13.643  -3.853  1.00 20.00     0.167 C 
BRANCH   4   5
HETATM    5  O11 UNL     1     -34.982  12.962  -5.076  1.00 20.00    -0.396 OA
HETATM    6  C4  UNL     1     -35.091  13.868  -6.166  1.00 20.00     0.201 C 
ENDBRANCH   4   5
ENDBRANCH   3   4
ENDBRANCH   2   3
ENDBRANCH   1   2
BRANCH   1   7
HETATM    7  C8  UNL     1     -34.448  17.278  -4.266  1.00 20.00    -0.017 C 
HETATM    8  C1  UNL     1     -33.563  17.236  -5.518  1.00 20.00     0.010 C 
HETATM    9  C2  UNL     1     -35.918  17.172  -4.675  1.00 20.00     0.010 C 
ENDBRANCH   1   7
BRANCH   1  10
HETATM   10  C10 UNL     1     -33.657  16.914  -1.777  1.00 20.00     0.082 C 
HETATM   11  C3  UNL     1     -34.735  16.628  -0.731  1.00 20.00     0.027 C 
HETATM   12 CL12 UNL     1     -33.412  18.685  -1.857  1.00 20.00    -0.125 Cl
ENDBRANCH   1  10
TORSDOF 6
ENDMDL
MODEL 4
REMARK VINA RESULT:      -4.2      2.488      3.098
REMARK  6 active torsions:
REMARK  status: ('A' for Active; 'I' for Inactive)
REMARK    1  A    between atoms: C5_5  and  C6_6 
REMARK    2  A    between atoms: C5_5  and  C7_7 
REMARK    3  A    between atoms: C6_6  and  C9_9 
REMARK    4  A    between atoms: C7_7  and  O11_11 
REMARK    5  A    between atoms: C8_8  and  C9_9 
REMARK    6  A    between atoms: C9_9  and  C10_10 
ROOT
HETATM    1  C9  UNL     1     -34.257  16.210  -3.310  1.00 20.00     0.007 C 
ENDROOT
BRANCH   1   2
HETATM    2  C6  UNL     1     -33.175  16.270  -4.426  1.00 20.00     0.008 C 
BRANCH   2   3
HETATM    3  C5  UNL     1     -33.542  17.188  -5.601  1.00 20.00     0.027 C 
BRANCH   3   4
HETATM    4  C7  UNL     1     -34.608  16.571  -6.499  1.00 20.00     0.167 C 
BRANCH   4   5
HETATM    5  O11 UNL     1     -34.165  15.309  -6.980  1.00 20.00    -0.396 OA
HETATM    6  C4  UNL     1     -35.255  14.430  -7.221  1.00 20.00     0.201 C 
ENDBRANCH   4   5
ENDBRANCH   3   4
ENDBRANCH   2   3
ENDBRANCH   1   2
BRANCH   1   7
HETATM    7  C8  UNL     1     -33.813  16.914  -1.983  1.00 20.00    -0.017 C 
HETATM    8  C1  UNL     1     -33.665  18.432  -2.143  1.00 20.00     0.010 C 
HETATM    9  C2  UNL     1     -34.669  16.611  -0.753  1.00 20.00     0.010 C 
ENDBRANCH   1   7
BRANCH   1  10
HETATM   10  C10 UNL     1     -34.848  14.778  -3.132  1.00 20.00     0.082 C 
HETATM   11  C3  UNL     1     -33.966  13.693  -3.752  1.00 20.00     0.027 C 
HETATM   12 CL12 UNL     1     -36.499  14.605  -3.800  1.00 20.00    -0.125 Cl
ENDBRANCH   1  10
TORSDOF 6
ENDMDL
MODEL 5
REMARK VINA RESULT:      -4.0     11.265     12.154
REMARK  6 active torsions:
REMARK  status: ('A' for Active; 'I' for Inactive)
REMARK    1  A    between atoms: C5_5  and  C6_6 
REMARK    2  A    between atoms: C5_5  and  C7_7 
REMARK    3  A    between atoms: C6_6  and  C9_9 
REMARK    4  A    between atoms: C7_7  and  O11_11 
REMARK    5  A    between atoms: C8_8  and  C9_9 
REMARK    6  A    between atoms: C9_9  and  C10_10 
ROOT
HETATM    1  C9  UNL     1     -33.828   6.137   4.302  1.00 20.00     0.007 C 
ENDROOT
BRANCH   1   2
HETATM    2  C6  UNL     1     -32.408   6.180   3.672  1.00 20.00     0.008 C 
BRANCH   2   3
HETATM    3  C5  UNL     1     -31.856   7.599   3.473  1.00 20.00     0.027 C 
BRANCH   3   4
HETATM    4  C7  UNL     1     -31.864   8.017   2.007  1.00 20.00     0.167 C 
BRANCH   4   5
HETATM    5  O11 UNL     1     -32.443   9.307   1.874  1.00 20.00    -0.396 OA
HETATM    6  C4  UNL     1     -32.523   9.707   0.513  1.00 20.00     0.201 C 
ENDBRANCH   4   5
ENDBRANCH   3   4
ENDBRANCH   2   3
ENDBRANCH   1   2
BRANCH   1   7
HETATM    7  C8  UNL     1     -33.815   5.795   5.830  1.00 20.00    -0.017 C 
HETATM    8  C1  UNL     1     -33.821   7.049   6.714  1.00 20.00     0.010 C 
HETATM    9  C2  UNL     1     -34.904   4.831   6.304  1.00 20.00     0.010 C 
ENDBRANCH   1   7
BRANCH   1  10
HETATM   10  C10 UNL     1     -34.832   5.303   3.448  1.00 20.00     0.082 C 
HETATM   11  C3  UNL     1     -34.320   5.030   2.033  1.00 20.00     0.027 C 
HETATM   12 CL12 UNL     1     -36.451   6.056   3.321  1.00 20.00    -0.125 Cl
ENDBRANCH   1  10
TORSDOF 6
ENDMDL
MODEL 6
REMARK VINA RESULT:      -4.0      2.881      4.721
REMARK  6 active torsions:
REMARK  status: ('A' for Active; 'I' for Inactive)
REMARK    1  A    between atoms: C5_5  and  C6_6 
REMARK    2  A    between atoms: C5_5  and  C7_7 
REMARK    3  A    between atoms: C6_6  and  C9_9 
REMARK    4  A    between atoms: C7_7  and  O11_11 
REMARK    5  A    between atoms: C8_8  and  C9_9 
REMARK    6  A    between atoms: C9_9  and  C10_10 
ROOT
HETATM    1  C9  UNL     1     -35.158  15.099  -3.062  1.00 20.00     0.007 C 
ENDROOT
BRANCH   1   2
HETATM    2  C6  UNL     1     -34.390  16.337  -2.521  1.00 20.00     0.008 C 
BRANCH   2   3
HETATM    3  C5  UNL     1     -34.585  16.584  -1.017  1.00 20.00     0.027 C 
BRANCH   3   4
HETATM    4  C7  UNL     1     -33.799  17.795  -0.528  1.00 20.00     0.167 C 
BRANCH   4   5
HETATM    5  O11 UNL     1     -34.031  17.994   0.859  1.00 20.00    -0.396 OA
HETATM    6  C4  UNL     1     -35.349  17.611   1.229  1.00 20.00     0.201 C 
ENDBRANCH   4   5
ENDBRANCH   3   4
ENDBRANCH   2   3
ENDBRANCH   1   2
BRANCH   1   7
HETATM    7  C8  UNL     1     -34.212  13.933  -3.506  1.00 20.00    -0.017 C 
HETATM    8  C1  UNL     1     -34.677  13.260  -4.804  1.00 20.00     0.010 C 
HETATM    9  C2  UNL     1     -32.728  14.288  -3.619  1.00 20.00     0.010 C 
ENDBRANCH   1   7
BRANCH   1  10
HETATM   10  C10 UNL     1     -36.257  15.488  -4.098  1.00 20.00     0.082 C 
HETATM   11  C3  UNL     1     -36.315  16.993  -4.362  1.00 20.00     0.027 C 
HETATM   12 CL12 UNL     1     -37.896  14.940  -3.631  1.00 20.00    -0.125 Cl
ENDBRANCH   1  10
TORSDOF 6
ENDMDL
MODEL 7
REMARK VINA RESULT:      -3.9      2.806      5.029
REMARK  6 active torsions:
REMARK  status: ('A' for Active; 'I' for Inactive)
REMARK    1  A    between atoms: C5_5  and  C6_6 
REMARK    2  A    between atoms: C5_5  and  C7_7 
REMARK    3  A    between atoms: C6_6  and  C9_9 
REMARK    4  A    between atoms: C7_7  and  O11_11 
REMARK    5  A    between atoms: C8_8  and  C9_9 
REMARK    6  A    between atoms: C9_9  and  C10_10 
ROOT
HETATM    1  C9  UNL     1     -34.867  15.506  -2.950  1.00 20.00     0.007 C 
ENDROOT
BRANCH   1   2
HETATM    2  C6  UNL     1     -34.025  16.446  -2.041  1.00 20.00     0.008 C 
BRANCH   2   3
HETATM    3  C5  UNL     1     -34.641  16.690  -0.656  1.00 20.00     0.027 C 
BRANCH   3   4
HETATM    4  C7  UNL     1     -34.135  17.981  -0.023  1.00 20.00     0.167 C 
BRANCH   4   5
HETATM    5  O11 UNL     1     -32.911  18.370  -0.629  1.00 20.00    -0.396 OA
HETATM    6  C4  UNL     1     -32.000  18.898   0.325  1.00 20.00     0.201 C 
ENDBRANCH   4   5
ENDBRANCH   3   4
ENDBRANCH   2   3
ENDBRANCH   1   2
BRANCH   1   7
HETATM    7  C8  UNL     1     -34.002  14.716  -3.989  1.00 20.00    -0.017 C 
HETATM    8  C1  UNL     1     -32.522  14.649  -3.591  1.00 20.00     0.010 C 
HETATM    9  C2  UNL     1     -34.501  13.313  -4.338  1.00 20.00     0.010 C 
ENDBRANCH   1   7
BRANCH   1  10
HETATM   10  C10 UNL     1     -36.121  16.220  -3.543  1.00 20.00     0.082 C 
HETATM   11  C3  UNL     1     -37.360  15.324  -3.556  1.00 20.00     0.027 C 
HETATM   12 CL12 UNL     1     -35.864  16.842  -5.201  1.00 20.00    -0.125 Cl
ENDBRANCH   1  10
TORSDOF 6
ENDMDL
MODEL 8
REMARK VINA RESULT:      -3.9      2.705      4.294
REMARK  6 active torsions:
REMARK  status: ('A' for Active; 'I' for Inactive)
REMARK    1  A    between atoms: C5_5  and  C6_6 
REMARK    2  A    between atoms: C5_5  and  C7_7 
REMARK    3  A    between atoms: C6_6  and  C9_9 
REMARK    4  A    between atoms: C7_7  and  O11_11 
REMARK    5  A    between atoms: C8_8  and  C9_9 
REMARK    6  A    between atoms: C9_9  and  C10_10 
ROOT
HETATM    1  C9  UNL     1     -34.610  15.810  -4.027  1.00 20.00     0.007 C 
ENDROOT
BRANCH   1   2
HETATM    2  C6  UNL     1     -34.772  16.864  -2.896  1.00 20.00     0.008 C 
BRANCH   2   3
HETATM    3  C5  UNL     1     -34.794  16.263  -1.483  1.00 20.00     0.027 C 
BRANCH   3   4
HETATM    4  C7  UNL     1     -34.406  17.284  -0.419  1.00 20.00     0.167 C 
BRANCH   4   5
HETATM    5  O11 UNL     1     -35.544  17.629   0.358  1.00 20.00    -0.396 OA
HETATM    6  C4  UNL     1     -35.217  17.761   1.734  1.00 20.00     0.201 C 
ENDBRANCH   4   5
ENDBRANCH   3   4
ENDBRANCH   2   3
ENDBRANCH   1   2
BRANCH   1   7
HETATM    7  C8  UNL     1     -34.309  14.370  -3.489  1.00 20.00    -0.017 C 
HETATM    8  C1  UNL     1     -35.164  13.296  -4.172  1.00 20.00     0.010 C 
HETATM    9  C2  UNL     1     -32.839  13.945  -3.516  1.00 20.00     0.010 C 
ENDBRANCH   1   7
BRANCH   1  10
HETATM   10  C10 UNL     1     -33.662  16.301  -5.164  1.00 20.00     0.082 C 
HETATM   11  C3  UNL     1     -33.655  17.823  -5.313  1.00 20.00     0.027 C 
HETATM   12 CL12 UNL     1     -34.041  15.586  -6.761  1.00 20.00    -0.125 Cl
ENDBRANCH   1  10
TORSDOF 6
ENDMDL
MODEL 9
REMARK VINA RESULT:      -3.8      2.471      4.691
REMARK  6 active torsions:
REMARK  status: ('A' for Active; 'I' for Inactive)
REMARK    1  A    between atoms: C5_5  and  C6_6 
REMARK    2  A    between atoms: C5_5  and  C7_7 
REMARK    3  A    between atoms: C6_6  and  C9_9 
REMARK    4  A    between atoms: C7_7  and  O11_11 
REMARK    5  A    between atoms: C8_8  and  C9_9 
REMARK    6  A    between atoms: C9_9  and  C10_10 
ROOT
HETATM    1  C9  UNL     1     -34.105  15.623  -5.474  1.00 20.00     0.007 C 
ENDROOT
BRANCH   1   2
HETATM    2  C6  UNL     1     -34.761  16.849  -4.779  1.00 20.00     0.008 C 
BRANCH   2   3
HETATM    3  C5  UNL     1     -33.752  17.844  -4.187  1.00 20.00     0.027 C 
BRANCH   3   4
HETATM    4  C7  UNL     1     -33.870  17.947  -2.671  1.00 20.00     0.167 C 
BRANCH   4   5
HETATM    5  O11 UNL     1     -33.874  16.648  -2.096  1.00 20.00    -0.396 OA
HETATM    6  C4  UNL     1     -34.602  16.618  -0.876  1.00 20.00     0.201 C 
ENDBRANCH   4   5
ENDBRANCH   3   4
ENDBRANCH   2   3
ENDBRANCH   1   2
BRANCH   1   7
HETATM    7  C8  UNL     1     -34.279  15.632  -7.031  1.00 20.00    -0.017 C 
HETATM    8  C1  UNL     1     -35.227  14.532  -7.523  1.00 20.00     0.010 C 
HETATM    9  C2  UNL     1     -34.688  16.971  -7.646  1.00 20.00     0.010 C 
ENDBRANCH   1   7
BRANCH   1  10
HETATM   10  C10 UNL     1     -34.473  14.277  -4.777  1.00 20.00     0.082 C 
HETATM   11  C3  UNL     1     -35.771  14.363  -3.973  1.00 20.00     0.027 C 
HETATM   12 CL12 UNL     1     -33.186  13.664  -3.696  1.00 20.00    -0.125 Cl
ENDBRANCH   1  10
TORSDOF 6
ENDMDL
