MODEL 1
REMARK VINA RESULT:      -4.8      0.000      0.000
REMARK  6 active torsions:
REMARK  status: ('A' for Active; 'I' for Inactive)
REMARK    1  A    between atoms: C1_1  and  C10_10 
REMARK    2  A    between atoms: C7_7  and  C8_8 
REMARK    3  A    between atoms: C8_8  and  C12_12 
REMARK    4  A    between atoms: C9_9  and  C10_10 
REMARK    5  A    between atoms: C9_9  and  C12_12 
REMARK    6  A    between atoms: C10_10  and  C11_11 
ROOT
HETATM    1  C10 UNL     1     -34.710  14.866  -5.233  1.00 20.00     0.058 C 
ENDROOT
BRANCH   1   2
HETATM    2  C1  UNL     1     -34.348  13.594  -4.465  1.00 20.00     0.127 C 
HETATM    3  C2  UNL     1     -33.080  13.630  -3.649  1.00 20.00     0.091 C 
HETATM    4  O13 UNL     1     -35.058  12.589  -4.483  1.00 20.00    -0.298 OA
ENDBRANCH   1   2
BRANCH   1   5
HETATM    5  C9  UNL     1     -35.361  15.893  -4.279  1.00 20.00     0.016 C 
BRANCH   5   6
HETATM    6  C12 UNL     1     -34.498  17.143  -3.965  1.00 20.00    -0.018 C 
HETATM    7  C6  UNL     1     -33.449  17.308  -5.073  1.00 20.00     0.010 C 
BRANCH   6   8
HETATM    8  C8  UNL     1     -33.838  17.050  -2.572  1.00 20.00     0.004 C 
BRANCH   8   9
HETATM    9  C7  UNL     1     -34.639  16.303  -1.500  1.00 20.00    -0.004 C 
HETATM   10  C3  UNL     1     -34.783  17.078  -0.200  1.00 20.00     0.005 C 
ENDBRANCH   8   9
ENDBRANCH   6   8
ENDBRANCH   5   6
ENDBRANCH   1   5
BRANCH   1  11
HETATM   11  C11 UNL     1     -35.595  14.573  -6.476  1.00 20.00    -0.012 C 
HETATM   12  C4  UNL     1     -36.945  15.292  -6.391  1.00 20.00     0.010 C 
HETATM   13  C5  UNL     1     -34.933  14.877  -7.823  1.00 20.00     0.010 C 
ENDBRANCH   1  11
TORSDOF 6
ENDMDL
MODEL 2
REMARK VINA RESULT:      -4.5      1.142      3.881
REMARK  6 active torsions:
REMARK  status: ('A' for Active; 'I' for Inactive)
REMARK    1  A    between atoms: C1_1  and  C10_10 
REMARK    2  A    between atoms: C7_7  and  C8_8 
REMARK    3  A    between atoms: C8_8  and  C12_12 
REMARK    4  A    between atoms: C9_9  and  C10_10 
REMARK    5  A    between atoms: C9_9  and  C12_12 
REMARK    6  A    between atoms: C10_10  and  C11_11 
ROOT
HETATM    1  C10 UNL     1     -34.699  15.195  -4.015  1.00 20.00     0.058 C 
ENDROOT
BRANCH   1   2
HETATM    2  C1  UNL     1     -34.319  13.715  -3.940  1.00 20.00     0.127 C 
HETATM    3  C2  UNL     1     -32.913  13.395  -3.502  1.00 20.00     0.091 C 
HETATM    4  O13 UNL     1     -35.119  12.817  -4.201  1.00 20.00    -0.298 OA
ENDBRANCH   1   2
BRANCH   1   5
HETATM    5  C9  UNL     1     -33.435  16.055  -4.236  1.00 20.00     0.016 C 
BRANCH   5   6
HETATM    6  C12 UNL     1     -33.460  16.957  -5.497  1.00 20.00    -0.018 C 
HETATM    7  C6  UNL     1     -33.614  18.418  -5.055  1.00 20.00     0.010 C 
BRANCH   6   8
HETATM    8  C8  UNL     1     -34.579  16.542  -6.476  1.00 20.00     0.004 C 
BRANCH   8   9
HETATM    9  C7  UNL     1     -34.283  15.321  -7.355  1.00 20.00    -0.004 C 
HETATM   10  C3  UNL     1     -35.493  14.429  -7.581  1.00 20.00     0.005 C 
ENDBRANCH   8   9
ENDBRANCH   6   8
ENDBRANCH   5   6
ENDBRANCH   1   5
BRANCH   1  11
HETATM   11  C11 UNL     1     -35.518  15.657  -2.779  1.00 20.00    -0.012 C 
HETATM   12  C4  UNL     1     -34.613  16.229  -1.682  1.00 20.00     0.010 C 
HETATM   13  C5  UNL     1     -36.644  16.648  -3.086  1.00 20.00     0.010 C 
ENDBRANCH   1  11
TORSDOF 6
ENDMDL
MODEL 3
REMARK VINA RESULT:      -4.4      1.088      1.463
REMARK  6 active torsions:
REMARK  status: ('A' for Active; 'I' for Inactive)
REMARK    1  A    between atoms: C1_1  and  C10_10 
REMARK    2  A    between atoms: C7_7  and  C8_8 
REMARK    3  A    between atoms: C8_8  and  C12_12 
REMARK    4  A    between atoms: C9_9  and  C10_10 
REMARK    5  A    between atoms: C9_9  and  C12_12 
REMARK    6  A    between atoms: C10_10  and  C11_11 
ROOT
HETATM    1  C10 UNL     1     -35.097  14.902  -4.750  1.00 20.00     0.058 C 
ENDROOT
BRANCH   1   2
HETATM    2  C1  UNL     1     -34.449  13.587  -4.311  1.00 20.00     0.127 C 
HETATM    3  C2  UNL     1     -33.099  13.683  -3.647  1.00 20.00     0.091 C 
HETATM    4  O13 UNL     1     -35.000  12.498  -4.465  1.00 20.00    -0.298 OA
ENDBRANCH   1   2
BRANCH   1   5
HETATM    5  C9  UNL     1     -36.345  15.190  -3.885  1.00 20.00     0.016 C 
BRANCH   5   6
HETATM    6  C12 UNL     1     -36.250  16.449  -2.985  1.00 20.00    -0.018 C 
HETATM    7  C6  UNL     1     -37.302  17.466  -3.449  1.00 20.00     0.010 C 
BRANCH   6   8
HETATM    8  C8  UNL     1     -34.831  17.059  -3.000  1.00 20.00     0.004 C 
BRANCH   8   9
HETATM    9  C7  UNL     1     -33.959  16.755  -1.776  1.00 20.00    -0.004 C 
HETATM   10  C3  UNL     1     -34.695  16.902  -0.454  1.00 20.00     0.005 C 
ENDBRANCH   8   9
ENDBRANCH   6   8
ENDBRANCH   5   6
ENDBRANCH   1   5
BRANCH   1  11
HETATM   11  C11 UNL     1     -35.414  14.924  -6.270  1.00 20.00    -0.012 C 
HETATM   12  C4  UNL     1     -36.859  15.358  -6.539  1.00 20.00     0.010 C 
HETATM   13  C5  UNL     1     -34.457  15.769  -7.115  1.00 20.00     0.010 C 
ENDBRANCH   1  11
TORSDOF 6
ENDMDL
MODEL 4
REMARK VINA RESULT:      -4.4      1.906      4.269
REMARK  6 active torsions:
REMARK  status: ('A' for Active; 'I' for Inactive)
REMARK    1  A    between atoms: C1_1  and  C10_10 
REMARK    2  A    between atoms: C7_7  and  C8_8 
REMARK    3  A    between atoms: C8_8  and  C12_12 
REMARK    4  A    between atoms: C9_9  and  C10_10 
REMARK    5  A    between atoms: C9_9  and  C12_12 
REMARK    6  A    between atoms: C10_10  and  C11_11 
ROOT
HETATM    1  C10 UNL     1     -33.944  16.264  -3.054  1.00 20.00     0.058 C 
ENDROOT
BRANCH   1   2
HETATM    2  C1  UNL     1     -34.093  16.906  -1.673  1.00 20.00     0.127 C 
HETATM    3  C2  UNL     1     -33.524  18.292  -1.503  1.00 20.00     0.091 C 
HETATM    4  O13 UNL     1     -34.666  16.341  -0.743  1.00 20.00    -0.298 OA
ENDBRANCH   1   2
BRANCH   1   5
HETATM    5  C9  UNL     1     -34.637  17.140  -4.122  1.00 20.00     0.016 C 
BRANCH   5   6
HETATM    6  C12 UNL     1     -33.832  17.348  -5.431  1.00 20.00    -0.018 C 
HETATM    7  C6  UNL     1     -33.544  18.846  -5.599  1.00 20.00     0.010 C 
BRANCH   6   8
HETATM    8  C8  UNL     1     -34.574  16.774  -6.657  1.00 20.00     0.004 C 
BRANCH   8   9
HETATM    9  C7  UNL     1     -34.218  15.334  -7.043  1.00 20.00    -0.004 C 
HETATM   10  C3  UNL     1     -35.432  14.469  -7.343  1.00 20.00     0.005 C 
ENDBRANCH   8   9
ENDBRANCH   6   8
ENDBRANCH   5   6
ENDBRANCH   1   5
BRANCH   1  11
HETATM   11  C11 UNL     1     -34.448  14.795  -3.079  1.00 20.00    -0.012 C 
HETATM   12  C4  UNL     1     -35.860  14.691  -3.666  1.00 20.00     0.010 C 
HETATM   13  C5  UNL     1     -33.520  13.808  -3.791  1.00 20.00     0.010 C 
ENDBRANCH   1  11
TORSDOF 6
ENDMDL
MODEL 5
REMARK VINA RESULT:      -4.4      1.894      5.004
REMARK  6 active torsions:
REMARK  status: ('A' for Active; 'I' for Inactive)
REMARK    1  A    between atoms: C1_1  and  C10_10 
REMARK    2  A    between atoms: C7_7  and  C8_8 
REMARK    3  A    between atoms: C8_8  and  C12_12 
REMARK    4  A    between atoms: C9_9  and  C10_10 
REMARK    5  A    between atoms: C9_9  and  C12_12 
REMARK    6  A    between atoms: C10_10  and  C11_11 
ROOT
HETATM    1  C10 UNL     1     -34.028  16.761  -3.042  1.00 20.00     0.058 C 
ENDROOT
BRANCH   1   2
HETATM    2  C1  UNL     1     -34.249  17.569  -4.322  1.00 20.00     0.127 C 
HETATM    3  C2  UNL     1     -35.667  17.980  -4.630  1.00 20.00     0.091 C 
HETATM    4  O13 UNL     1     -33.323  17.895  -5.063  1.00 20.00    -0.298 OA
ENDBRANCH   1   2
BRANCH   1   5
HETATM    5  C9  UNL     1     -34.841  15.448  -3.098  1.00 20.00     0.016 C 
BRANCH   5   6
HETATM    6  C12 UNL     1     -34.021  14.176  -3.436  1.00 20.00    -0.018 C 
HETATM    7  C6  UNL     1     -32.544  14.567  -3.584  1.00 20.00     0.010 C 
BRANCH   6   8
HETATM    8  C8  UNL     1     -34.549  13.474  -4.706  1.00 20.00     0.004 C 
BRANCH   8   9
HETATM    9  C7  UNL     1     -35.329  14.358  -5.686  1.00 20.00    -0.004 C 
HETATM   10  C3  UNL     1     -34.490  14.861  -6.849  1.00 20.00     0.005 C 
ENDBRANCH   8   9
ENDBRANCH   6   8
ENDBRANCH   5   6
ENDBRANCH   1   5
BRANCH   1  11
HETATM   11  C11 UNL     1     -34.329  17.587  -1.762  1.00 20.00    -0.012 C 
HETATM   12  C4  UNL     1     -34.673  16.684  -0.574  1.00 20.00     0.010 C 
HETATM   13  C5  UNL     1     -33.230  18.573  -1.359  1.00 20.00     0.010 C 
ENDBRANCH   1  11
TORSDOF 6
ENDMDL
MODEL 6
REMARK VINA RESULT:      -4.3      1.518      2.516
REMARK  6 active torsions:
REMARK  status: ('A' for Active; 'I' for Inactive)
REMARK    1  A    between atoms: C1_1  and  C10_10 
REMARK    2  A    between atoms: C7_7  and  C8_8 
REMARK    3  A    between atoms: C8_8  and  C12_12 
REMARK    4  A    between atoms: C9_9  and  C10_10 
REMARK    5  A    between atoms: C9_9  and  C12_12 
REMARK    6  A    between atoms: C10_10  and  C11_11 
ROOT
HETATM    1  C10 UNL     1     -35.883  15.285  -4.171  1.00 20.00     0.058 C 
ENDROOT
BRANCH   1   2
HETATM    2  C1  UNL     1     -37.350  15.206  -3.744  1.00 20.00     0.127 C 
HETATM    3  C2  UNL     1     -38.012  16.499  -3.341  1.00 20.00     0.091 C 
HETATM    4  O13 UNL     1     -37.980  14.148  -3.746  1.00 20.00    -0.298 OA
ENDBRANCH   1   2
BRANCH   1   5
HETATM    5  C9  UNL     1     -35.591  16.663  -4.806  1.00 20.00     0.016 C 
BRANCH   5   6
HETATM    6  C12 UNL     1     -34.430  17.459  -4.155  1.00 20.00    -0.018 C 
HETATM    7  C6  UNL     1     -33.476  17.931  -5.261  1.00 20.00     0.010 C 
BRANCH   6   8
HETATM    8  C8  UNL     1     -33.690  16.624  -3.088  1.00 20.00     0.004 C 
BRANCH   8   9
HETATM    9  C7  UNL     1     -33.677  17.207  -1.670  1.00 20.00    -0.004 C 
HETATM   10  C3  UNL     1     -34.761  16.636  -0.770  1.00 20.00     0.005 C 
ENDBRANCH   8   9
ENDBRANCH   6   8
ENDBRANCH   5   6
ENDBRANCH   1   5
BRANCH   1  11
HETATM   11  C11 UNL     1     -35.474  14.109  -5.099  1.00 20.00    -0.012 C 
HETATM   12  C4  UNL     1     -35.197  14.587  -6.528  1.00 20.00     0.010 C 
HETATM   13  C5  UNL     1     -34.294  13.273  -4.597  1.00 20.00     0.010 C 
ENDBRANCH   1  11
TORSDOF 6
ENDMDL
MODEL 7
REMARK VINA RESULT:      -4.3      2.295      3.524
REMARK  6 active torsions:
REMARK  status: ('A' for Active; 'I' for Inactive)
REMARK    1  A    between atoms: C1_1  and  C10_10 
REMARK    2  A    between atoms: C7_7  and  C8_8 
REMARK    3  A    between atoms: C8_8  and  C12_12 
REMARK    4  A    between atoms: C9_9  and  C10_10 
REMARK    5  A    between atoms: C9_9  and  C12_12 
REMARK    6  A    between atoms: C10_10  and  C11_11 
ROOT
HETATM    1  C10 UNL     1     -34.273  16.995  -5.229  1.00 20.00     0.058 C 
ENDROOT
BRANCH   1   2
HETATM    2  C1  UNL     1     -33.734  18.395  -5.526  1.00 20.00     0.127 C 
HETATM    3  C2  UNL     1     -33.873  18.892  -6.942  1.00 20.00     0.091 C 
HETATM    4  O13 UNL     1     -33.229  19.104  -4.656  1.00 20.00    -0.298 OA
ENDBRANCH   1   2
BRANCH   1   5
HETATM    5  C9  UNL     1     -33.129  16.082  -4.733  1.00 20.00     0.016 C 
BRANCH   5   6
HETATM    6  C12 UNL     1     -33.426  15.299  -3.428  1.00 20.00    -0.018 C 
HETATM    7  C6  UNL     1     -33.380  13.796  -3.734  1.00 20.00     0.010 C 
BRANCH   6   8
HETATM    8  C8  UNL     1     -34.780  15.708  -2.809  1.00 20.00     0.004 C 
BRANCH   8   9
HETATM    9  C7  UNL     1     -34.715  16.354  -1.420  1.00 20.00    -0.004 C 
HETATM   10  C3  UNL     1     -33.609  17.388  -1.283  1.00 20.00     0.005 C 
ENDBRANCH   8   9
ENDBRANCH   6   8
ENDBRANCH   5   6
ENDBRANCH   1   5
BRANCH   1  11
HETATM   11  C11 UNL     1     -35.030  16.385  -6.440  1.00 20.00    -0.012 C 
HETATM   12  C4  UNL     1     -34.268  15.202  -7.047  1.00 20.00     0.010 C 
HETATM   13  C5  UNL     1     -36.477  15.974  -6.154  1.00 20.00     0.010 C 
ENDBRANCH   1  11
TORSDOF 6
ENDMDL
MODEL 8
REMARK VINA RESULT:      -4.3      2.092      3.474
REMARK  6 active torsions:
REMARK  status: ('A' for Active; 'I' for Inactive)
REMARK    1  A    between atoms: C1_1  and  C10_10 
REMARK    2  A    between atoms: C7_7  and  C8_8 
REMARK    3  A    between atoms: C8_8  and  C12_12 
REMARK    4  A    between atoms: C9_9  and  C10_10 
REMARK    5  A    between atoms: C9_9  and  C12_12 
REMARK    6  A    between atoms: C10_10  and  C11_11 
ROOT
HETATM    1  C10 UNL     1     -34.307  15.778  -4.042  1.00 20.00     0.058 C 
ENDROOT
BRANCH   1   2
HETATM    2  C1  UNL     1     -33.826  16.734  -5.134  1.00 20.00     0.127 C 
HETATM    3  C2  UNL     1     -34.056  16.307  -6.562  1.00 20.00     0.091 C 
HETATM    4  O13 UNL     1     -33.297  17.815  -4.877  1.00 20.00    -0.298 OA
ENDBRANCH   1   2
BRANCH   1   5
HETATM    5  C9  UNL     1     -33.717  16.195  -2.676  1.00 20.00     0.016 C 
BRANCH   5   6
HETATM    6  C12 UNL     1     -34.761  16.509  -1.573  1.00 20.00    -0.018 C 
HETATM    7  C6  UNL     1     -35.967  17.203  -2.219  1.00 20.00     0.010 C 
BRANCH   6   8
HETATM    8  C8  UNL     1     -34.157  17.366  -0.439  1.00 20.00     0.004 C 
BRANCH   8   9
HETATM    9  C7  UNL     1     -33.073  18.366  -0.859  1.00 20.00    -0.004 C 
HETATM   10  C3  UNL     1     -32.248  18.890   0.305  1.00 20.00     0.005 C 
ENDBRANCH   8   9
ENDBRANCH   6   8
ENDBRANCH   5   6
ENDBRANCH   1   5
BRANCH   1  11
HETATM   11  C11 UNL     1     -34.008  14.293  -4.384  1.00 20.00    -0.012 C 
HETATM   12  C4  UNL     1     -32.877  13.729  -3.518  1.00 20.00     0.010 C 
HETATM   13  C5  UNL     1     -35.220  13.360  -4.319  1.00 20.00     0.010 C 
ENDBRANCH   1  11
TORSDOF 6
ENDMDL
MODEL 9
REMARK VINA RESULT:      -4.3      1.489      4.347
REMARK  6 active torsions:
REMARK  status: ('A' for Active; 'I' for Inactive)
REMARK    1  A    between atoms: C1_1  and  C10_10 
REMARK    2  A    between atoms: C7_7  and  C8_8 
REMARK    3  A    between atoms: C8_8  and  C12_12 
REMARK    4  A    between atoms: C9_9  and  C10_10 
REMARK    5  A    between atoms: C9_9  and  C12_12 
REMARK    6  A    between atoms: C10_10  and  C11_11 
ROOT
HETATM    1  C10 UNL     1     -33.945  16.129  -3.710  1.00 20.00     0.058 C 
ENDROOT
BRANCH   1   2
HETATM    2  C1  UNL     1     -33.356  14.718  -3.679  1.00 20.00     0.127 C 
HETATM    3  C2  UNL     1     -34.320  13.573  -3.864  1.00 20.00     0.091 C 
HETATM    4  O13 UNL     1     -32.151  14.511  -3.534  1.00 20.00    -0.298 OA
ENDBRANCH   1   2
BRANCH   1   5
HETATM    5  C9  UNL     1     -33.367  16.917  -4.907  1.00 20.00     0.016 C 
BRANCH   5   6
HETATM    6  C12 UNL     1     -34.241  16.911  -6.188  1.00 20.00    -0.018 C 
HETATM    7  C6  UNL     1     -34.144  18.290  -6.856  1.00 20.00     0.010 C 
BRANCH   6   8
HETATM    8  C8  UNL     1     -35.706  16.534  -5.881  1.00 20.00     0.004 C 
BRANCH   8   9
HETATM    9  C7  UNL     1     -36.232  15.271  -6.573  1.00 20.00    -0.004 C 
HETATM   10  C3  UNL     1     -35.199  14.587  -7.455  1.00 20.00     0.005 C 
ENDBRANCH   8   9
ENDBRANCH   6   8
ENDBRANCH   5   6
ENDBRANCH   1   5
BRANCH   1  11
HETATM   11  C11 UNL     1     -33.755  16.878  -2.363  1.00 20.00    -0.012 C 
HETATM   12  C4  UNL     1     -33.840  18.397  -2.544  1.00 20.00     0.010 C 
HETATM   13  C5  UNL     1     -34.702  16.438  -1.243  1.00 20.00     0.010 C 
ENDBRANCH   1  11
TORSDOF 6
ENDMDL
