MODEL 1
REMARK VINA RESULT:      -5.2      0.000      0.000
REMARK  4 active torsions:
REMARK  status: ('A' for Active; 'I' for Inactive)
REMARK    1  A    between atoms: C2_2  and  C8_8 
REMARK    2  A    between atoms: C3_3  and  C9_9 
REMARK    3  A    between atoms: C8_8  and  C9_9 
REMARK    4  A    between atoms: C9_9  and  C10_10 
ROOT
HETATM    1  C1  UNL     1     -32.223   8.468   1.791  1.00 20.00    -0.111 C 
HETATM    2  C2  UNL     1     -32.279   7.576   2.592  1.00 20.00    -0.106 C 
HETATM    3  C4  UNL     1     -32.152   9.553   0.813  1.00 20.00     0.112 C 
ENDROOT
BRANCH   2   4
HETATM    4  C8  UNL     1     -32.349   6.484   3.576  1.00 20.00     0.106 C 
BRANCH   4   5
HETATM    5  C9  UNL     1     -33.727   6.358   4.252  1.00 20.00     0.069 C 
BRANCH   5   6
HETATM    6  C3  UNL     1     -34.659   5.561   3.330  1.00 20.00     0.128 C 
HETATM    7  C5  UNL     1     -36.136   5.837   3.456  1.00 20.00     0.091 C 
HETATM    8  O11 UNL     1     -34.235   4.753   2.505  1.00 20.00    -0.298 OA
ENDBRANCH   5   6
BRANCH   5   9
HETATM    9  C10 UNL     1     -33.712   5.767   5.689  1.00 20.00    -0.011 C 
HETATM   10  C6  UNL     1     -34.774   4.667   5.840  1.00 20.00     0.010 C 
HETATM   11  C7  UNL     1     -33.958   6.834   6.763  1.00 20.00     0.010 C 
ENDBRANCH   5   9
ENDBRANCH   4   5
ENDBRANCH   2   4
TORSDOF 4
ENDMDL
MODEL 2
REMARK VINA RESULT:      -5.1     11.183     12.449
REMARK  4 active torsions:
REMARK  status: ('A' for Active; 'I' for Inactive)
REMARK    1  A    between atoms: C2_2  and  C8_8 
REMARK    2  A    between atoms: C3_3  and  C9_9 
REMARK    3  A    between atoms: C8_8  and  C9_9 
REMARK    4  A    between atoms: C9_9  and  C10_10 
ROOT
HETATM    1  C1  UNL     1     -34.668  16.771  -0.732  1.00 20.00    -0.111 C 
HETATM    2  C2  UNL     1     -34.321  16.216  -1.739  1.00 20.00    -0.106 C 
HETATM    3  C4  UNL     1     -35.094  17.444   0.493  1.00 20.00     0.112 C 
ENDROOT
BRANCH   2   4
HETATM    4  C8  UNL     1     -33.893  15.537  -2.973  1.00 20.00     0.106 C 
BRANCH   4   5
HETATM    5  C9  UNL     1     -34.813  15.816  -4.175  1.00 20.00     0.069 C 
BRANCH   5   6
HETATM    6  C3  UNL     1     -33.959  16.317  -5.346  1.00 20.00     0.128 C 
HETATM    7  C5  UNL     1     -34.447  15.983  -6.733  1.00 20.00     0.091 C 
HETATM    8  O11 UNL     1     -32.938  16.982  -5.178  1.00 20.00    -0.298 OA
ENDBRANCH   5   6
BRANCH   5   9
HETATM    9  C10 UNL     1     -35.724  14.632  -4.605  1.00 20.00    -0.011 C 
HETATM   10  C6  UNL     1     -37.088  14.708  -3.904  1.00 20.00     0.010 C 
HETATM   11  C7  UNL     1     -35.092  13.268  -4.300  1.00 20.00     0.010 C 
ENDBRANCH   5   9
ENDBRANCH   4   5
ENDBRANCH   2   4
TORSDOF 4
ENDMDL
MODEL 3
REMARK VINA RESULT:      -5.1     10.817     12.169
REMARK  4 active torsions:
REMARK  status: ('A' for Active; 'I' for Inactive)
REMARK    1  A    between atoms: C2_2  and  C8_8 
REMARK    2  A    between atoms: C3_3  and  C9_9 
REMARK    3  A    between atoms: C8_8  and  C9_9 
REMARK    4  A    between atoms: C9_9  and  C10_10 
ROOT
HETATM    1  C1  UNL     1     -34.431  17.099  -0.627  1.00 20.00    -0.111 C 
HETATM    2  C2  UNL     1     -34.746  16.345  -1.506  1.00 20.00    -0.106 C 
HETATM    3  C4  UNL     1     -34.043  18.015   0.444  1.00 20.00     0.112 C 
ENDROOT
BRANCH   2   4
HETATM    4  C8  UNL     1     -35.136  15.422  -2.585  1.00 20.00     0.106 C 
BRANCH   4   5
HETATM    5  C9  UNL     1     -34.081  15.306  -3.701  1.00 20.00     0.069 C 
BRANCH   5   6
HETATM    6  C3  UNL     1     -33.831  13.822  -3.992  1.00 20.00     0.128 C 
HETATM    7  C5  UNL     1     -34.813  13.134  -4.906  1.00 20.00     0.091 C 
HETATM    8  O11 UNL     1     -32.864  13.214  -3.532  1.00 20.00    -0.298 OA
ENDBRANCH   5   6
BRANCH   5   9
HETATM    9  C10 UNL     1     -34.401  16.092  -5.003  1.00 20.00    -0.011 C 
HETATM   10  C6  UNL     1     -33.394  17.233  -5.215  1.00 20.00     0.010 C 
HETATM   11  C7  UNL     1     -35.816  16.683  -4.997  1.00 20.00     0.010 C 
ENDBRANCH   5   9
ENDBRANCH   4   5
ENDBRANCH   2   4
TORSDOF 4
ENDMDL
MODEL 4
REMARK VINA RESULT:      -5.1     11.140     12.362
REMARK  4 active torsions:
REMARK  status: ('A' for Active; 'I' for Inactive)
REMARK    1  A    between atoms: C2_2  and  C8_8 
REMARK    2  A    between atoms: C3_3  and  C9_9 
REMARK    3  A    between atoms: C8_8  and  C9_9 
REMARK    4  A    between atoms: C9_9  and  C10_10 
ROOT
HETATM    1  C1  UNL     1     -34.262  16.305  -1.779  1.00 20.00    -0.111 C 
HETATM    2  C2  UNL     1     -33.745  15.734  -2.700  1.00 20.00    -0.106 C 
HETATM    3  C4  UNL     1     -34.896  17.001  -0.660  1.00 20.00     0.112 C 
ENDROOT
BRANCH   2   4
HETATM    4  C8  UNL     1     -33.109  15.033  -3.827  1.00 20.00     0.106 C 
BRANCH   4   5
HETATM    5  C9  UNL     1     -34.082  14.716  -4.978  1.00 20.00     0.069 C 
BRANCH   5   6
HETATM    6  C3  UNL     1     -35.212  13.831  -4.439  1.00 20.00     0.128 C 
HETATM    7  C5  UNL     1     -36.539  14.502  -4.187  1.00 20.00     0.091 C 
HETATM    8  O11 UNL     1     -35.067  12.625  -4.241  1.00 20.00    -0.298 OA
ENDBRANCH   5   6
BRANCH   5   9
HETATM    9  C10 UNL     1     -34.643  15.951  -5.735  1.00 20.00    -0.011 C 
HETATM   10  C6  UNL     1     -34.886  15.622  -7.215  1.00 20.00     0.010 C 
HETATM   11  C7  UNL     1     -33.707  17.163  -5.650  1.00 20.00     0.010 C 
ENDBRANCH   5   9
ENDBRANCH   4   5
ENDBRANCH   2   4
TORSDOF 4
ENDMDL
MODEL 5
REMARK VINA RESULT:      -5.0     10.650     11.813
REMARK  4 active torsions:
REMARK  status: ('A' for Active; 'I' for Inactive)
REMARK    1  A    between atoms: C2_2  and  C8_8 
REMARK    2  A    between atoms: C3_3  and  C9_9 
REMARK    3  A    between atoms: C8_8  and  C9_9 
REMARK    4  A    between atoms: C9_9  and  C10_10 
ROOT
HETATM    1  C1  UNL     1     -34.807  16.970  -0.618  1.00 20.00    -0.111 C 
HETATM    2  C2  UNL     1     -34.818  16.563  -1.748  1.00 20.00    -0.106 C 
HETATM    3  C4  UNL     1     -34.793  17.470   0.755  1.00 20.00     0.112 C 
ENDROOT
BRANCH   2   4
HETATM    4  C8  UNL     1     -34.832  16.060  -3.131  1.00 20.00     0.106 C 
BRANCH   4   5
HETATM    5  C9  UNL     1     -35.582  14.724  -3.289  1.00 20.00     0.069 C 
BRANCH   5   6
HETATM    6  C3  UNL     1     -36.994  15.009  -3.813  1.00 20.00     0.128 C 
HETATM    7  C5  UNL     1     -37.228  16.364  -4.433  1.00 20.00     0.091 C 
HETATM    8  O11 UNL     1     -37.897  14.174  -3.763  1.00 20.00    -0.298 OA
ENDBRANCH   5   6
BRANCH   5   9
HETATM    9  C10 UNL     1     -34.861  13.655  -4.156  1.00 20.00    -0.011 C 
HETATM   10  C6  UNL     1     -33.374  13.559  -3.782  1.00 20.00     0.010 C 
HETATM   11  C7  UNL     1     -34.970  13.949  -5.657  1.00 20.00     0.010 C 
ENDBRANCH   5   9
ENDBRANCH   4   5
ENDBRANCH   2   4
TORSDOF 4
ENDMDL
MODEL 6
REMARK VINA RESULT:      -4.9     10.824     11.954
REMARK  4 active torsions:
REMARK  status: ('A' for Active; 'I' for Inactive)
REMARK    1  A    between atoms: C2_2  and  C8_8 
REMARK    2  A    between atoms: C3_3  and  C9_9 
REMARK    3  A    between atoms: C8_8  and  C9_9 
REMARK    4  A    between atoms: C9_9  and  C10_10 
ROOT
HETATM    1  C1  UNL     1     -34.850  17.182   0.154  1.00 20.00    -0.111 C 
HETATM    2  C2  UNL     1     -34.442  16.800  -0.909  1.00 20.00    -0.106 C 
HETATM    3  C4  UNL     1     -35.342  17.645   1.449  1.00 20.00     0.112 C 
ENDROOT
BRANCH   2   4
HETATM    4  C8  UNL     1     -33.945  16.333  -2.213  1.00 20.00     0.106 C 
BRANCH   4   5
HETATM    5  C9  UNL     1     -34.938  15.418  -2.954  1.00 20.00     0.069 C 
BRANCH   5   6
HETATM    6  C3  UNL     1     -36.054  16.282  -3.553  1.00 20.00     0.128 C 
HETATM    7  C5  UNL     1     -35.633  17.361  -4.519  1.00 20.00     0.091 C 
HETATM    8  O11 UNL     1     -37.242  16.099  -3.290  1.00 20.00    -0.298 OA
ENDBRANCH   5   6
BRANCH   5   9
HETATM    9  C10 UNL     1     -34.310  14.483  -4.025  1.00 20.00    -0.011 C 
HETATM   10  C6  UNL     1     -35.249  13.311  -4.347  1.00 20.00     0.010 C 
HETATM   11  C7  UNL     1     -32.955  13.916  -3.584  1.00 20.00     0.010 C 
ENDBRANCH   5   9
ENDBRANCH   4   5
ENDBRANCH   2   4
TORSDOF 4
ENDMDL
MODEL 7
REMARK VINA RESULT:      -4.7     10.456     12.006
REMARK  4 active torsions:
REMARK  status: ('A' for Active; 'I' for Inactive)
REMARK    1  A    between atoms: C2_2  and  C8_8 
REMARK    2  A    between atoms: C3_3  and  C9_9 
REMARK    3  A    between atoms: C8_8  and  C9_9 
REMARK    4  A    between atoms: C9_9  and  C10_10 
ROOT
HETATM    1  C1  UNL     1     -38.570  14.983  -4.342  1.00 20.00    -0.111 C 
HETATM    2  C2  UNL     1     -37.400  15.244  -4.403  1.00 20.00    -0.106 C 
HETATM    3  C4  UNL     1     -39.994  14.660  -4.269  1.00 20.00     0.112 C 
ENDROOT
BRANCH   2   4
HETATM    4  C8  UNL     1     -35.966  15.567  -4.476  1.00 20.00     0.106 C 
BRANCH   4   5
HETATM    5  C9  UNL     1     -35.150  14.994  -3.303  1.00 20.00     0.069 C 
BRANCH   5   6
HETATM    6  C3  UNL     1     -34.441  13.717  -3.772  1.00 20.00     0.128 C 
HETATM    7  C5  UNL     1     -32.951  13.648  -3.552  1.00 20.00     0.091 C 
HETATM    8  O11 UNL     1     -35.049  12.775  -4.279  1.00 20.00    -0.298 OA
ENDBRANCH   5   6
BRANCH   5   9
HETATM    9  C10 UNL     1     -34.152  15.984  -2.640  1.00 20.00    -0.011 C 
HETATM   10  C6  UNL     1     -34.648  16.412  -1.251  1.00 20.00     0.010 C 
HETATM   11  C7  UNL     1     -33.926  17.241  -3.488  1.00 20.00     0.010 C 
ENDBRANCH   5   9
ENDBRANCH   4   5
ENDBRANCH   2   4
TORSDOF 4
ENDMDL
MODEL 8
REMARK VINA RESULT:      -4.7     11.102     12.091
REMARK  4 active torsions:
REMARK  status: ('A' for Active; 'I' for Inactive)
REMARK    1  A    between atoms: C2_2  and  C8_8 
REMARK    2  A    between atoms: C3_3  and  C9_9 
REMARK    3  A    between atoms: C8_8  and  C9_9 
REMARK    4  A    between atoms: C9_9  and  C10_10 
ROOT
HETATM    1  C1  UNL     1     -34.566  16.507  -1.127  1.00 20.00    -0.111 C 
HETATM    2  C2  UNL     1     -34.291  15.832  -2.081  1.00 20.00    -0.106 C 
HETATM    3  C4  UNL     1     -34.899  17.328   0.036  1.00 20.00     0.112 C 
ENDROOT
BRANCH   2   4
HETATM    4  C8  UNL     1     -33.955  15.006  -3.252  1.00 20.00     0.106 C 
BRANCH   4   5
HETATM    5  C9  UNL     1     -34.896  15.233  -4.450  1.00 20.00     0.069 C 
BRANCH   5   6
HETATM    6  C3  UNL     1     -34.966  13.942  -5.274  1.00 20.00     0.128 C 
HETATM    7  C5  UNL     1     -35.119  14.096  -6.767  1.00 20.00     0.091 C 
HETATM    8  O11 UNL     1     -34.877  12.827  -4.761  1.00 20.00    -0.298 OA
ENDBRANCH   5   6
BRANCH   5   9
HETATM    9  C10 UNL     1     -36.315  15.754  -4.093  1.00 20.00    -0.011 C 
HETATM   10  C6  UNL     1     -37.322  14.597  -4.024  1.00 20.00     0.010 C 
HETATM   11  C7  UNL     1     -36.828  16.790  -5.101  1.00 20.00     0.010 C 
ENDBRANCH   5   9
ENDBRANCH   4   5
ENDBRANCH   2   4
TORSDOF 4
ENDMDL
MODEL 9
REMARK VINA RESULT:      -4.6     10.343     12.370
REMARK  4 active torsions:
REMARK  status: ('A' for Active; 'I' for Inactive)
REMARK    1  A    between atoms: C2_2  and  C8_8 
REMARK    2  A    between atoms: C3_3  and  C9_9 
REMARK    3  A    between atoms: C8_8  and  C9_9 
REMARK    4  A    between atoms: C9_9  and  C10_10 
ROOT
HETATM    1  C1  UNL     1     -33.799  17.923  -6.209  1.00 20.00    -0.111 C 
HETATM    2  C2  UNL     1     -33.637  17.091  -5.359  1.00 20.00    -0.106 C 
HETATM    3  C4  UNL     1     -33.994  18.940  -7.242  1.00 20.00     0.112 C 
ENDROOT
BRANCH   2   4
HETATM    4  C8  UNL     1     -33.440  16.068  -4.319  1.00 20.00     0.106 C 
BRANCH   4   5
HETATM    5  C9  UNL     1     -34.694  15.215  -4.055  1.00 20.00     0.069 C 
BRANCH   5   6
HETATM    6  C3  UNL     1     -34.282  13.740  -3.980  1.00 20.00     0.128 C 
HETATM    7  C5  UNL     1     -32.872  13.451  -3.529  1.00 20.00     0.091 C 
HETATM    8  O11 UNL     1     -35.060  12.824  -4.246  1.00 20.00    -0.298 OA
ENDBRANCH   5   6
BRANCH   5   9
HETATM    9  C10 UNL     1     -35.533  15.632  -2.814  1.00 20.00    -0.011 C 
HETATM   10  C6  UNL     1     -36.621  16.643  -3.204  1.00 20.00     0.010 C 
HETATM   11  C7  UNL     1     -34.670  16.245  -1.704  1.00 20.00     0.010 C 
ENDBRANCH   5   9
ENDBRANCH   4   5
ENDBRANCH   2   4
TORSDOF 4
ENDMDL
