MODEL 1
REMARK VINA RESULT:      -4.5      0.000      0.000
REMARK  2 active torsions:
REMARK  status: ('A' for Active; 'I' for Inactive)
REMARK    1  A    between atoms: C3_3  and  C8_8 
REMARK    2  A    between atoms: C4_4  and  C7_7 
ROOT
HETATM    1  C1  UNL     1     -34.682  13.621  -5.128  1.00 20.00     0.065 C 
HETATM    2  C8  UNL     1     -34.431  14.765  -6.026  1.00 20.00     0.183 C 
HETATM    3  N9  UNL     1     -34.876  12.727  -4.413  1.00 20.00    -0.197 NA
ENDROOT
BRANCH   2   4
HETATM    4  C3  UNL     1     -34.166  15.998  -5.257  1.00 20.00     0.055 A 
HETATM    5  C2  UNL     1     -33.928  17.246  -5.794  1.00 20.00     0.079 A 
HETATM    6  S11 UNL     1     -33.673  18.377  -4.531  1.00 20.00    -0.084 SA
HETATM    7  C4  UNL     1     -33.897  17.115  -3.389  1.00 20.00     0.079 A 
HETATM    8  N10 UNL     1     -34.148  15.921  -3.878  1.00 20.00    -0.249 NA
BRANCH   7   9
HETATM    9  C7  UNL     1     -33.810  17.369  -1.874  1.00 20.00     0.045 A 
HETATM   10  C5  UNL     1     -34.646  16.514  -0.950  1.00 20.00     0.012 A 
HETATM   11  C6  UNL     1     -35.014  17.948  -1.167  1.00 20.00     0.012 A 
ENDBRANCH   7   9
ENDBRANCH   2   4
TORSDOF 2
ENDMDL
MODEL 2
REMARK VINA RESULT:      -4.4      1.571      1.749
REMARK  2 active torsions:
REMARK  status: ('A' for Active; 'I' for Inactive)
REMARK    1  A    between atoms: C3_3  and  C8_8 
REMARK    2  A    between atoms: C4_4  and  C7_7 
ROOT
HETATM    1  C1  UNL     1     -34.722  13.760  -5.099  1.00 20.00     0.065 C 
HETATM    2  C8  UNL     1     -34.743  15.199  -5.424  1.00 20.00     0.183 C 
HETATM    3  N9  UNL     1     -34.707  12.630  -4.834  1.00 20.00    -0.197 NA
ENDROOT
BRANCH   2   4
HETATM    4  C3  UNL     1     -35.190  16.000  -4.267  1.00 20.00     0.055 A 
HETATM    5  C2  UNL     1     -36.207  16.932  -4.278  1.00 20.00     0.079 A 
HETATM    6  S11 UNL     1     -36.378  17.615  -2.714  1.00 20.00    -0.084 SA
HETATM    7  C4  UNL     1     -35.091  16.620  -2.165  1.00 20.00     0.079 A 
HETATM    8  N10 UNL     1     -34.549  15.820  -3.057  1.00 20.00    -0.249 NA
BRANCH   7   9
HETATM    9  C7  UNL     1     -34.601  16.661  -0.708  1.00 20.00     0.045 A 
HETATM   10  C5  UNL     1     -35.184  17.700   0.221  1.00 20.00     0.012 A 
HETATM   11  C6  UNL     1     -33.773  17.842  -0.256  1.00 20.00     0.012 A 
ENDBRANCH   7   9
ENDBRANCH   2   4
TORSDOF 2
ENDMDL
MODEL 3
REMARK VINA RESULT:      -4.4      2.321      4.932
REMARK  2 active torsions:
REMARK  status: ('A' for Active; 'I' for Inactive)
REMARK    1  A    between atoms: C3_3  and  C8_8 
REMARK    2  A    between atoms: C4_4  and  C7_7 
ROOT
HETATM    1  C1  UNL     1     -32.519  18.761  -0.049  1.00 20.00     0.065 C 
HETATM    2  C8  UNL     1     -33.844  18.171  -0.318  1.00 20.00     0.183 C 
HETATM    3  N9  UNL     1     -31.473  19.221   0.156  1.00 20.00    -0.197 NA
ENDROOT
BRANCH   2   4
HETATM    4  C3  UNL     1     -33.887  17.546  -1.656  1.00 20.00     0.055 A 
HETATM    5  C2  UNL     1     -33.733  18.205  -2.857  1.00 20.00     0.079 A 
HETATM    6  S11 UNL     1     -33.855  17.082  -4.148  1.00 20.00    -0.084 SA
HETATM    7  C4  UNL     1     -34.102  15.828  -3.002  1.00 20.00     0.079 A 
HETATM    8  N10 UNL     1     -34.099  16.183  -1.737  1.00 20.00    -0.249 NA
BRANCH   7   9
HETATM    9  C7  UNL     1     -34.315  14.367  -3.434  1.00 20.00     0.045 A 
HETATM   10  C5  UNL     1     -34.353  14.050  -4.911  1.00 20.00     0.012 A 
HETATM   11  C6  UNL     1     -35.615  13.994  -4.108  1.00 20.00     0.012 A 
ENDBRANCH   7   9
ENDBRANCH   2   4
TORSDOF 2
ENDMDL
MODEL 4
REMARK VINA RESULT:      -4.4      1.254      1.459
REMARK  2 active torsions:
REMARK  status: ('A' for Active; 'I' for Inactive)
REMARK    1  A    between atoms: C3_3  and  C8_8 
REMARK    2  A    between atoms: C4_4  and  C7_7 
ROOT
HETATM    1  C1  UNL     1     -34.158  13.468  -4.132  1.00 20.00     0.065 C 
HETATM    2  C8  UNL     1     -32.987  14.288  -3.765  1.00 20.00     0.183 C 
HETATM    3  N9  UNL     1     -35.085  12.831  -4.418  1.00 20.00    -0.197 NA
ENDROOT
BRANCH   2   4
HETATM    4  C3  UNL     1     -33.365  15.705  -3.584  1.00 20.00     0.055 A 
HETATM    5  C2  UNL     1     -33.405  16.660  -4.578  1.00 20.00     0.079 A 
HETATM    6  S11 UNL     1     -33.897  18.162  -3.912  1.00 20.00    -0.084 SA
HETATM    7  C4  UNL     1     -34.010  17.414  -2.371  1.00 20.00     0.079 A 
HETATM    8  N10 UNL     1     -33.711  16.135  -2.317  1.00 20.00    -0.249 NA
BRANCH   7   9
HETATM    9  C7  UNL     1     -34.440  18.199  -1.120  1.00 20.00     0.045 A 
HETATM   10  C5  UNL     1     -34.733  17.432   0.149  1.00 20.00     0.012 A 
HETATM   11  C6  UNL     1     -35.859  18.047  -0.622  1.00 20.00     0.012 A 
ENDBRANCH   7   9
ENDBRANCH   2   4
TORSDOF 2
ENDMDL
MODEL 5
REMARK VINA RESULT:      -4.1      2.444      4.936
REMARK  2 active torsions:
REMARK  status: ('A' for Active; 'I' for Inactive)
REMARK    1  A    between atoms: C3_3  and  C8_8 
REMARK    2  A    between atoms: C4_4  and  C7_7 
ROOT
HETATM    1  C1  UNL     1     -34.858  17.369   0.359  1.00 20.00     0.065 C 
HETATM    2  C8  UNL     1     -34.122  17.116  -0.896  1.00 20.00     0.183 C 
HETATM    3  N9  UNL     1     -35.445  17.567   1.340  1.00 20.00    -0.197 NA
ENDROOT
BRANCH   2   4
HETATM    4  C3  UNL     1     -35.028  16.625  -1.955  1.00 20.00     0.055 A 
HETATM    5  C2  UNL     1     -36.164  17.266  -2.402  1.00 20.00     0.079 A 
HETATM    6  S11 UNL     1     -36.900  16.333  -3.639  1.00 20.00    -0.084 SA
HETATM    7  C4  UNL     1     -35.652  15.167  -3.470  1.00 20.00     0.079 A 
HETATM    8  N10 UNL     1     -34.732  15.421  -2.565  1.00 20.00    -0.249 NA
BRANCH   7   9
HETATM    9  C7  UNL     1     -35.611  13.893  -4.331  1.00 20.00     0.045 A 
HETATM   10  C5  UNL     1     -34.272  13.252  -4.609  1.00 20.00     0.012 A 
HETATM   11  C6  UNL     1     -34.991  13.970  -5.707  1.00 20.00     0.012 A 
ENDBRANCH   7   9
ENDBRANCH   2   4
TORSDOF 2
ENDMDL
MODEL 6
REMARK VINA RESULT:      -4.1      2.336      4.884
REMARK  2 active torsions:
REMARK  status: ('A' for Active; 'I' for Inactive)
REMARK    1  A    between atoms: C3_3  and  C8_8 
REMARK    2  A    between atoms: C4_4  and  C7_7 
ROOT
HETATM    1  C1  UNL     1     -34.249  16.693  -1.536  1.00 20.00     0.065 C 
HETATM    2  C8  UNL     1     -33.643  16.802  -2.877  1.00 20.00     0.183 C 
HETATM    3  N9  UNL     1     -34.731  16.600  -0.484  1.00 20.00    -0.197 NA
ENDROOT
BRANCH   2   4
HETATM    4  C3  UNL     1     -34.027  15.658  -3.730  1.00 20.00     0.055 A 
HETATM    5  C2  UNL     1     -34.236  14.366  -3.296  1.00 20.00     0.079 A 
HETATM    6  S11 UNL     1     -34.666  13.375  -4.629  1.00 20.00    -0.084 SA
HETATM    7  C4  UNL     1     -34.534  14.743  -5.657  1.00 20.00     0.079 A 
HETATM    8  N10 UNL     1     -34.197  15.877  -5.083  1.00 20.00    -0.249 NA
BRANCH   7   9
HETATM    9  C7  UNL     1     -34.798  14.648  -7.170  1.00 20.00     0.045 A 
HETATM   10  C5  UNL     1     -35.179  15.905  -7.917  1.00 20.00     0.012 A 
HETATM   11  C6  UNL     1     -36.210  14.847  -7.672  1.00 20.00     0.012 A 
ENDBRANCH   7   9
ENDBRANCH   2   4
TORSDOF 2
ENDMDL
MODEL 7
REMARK VINA RESULT:      -4.1      2.132      2.163
REMARK  2 active torsions:
REMARK  status: ('A' for Active; 'I' for Inactive)
REMARK    1  A    between atoms: C3_3  and  C8_8 
REMARK    2  A    between atoms: C4_4  and  C7_7 
ROOT
HETATM    1  C1  UNL     1     -37.960  15.005  -4.545  1.00 20.00     0.065 C 
HETATM    2  C8  UNL     1     -37.259  15.895  -5.490  1.00 20.00     0.183 C 
HETATM    3  N9  UNL     1     -38.503  14.303  -3.797  1.00 20.00    -0.197 NA
ENDROOT
BRANCH   2   4
HETATM    4  C3  UNL     1     -35.871  16.151  -5.053  1.00 20.00     0.055 A 
HETATM    5  C2  UNL     1     -34.791  16.359  -5.884  1.00 20.00     0.079 A 
HETATM    6  S11 UNL     1     -33.381  16.616  -4.941  1.00 20.00    -0.084 SA
HETATM    7  C4  UNL     1     -34.326  16.427  -3.521  1.00 20.00     0.079 A 
HETATM    8  N10 UNL     1     -35.607  16.189  -3.697  1.00 20.00    -0.249 NA
BRANCH   7   9
HETATM    9  C7  UNL     1     -33.707  16.531  -2.117  1.00 20.00     0.045 A 
HETATM   10  C5  UNL     1     -34.632  16.598  -0.923  1.00 20.00     0.012 A 
HETATM   11  C6  UNL     1     -33.876  17.820  -1.345  1.00 20.00     0.012 A 
ENDBRANCH   7   9
ENDBRANCH   2   4
TORSDOF 2
ENDMDL
MODEL 8
REMARK VINA RESULT:      -4.0      2.036      4.836
REMARK  2 active torsions:
REMARK  status: ('A' for Active; 'I' for Inactive)
REMARK    1  A    between atoms: C3_3  and  C8_8 
REMARK    2  A    between atoms: C4_4  and  C7_7 
ROOT
HETATM    1  C1  UNL     1     -32.635  18.536  -0.384  1.00 20.00     0.065 C 
HETATM    2  C8  UNL     1     -33.724  17.611  -0.751  1.00 20.00     0.183 C 
HETATM    3  N9  UNL     1     -31.774  19.263  -0.105  1.00 20.00    -0.197 NA
ENDROOT
BRANCH   2   4
HETATM    4  C3  UNL     1     -33.785  17.411  -2.214  1.00 20.00     0.055 A 
HETATM    5  C2  UNL     1     -33.710  18.407  -3.165  1.00 20.00     0.079 A 
HETATM    6  S11 UNL     1     -33.821  17.716  -4.731  1.00 20.00    -0.084 SA
HETATM    7  C4  UNL     1     -33.960  16.164  -4.009  1.00 20.00     0.079 A 
HETATM    8  N10 UNL     1     -33.929  16.125  -2.695  1.00 20.00    -0.249 NA
BRANCH   7   9
HETATM    9  C7  UNL     1     -34.113  14.889  -4.855  1.00 20.00     0.045 A 
HETATM   10  C5  UNL     1     -34.411  15.032  -6.330  1.00 20.00     0.012 A 
HETATM   11  C6  UNL     1     -35.479  14.542  -5.401  1.00 20.00     0.012 A 
ENDBRANCH   7   9
ENDBRANCH   2   4
TORSDOF 2
ENDMDL
MODEL 9
REMARK VINA RESULT:      -4.0     13.450     15.115
REMARK  2 active torsions:
REMARK  status: ('A' for Active; 'I' for Inactive)
REMARK    1  A    between atoms: C3_3  and  C8_8 
REMARK    2  A    between atoms: C4_4  and  C7_7 
ROOT
HETATM    1  C1  UNL     1     -41.912   0.250  -3.775  1.00 20.00     0.065 C 
HETATM    2  C8  UNL     1     -41.462   1.622  -4.081  1.00 20.00     0.183 C 
HETATM    3  N9  UNL     1     -42.269  -0.826  -3.524  1.00 20.00    -0.197 NA
ENDROOT
BRANCH   2   4
HETATM    4  C3  UNL     1     -41.917   2.575  -3.049  1.00 20.00     0.055 A 
HETATM    5  C2  UNL     1     -43.204   2.685  -2.567  1.00 20.00     0.079 A 
HETATM    6  S11 UNL     1     -43.269   3.922  -1.380  1.00 20.00    -0.084 SA
HETATM    7  C4  UNL     1     -41.592   4.201  -1.613  1.00 20.00     0.079 A 
HETATM    8  N10 UNL     1     -40.991   3.443  -2.504  1.00 20.00    -0.249 NA
BRANCH   7   9
HETATM    9  C7  UNL     1     -40.832   5.279  -0.821  1.00 20.00     0.045 A 
HETATM   10  C5  UNL     1     -41.606   6.139   0.151  1.00 20.00     0.012 A 
HETATM   11  C6  UNL     1     -41.108   6.732  -1.130  1.00 20.00     0.012 A 
ENDBRANCH   7   9
ENDBRANCH   2   4
TORSDOF 2
ENDMDL
