MODEL 1
REMARK VINA RESULT:      -3.9      0.000      0.000
REMARK  2 active torsions:
REMARK  status: ('A' for Active; 'I' for Inactive)
REMARK    1  A    between atoms: C5_5  and  C6_6 
REMARK    2  A    between atoms: C5_5  and  C7_7 
ROOT
HETATM    1  C1  UNL     1     -34.879  13.905  -4.194  1.00 20.00     0.079 C 
HETATM    2  C6  UNL     1     -34.743  15.342  -3.933  1.00 20.00     0.189 C 
HETATM    3  N8  UNL     1     -34.988  12.768  -4.397  1.00 20.00    -0.196 NA
HETATM    4 CL9  UNL     1     -33.569  15.956  -5.148  1.00 20.00    -0.109 Cl
ENDROOT
BRANCH   2   5
HETATM    5  C5  UNL     1     -34.213  15.654  -2.525  1.00 20.00     0.043 C 
BRANCH   5   6
HETATM    6  C7  UNL     1     -34.663  16.995  -1.870  1.00 20.00    -0.049 C 
HETATM    7  C2  UNL     1     -34.731  16.909  -0.339  1.00 20.00     0.014 C 
HETATM    8  C3  UNL     1     -33.721  18.146  -2.267  1.00 20.00     0.014 C 
HETATM    9  C4  UNL     1     -36.076  17.325  -2.395  1.00 20.00     0.014 C 
ENDBRANCH   5   6
ENDBRANCH   2   5
TORSDOF 2
ENDMDL
MODEL 2
REMARK VINA RESULT:      -3.9      0.098      1.438
REMARK  2 active torsions:
REMARK  status: ('A' for Active; 'I' for Inactive)
REMARK    1  A    between atoms: C5_5  and  C6_6 
REMARK    2  A    between atoms: C5_5  and  C7_7 
ROOT
HETATM    1  C1  UNL     1     -34.774  13.883  -4.234  1.00 20.00     0.079 C 
HETATM    2  C6  UNL     1     -34.672  15.329  -4.005  1.00 20.00     0.189 C 
HETATM    3  N8  UNL     1     -34.857  12.740  -4.411  1.00 20.00    -0.196 NA
HETATM    4 CL9  UNL     1     -33.513  15.943  -5.234  1.00 20.00    -0.109 Cl
ENDROOT
BRANCH   2   5
HETATM    5  C5  UNL     1     -34.150  15.685  -2.605  1.00 20.00     0.043 C 
BRANCH   5   6
HETATM    6  C7  UNL     1     -34.700  16.983  -1.942  1.00 20.00    -0.049 C 
HETATM    7  C2  UNL     1     -36.117  17.335  -2.421  1.00 20.00     0.014 C 
HETATM    8  C3  UNL     1     -34.704  16.862  -0.408  1.00 20.00     0.014 C 
HETATM    9  C4  UNL     1     -33.761  18.145  -2.332  1.00 20.00     0.014 C 
ENDBRANCH   5   6
ENDBRANCH   2   5
TORSDOF 2
ENDMDL
MODEL 3
REMARK VINA RESULT:      -3.9      0.238      1.446
REMARK  2 active torsions:
REMARK  status: ('A' for Active; 'I' for Inactive)
REMARK    1  A    between atoms: C5_5  and  C6_6 
REMARK    2  A    between atoms: C5_5  and  C7_7 
ROOT
HETATM    1  C1  UNL     1     -34.733  13.991  -4.037  1.00 20.00     0.079 C 
HETATM    2  C6  UNL     1     -34.601  15.430  -3.780  1.00 20.00     0.189 C 
HETATM    3  N8  UNL     1     -34.839  12.853  -4.236  1.00 20.00    -0.196 NA
HETATM    4 CL9  UNL     1     -33.298  16.009  -4.875  1.00 20.00    -0.109 Cl
ENDROOT
BRANCH   2   5
HETATM    5  C5  UNL     1     -34.214  15.753  -2.329  1.00 20.00     0.043 C 
BRANCH   5   6
HETATM    6  C7  UNL     1     -34.690  17.118  -1.747  1.00 20.00    -0.049 C 
HETATM    7  C2  UNL     1     -33.717  18.264  -2.059  1.00 20.00     0.014 C 
HETATM    8  C3  UNL     1     -36.087  17.487  -2.276  1.00 20.00     0.014 C 
HETATM    9  C4  UNL     1     -34.779  16.970  -0.212  1.00 20.00     0.014 C 
ENDBRANCH   5   6
ENDBRANCH   2   5
TORSDOF 2
ENDMDL
MODEL 4
REMARK VINA RESULT:      -3.8      2.557      4.107
REMARK  2 active torsions:
REMARK  status: ('A' for Active; 'I' for Inactive)
REMARK    1  A    between atoms: C5_5  and  C6_6 
REMARK    2  A    between atoms: C5_5  and  C7_7 
ROOT
HETATM    1  C1  UNL     1     -34.464  16.750  -0.871  1.00 20.00     0.079 C 
HETATM    2  C6  UNL     1     -33.958  16.399  -2.203  1.00 20.00     0.189 C 
HETATM    3  N8  UNL     1     -34.866  17.024   0.182  1.00 20.00    -0.196 NA
HETATM    4 CL9  UNL     1     -33.734  17.956  -3.072  1.00 20.00    -0.109 Cl
ENDROOT
BRANCH   2   5
HETATM    5  C5  UNL     1     -34.925  15.515  -3.004  1.00 20.00     0.043 C 
BRANCH   5   6
HETATM    6  C7  UNL     1     -34.309  14.568  -4.078  1.00 20.00    -0.049 C 
HETATM    7  C2  UNL     1     -35.110  13.269  -4.248  1.00 20.00     0.014 C 
HETATM    8  C3  UNL     1     -34.204  15.275  -5.442  1.00 20.00     0.014 C 
HETATM    9  C4  UNL     1     -32.884  14.196  -3.617  1.00 20.00     0.014 C 
ENDBRANCH   5   6
ENDBRANCH   2   5
TORSDOF 2
ENDMDL
MODEL 5
REMARK VINA RESULT:      -3.8      2.563      4.102
REMARK  2 active torsions:
REMARK  status: ('A' for Active; 'I' for Inactive)
REMARK    1  A    between atoms: C5_5  and  C6_6 
REMARK    2  A    between atoms: C5_5  and  C7_7 
ROOT
HETATM    1  C1  UNL     1     -34.502  16.775  -0.858  1.00 20.00     0.079 C 
HETATM    2  C6  UNL     1     -33.977  16.402  -2.177  1.00 20.00     0.189 C 
HETATM    3  N8  UNL     1     -34.919  17.066   0.185  1.00 20.00    -0.196 NA
HETATM    4 CL9  UNL     1     -33.756  17.944  -3.074  1.00 20.00    -0.109 Cl
ENDROOT
BRANCH   2   5
HETATM    5  C5  UNL     1     -34.926  15.493  -2.972  1.00 20.00     0.043 C 
BRANCH   5   6
HETATM    6  C7  UNL     1     -34.295  14.575  -4.061  1.00 20.00    -0.049 C 
HETATM    7  C2  UNL     1     -34.192  15.267  -5.428  1.00 20.00     0.014 C 
HETATM    8  C3  UNL     1     -32.897  14.093  -3.635  1.00 20.00     0.014 C 
HETATM    9  C4  UNL     1     -35.205  13.337  -4.219  1.00 20.00     0.014 C 
ENDBRANCH   5   6
ENDBRANCH   2   5
TORSDOF 2
ENDMDL
MODEL 6
REMARK VINA RESULT:      -3.7      2.235      3.034
REMARK  2 active torsions:
REMARK  status: ('A' for Active; 'I' for Inactive)
REMARK    1  A    between atoms: C5_5  and  C6_6 
REMARK    2  A    between atoms: C5_5  and  C7_7 
ROOT
HETATM    1  C1  UNL     1     -37.349  14.742  -4.166  1.00 20.00     0.079 C 
HETATM    2  C6  UNL     1     -36.101  15.233  -4.763  1.00 20.00     0.189 C 
HETATM    3  N8  UNL     1     -38.333  14.354  -3.690  1.00 20.00    -0.196 NA
HETATM    4 CL9  UNL     1     -36.273  14.990  -6.536  1.00 20.00    -0.109 Cl
ENDROOT
BRANCH   2   5
HETATM    5  C5  UNL     1     -34.857  14.477  -4.274  1.00 20.00     0.043 C 
BRANCH   5   6
HETATM    6  C7  UNL     1     -33.665  15.326  -3.738  1.00 20.00    -0.049 C 
HETATM    7  C2  UNL     1     -34.013  16.083  -2.448  1.00 20.00     0.014 C 
HETATM    8  C3  UNL     1     -32.429  14.445  -3.485  1.00 20.00     0.014 C 
HETATM    9  C4  UNL     1     -33.303  16.366  -4.821  1.00 20.00     0.014 C 
ENDBRANCH   5   6
ENDBRANCH   2   5
TORSDOF 2
ENDMDL
MODEL 7
REMARK VINA RESULT:      -3.7      0.876      1.617
REMARK  2 active torsions:
REMARK  status: ('A' for Active; 'I' for Inactive)
REMARK    1  A    between atoms: C5_5  and  C6_6 
REMARK    2  A    between atoms: C5_5  and  C7_7 
ROOT
HETATM    1  C1  UNL     1     -34.792  13.887  -4.645  1.00 20.00     0.079 C 
HETATM    2  C6  UNL     1     -34.729  15.349  -4.743  1.00 20.00     0.189 C 
HETATM    3  N8  UNL     1     -34.842  12.731  -4.562  1.00 20.00    -0.196 NA
HETATM    4 CL9  UNL     1     -34.027  15.705  -6.360  1.00 20.00    -0.109 Cl
ENDROOT
BRANCH   2   5
HETATM    5  C5  UNL     1     -33.846  15.992  -3.663  1.00 20.00     0.043 C 
BRANCH   5   6
HETATM    6  C7  UNL     1     -34.517  17.022  -2.706  1.00 20.00    -0.049 C 
HETATM    7  C2  UNL     1     -33.705  18.318  -2.571  1.00 20.00     0.014 C 
HETATM    8  C3  UNL     1     -35.940  17.369  -3.179  1.00 20.00     0.014 C 
HETATM    9  C4  UNL     1     -34.618  16.371  -1.310  1.00 20.00     0.014 C 
ENDBRANCH   5   6
ENDBRANCH   2   5
TORSDOF 2
ENDMDL
MODEL 8
REMARK VINA RESULT:      -3.7      1.996      2.304
REMARK  2 active torsions:
REMARK  status: ('A' for Active; 'I' for Inactive)
REMARK    1  A    between atoms: C5_5  and  C6_6 
REMARK    2  A    between atoms: C5_5  and  C7_7 
ROOT
HETATM    1  C1  UNL     1     -37.073  14.574  -3.851  1.00 20.00     0.079 C 
HETATM    2  C6  UNL     1     -35.632  14.846  -3.908  1.00 20.00     0.189 C 
HETATM    3  N8  UNL     1     -38.212  14.363  -3.803  1.00 20.00    -0.196 NA
HETATM    4 CL9  UNL     1     -34.846  13.271  -4.274  1.00 20.00    -0.109 Cl
ENDROOT
BRANCH   2   5
HETATM    5  C5  UNL     1     -35.065  15.392  -2.589  1.00 20.00     0.043 C 
BRANCH   5   6
HETATM    6  C7  UNL     1     -34.570  16.869  -2.578  1.00 20.00    -0.049 C 
HETATM    7  C2  UNL     1     -35.724  17.879  -2.673  1.00 20.00     0.014 C 
HETATM    8  C3  UNL     1     -33.748  17.166  -1.311  1.00 20.00     0.014 C 
HETATM    9  C4  UNL     1     -33.656  17.070  -3.805  1.00 20.00     0.014 C 
ENDBRANCH   5   6
ENDBRANCH   2   5
TORSDOF 2
ENDMDL
MODEL 9
REMARK VINA RESULT:      -3.6      2.977      4.346
REMARK  2 active torsions:
REMARK  status: ('A' for Active; 'I' for Inactive)
REMARK    1  A    between atoms: C5_5  and  C6_6 
REMARK    2  A    between atoms: C5_5  and  C7_7 
ROOT
HETATM    1  C1  UNL     1     -33.841  18.218  -2.529  1.00 20.00     0.079 C 
HETATM    2  C6  UNL     1     -34.459  16.896  -2.383  1.00 20.00     0.189 C 
HETATM    3  N8  UNL     1     -33.351  19.263  -2.649  1.00 20.00    -0.196 NA
HETATM    4 CL9  UNL     1     -34.621  16.620  -0.614  1.00 20.00    -0.109 Cl
ENDROOT
BRANCH   2   5
HETATM    5  C5  UNL     1     -33.617  15.763  -2.989  1.00 20.00     0.043 C 
BRANCH   5   6
HETATM    6  C7  UNL     1     -34.307  14.838  -4.037  1.00 20.00    -0.049 C 
HETATM    7  C2  UNL     1     -34.210  15.392  -5.466  1.00 20.00     0.014 C 
HETATM    8  C3  UNL     1     -33.704  13.423  -4.005  1.00 20.00     0.014 C 
HETATM    9  C4  UNL     1     -35.801  14.735  -3.663  1.00 20.00     0.014 C 
ENDBRANCH   5   6
ENDBRANCH   2   5
TORSDOF 2
ENDMDL
