MODEL 1
REMARK VINA RESULT:      -5.5      0.000      0.000
REMARK  3 active torsions:
REMARK  status: ('A' for Active; 'I' for Inactive)
REMARK    1  A    between atoms: C3_3  and  C4_4 
REMARK    2  A    between atoms: C4_4  and  C5_5 
REMARK    3  A    between atoms: C4_4  and  O6_6 
ROOT
HETATM    1  C1  UNL     1     -33.281   7.384   6.829  1.00 20.00     0.012 C 
HETATM    2  C2  UNL     1     -34.030   6.486   6.556  1.00 20.00    -0.115 C 
HETATM    3  C3  UNL     1     -34.951   5.386   6.225  1.00 20.00     0.133 C 
ENDROOT
BRANCH   3   4
HETATM    4  C4  UNL     1     -34.542   4.690   4.925  1.00 20.00     0.236 C 
BRANCH   4   5
HETATM    5  C5  UNL     1     -34.869   5.538   3.711  1.00 20.00     0.413 C 
HETATM    6  F7  UNL     1     -36.205   5.678   3.560  1.00 20.00    -0.168 F 
HETATM    7  F8  UNL     1     -34.332   6.772   3.805  1.00 20.00    -0.168 F 
HETATM    8  F9  UNL     1     -34.393   4.965   2.582  1.00 20.00    -0.168 F 
ENDBRANCH   4   5
BRANCH   4   9
HETATM    9  O6  UNL     1     -35.256   3.459   4.819  1.00 20.00    -0.386 OA
HETATM   10  H14 UNL     1     -36.190   3.693   4.709  1.00 20.00     0.210 HD
ENDBRANCH   4   9
ENDBRANCH   3   4
TORSDOF 3
ENDMDL
MODEL 2
REMARK VINA RESULT:      -5.4      2.553      3.146
REMARK  3 active torsions:
REMARK  status: ('A' for Active; 'I' for Inactive)
REMARK    1  A    between atoms: C3_3  and  C4_4 
REMARK    2  A    between atoms: C4_4  and  C5_5 
REMARK    3  A    between atoms: C4_4  and  O6_6 
ROOT
HETATM    1  C1  UNL     1     -31.781   7.380   2.957  1.00 20.00     0.012 C 
HETATM    2  C2  UNL     1     -32.811   6.887   3.325  1.00 20.00    -0.115 C 
HETATM    3  C3  UNL     1     -34.077   6.283   3.773  1.00 20.00     0.133 C 
ENDROOT
BRANCH   3   4
HETATM    4  C4  UNL     1     -33.915   5.592   5.128  1.00 20.00     0.236 C 
BRANCH   4   5
HETATM    5  C5  UNL     1     -35.060   4.636   5.408  1.00 20.00     0.413 C 
HETATM    6  F7  UNL     1     -36.053   4.789   4.505  1.00 20.00    -0.168 F 
HETATM    7  F8  UNL     1     -34.656   3.349   5.366  1.00 20.00    -0.168 F 
HETATM    8  F9  UNL     1     -35.587   4.864   6.632  1.00 20.00    -0.168 F 
ENDBRANCH   4   5
BRANCH   4   9
HETATM    9  O6  UNL     1     -33.900   6.585   6.152  1.00 20.00    -0.386 OA
HETATM   10  H14 UNL     1     -34.178   6.143   6.968  1.00 20.00     0.210 HD
ENDBRANCH   4   9
ENDBRANCH   3   4
TORSDOF 3
ENDMDL
MODEL 3
REMARK VINA RESULT:      -5.4      2.545      3.096
REMARK  3 active torsions:
REMARK  status: ('A' for Active; 'I' for Inactive)
REMARK    1  A    between atoms: C3_3  and  C4_4 
REMARK    2  A    between atoms: C4_4  and  C5_5 
REMARK    3  A    between atoms: C4_4  and  O6_6 
ROOT
HETATM    1  C1  UNL     1     -31.793   7.308   2.934  1.00 20.00     0.012 C 
HETATM    2  C2  UNL     1     -32.832   6.863   3.338  1.00 20.00    -0.115 C 
HETATM    3  C3  UNL     1     -34.109   6.318   3.828  1.00 20.00     0.133 C 
ENDROOT
BRANCH   3   4
HETATM    4  C4  UNL     1     -33.929   5.597   5.166  1.00 20.00     0.236 C 
BRANCH   4   5
HETATM    5  C5  UNL     1     -35.047   4.603   5.419  1.00 20.00     0.413 C 
HETATM    6  F7  UNL     1     -34.593   3.332   5.353  1.00 20.00    -0.168 F 
HETATM    7  F8  UNL     1     -35.606   4.781   6.634  1.00 20.00    -0.168 F 
HETATM    8  F9  UNL     1     -36.023   4.732   4.492  1.00 20.00    -0.168 F 
ENDBRANCH   4   5
BRANCH   4   9
HETATM    9  O6  UNL     1     -33.942   6.564   6.214  1.00 20.00    -0.386 OA
HETATM   10  H14 UNL     1     -33.128   6.428   6.723  1.00 20.00     0.210 HD
ENDBRANCH   4   9
ENDBRANCH   3   4
TORSDOF 3
ENDMDL
MODEL 4
REMARK VINA RESULT:      -5.3      2.646      3.348
REMARK  3 active torsions:
REMARK  status: ('A' for Active; 'I' for Inactive)
REMARK    1  A    between atoms: C3_3  and  C4_4 
REMARK    2  A    between atoms: C4_4  and  C5_5 
REMARK    3  A    between atoms: C4_4  and  O6_6 
ROOT
HETATM    1  C1  UNL     1     -35.180   4.158   5.875  1.00 20.00     0.012 C 
HETATM    2  C2  UNL     1     -34.871   4.755   4.881  1.00 20.00    -0.115 C 
HETATM    3  C3  UNL     1     -34.494   5.483   3.658  1.00 20.00     0.133 C 
ENDROOT
BRANCH   3   4
HETATM    4  C4  UNL     1     -33.670   6.731   3.986  1.00 20.00     0.236 C 
BRANCH   4   5
HETATM    5  C5  UNL     1     -32.388   6.782   3.177  1.00 20.00     0.413 C 
HETATM    6  F7  UNL     1     -31.386   7.345   3.886  1.00 20.00    -0.168 F 
HETATM    7  F8  UNL     1     -31.987   5.549   2.801  1.00 20.00    -0.168 F 
HETATM    8  F9  UNL     1     -32.556   7.521   2.057  1.00 20.00    -0.168 F 
ENDBRANCH   4   5
BRANCH   4   9
HETATM    9  O6  UNL     1     -33.327   6.704   5.370  1.00 20.00    -0.386 OA
HETATM   10  H14 UNL     1     -34.083   6.312   5.833  1.00 20.00     0.210 HD
ENDBRANCH   4   9
ENDBRANCH   3   4
TORSDOF 3
ENDMDL
MODEL 5
REMARK VINA RESULT:      -5.2      2.446      3.062
REMARK  3 active torsions:
REMARK  status: ('A' for Active; 'I' for Inactive)
REMARK    1  A    between atoms: C3_3  and  C4_4 
REMARK    2  A    between atoms: C4_4  and  C5_5 
REMARK    3  A    between atoms: C4_4  and  O6_6 
ROOT
HETATM    1  C1  UNL     1     -31.878   7.368   3.339  1.00 20.00     0.012 C 
HETATM    2  C2  UNL     1     -32.695   6.491   3.411  1.00 20.00    -0.115 C 
HETATM    3  C3  UNL     1     -33.693   5.413   3.496  1.00 20.00     0.133 C 
ENDROOT
BRANCH   3   4
HETATM    4  C4  UNL     1     -34.812   5.767   4.478  1.00 20.00     0.236 C 
BRANCH   4   5
HETATM    5  C5  UNL     1     -34.477   5.322   5.889  1.00 20.00     0.413 C 
HETATM    6  F7  UNL     1     -33.755   4.180   5.881  1.00 20.00    -0.168 F 
HETATM    7  F8  UNL     1     -33.766   6.258   6.551  1.00 20.00    -0.168 F 
HETATM    8  F9  UNL     1     -35.604   5.082   6.597  1.00 20.00    -0.168 F 
ENDBRANCH   4   5
BRANCH   4   9
HETATM    9  O6  UNL     1     -36.008   5.105   4.070  1.00 20.00    -0.386 OA
HETATM   10  H14 UNL     1     -36.153   4.386   4.704  1.00 20.00     0.210 HD
ENDBRANCH   4   9
ENDBRANCH   3   4
TORSDOF 3
ENDMDL
MODEL 6
REMARK VINA RESULT:      -4.8      2.485      3.292
REMARK  3 active torsions:
REMARK  status: ('A' for Active; 'I' for Inactive)
REMARK    1  A    between atoms: C3_3  and  C4_4 
REMARK    2  A    between atoms: C4_4  and  C5_5 
REMARK    3  A    between atoms: C4_4  and  O6_6 
ROOT
HETATM    1  C1  UNL     1     -35.099   4.300   5.931  1.00 20.00     0.012 C 
HETATM    2  C2  UNL     1     -34.513   5.241   5.470  1.00 20.00    -0.115 C 
HETATM    3  C3  UNL     1     -33.797   6.399   4.909  1.00 20.00     0.133 C 
ENDROOT
BRANCH   3   4
HETATM    4  C4  UNL     1     -33.009   6.012   3.656  1.00 20.00     0.236 C 
BRANCH   4   5
HETATM    5  C5  UNL     1     -32.276   7.202   3.068  1.00 20.00     0.413 C 
HETATM    6  F7  UNL     1     -31.352   7.679   3.930  1.00 20.00    -0.168 F 
HETATM    7  F8  UNL     1     -31.644   6.880   1.920  1.00 20.00    -0.168 F 
HETATM    8  F9  UNL     1     -33.136   8.210   2.798  1.00 20.00    -0.168 F 
ENDBRANCH   4   5
BRANCH   4   9
HETATM    9  O6  UNL     1     -33.919   5.515   2.676  1.00 20.00    -0.386 OA
HETATM   10  H14 UNL     1     -34.770   5.402   3.125  1.00 20.00     0.210 HD
ENDBRANCH   4   9
ENDBRANCH   3   4
TORSDOF 3
ENDMDL
MODEL 7
REMARK VINA RESULT:      -4.6      1.607      1.763
REMARK  3 active torsions:
REMARK  status: ('A' for Active; 'I' for Inactive)
REMARK    1  A    between atoms: C3_3  and  C4_4 
REMARK    2  A    between atoms: C4_4  and  C5_5 
REMARK    3  A    between atoms: C4_4  and  O6_6 
ROOT
HETATM    1  C1  UNL     1     -33.342   7.790   7.372  1.00 20.00     0.012 C 
HETATM    2  C2  UNL     1     -33.729   6.902   6.663  1.00 20.00    -0.115 C 
HETATM    3  C3  UNL     1     -34.204   5.809   5.798  1.00 20.00     0.133 C 
ENDROOT
BRANCH   3   4
HETATM    4  C4  UNL     1     -34.152   6.207   4.321  1.00 20.00     0.236 C 
BRANCH   4   5
HETATM    5  C5  UNL     1     -34.965   5.259   3.459  1.00 20.00     0.413 C 
HETATM    6  F7  UNL     1     -36.196   5.758   3.214  1.00 20.00    -0.168 F 
HETATM    7  F8  UNL     1     -34.367   5.029   2.272  1.00 20.00    -0.168 F 
HETATM    8  F9  UNL     1     -35.128   4.068   4.078  1.00 20.00    -0.168 F 
ENDBRANCH   4   5
BRANCH   4   9
HETATM    9  O6  UNL     1     -32.796   6.163   3.881  1.00 20.00    -0.386 OA
HETATM   10  H14 UNL     1     -32.504   7.083   3.801  1.00 20.00     0.210 HD
ENDBRANCH   4   9
ENDBRANCH   3   4
TORSDOF 3
ENDMDL
MODEL 8
REMARK VINA RESULT:      -4.6     12.640     12.923
REMARK  3 active torsions:
REMARK  status: ('A' for Active; 'I' for Inactive)
REMARK    1  A    between atoms: C3_3  and  C4_4 
REMARK    2  A    between atoms: C4_4  and  C5_5 
REMARK    3  A    between atoms: C4_4  and  O6_6 
ROOT
HETATM    1  C1  UNL     1     -34.781  15.758  -2.323  1.00 20.00     0.012 C 
HETATM    2  C2  UNL     1     -34.187  14.968  -3.005  1.00 20.00    -0.115 C 
HETATM    3  C3  UNL     1     -33.454  14.000  -3.838  1.00 20.00     0.133 C 
ENDROOT
BRANCH   3   4
HETATM    4  C4  UNL     1     -34.386  13.303  -4.831  1.00 20.00     0.236 C 
BRANCH   4   5
HETATM    5  C5  UNL     1     -34.953  14.280  -5.844  1.00 20.00     0.413 C 
HETATM    6  F7  UNL     1     -36.089  14.852  -5.386  1.00 20.00    -0.168 F 
HETATM    7  F8  UNL     1     -34.078  15.268  -6.128  1.00 20.00    -0.168 F 
HETATM    8  F9  UNL     1     -35.255  13.651  -7.001  1.00 20.00    -0.168 F 
ENDBRANCH   4   5
BRANCH   4   9
HETATM    9  O6  UNL     1     -35.472  12.722  -4.112  1.00 20.00    -0.386 OA
HETATM   10  H14 UNL     1     -35.903  12.101  -4.720  1.00 20.00     0.210 HD
ENDBRANCH   4   9
ENDBRANCH   3   4
TORSDOF 3
ENDMDL
MODEL 9
REMARK VINA RESULT:      -4.5     12.283     12.810
REMARK  3 active torsions:
REMARK  status: ('A' for Active; 'I' for Inactive)
REMARK    1  A    between atoms: C3_3  and  C4_4 
REMARK    2  A    between atoms: C4_4  and  C5_5 
REMARK    3  A    between atoms: C4_4  and  O6_6 
ROOT
HETATM    1  C1  UNL     1     -34.486  16.456  -1.421  1.00 20.00     0.012 C 
HETATM    2  C2  UNL     1     -33.943  16.244  -2.470  1.00 20.00    -0.115 C 
HETATM    3  C3  UNL     1     -33.272  15.986  -3.755  1.00 20.00     0.133 C 
ENDROOT
BRANCH   3   4
HETATM    4  C4  UNL     1     -34.135  15.112  -4.668  1.00 20.00     0.236 C 
BRANCH   4   5
HETATM    5  C5  UNL     1     -34.042  13.647  -4.287  1.00 20.00     0.413 C 
HETATM    6  F7  UNL     1     -34.246  12.851  -5.359  1.00 20.00    -0.168 F 
HETATM    7  F8  UNL     1     -32.834  13.342  -3.769  1.00 20.00    -0.168 F 
HETATM    8  F9  UNL     1     -34.979  13.330  -3.364  1.00 20.00    -0.168 F 
ENDBRANCH   4   5
BRANCH   4   9
HETATM    9  O6  UNL     1     -33.677  15.257  -6.010  1.00 20.00    -0.386 OA
HETATM   10  H14 UNL     1     -32.854  14.750  -6.076  1.00 20.00     0.210 HD
ENDBRANCH   4   9
ENDBRANCH   3   4
TORSDOF 3
ENDMDL
