MODEL 1
REMARK VINA RESULT:      -4.2      0.000      0.000
REMARK  1 active torsions:
REMARK  status: ('A' for Active; 'I' for Inactive)
REMARK    1  A    between atoms: C8_8  and  N10_10 
ROOT
HETATM    1  C1  UNL     1     -32.177   8.274   2.137  1.00 20.00     0.065 C 
HETATM    2  C4  UNL     1     -32.531   5.808   2.152  1.00 20.00     0.051 C 
HETATM    3  C5  UNL     1     -33.716   5.201   2.893  1.00 20.00     0.274 C 
HETATM    4  C6  UNL     1     -33.169   7.111   4.091  1.00 20.00     0.292 C 
HETATM    5  C7  UNL     1     -32.151   7.056   2.953  1.00 20.00     0.122 C 
HETATM    6  N9  UNL     1     -32.197   9.239   1.492  1.00 20.00    -0.197 NA
HETATM    7  N10 UNL     1     -33.555   5.707   4.256  1.00 20.00     0.094 N 
ENDROOT
BRANCH   7   8
HETATM    8  C8  UNL     1     -34.764   5.532   5.088  1.00 20.00     0.223 A 
HETATM    9  C2  UNL     1     -35.125   4.176   5.629  1.00 20.00     0.038 A 
HETATM   10  C3  UNL     1     -34.646   5.252   6.560  1.00 20.00     0.038 A 
ENDBRANCH   7   8
TORSDOF 1
ENDMDL
MODEL 2
REMARK VINA RESULT:      -4.1     11.262     11.955
REMARK  1 active torsions:
REMARK  status: ('A' for Active; 'I' for Inactive)
REMARK    1  A    between atoms: C8_8  and  N10_10 
ROOT
HETATM    1  C1  UNL     1     -34.896  13.686  -4.591  1.00 20.00     0.065 C 
HETATM    2  C4  UNL     1     -33.750  15.886  -4.361  1.00 20.00     0.051 C 
HETATM    3  C5  UNL     1     -33.411  16.442  -2.983  1.00 20.00     0.274 C 
HETATM    4  C6  UNL     1     -35.342  15.194  -2.672  1.00 20.00     0.292 C 
HETATM    5  C7  UNL     1     -35.037  15.082  -4.164  1.00 20.00     0.122 C 
HETATM    6  N9  UNL     1     -34.784  12.581  -4.928  1.00 20.00    -0.197 NA
HETATM    7  N10 UNL     1     -34.704  16.460  -2.299  1.00 20.00     0.094 N 
ENDROOT
BRANCH   7   8
HETATM    8  C8  UNL     1     -34.586  16.643  -0.838  1.00 20.00     0.223 A 
HETATM    9  C2  UNL     1     -33.848  17.826  -0.276  1.00 20.00     0.038 A 
HETATM   10  C3  UNL     1     -35.341  17.741  -0.141  1.00 20.00     0.038 A 
ENDBRANCH   7   8
TORSDOF 1
ENDMDL
MODEL 3
REMARK VINA RESULT:      -4.1     11.309     12.493
REMARK  1 active torsions:
REMARK  status: ('A' for Active; 'I' for Inactive)
REMARK    1  A    between atoms: C8_8  and  N10_10 
ROOT
HETATM    1  C1  UNL     1     -35.162  14.573  -6.959  1.00 20.00     0.065 C 
HETATM    2  C4  UNL     1     -34.425  13.632  -4.772  1.00 20.00     0.051 C 
HETATM    3  C5  UNL     1     -34.757  14.350  -3.470  1.00 20.00     0.274 C 
HETATM    4  C6  UNL     1     -34.548  16.035  -5.051  1.00 20.00     0.292 C 
HETATM    5  C7  UNL     1     -34.262  14.743  -5.813  1.00 20.00     0.122 C 
HETATM    6  N9  UNL     1     -35.875  14.439  -7.865  1.00 20.00    -0.197 NA
HETATM    7  N10 UNL     1     -34.199  15.688  -3.671  1.00 20.00     0.094 N 
ENDROOT
BRANCH   7   8
HETATM    8  C8  UNL     1     -34.685  16.674  -2.683  1.00 20.00     0.223 A 
HETATM    9  C2  UNL     1     -34.720  16.331  -1.219  1.00 20.00     0.038 A 
HETATM   10  C3  UNL     1     -33.729  17.336  -1.730  1.00 20.00     0.038 A 
ENDBRANCH   7   8
TORSDOF 1
ENDMDL
MODEL 4
REMARK VINA RESULT:      -3.9     11.450     13.028
REMARK  1 active torsions:
REMARK  status: ('A' for Active; 'I' for Inactive)
REMARK    1  A    between atoms: C8_8  and  N10_10 
ROOT
HETATM    1  C1  UNL     1     -34.663  16.214  -1.585  1.00 20.00     0.065 C 
HETATM    2  C4  UNL     1     -33.130  15.612  -3.456  1.00 20.00     0.051 C 
HETATM    3  C5  UNL     1     -33.536  15.870  -4.901  1.00 20.00     0.274 C 
HETATM    4  C6  UNL     1     -35.525  15.450  -3.783  1.00 20.00     0.292 C 
HETATM    5  C7  UNL     1     -34.438  15.311  -2.719  1.00 20.00     0.122 C 
HETATM    6  N9  UNL     1     -34.841  16.929  -0.689  1.00 20.00    -0.197 NA
HETATM    7  N10 UNL     1     -34.808  15.157  -5.027  1.00 20.00     0.094 N 
ENDROOT
BRANCH   7   8
HETATM    8  C8  UNL     1     -35.567  15.534  -6.237  1.00 20.00     0.223 A 
HETATM    9  C2  UNL     1     -34.848  15.838  -7.523  1.00 20.00     0.038 A 
HETATM   10  C3  UNL     1     -35.669  14.587  -7.402  1.00 20.00     0.038 A 
ENDBRANCH   7   8
TORSDOF 1
ENDMDL
MODEL 5
REMARK VINA RESULT:      -3.9     11.510     12.713
REMARK  1 active torsions:
REMARK  status: ('A' for Active; 'I' for Inactive)
REMARK    1  A    between atoms: C8_8  and  N10_10 
ROOT
HETATM    1  C1  UNL     1     -35.673  18.048   0.754  1.00 20.00     0.065 C 
HETATM    2  C4  UNL     1     -33.822  18.739  -0.764  1.00 20.00     0.051 C 
HETATM    3  C5  UNL     1     -33.715  18.158  -2.168  1.00 20.00     0.274 C 
HETATM    4  C6  UNL     1     -34.683  16.479  -0.892  1.00 20.00     0.292 C 
HETATM    5  C7  UNL     1     -34.437  17.625   0.087  1.00 20.00     0.122 C 
HETATM    6  N9  UNL     1     -36.651  18.383   1.282  1.00 20.00    -0.197 NA
HETATM    7  N10 UNL     1     -33.678  16.714  -1.933  1.00 20.00     0.094 N 
ENDROOT
BRANCH   7   8
HETATM    8  C8  UNL     1     -33.914  15.920  -3.157  1.00 20.00     0.223 A 
HETATM    9  C2  UNL     1     -33.225  16.283  -4.443  1.00 20.00     0.038 A 
HETATM   10  C3  UNL     1     -32.836  15.031  -3.712  1.00 20.00     0.038 A 
ENDBRANCH   7   8
TORSDOF 1
ENDMDL
MODEL 6
REMARK VINA RESULT:      -3.7     11.647     12.784
REMARK  1 active torsions:
REMARK  status: ('A' for Active; 'I' for Inactive)
REMARK    1  A    between atoms: C8_8  and  N10_10 
ROOT
HETATM    1  C1  UNL     1     -34.689  17.166  -0.323  1.00 20.00     0.065 C 
HETATM    2  C4  UNL     1     -33.703  18.014  -2.449  1.00 20.00     0.051 C 
HETATM    3  C5  UNL     1     -34.268  17.574  -3.793  1.00 20.00     0.274 C 
HETATM    4  C6  UNL     1     -34.616  15.771  -2.374  1.00 20.00     0.292 C 
HETATM    5  C7  UNL     1     -33.908  16.818  -1.515  1.00 20.00     0.122 C 
HETATM    6  N9  UNL     1     -35.306  17.440   0.620  1.00 20.00    -0.197 NA
HETATM    7  N10 UNL     1     -34.185  16.114  -3.732  1.00 20.00     0.094 N 
ENDROOT
BRANCH   7   8
HETATM    8  C8  UNL     1     -34.981  15.443  -4.781  1.00 20.00     0.223 A 
HETATM    9  C2  UNL     1     -34.511  15.439  -6.209  1.00 20.00     0.038 A 
HETATM   10  C3  UNL     1     -34.495  14.167  -5.412  1.00 20.00     0.038 A 
ENDBRANCH   7   8
TORSDOF 1
ENDMDL
MODEL 7
REMARK VINA RESULT:      -3.7     10.293     11.285
REMARK  1 active torsions:
REMARK  status: ('A' for Active; 'I' for Inactive)
REMARK    1  A    between atoms: C8_8  and  N10_10 
ROOT
HETATM    1  C1  UNL     1     -41.768   1.967  -3.499  1.00 20.00     0.065 C 
HETATM    2  C4  UNL     1     -43.416   3.823  -3.278  1.00 20.00     0.051 C 
HETATM    3  C5  UNL     1     -42.944   5.258  -3.082  1.00 20.00     0.274 C 
HETATM    4  C6  UNL     1     -41.320   3.945  -2.070  1.00 20.00     0.292 C 
HETATM    5  C7  UNL     1     -42.360   2.954  -2.590  1.00 20.00     0.122 C 
HETATM    6  N9  UNL     1     -41.300   1.186  -4.218  1.00 20.00    -0.197 NA
HETATM    7  N10 UNL     1     -42.098   5.175  -1.891  1.00 20.00     0.094 N 
ENDROOT
BRANCH   7   8
HETATM    8  C8  UNL     1     -41.253   6.372  -1.694  1.00 20.00     0.223 A 
HETATM    9  C2  UNL     1     -41.840   7.629  -1.115  1.00 20.00     0.038 A 
HETATM   10  C3  UNL     1     -40.868   6.816  -0.310  1.00 20.00     0.038 A 
ENDBRANCH   7   8
TORSDOF 1
ENDMDL
MODEL 8
REMARK VINA RESULT:      -3.7     11.596     12.759
REMARK  1 active torsions:
REMARK  status: ('A' for Active; 'I' for Inactive)
REMARK    1  A    between atoms: C8_8  and  N10_10 
ROOT
HETATM    1  C1  UNL     1     -37.243  14.903  -3.830  1.00 20.00     0.065 C 
HETATM    2  C4  UNL     1     -34.799  14.875  -3.341  1.00 20.00     0.051 C 
HETATM    3  C5  UNL     1     -34.213  15.793  -2.276  1.00 20.00     0.274 C 
HETATM    4  C6  UNL     1     -36.028  16.953  -3.140  1.00 20.00     0.292 C 
HETATM    5  C7  UNL     1     -35.983  15.647  -3.931  1.00 20.00     0.122 C 
HETATM    6  N9  UNL     1     -38.240  14.314  -3.750  1.00 20.00    -0.197 NA
HETATM    7  N10 UNL     1     -34.638  17.125  -2.709  1.00 20.00     0.094 N 
ENDROOT
BRANCH   7   8
HETATM    8  C8  UNL     1     -34.478  18.155  -1.661  1.00 20.00     0.223 A 
HETATM    9  C2  UNL     1     -33.358  18.057  -0.662  1.00 20.00     0.038 A 
HETATM   10  C3  UNL     1     -33.334  19.128  -1.713  1.00 20.00     0.038 A 
ENDBRANCH   7   8
TORSDOF 1
ENDMDL
MODEL 9
REMARK VINA RESULT:      -3.5     11.323     13.410
REMARK  1 active torsions:
REMARK  status: ('A' for Active; 'I' for Inactive)
REMARK    1  A    between atoms: C8_8  and  N10_10 
ROOT
HETATM    1  C1  UNL     1     -38.070  14.997  -7.556  1.00 20.00     0.065 C 
HETATM    2  C4  UNL     1     -35.600  14.675  -7.635  1.00 20.00     0.051 C 
HETATM    3  C5  UNL     1     -34.841  14.209  -6.399  1.00 20.00     0.274 C 
HETATM    4  C6  UNL     1     -36.634  15.432  -5.579  1.00 20.00     0.292 C 
HETATM    5  C7  UNL     1     -36.771  15.503  -7.099  1.00 20.00     0.122 C 
HETATM    6  N9  UNL     1     -39.097  14.597  -7.917  1.00 20.00    -0.197 NA
HETATM    7  N10 UNL     1     -35.199  15.204  -5.388  1.00 20.00     0.094 N 
ENDROOT
BRANCH   7   8
HETATM    8  C8  UNL     1     -34.856  14.785  -4.013  1.00 20.00     0.223 A 
HETATM    9  C2  UNL     1     -33.701  13.854  -3.767  1.00 20.00     0.038 A 
HETATM   10  C3  UNL     1     -33.606  15.292  -3.348  1.00 20.00     0.038 A 
ENDBRANCH   7   8
TORSDOF 1
ENDMDL
