MODEL 1
REMARK VINA RESULT:      -4.2      0.000      0.000
REMARK  1 active torsions:
REMARK  status: ('A' for Active; 'I' for Inactive)
REMARK    1  A    between atoms: C8_8  and  N10_10 
ROOT
HETATM    1  C1  UNL     1     -32.149   8.218   1.881  1.00 20.00     0.065 C 
HETATM    2  C4  UNL     1     -31.812   7.532   4.254  1.00 20.00     0.051 C 
HETATM    3  C5  UNL     1     -32.963   6.965   5.075  1.00 20.00     0.274 C 
HETATM    4  C6  UNL     1     -33.413   6.335   2.888  1.00 20.00     0.292 C 
HETATM    5  C7  UNL     1     -32.086   7.087   2.815  1.00 20.00     0.122 C 
HETATM    6  N9  UNL     1     -32.199   9.112   1.143  1.00 20.00    -0.197 NA
HETATM    7  N10 UNL     1     -33.435   5.840   4.267  1.00 20.00     0.094 N 
ENDROOT
BRANCH   7   8
HETATM    8  C8  UNL     1     -34.762   5.340   4.684  1.00 20.00     0.223 A 
HETATM    9  C2  UNL     1     -34.942   3.902   5.086  1.00 20.00     0.038 A 
HETATM   10  C3  UNL     1     -35.028   4.985   6.121  1.00 20.00     0.038 A 
ENDBRANCH   7   8
TORSDOF 1
ENDMDL
MODEL 2
REMARK VINA RESULT:      -4.1     11.193     11.883
REMARK  1 active torsions:
REMARK  status: ('A' for Active; 'I' for Inactive)
REMARK    1  A    between atoms: C8_8  and  N10_10 
ROOT
HETATM    1  C1  UNL     1     -35.176  14.115  -5.771  1.00 20.00     0.065 C 
HETATM    2  C4  UNL     1     -33.418  14.157  -4.004  1.00 20.00     0.051 C 
HETATM    3  C5  UNL     1     -33.271  15.356  -3.076  1.00 20.00     0.274 C 
HETATM    4  C6  UNL     1     -35.528  15.278  -3.607  1.00 20.00     0.292 C 
HETATM    5  C7  UNL     1     -34.913  14.080  -4.327  1.00 20.00     0.122 C 
HETATM    6  N9  UNL     1     -35.384  14.143  -6.912  1.00 20.00    -0.197 NA
HETATM    7  N10 UNL     1     -34.605  15.500  -2.491  1.00 20.00     0.094 N 
ENDROOT
BRANCH   7   8
HETATM    8  C8  UNL     1     -34.808  16.800  -1.819  1.00 20.00     0.223 A 
HETATM    9  C2  UNL     1     -34.768  16.896  -0.318  1.00 20.00     0.038 A 
HETATM   10  C3  UNL     1     -33.662  17.495  -1.136  1.00 20.00     0.038 A 
ENDBRANCH   7   8
TORSDOF 1
ENDMDL
MODEL 3
REMARK VINA RESULT:      -4.0     11.197     11.945
REMARK  1 active torsions:
REMARK  status: ('A' for Active; 'I' for Inactive)
REMARK    1  A    between atoms: C8_8  and  N10_10 
ROOT
HETATM    1  C1  UNL     1     -34.705  13.681  -4.643  1.00 20.00     0.065 C 
HETATM    2  C4  UNL     1     -35.967  15.784  -4.195  1.00 20.00     0.051 C 
HETATM    3  C5  UNL     1     -36.091  16.334  -2.780  1.00 20.00     0.274 C 
HETATM    4  C6  UNL     1     -34.049  15.234  -2.823  1.00 20.00     0.292 C 
HETATM    5  C7  UNL     1     -34.604  15.088  -4.238  1.00 20.00     0.122 C 
HETATM    6  N9  UNL     1     -34.786  12.568  -4.963  1.00 20.00    -0.197 NA
HETATM    7  N10 UNL     1     -34.702  16.454  -2.338  1.00 20.00     0.094 N 
ENDROOT
BRANCH   7   8
HETATM    8  C8  UNL     1     -34.569  16.643  -0.879  1.00 20.00     0.223 A 
HETATM    9  C2  UNL     1     -33.842  17.839  -0.329  1.00 20.00     0.038 A 
HETATM   10  C3  UNL     1     -35.331  17.734  -0.178  1.00 20.00     0.038 A 
ENDBRANCH   7   8
TORSDOF 1
ENDMDL
MODEL 4
REMARK VINA RESULT:      -3.9     11.068     12.432
REMARK  1 active torsions:
REMARK  status: ('A' for Active; 'I' for Inactive)
REMARK    1  A    between atoms: C8_8  and  N10_10 
ROOT
HETATM    1  C1  UNL     1     -34.226  13.658  -4.292  1.00 20.00     0.065 C 
HETATM    2  C4  UNL     1     -33.238  15.892  -4.785  1.00 20.00     0.051 C 
HETATM    3  C5  UNL     1     -33.752  17.146  -4.089  1.00 20.00     0.274 C 
HETATM    4  C6  UNL     1     -34.078  15.430  -2.562  1.00 20.00     0.292 C 
HETATM    5  C7  UNL     1     -33.417  14.764  -3.766  1.00 20.00     0.122 C 
HETATM    6  N9  UNL     1     -34.867  12.783  -4.708  1.00 20.00    -0.197 NA
HETATM    7  N10 UNL     1     -33.629  16.821  -2.668  1.00 20.00     0.094 N 
ENDROOT
BRANCH   7   8
HETATM    8  C8  UNL     1     -34.381  17.743  -1.793  1.00 20.00     0.223 A 
HETATM    9  C2  UNL     1     -33.833  18.136  -0.449  1.00 20.00     0.038 A 
HETATM   10  C3  UNL     1     -33.890  19.145  -1.558  1.00 20.00     0.038 A 
ENDBRANCH   7   8
TORSDOF 1
ENDMDL
MODEL 5
REMARK VINA RESULT:      -3.8     11.015     12.954
REMARK  1 active torsions:
REMARK  status: ('A' for Active; 'I' for Inactive)
REMARK    1  A    between atoms: C8_8  and  N10_10 
ROOT
HETATM    1  C1  UNL     1     -34.280  16.146  -1.948  1.00 20.00     0.065 C 
HETATM    2  C4  UNL     1     -33.783  14.243  -3.480  1.00 20.00     0.051 C 
HETATM    3  C5  UNL     1     -34.603  14.022  -4.744  1.00 20.00     0.274 C 
HETATM    4  C6  UNL     1     -34.633  16.316  -4.399  1.00 20.00     0.292 C 
HETATM    5  C7  UNL     1     -33.769  15.759  -3.269  1.00 20.00     0.122 C 
HETATM    6  N9  UNL     1     -34.684  16.451  -0.904  1.00 20.00    -0.197 NA
HETATM    7  N10 UNL     1     -34.497  15.301  -5.447  1.00 20.00     0.094 N 
ENDROOT
BRANCH   7   8
HETATM    8  C8  UNL     1     -35.486  15.452  -6.534  1.00 20.00     0.223 A 
HETATM    9  C2  UNL     1     -35.045  15.841  -7.918  1.00 20.00     0.038 A 
HETATM   10  C3  UNL     1     -35.549  14.452  -7.655  1.00 20.00     0.038 A 
ENDBRANCH   7   8
TORSDOF 1
ENDMDL
MODEL 6
REMARK VINA RESULT:      -3.7     10.978     12.035
REMARK  1 active torsions:
REMARK  status: ('A' for Active; 'I' for Inactive)
REMARK    1  A    between atoms: C8_8  and  N10_10 
ROOT
HETATM    1  C1  UNL     1     -33.228  18.321  -0.998  1.00 20.00     0.065 C 
HETATM    2  C4  UNL     1     -35.557  17.484  -1.300  1.00 20.00     0.051 C 
HETATM    3  C5  UNL     1     -35.958  16.727  -2.559  1.00 20.00     0.274 C 
HETATM    4  C6  UNL     1     -33.713  16.233  -2.248  1.00 20.00     0.292 C 
HETATM    5  C7  UNL     1     -34.084  17.132  -1.071  1.00 20.00     0.122 C 
HETATM    6  N9  UNL     1     -32.551  19.262  -0.941  1.00 20.00    -0.197 NA
HETATM    7  N10 UNL     1     -34.995  15.627  -2.617  1.00 20.00     0.094 N 
ENDROOT
BRANCH   7   8
HETATM    8  C8  UNL     1     -34.962  14.951  -3.930  1.00 20.00     0.223 A 
HETATM    9  C2  UNL     1     -34.686  13.475  -4.020  1.00 20.00     0.038 A 
HETATM   10  C3  UNL     1     -36.058  14.001  -4.328  1.00 20.00     0.038 A 
ENDBRANCH   7   8
TORSDOF 1
ENDMDL
MODEL 7
REMARK VINA RESULT:      -3.6     11.160     12.118
REMARK  1 active torsions:
REMARK  status: ('A' for Active; 'I' for Inactive)
REMARK    1  A    between atoms: C8_8  and  N10_10 
ROOT
HETATM    1  C1  UNL     1     -33.713  18.090  -0.527  1.00 20.00     0.065 C 
HETATM    2  C4  UNL     1     -33.800  17.967  -3.015  1.00 20.00     0.051 C 
HETATM    3  C5  UNL     1     -33.627  16.638  -3.738  1.00 20.00     0.274 C 
HETATM    4  C6  UNL     1     -34.603  16.096  -1.704  1.00 20.00     0.292 C 
HETATM    5  C7  UNL     1     -34.477  17.618  -1.687  1.00 20.00     0.122 C 
HETATM    6  N9  UNL     1     -33.108  18.464   0.391  1.00 20.00    -0.197 NA
HETATM    7  N10 UNL     1     -34.653  15.786  -3.136  1.00 20.00     0.094 N 
ENDROOT
BRANCH   7   8
HETATM    8  C8  UNL     1     -34.463  14.350  -3.427  1.00 20.00     0.223 A 
HETATM    9  C2  UNL     1     -35.512  13.580  -4.180  1.00 20.00     0.038 A 
HETATM   10  C3  UNL     1     -34.196  13.884  -4.832  1.00 20.00     0.038 A 
ENDBRANCH   7   8
TORSDOF 1
ENDMDL
MODEL 8
REMARK VINA RESULT:      -3.5     10.276     10.956
REMARK  1 active torsions:
REMARK  status: ('A' for Active; 'I' for Inactive)
REMARK    1  A    between atoms: C8_8  and  N10_10 
ROOT
HETATM    1  C1  UNL     1     -42.713   7.674  -1.015  1.00 20.00     0.065 C 
HETATM    2  C4  UNL     1     -40.801   6.091  -0.786  1.00 20.00     0.051 C 
HETATM    3  C5  UNL     1     -41.002   4.592  -0.957  1.00 20.00     0.274 C 
HETATM    4  C6  UNL     1     -42.590   5.575  -2.333  1.00 20.00     0.292 C 
HETATM    5  C7  UNL     1     -41.823   6.744  -1.721  1.00 20.00     0.122 C 
HETATM    6  N9  UNL     1     -43.417   8.409  -0.458  1.00 20.00    -0.197 NA
HETATM    7  N10 UNL     1     -41.618   4.480  -2.280  1.00 20.00     0.094 N 
ENDROOT
BRANCH   7   8
HETATM    8  C8  UNL     1     -42.221   3.155  -2.531  1.00 20.00     0.223 A 
HETATM    9  C2  UNL     1     -42.792   2.820  -3.881  1.00 20.00     0.038 A 
HETATM   10  C3  UNL     1     -41.530   2.155  -3.417  1.00 20.00     0.038 A 
ENDBRANCH   7   8
TORSDOF 1
ENDMDL
MODEL 9
REMARK VINA RESULT:      -3.5     11.602     12.926
REMARK  1 active torsions:
REMARK  status: ('A' for Active; 'I' for Inactive)
REMARK    1  A    between atoms: C8_8  and  N10_10 
ROOT
HETATM    1  C1  UNL     1     -33.675  18.053  -1.591  1.00 20.00     0.065 C 
HETATM    2  C4  UNL     1     -34.898  15.913  -1.965  1.00 20.00     0.051 C 
HETATM    3  C5  UNL     1     -35.571  15.619  -3.299  1.00 20.00     0.274 C 
HETATM    4  C6  UNL     1     -33.756  16.967  -3.821  1.00 20.00     0.292 C 
HETATM    5  C7  UNL     1     -33.679  16.772  -2.309  1.00 20.00     0.122 C 
HETATM    6  N9  UNL     1     -33.673  19.065  -1.024  1.00 20.00    -0.197 NA
HETATM    7  N10 UNL     1     -34.486  15.779  -4.269  1.00 20.00     0.094 N 
ENDROOT
BRANCH   7   8
HETATM    8  C8  UNL     1     -34.964  15.881  -5.664  1.00 20.00     0.223 A 
HETATM    9  C2  UNL     1     -34.454  14.934  -6.715  1.00 20.00     0.038 A 
HETATM   10  C3  UNL     1     -35.873  14.831  -6.239  1.00 20.00     0.038 A 
ENDBRANCH   7   8
TORSDOF 1
ENDMDL
