MODEL 1
REMARK VINA RESULT:      -4.2      0.000      0.000
REMARK  1 active torsions:
REMARK  status: ('A' for Active; 'I' for Inactive)
REMARK    1  A    between atoms: C3_3  and  C7_7 
ROOT
HETATM    1  C1  UNL     1     -34.901   5.025   3.868  1.00 20.00     0.304 C 
HETATM    2  C2  UNL     1     -34.063   5.285   5.106  1.00 20.00     0.148 C 
HETATM    3  C3  UNL     1     -33.532   6.804   3.484  1.00 20.00     0.360 C 
HETATM    4  C4  UNL     1     -34.858   5.244   6.396  1.00 20.00     0.041 C 
HETATM    5  N8  UNL     1     -34.058   5.606   2.831  1.00 20.00     0.115 N 
HETATM    6  O9  UNL     1     -33.521   6.600   4.907  1.00 20.00    -0.350 OA
HETATM    7  H24 UNL     1     -33.289   4.963   2.640  1.00 20.00     0.319 HD
ENDROOT
BRANCH   3   8
HETATM    8  C7  UNL     1     -32.121   7.103   3.008  1.00 20.00     0.036 C 
HETATM    9  C5  UNL     1     -32.138   8.113   1.859  1.00 20.00     0.014 C 
HETATM   10  C6  UNL     1     -31.258   7.622   4.158  1.00 20.00     0.014 C 
ENDBRANCH   3   8
TORSDOF 1
ENDMDL
MODEL 2
REMARK VINA RESULT:      -3.9     11.498     12.357
REMARK  1 active torsions:
REMARK  status: ('A' for Active; 'I' for Inactive)
REMARK    1  A    between atoms: C3_3  and  C7_7 
ROOT
HETATM    1  C1  UNL     1     -34.802  13.293  -4.739  1.00 20.00     0.304 C 
HETATM    2  C2  UNL     1     -35.108  14.558  -5.519  1.00 20.00     0.148 C 
HETATM    3  C3  UNL     1     -33.527  14.998  -3.930  1.00 20.00     0.360 C 
HETATM    4  C4  UNL     1     -35.172  14.345  -7.018  1.00 20.00     0.041 C 
HETATM    5  N8  UNL     1     -34.313  13.849  -3.484  1.00 20.00     0.115 N 
HETATM    6  O9  UNL     1     -34.032  15.453  -5.197  1.00 20.00    -0.350 OA
HETATM    7  H24 UNL     1     -35.113  14.179  -2.942  1.00 20.00     0.319 HD
ENDROOT
BRANCH   3   8
HETATM    8  C7  UNL     1     -33.607  16.131  -2.922  1.00 20.00     0.036 C 
HETATM    9  C5  UNL     1     -33.726  17.482  -3.630  1.00 20.00     0.014 C 
HETATM   10  C6  UNL     1     -34.782  15.926  -1.966  1.00 20.00     0.014 C 
ENDBRANCH   3   8
TORSDOF 1
ENDMDL
MODEL 3
REMARK VINA RESULT:      -3.9     11.404     12.268
REMARK  1 active torsions:
REMARK  status: ('A' for Active; 'I' for Inactive)
REMARK    1  A    between atoms: C3_3  and  C7_7 
ROOT
HETATM    1  C1  UNL     1     -33.714  17.266  -3.207  1.00 20.00     0.304 C 
HETATM    2  C2  UNL     1     -34.653  16.360  -2.432  1.00 20.00     0.148 C 
HETATM    3  C3  UNL     1     -33.490  15.131  -3.965  1.00 20.00     0.360 C 
HETATM    4  C4  UNL     1     -34.635  16.607  -0.936  1.00 20.00     0.041 C 
HETATM    5  N8  UNL     1     -33.553  16.511  -4.443  1.00 20.00     0.115 N 
HETATM    6  O9  UNL     1     -34.190  15.031  -2.714  1.00 20.00    -0.350 OA
HETATM    7  H24 UNL     1     -34.394  16.633  -5.009  1.00 20.00     0.319 HD
ENDROOT
BRANCH   3   8
HETATM    8  C7  UNL     1     -34.120  14.182  -4.971  1.00 20.00     0.036 C 
HETATM    9  C5  UNL     1     -35.186  13.311  -4.302  1.00 20.00     0.014 C 
HETATM   10  C6  UNL     1     -34.726  14.956  -6.142  1.00 20.00     0.014 C 
ENDBRANCH   3   8
TORSDOF 1
ENDMDL
MODEL 4
REMARK VINA RESULT:      -3.9     11.019     11.774
REMARK  1 active torsions:
REMARK  status: ('A' for Active; 'I' for Inactive)
REMARK    1  A    between atoms: C3_3  and  C7_7 
ROOT
HETATM    1  C1  UNL     1     -35.662  17.035  -1.813  1.00 20.00     0.304 C 
HETATM    2  C2  UNL     1     -34.272  16.692  -1.310  1.00 20.00     0.148 C 
HETATM    3  C3  UNL     1     -34.687  15.566  -3.254  1.00 20.00     0.360 C 
HETATM    4  C4  UNL     1     -33.478  17.899  -0.853  1.00 20.00     0.041 C 
HETATM    5  N8  UNL     1     -35.969  15.857  -2.614  1.00 20.00     0.115 N 
HETATM    6  O9  UNL     1     -33.623  16.074  -2.432  1.00 20.00    -0.350 OA
HETATM    7  H24 UNL     1     -36.213  15.091  -1.985  1.00 20.00     0.319 HD
ENDROOT
BRANCH   3   8
HETATM    8  C7  UNL     1     -34.505  14.070  -3.442  1.00 20.00     0.036 C 
HETATM    9  C5  UNL     1     -35.338  13.566  -4.623  1.00 20.00     0.014 C 
HETATM   10  C6  UNL     1     -33.031  13.723  -3.646  1.00 20.00     0.014 C 
ENDBRANCH   3   8
TORSDOF 1
ENDMDL
MODEL 5
REMARK VINA RESULT:      -3.8     11.451     12.302
REMARK  1 active torsions:
REMARK  status: ('A' for Active; 'I' for Inactive)
REMARK    1  A    between atoms: C3_3  and  C7_7 
ROOT
HETATM    1  C1  UNL     1     -33.613  16.006  -4.706  1.00 20.00     0.304 C 
HETATM    2  C2  UNL     1     -33.531  14.833  -3.748  1.00 20.00     0.148 C 
HETATM    3  C3  UNL     1     -34.334  16.668  -2.650  1.00 20.00     0.360 C 
HETATM    4  C4  UNL     1     -34.069  13.539  -4.326  1.00 20.00     0.041 C 
HETATM    5  N8  UNL     1     -33.532  17.130  -3.782  1.00 20.00     0.115 N 
HETATM    6  O9  UNL     1     -34.323  15.231  -2.618  1.00 20.00    -0.350 OA
HETATM    7  H24 UNL     1     -32.561  17.236  -3.485  1.00 20.00     0.319 HD
ENDROOT
BRANCH   3   8
HETATM    8  C7  UNL     1     -33.780  17.204  -1.341  1.00 20.00     0.036 C 
HETATM    9  C5  UNL     1     -33.402  18.681  -1.476  1.00 20.00     0.014 C 
HETATM   10  C6  UNL     1     -34.788  17.016  -0.207  1.00 20.00     0.014 C 
ENDBRANCH   3   8
TORSDOF 1
ENDMDL
MODEL 6
REMARK VINA RESULT:      -3.8     11.089     12.730
REMARK  1 active torsions:
REMARK  status: ('A' for Active; 'I' for Inactive)
REMARK    1  A    between atoms: C3_3  and  C7_7 
ROOT
HETATM    1  C1  UNL     1     -34.043  13.830  -3.478  1.00 20.00     0.304 C 
HETATM    2  C2  UNL     1     -34.031  15.348  -3.482  1.00 20.00     0.148 C 
HETATM    3  C3  UNL     1     -34.937  14.580  -5.433  1.00 20.00     0.360 C 
HETATM    4  C4  UNL     1     -34.509  15.961  -2.181  1.00 20.00     0.041 C 
HETATM    5  N8  UNL     1     -34.048  13.546  -4.907  1.00 20.00     0.115 N 
HETATM    6  O9  UNL     1     -34.917  15.715  -4.551  1.00 20.00    -0.350 OA
HETATM    7  H24 UNL     1     -33.106  13.696  -5.271  1.00 20.00     0.319 HD
ENDROOT
BRANCH   3   8
HETATM    8  C7  UNL     1     -34.498  15.015  -6.821  1.00 20.00     0.036 C 
HETATM    9  C5  UNL     1     -35.459  14.484  -7.886  1.00 20.00     0.014 C 
HETATM   10  C6  UNL     1     -34.399  16.538  -6.907  1.00 20.00     0.014 C 
ENDBRANCH   3   8
TORSDOF 1
ENDMDL
MODEL 7
REMARK VINA RESULT:      -3.8      1.035      3.675
REMARK  1 active torsions:
REMARK  status: ('A' for Active; 'I' for Inactive)
REMARK    1  A    between atoms: C3_3  and  C7_7 
ROOT
HETATM    1  C1  UNL     1     -33.619   5.820   2.267  1.00 20.00     0.304 C 
HETATM    2  C2  UNL     1     -33.104   7.045   2.999  1.00 20.00     0.148 C 
HETATM    3  C3  UNL     1     -33.733   5.453   4.512  1.00 20.00     0.360 C 
HETATM    4  C4  UNL     1     -31.821   7.604   2.418  1.00 20.00     0.041 C 
HETATM    5  N8  UNL     1     -34.488   5.233   3.279  1.00 20.00     0.115 N 
HETATM    6  O9  UNL     1     -32.877   6.596   4.344  1.00 20.00    -0.350 OA
HETATM    7  H24 UNL     1     -35.354   5.771   3.314  1.00 20.00     0.319 HD
ENDROOT
BRANCH   3   8
HETATM    8  C7  UNL     1     -34.670   5.695   5.682  1.00 20.00     0.036 C 
HETATM    9  C5  UNL     1     -35.050   4.375   6.356  1.00 20.00     0.014 C 
HETATM   10  C6  UNL     1     -34.037   6.646   6.698  1.00 20.00     0.014 C 
ENDBRANCH   3   8
TORSDOF 1
ENDMDL
MODEL 8
REMARK VINA RESULT:      -3.7     11.575     12.405
REMARK  1 active torsions:
REMARK  status: ('A' for Active; 'I' for Inactive)
REMARK    1  A    between atoms: C3_3  and  C7_7 
ROOT
HETATM    1  C1  UNL     1     -33.832  17.557  -2.937  1.00 20.00     0.304 C 
HETATM    2  C2  UNL     1     -34.785  16.662  -2.166  1.00 20.00     0.148 C 
HETATM    3  C3  UNL     1     -33.898  15.505  -3.924  1.00 20.00     0.360 C 
HETATM    4  C4  UNL     1     -34.606  16.742  -0.662  1.00 20.00     0.041 C 
HETATM    5  N8  UNL     1     -33.862  16.929  -4.252  1.00 20.00     0.115 N 
HETATM    6  O9  UNL     1     -34.488  15.335  -2.624  1.00 20.00    -0.350 OA
HETATM    7  H24 UNL     1     -34.734  17.189  -4.716  1.00 20.00     0.319 HD
ENDROOT
BRANCH   3   8
HETATM    8  C7  UNL     1     -34.710  14.734  -4.950  1.00 20.00     0.036 C 
HETATM    9  C5  UNL     1     -34.340  15.165  -6.371  1.00 20.00     0.014 C 
HETATM   10  C6  UNL     1     -34.509  13.228  -4.782  1.00 20.00     0.014 C 
ENDBRANCH   3   8
TORSDOF 1
ENDMDL
MODEL 9
REMARK VINA RESULT:      -3.7     11.204     12.598
REMARK  1 active torsions:
REMARK  status: ('A' for Active; 'I' for Inactive)
REMARK    1  A    between atoms: C3_3  and  C7_7 
ROOT
HETATM    1  C1  UNL     1     -36.843  15.141  -5.831  1.00 20.00     0.304 C 
HETATM    2  C2  UNL     1     -35.479  14.888  -6.448  1.00 20.00     0.148 C 
HETATM    3  C3  UNL     1     -35.584  13.910  -4.386  1.00 20.00     0.360 C 
HETATM    4  C4  UNL     1     -35.541  14.465  -7.902  1.00 20.00     0.041 C 
HETATM    5  N8  UNL     1     -36.535  15.021  -4.412  1.00 20.00     0.115 N 
HETATM    6  O9  UNL     1     -34.912  13.835  -5.655  1.00 20.00    -0.350 OA
HETATM    7  H24 UNL     1     -36.064  15.874  -4.109  1.00 20.00     0.319 HD
ENDROOT
BRANCH   3   8
HETATM    8  C7  UNL     1     -34.557  14.104  -3.284  1.00 20.00     0.036 C 
HETATM    9  C5  UNL     1     -33.148  13.795  -3.793  1.00 20.00     0.014 C 
HETATM   10  C6  UNL     1     -34.620  15.527  -2.727  1.00 20.00     0.014 C 
ENDBRANCH   3   8
TORSDOF 1
ENDMDL
