MODEL 1
REMARK VINA RESULT:      -4.1      0.000      0.000
REMARK  1 active torsions:
REMARK  status: ('A' for Active; 'I' for Inactive)
REMARK    1  A    between atoms: C2_2  and  C7_7 
ROOT
HETATM    1  C1  UNL     1     -35.303   5.790   4.072  1.00 20.00     0.310 C 
HETATM    2  C2  UNL     1     -33.155   6.049   3.380  1.00 20.00     0.356 C 
HETATM    3  C3  UNL     1     -34.376   5.302   5.183  1.00 20.00     0.083 C 
HETATM    4  C4  UNL     1     -34.755   3.908   5.671  1.00 20.00     0.047 C 
HETATM    5  C5  UNL     1     -34.299   6.276   6.364  1.00 20.00     0.047 C 
HETATM    6  N8  UNL     1     -34.460   6.719   3.320  1.00 20.00     0.115 N 
HETATM    7  O9  UNL     1     -33.077   5.240   4.566  1.00 20.00    -0.345 OA
HETATM    8  H24 UNL     1     -34.781   6.802   2.357  1.00 20.00     0.319 HD
ENDROOT
BRANCH   2   9
HETATM    9  C7  UNL     1     -32.004   7.043   3.376  1.00 20.00     0.059 C 
HETATM   10  C6  UNL     1     -32.100   8.006   2.235  1.00 20.00     0.009 C 
ENDBRANCH   2   9
TORSDOF 1
ENDMDL
MODEL 2
REMARK VINA RESULT:      -4.0     11.633     12.580
REMARK  1 active torsions:
REMARK  status: ('A' for Active; 'I' for Inactive)
REMARK    1  A    between atoms: C2_2  and  C7_7 
ROOT
HETATM    1  C1  UNL     1     -35.983  14.874  -3.906  1.00 20.00     0.310 C 
HETATM    2  C2  UNL     1     -34.796  16.557  -2.947  1.00 20.00     0.356 C 
HETATM    3  C3  UNL     1     -34.559  14.834  -4.455  1.00 20.00     0.083 C 
HETATM    4  C4  UNL     1     -34.537  14.788  -5.979  1.00 20.00     0.047 C 
HETATM    5  C5  UNL     1     -33.731  13.682  -3.876  1.00 20.00     0.047 C 
HETATM    6  N8  UNL     1     -35.826  15.561  -2.624  1.00 20.00     0.115 N 
HETATM    7  O9  UNL     1     -33.972  16.074  -4.020  1.00 20.00    -0.345 OA
HETATM    8  H24 UNL     1     -36.694  16.014  -2.346  1.00 20.00     0.319 HD
ENDROOT
BRANCH   2   9
HETATM    9  C7  UNL     1     -33.919  16.879  -1.747  1.00 20.00     0.059 C 
HETATM   10  C6  UNL     1     -34.696  16.877  -0.468  1.00 20.00     0.009 C 
ENDBRANCH   2   9
TORSDOF 1
ENDMDL
MODEL 3
REMARK VINA RESULT:      -4.0     11.816     13.296
REMARK  1 active torsions:
REMARK  status: ('A' for Active; 'I' for Inactive)
REMARK    1  A    between atoms: C2_2  and  C7_7 
ROOT
HETATM    1  C1  UNL     1     -33.221  15.989  -3.864  1.00 20.00     0.310 C 
HETATM    2  C2  UNL     1     -34.219  16.004  -5.904  1.00 20.00     0.356 C 
HETATM    3  C3  UNL     1     -34.542  15.230  -3.761  1.00 20.00     0.083 C 
HETATM    4  C4  UNL     1     -35.395  15.726  -2.598  1.00 20.00     0.047 C 
HETATM    5  C5  UNL     1     -34.349  13.712  -3.670  1.00 20.00     0.047 C 
HETATM    6  N8  UNL     1     -32.892  15.892  -5.286  1.00 20.00     0.115 N 
HETATM    7  O9  UNL     1     -35.222  15.524  -4.994  1.00 20.00    -0.345 OA
HETATM    8  H24 UNL     1     -32.291  16.662  -5.573  1.00 20.00     0.319 HD
ENDROOT
BRANCH   2   9
HETATM    9  C7  UNL     1     -34.308  15.222  -7.206  1.00 20.00     0.059 C 
HETATM   10  C6  UNL     1     -35.563  14.410  -7.286  1.00 20.00     0.009 C 
ENDBRANCH   2   9
TORSDOF 1
ENDMDL
MODEL 4
REMARK VINA RESULT:      -3.9     12.313     13.358
REMARK  1 active torsions:
REMARK  status: ('A' for Active; 'I' for Inactive)
REMARK    1  A    between atoms: C2_2  and  C7_7 
ROOT
HETATM    1  C1  UNL     1     -33.027  15.297  -3.439  1.00 20.00     0.310 C 
HETATM    2  C2  UNL     1     -33.574  16.821  -5.031  1.00 20.00     0.356 C 
HETATM    3  C3  UNL     1     -34.450  15.782  -3.175  1.00 20.00     0.083 C 
HETATM    4  C4  UNL     1     -34.641  16.230  -1.729  1.00 20.00     0.047 C 
HETATM    5  C5  UNL     1     -35.512  14.743  -3.553  1.00 20.00     0.047 C 
HETATM    6  N8  UNL     1     -32.847  15.556  -4.867  1.00 20.00     0.115 N 
HETATM    7  O9  UNL     1     -34.608  16.922  -4.039  1.00 20.00    -0.345 OA
HETATM    8  H24 UNL     1     -31.862  15.671  -5.094  1.00 20.00     0.319 HD
ENDROOT
BRANCH   2   9
HETATM    9  C7  UNL     1     -34.193  16.948  -6.414  1.00 20.00     0.059 C 
HETATM   10  C6  UNL     1     -34.355  15.617  -7.079  1.00 20.00     0.009 C 
ENDBRANCH   2   9
TORSDOF 1
ENDMDL
MODEL 5
REMARK VINA RESULT:      -3.9     11.720     12.519
REMARK  1 active torsions:
REMARK  status: ('A' for Active; 'I' for Inactive)
REMARK    1  A    between atoms: C2_2  and  C7_7 
ROOT
HETATM    1  C1  UNL     1     -34.081  15.463  -5.058  1.00 20.00     0.310 C 
HETATM    2  C2  UNL     1     -33.516  16.105  -2.953  1.00 20.00     0.356 C 
HETATM    3  C3  UNL     1     -35.013  14.762  -4.073  1.00 20.00     0.083 C 
HETATM    4  C4  UNL     1     -35.075  13.258  -4.318  1.00 20.00     0.047 C 
HETATM    5  C5  UNL     1     -36.426  15.357  -4.066  1.00 20.00     0.047 C 
HETATM    6  N8  UNL     1     -33.637  16.642  -4.314  1.00 20.00     0.115 N 
HETATM    7  O9  UNL     1     -34.419  15.000  -2.784  1.00 20.00    -0.345 OA
HETATM    8  H24 UNL     1     -32.736  16.970  -4.657  1.00 20.00     0.319 HD
ENDROOT
BRANCH   2   9
HETATM    9  C7  UNL     1     -33.811  17.158  -1.897  1.00 20.00     0.059 C 
HETATM   10  C6  UNL     1     -34.678  16.624  -0.800  1.00 20.00     0.009 C 
ENDBRANCH   2   9
TORSDOF 1
ENDMDL
MODEL 6
REMARK VINA RESULT:      -3.8      9.203     10.515
REMARK  1 active torsions:
REMARK  status: ('A' for Active; 'I' for Inactive)
REMARK    1  A    between atoms: C2_2  and  C7_7 
ROOT
HETATM    1  C1  UNL     1     -40.680   5.534  -0.623  1.00 20.00     0.310 C 
HETATM    2  C2  UNL     1     -41.711   4.288  -2.218  1.00 20.00     0.356 C 
HETATM    3  C3  UNL     1     -42.142   5.967  -0.703  1.00 20.00     0.083 C 
HETATM    4  C4  UNL     1     -42.282   7.479  -0.845  1.00 20.00     0.047 C 
HETATM    5  C5  UNL     1     -42.977   5.464   0.480  1.00 20.00     0.047 C 
HETATM    6  N8  UNL     1     -40.707   4.171  -1.153  1.00 20.00     0.115 N 
HETATM    7  O9  UNL     1     -42.637   5.341  -1.901  1.00 20.00    -0.345 OA
HETATM    8  H24 UNL     1     -39.800   3.912  -1.536  1.00 20.00     0.319 HD
ENDROOT
BRANCH   2   9
HETATM    9  C7  UNL     1     -42.479   2.991  -2.422  1.00 20.00     0.059 C 
HETATM   10  C6  UNL     1     -41.769   2.062  -3.357  1.00 20.00     0.009 C 
ENDBRANCH   2   9
TORSDOF 1
ENDMDL
MODEL 7
REMARK VINA RESULT:      -3.8     11.898     12.537
REMARK  1 active torsions:
REMARK  status: ('A' for Active; 'I' for Inactive)
REMARK    1  A    between atoms: C2_2  and  C7_7 
ROOT
HETATM    1  C1  UNL     1     -36.213  16.264  -3.228  1.00 20.00     0.310 C 
HETATM    2  C2  UNL     1     -35.485  14.227  -3.918  1.00 20.00     0.356 C 
HETATM    3  C3  UNL     1     -34.764  16.091  -2.778  1.00 20.00     0.083 C 
HETATM    4  C4  UNL     1     -34.589  16.394  -1.293  1.00 20.00     0.047 C 
HETATM    5  C5  UNL     1     -33.780  16.921  -3.609  1.00 20.00     0.047 C 
HETATM    6  N8  UNL     1     -36.320  15.349  -4.364  1.00 20.00     0.115 N 
HETATM    7  O9  UNL     1     -34.482  14.698  -3.004  1.00 20.00    -0.345 OA
HETATM    8  H24 UNL     1     -37.284  15.053  -4.502  1.00 20.00     0.319 HD
ENDROOT
BRANCH   2   9
HETATM    9  C7  UNL     1     -34.808  13.521  -5.083  1.00 20.00     0.059 C 
HETATM   10  C6  UNL     1     -34.743  14.388  -6.301  1.00 20.00     0.009 C 
ENDBRANCH   2   9
TORSDOF 1
ENDMDL
MODEL 8
REMARK VINA RESULT:      -3.7     12.056     13.040
REMARK  1 active torsions:
REMARK  status: ('A' for Active; 'I' for Inactive)
REMARK    1  A    between atoms: C2_2  and  C7_7 
ROOT
HETATM    1  C1  UNL     1     -34.007  13.998  -4.521  1.00 20.00     0.310 C 
HETATM    2  C2  UNL     1     -35.589  15.215  -3.438  1.00 20.00     0.356 C 
HETATM    3  C3  UNL     1     -34.289  15.257  -5.337  1.00 20.00     0.083 C 
HETATM    4  C4  UNL     1     -34.580  14.937  -6.799  1.00 20.00     0.047 C 
HETATM    5  C5  UNL     1     -33.166  16.296  -5.234  1.00 20.00     0.047 C 
HETATM    6  N8  UNL     1     -34.413  14.380  -3.168  1.00 20.00     0.115 N 
HETATM    7  O9  UNL     1     -35.474  15.815  -4.739  1.00 20.00    -0.345 OA
HETATM    8  H24 UNL     1     -34.667  13.560  -2.621  1.00 20.00     0.319 HD
ENDROOT
BRANCH   2   9
HETATM    9  C7  UNL     1     -35.762  16.310  -2.396  1.00 20.00     0.059 C 
HETATM   10  C6  UNL     1     -34.612  16.359  -1.440  1.00 20.00     0.009 C 
ENDBRANCH   2   9
TORSDOF 1
ENDMDL
MODEL 9
REMARK VINA RESULT:      -3.7      9.446     10.825
REMARK  1 active torsions:
REMARK  status: ('A' for Active; 'I' for Inactive)
REMARK    1  A    between atoms: C2_2  and  C7_7 
ROOT
HETATM    1  C1  UNL     1     -43.254   7.893  -1.691  1.00 20.00     0.310 C 
HETATM    2  C2  UNL     1     -41.293   7.087  -0.879  1.00 20.00     0.356 C 
HETATM    3  C3  UNL     1     -42.519   7.182  -2.824  1.00 20.00     0.083 C 
HETATM    4  C4  UNL     1     -42.415   8.053  -4.072  1.00 20.00     0.047 C 
HETATM    5  C5  UNL     1     -43.136   5.824  -3.174  1.00 20.00     0.047 C 
HETATM    6  N8  UNL     1     -42.696   7.272  -0.490  1.00 20.00     0.115 N 
HETATM    7  O9  UNL     1     -41.195   6.955  -2.306  1.00 20.00    -0.345 OA
HETATM    8  H24 UNL     1     -42.773   7.896   0.310  1.00 20.00     0.319 HD
ENDROOT
BRANCH   2   9
HETATM    9  C7  UNL     1     -40.675   5.864  -0.219  1.00 20.00     0.059 C 
HETATM   10  C6  UNL     1     -41.715   4.888   0.234  1.00 20.00     0.009 C 
ENDBRANCH   2   9
TORSDOF 1
ENDMDL
