MODEL 1
REMARK VINA RESULT:      -4.7      0.000      0.000
REMARK  0 active torsions:
REMARK  status: ('A' for Active; 'I' for Inactive)
ROOT
HETATM    1  C1  UNL     1     -34.641  13.743  -4.335  1.00 20.00     0.107 C 
HETATM    2  C2  UNL     1     -34.716  15.195  -2.320  1.00 20.00     0.038 A 
HETATM    3  C3  UNL     1     -34.438  14.976  -3.651  1.00 20.00     0.086 A 
HETATM    4  C4  UNL     1     -34.409  16.529  -1.917  1.00 20.00    -0.043 A 
HETATM    5  C5  UNL     1     -33.903  17.268  -2.970  1.00 20.00    -0.010 A 
HETATM    6  C6  UNL     1     -34.567  17.105  -0.544  1.00 20.00     0.040 C 
HETATM    7  C7  UNL     1     -33.505  18.709  -2.895  1.00 20.00     0.046 C 
HETATM    8  C8  UNL     1     -34.508  18.640  -0.559  1.00 20.00     0.005 C 
HETATM    9  C9  UNL     1     -33.354  19.153  -1.431  1.00 20.00     0.005 C 
HETATM   10  N10 UNL     1     -34.807  12.738  -4.891  1.00 20.00    -0.191 NA
HETATM   11  S11 UNL     1     -33.810  16.374  -4.416  1.00 20.00    -0.083 SA
ENDROOT
TORSDOF 0
ENDMDL
MODEL 2
REMARK VINA RESULT:      -4.6      1.387      1.675
REMARK  0 active torsions:
REMARK  status: ('A' for Active; 'I' for Inactive)
ROOT
HETATM    1  C1  UNL     1     -34.915  13.627  -4.223  1.00 20.00     0.107 C 
HETATM    2  C2  UNL     1     -34.078  15.345  -2.636  1.00 20.00     0.038 A 
HETATM    3  C3  UNL     1     -35.053  14.817  -3.453  1.00 20.00     0.086 A 
HETATM    4  C4  UNL     1     -34.506  16.545  -1.992  1.00 20.00    -0.043 A 
HETATM    5  C5  UNL     1     -35.796  16.880  -2.358  1.00 20.00    -0.010 A 
HETATM    6  C6  UNL     1     -33.700  17.391  -1.055  1.00 20.00     0.040 C 
HETATM    7  C7  UNL     1     -36.555  18.063  -1.846  1.00 20.00     0.046 C 
HETATM    8  C8  UNL     1     -34.583  18.371  -0.269  1.00 20.00     0.005 C 
HETATM    9  C9  UNL     1     -35.603  19.069  -1.180  1.00 20.00     0.005 C 
HETATM   10  N10 UNL     1     -34.802  12.657  -4.850  1.00 20.00    -0.191 NA
HETATM   11  S11 UNL     1     -36.481  15.764  -3.446  1.00 20.00    -0.083 SA
ENDROOT
TORSDOF 0
ENDMDL
MODEL 3
REMARK VINA RESULT:      -4.5      2.590      4.704
REMARK  0 active torsions:
REMARK  status: ('A' for Active; 'I' for Inactive)
ROOT
HETATM    1  C1  UNL     1     -33.678  17.775  -1.232  1.00 20.00     0.107 C 
HETATM    2  C2  UNL     1     -34.377  15.644  -2.301  1.00 20.00     0.038 A 
HETATM    3  C3  UNL     1     -33.929  16.945  -2.362  1.00 20.00     0.086 A 
HETATM    4  C4  UNL     1     -34.536  15.067  -3.597  1.00 20.00    -0.043 A 
HETATM    5  C5  UNL     1     -34.203  15.966  -4.592  1.00 20.00    -0.010 A 
HETATM    6  C6  UNL     1     -35.021  13.684  -3.903  1.00 20.00     0.040 C 
HETATM    7  C7  UNL     1     -34.232  15.674  -6.059  1.00 20.00     0.046 C 
HETATM    8  C8  UNL     1     -34.707  13.277  -5.351  1.00 20.00     0.005 C 
HETATM    9  C9  UNL     1     -35.046  14.401  -6.340  1.00 20.00     0.005 C 
HETATM   10  N10 UNL     1     -33.474  18.451  -0.311  1.00 20.00    -0.191 NA
HETATM   11  S11 UNL     1     -33.699  17.471  -3.976  1.00 20.00    -0.083 SA
ENDROOT
TORSDOF 0
ENDMDL
MODEL 4
REMARK VINA RESULT:      -4.4      2.981      4.520
REMARK  0 active torsions:
REMARK  status: ('A' for Active; 'I' for Inactive)
ROOT
HETATM    1  C1  UNL     1     -34.359  18.231   0.457  1.00 20.00     0.107 C 
HETATM    2  C2  UNL     1     -34.611  16.354  -1.152  1.00 20.00     0.038 A 
HETATM    3  C3  UNL     1     -34.258  17.649  -0.839  1.00 20.00     0.086 A 
HETATM    4  C4  UNL     1     -34.398  16.057  -2.532  1.00 20.00    -0.043 A 
HETATM    5  C5  UNL     1     -33.895  17.150  -3.211  1.00 20.00    -0.010 A 
HETATM    6  C6  UNL     1     -34.689  14.758  -3.218  1.00 20.00     0.040 C 
HETATM    7  C7  UNL     1     -33.537  17.169  -4.664  1.00 20.00     0.046 C 
HETATM    8  C8  UNL     1     -33.994  14.668  -4.586  1.00 20.00     0.005 C 
HETATM    9  C9  UNL     1     -34.159  15.966  -5.390  1.00 20.00     0.005 C 
HETATM   10  N10 UNL     1     -34.442  18.704   1.513  1.00 20.00    -0.191 NA
HETATM   11  S11 UNL     1     -33.673  18.504  -2.203  1.00 20.00    -0.083 SA
ENDROOT
TORSDOF 0
ENDMDL
MODEL 5
REMARK VINA RESULT:      -4.3      1.495      2.283
REMARK  0 active torsions:
REMARK  status: ('A' for Active; 'I' for Inactive)
ROOT
HETATM    1  C1  UNL     1     -34.299  15.352  -5.963  1.00 20.00     0.107 C 
HETATM    2  C2  UNL     1     -33.806  17.225  -4.405  1.00 20.00     0.038 A 
HETATM    3  C3  UNL     1     -34.261  15.952  -4.671  1.00 20.00     0.086 A 
HETATM    4  C4  UNL     1     -33.889  17.548  -3.018  1.00 20.00    -0.043 A 
HETATM    5  C5  UNL     1     -34.412  16.499  -2.287  1.00 20.00    -0.010 A 
HETATM    6  C6  UNL     1     -33.500  18.847  -2.381  1.00 20.00     0.040 C 
HETATM    7  C7  UNL     1     -34.609  16.499  -0.803  1.00 20.00     0.046 C 
HETATM    8  C8  UNL     1     -33.361  18.715  -0.856  1.00 20.00     0.005 C 
HETATM    9  C9  UNL     1     -34.532  17.930  -0.248  1.00 20.00     0.005 C 
HETATM   10  N10 UNL     1     -34.331  14.865  -7.015  1.00 20.00    -0.191 NA
HETATM   11  S11 UNL     1     -34.786  15.148  -3.252  1.00 20.00    -0.083 SA
ENDROOT
TORSDOF 0
ENDMDL
MODEL 6
REMARK VINA RESULT:      -4.3      3.080      4.331
REMARK  0 active torsions:
REMARK  status: ('A' for Active; 'I' for Inactive)
ROOT
HETATM    1  C1  UNL     1     -35.159  17.553   0.930  1.00 20.00     0.107 C 
HETATM    2  C2  UNL     1     -34.577  16.360  -1.171  1.00 20.00     0.038 A 
HETATM    3  C3  UNL     1     -34.752  17.512  -0.435  1.00 20.00     0.086 A 
HETATM    4  C4  UNL     1     -34.165  16.634  -2.510  1.00 20.00    -0.043 A 
HETATM    5  C5  UNL     1     -34.052  17.993  -2.733  1.00 20.00    -0.010 A 
HETATM    6  C6  UNL     1     -33.903  15.625  -3.585  1.00 20.00     0.040 C 
HETATM    7  C7  UNL     1     -33.617  18.619  -4.021  1.00 20.00     0.046 C 
HETATM    8  C8  UNL     1     -33.123  16.235  -4.760  1.00 20.00     0.005 C 
HETATM    9  C9  UNL     1     -33.694  17.600  -5.170  1.00 20.00     0.005 C 
HETATM   10  N10 UNL     1     -35.490  17.586   2.041  1.00 20.00    -0.191 NA
HETATM   11  S11 UNL     1     -34.423  18.919  -1.354  1.00 20.00    -0.083 SA
ENDROOT
TORSDOF 0
ENDMDL
MODEL 7
REMARK VINA RESULT:      -4.3      3.005      4.278
REMARK  0 active torsions:
REMARK  status: ('A' for Active; 'I' for Inactive)
ROOT
HETATM    1  C1  UNL     1     -39.098  15.820  -3.621  1.00 20.00     0.107 C 
HETATM    2  C2  UNL     1     -37.068  14.449  -4.042  1.00 20.00     0.038 A 
HETATM    3  C3  UNL     1     -37.691  15.595  -3.598  1.00 20.00     0.086 A 
HETATM    4  C4  UNL     1     -35.650  14.515  -3.892  1.00 20.00    -0.043 A 
HETATM    5  C5  UNL     1     -35.257  15.720  -3.342  1.00 20.00    -0.010 A 
HETATM    6  C6  UNL     1     -34.663  13.459  -4.286  1.00 20.00     0.040 C 
HETATM    7  C7  UNL     1     -33.845  16.101  -3.028  1.00 20.00     0.046 C 
HETATM    8  C8  UNL     1     -33.288  13.696  -3.642  1.00 20.00     0.005 C 
HETATM    9  C9  UNL     1     -32.860  15.167  -3.748  1.00 20.00     0.005 C 
HETATM   10  N10 UNL     1     -40.244  16.002  -3.640  1.00 20.00    -0.191 NA
HETATM   11  S11 UNL     1     -36.572  16.747  -3.002  1.00 20.00    -0.083 SA
ENDROOT
TORSDOF 0
ENDMDL
MODEL 8
REMARK VINA RESULT:      -4.2      5.825      7.277
REMARK  0 active torsions:
REMARK  status: ('A' for Active; 'I' for Inactive)
ROOT
HETATM    1  C1  UNL     1     -32.949  18.756   5.797  1.00 20.00     0.107 C 
HETATM    2  C2  UNL     1     -34.005  18.303   3.594  1.00 20.00     0.038 A 
HETATM    3  C3  UNL     1     -32.946  18.715   4.373  1.00 20.00     0.086 A 
HETATM    4  C4  UNL     1     -33.707  18.372   2.200  1.00 20.00    -0.043 A 
HETATM    5  C5  UNL     1     -32.426  18.842   1.982  1.00 20.00    -0.010 A 
HETATM    6  C6  UNL     1     -34.629  18.020   1.073  1.00 20.00     0.040 C 
HETATM    7  C7  UNL     1     -31.789  19.011   0.638  1.00 20.00     0.046 C 
HETATM    8  C8  UNL     1     -33.869  17.847  -0.251  1.00 20.00     0.005 C 
HETATM    9  C9  UNL     1     -32.852  18.976  -0.472  1.00 20.00     0.005 C 
HETATM   10  N10 UNL     1     -32.952  18.788   6.957  1.00 20.00    -0.191 NA
HETATM   11  S11 UNL     1     -31.596  19.184   3.428  1.00 20.00    -0.083 SA
ENDROOT
TORSDOF 0
ENDMDL
MODEL 9
REMARK VINA RESULT:      -4.2     11.567     12.835
REMARK  0 active torsions:
REMARK  status: ('A' for Active; 'I' for Inactive)
ROOT
HETATM    1  C1  UNL     1     -32.110   7.953   1.938  1.00 20.00     0.107 C 
HETATM    2  C2  UNL     1     -32.873   7.355   4.226  1.00 20.00     0.038 A 
HETATM    3  C3  UNL     1     -32.789   7.118   2.872  1.00 20.00     0.086 A 
HETATM    4  C4  UNL     1     -33.617   6.344   4.905  1.00 20.00    -0.043 A 
HETATM    5  C5  UNL     1     -34.073   5.379   4.027  1.00 20.00    -0.010 A 
HETATM    6  C6  UNL     1     -33.921   6.294   6.371  1.00 20.00     0.040 C 
HETATM    7  C7  UNL     1     -34.862   4.169   4.415  1.00 20.00     0.046 C 
HETATM    8  C8  UNL     1     -34.400   4.901   6.806  1.00 20.00     0.005 C 
HETATM    9  C9  UNL     1     -35.438   4.329   5.831  1.00 20.00     0.005 C 
HETATM   10  N10 UNL     1     -31.558   8.633   1.178  1.00 20.00    -0.191 NA
HETATM   11  S11 UNL     1     -33.604   5.681   2.418  1.00 20.00    -0.083 SA
ENDROOT
TORSDOF 0
ENDMDL
