MODEL 1
REMARK VINA RESULT:      -5.0      0.000      0.000
REMARK  1 active torsions:
REMARK  status: ('A' for Active; 'I' for Inactive)
REMARK    1  A    between atoms: C3_3  and  C5_5 
ROOT
HETATM    1  C1  UNL     1     -32.894   7.090   4.643  1.00 20.00     0.030 A 
HETATM    2  C2  UNL     1     -33.830   6.173   5.163  1.00 20.00    -0.044 A 
HETATM    3  C3  UNL     1     -32.766   6.930   3.272  1.00 20.00     0.043 A 
HETATM    4  C4  UNL     1     -34.364   5.370   4.192  1.00 20.00    -0.010 A 
HETATM    5  C6  UNL     1     -34.392   5.851   6.496  1.00 20.00     0.040 C 
HETATM    6  C7  UNL     1     -35.354   4.391   4.697  1.00 20.00     0.047 C 
HETATM    7  C8  UNL     1     -35.100   4.483   6.234  1.00 20.00     0.010 C 
HETATM    8  S10 UNL     1     -33.783   5.673   2.654  1.00 20.00    -0.091 SA
ENDROOT
BRANCH   3   9
HETATM    9  C5  UNL     1     -31.933   7.648   2.362  1.00 20.00     0.277 C 
HETATM   10  O9  UNL     1     -32.277   8.695   1.775  1.00 20.00    -0.301 OA
ENDBRANCH   3   9
TORSDOF 1
ENDMDL
MODEL 2
REMARK VINA RESULT:      -4.5     11.573     12.539
REMARK  1 active torsions:
REMARK  status: ('A' for Active; 'I' for Inactive)
REMARK    1  A    between atoms: C3_3  and  C5_5 
ROOT
HETATM    1  C1  UNL     1     -34.701  14.842  -2.781  1.00 20.00     0.030 A 
HETATM    2  C2  UNL     1     -34.446  16.085  -2.168  1.00 20.00    -0.044 A 
HETATM    3  C3  UNL     1     -34.331  14.874  -4.117  1.00 20.00     0.043 A 
HETATM    4  C4  UNL     1     -33.907  16.992  -3.039  1.00 20.00    -0.010 A 
HETATM    5  C6  UNL     1     -34.610  16.670  -0.816  1.00 20.00     0.040 C 
HETATM    6  C7  UNL     1     -33.623  18.315  -2.433  1.00 20.00     0.047 C 
HETATM    7  C8  UNL     1     -34.406  18.195  -1.089  1.00 20.00     0.010 C 
HETATM    8  S10 UNL     1     -33.685  16.408  -4.590  1.00 20.00    -0.091 SA
ENDROOT
BRANCH   3   9
HETATM    9  C5  UNL     1     -34.418  13.836  -5.094  1.00 20.00     0.277 C 
HETATM   10  O9  UNL     1     -34.754  12.661  -4.838  1.00 20.00    -0.301 OA
ENDBRANCH   3   9
TORSDOF 1
ENDMDL
MODEL 3
REMARK VINA RESULT:      -4.1     12.058     14.497
REMARK  1 active torsions:
REMARK  status: ('A' for Active; 'I' for Inactive)
REMARK    1  A    between atoms: C3_3  and  C5_5 
ROOT
HETATM    1  C1  UNL     1     -34.473  15.167  -6.259  1.00 20.00     0.030 A 
HETATM    2  C2  UNL     1     -34.300  16.561  -6.385  1.00 20.00    -0.044 A 
HETATM    3  C3  UNL     1     -34.063  14.739  -5.006  1.00 20.00     0.043 A 
HETATM    4  C4  UNL     1     -33.778  17.124  -5.253  1.00 20.00    -0.010 A 
HETATM    5  C6  UNL     1     -34.541  17.583  -7.432  1.00 20.00     0.040 C 
HETATM    6  C7  UNL     1     -33.581  18.590  -5.344  1.00 20.00     0.047 C 
HETATM    7  C8  UNL     1     -33.753  18.814  -6.879  1.00 20.00     0.010 C 
HETATM    8  S10 UNL     1     -33.481  16.036  -4.019  1.00 20.00    -0.091 SA
ENDROOT
BRANCH   3   9
HETATM    9  C5  UNL     1     -34.067  13.416  -4.468  1.00 20.00     0.277 C 
HETATM   10  O9  UNL     1     -35.088  12.704  -4.370  1.00 20.00    -0.301 OA
ENDBRANCH   3   9
TORSDOF 1
ENDMDL
MODEL 4
REMARK VINA RESULT:      -4.0     11.862     12.947
REMARK  1 active torsions:
REMARK  status: ('A' for Active; 'I' for Inactive)
REMARK    1  A    between atoms: C3_3  and  C5_5 
ROOT
HETATM    1  C1  UNL     1     -34.259  15.946  -2.258  1.00 20.00     0.030 A 
HETATM    2  C2  UNL     1     -34.452  15.191  -3.433  1.00 20.00    -0.044 A 
HETATM    3  C3  UNL     1     -33.910  17.251  -2.571  1.00 20.00     0.043 A 
HETATM    4  C4  UNL     1     -34.248  15.932  -4.565  1.00 20.00    -0.010 A 
HETATM    5  C6  UNL     1     -34.824  13.795  -3.764  1.00 20.00     0.040 C 
HETATM    6  C7  UNL     1     -34.442  15.175  -5.824  1.00 20.00     0.047 C 
HETATM    7  C8  UNL     1     -34.473  13.711  -5.284  1.00 20.00     0.010 C 
HETATM    8  S10 UNL     1     -33.827  17.524  -4.278  1.00 20.00    -0.091 SA
ENDROOT
BRANCH   3   9
HETATM    9  C5  UNL     1     -33.627  18.336  -1.688  1.00 20.00     0.277 C 
HETATM   10  O9  UNL     1     -32.831  19.262  -1.949  1.00 20.00    -0.301 OA
ENDBRANCH   3   9
TORSDOF 1
ENDMDL
MODEL 5
REMARK VINA RESULT:      -4.0     12.038     13.293
REMARK  1 active torsions:
REMARK  status: ('A' for Active; 'I' for Inactive)
REMARK    1  A    between atoms: C3_3  and  C5_5 
ROOT
HETATM    1  C1  UNL     1     -34.426  15.130  -3.160  1.00 20.00     0.030 A 
HETATM    2  C2  UNL     1     -34.522  15.122  -4.566  1.00 20.00    -0.044 A 
HETATM    3  C3  UNL     1     -34.103  16.399  -2.703  1.00 20.00     0.043 A 
HETATM    4  C4  UNL     1     -34.275  16.352  -5.111  1.00 20.00    -0.010 A 
HETATM    5  C6  UNL     1     -34.827  14.120  -5.616  1.00 20.00     0.040 C 
HETATM    6  C7  UNL     1     -34.366  16.386  -6.589  1.00 20.00     0.047 C 
HETATM    7  C8  UNL     1     -34.380  14.861  -6.918  1.00 20.00     0.010 C 
HETATM    8  S10 UNL     1     -33.926  17.542  -3.990  1.00 20.00    -0.091 SA
ENDROOT
BRANCH   3   9
HETATM    9  C5  UNL     1     -33.911  16.843  -1.360  1.00 20.00     0.277 C 
HETATM   10  O9  UNL     1     -34.714  16.626  -0.429  1.00 20.00    -0.301 OA
ENDBRANCH   3   9
TORSDOF 1
ENDMDL
MODEL 6
REMARK VINA RESULT:      -3.9     11.912     13.009
REMARK  1 active torsions:
REMARK  status: ('A' for Active; 'I' for Inactive)
REMARK    1  A    between atoms: C3_3  and  C5_5 
ROOT
HETATM    1  C1  UNL     1     -33.919  16.766  -4.648  1.00 20.00     0.030 A 
HETATM    2  C2  UNL     1     -33.986  17.116  -3.285  1.00 20.00    -0.044 A 
HETATM    3  C3  UNL     1     -34.427  15.491  -4.848  1.00 20.00     0.043 A 
HETATM    4  C4  UNL     1     -34.528  16.119  -2.519  1.00 20.00    -0.010 A 
HETATM    5  C6  UNL     1     -33.621  18.291  -2.458  1.00 20.00     0.040 C 
HETATM    6  C7  UNL     1     -34.616  16.448  -1.077  1.00 20.00     0.047 C 
HETATM    7  C8  UNL     1     -33.707  17.715  -1.008  1.00 20.00     0.010 C 
HETATM    8  S10 UNL     1     -34.970  14.756  -3.379  1.00 20.00    -0.091 SA
ENDROOT
BRANCH   3   9
HETATM    9  C5  UNL     1     -34.546  14.757  -6.067  1.00 20.00     0.277 C 
HETATM   10  O9  UNL     1     -34.076  15.135  -7.160  1.00 20.00    -0.301 OA
ENDBRANCH   3   9
TORSDOF 1
ENDMDL
MODEL 7
REMARK VINA RESULT:      -3.9     11.678     12.841
REMARK  1 active torsions:
REMARK  status: ('A' for Active; 'I' for Inactive)
REMARK    1  A    between atoms: C3_3  and  C5_5 
ROOT
HETATM    1  C1  UNL     1     -36.086  13.940  -4.138  1.00 20.00     0.030 A 
HETATM    2  C2  UNL     1     -34.732  14.331  -4.095  1.00 20.00    -0.044 A 
HETATM    3  C3  UNL     1     -36.889  15.010  -4.506  1.00 20.00     0.043 A 
HETATM    4  C4  UNL     1     -34.562  15.649  -4.422  1.00 20.00    -0.010 A 
HETATM    5  C6  UNL     1     -33.436  13.681  -3.788  1.00 20.00     0.040 C 
HETATM    6  C7  UNL     1     -33.151  16.100  -4.389  1.00 20.00     0.047 C 
HETATM    7  C8  UNL     1     -32.478  14.908  -3.640  1.00 20.00     0.010 C 
HETATM    8  S10 UNL     1     -35.980  16.455  -4.787  1.00 20.00    -0.091 SA
ENDROOT
BRANCH   3   9
HETATM    9  C5  UNL     1     -38.306  15.048  -4.668  1.00 20.00     0.277 C 
HETATM   10  O9  UNL     1     -39.091  14.215  -4.169  1.00 20.00    -0.301 OA
ENDBRANCH   3   9
TORSDOF 1
ENDMDL
MODEL 8
REMARK VINA RESULT:      -3.9     12.018     12.972
REMARK  1 active torsions:
REMARK  status: ('A' for Active; 'I' for Inactive)
REMARK    1  A    between atoms: C3_3  and  C5_5 
ROOT
HETATM    1  C1  UNL     1     -34.581  16.612  -0.795  1.00 20.00     0.030 A 
HETATM    2  C2  UNL     1     -34.337  16.292  -2.146  1.00 20.00    -0.044 A 
HETATM    3  C3  UNL     1     -34.238  17.930  -0.537  1.00 20.00     0.043 A 
HETATM    4  C4  UNL     1     -33.829  17.353  -2.846  1.00 20.00    -0.010 A 
HETATM    5  C6  UNL     1     -34.489  15.099  -3.012  1.00 20.00     0.040 C 
HETATM    6  C7  UNL     1     -33.558  17.059  -4.273  1.00 20.00     0.047 C 
HETATM    7  C8  UNL     1     -33.663  15.501  -4.277  1.00 20.00     0.010 C 
HETATM    8  S10 UNL     1     -33.630  18.743  -1.939  1.00 20.00    -0.091 SA
ENDROOT
BRANCH   3   9
HETATM    9  C5  UNL     1     -34.326  18.653   0.690  1.00 20.00     0.277 C 
HETATM   10  O9  UNL     1     -33.584  18.454   1.675  1.00 20.00    -0.301 OA
ENDBRANCH   3   9
TORSDOF 1
ENDMDL
MODEL 9
REMARK VINA RESULT:      -3.9     11.603     12.376
REMARK  1 active torsions:
REMARK  status: ('A' for Active; 'I' for Inactive)
REMARK    1  A    between atoms: C3_3  and  C5_5 
ROOT
HETATM    1  C1  UNL     1     -33.663  16.232  -2.577  1.00 20.00     0.030 A 
HETATM    2  C2  UNL     1     -34.203  15.104  -3.227  1.00 20.00    -0.044 A 
HETATM    3  C3  UNL     1     -34.644  17.192  -2.374  1.00 20.00     0.043 A 
HETATM    4  C4  UNL     1     -35.538  15.245  -3.489  1.00 20.00    -0.010 A 
HETATM    5  C6  UNL     1     -33.697  13.794  -3.703  1.00 20.00     0.040 C 
HETATM    6  C7  UNL     1     -36.145  14.079  -4.173  1.00 20.00     0.047 C 
HETATM    7  C8  UNL     1     -34.867  13.300  -4.614  1.00 20.00     0.010 C 
HETATM    8  S10 UNL     1     -36.189  16.698  -2.978  1.00 20.00    -0.091 SA
ENDROOT
BRANCH   3   9
HETATM    9  C5  UNL     1     -34.526  18.473  -1.756  1.00 20.00     0.277 C 
HETATM   10  O9  UNL     1     -33.664  18.761  -0.899  1.00 20.00    -0.301 OA
ENDBRANCH   3   9
TORSDOF 1
ENDMDL
