MODEL 1
REMARK VINA RESULT:      -4.5      0.000      0.000
REMARK  2 active torsions:
REMARK  status: ('A' for Active; 'I' for Inactive)
REMARK    1  A    between atoms: C1_1  and  C9_9 
REMARK    2  A    between atoms: C8_8  and  C9_9 
ROOT
HETATM    1  C2  UNL     1     -35.424   5.055   6.672  1.00 20.00     0.005 C 
HETATM    2  C3  UNL     1     -34.343   6.147   6.647  1.00 20.00     0.005 C 
HETATM    3  C4  UNL     1     -33.512   4.235   5.516  1.00 20.00     0.009 C 
HETATM    4  C5  UNL     1     -35.360   4.891   4.170  1.00 20.00     0.010 C 
HETATM    5  C6  UNL     1     -35.036   4.157   5.485  1.00 20.00    -0.014 C 
HETATM    6  C7  UNL     1     -33.493   5.762   5.421  1.00 20.00    -0.010 C 
HETATM    7  C8  UNL     1     -34.326   6.038   4.146  1.00 20.00    -0.004 C 
ENDROOT
BRANCH   7   8
HETATM    8  C9  UNL     1     -33.484   6.031   2.875  1.00 20.00     0.074 C 
BRANCH   8   9
HETATM    9  C1  UNL     1     -32.252   6.886   2.998  1.00 20.00     0.231 C 
HETATM   10  O10 UNL     1     -32.017   7.883   2.323  1.00 20.00    -0.307 OA
ENDBRANCH   8   9
ENDBRANCH   7   8
TORSDOF 2
ENDMDL
MODEL 2
REMARK VINA RESULT:      -4.4      0.951      1.947
REMARK  2 active torsions:
REMARK  status: ('A' for Active; 'I' for Inactive)
REMARK    1  A    between atoms: C1_1  and  C9_9 
REMARK    2  A    between atoms: C8_8  and  C9_9 
ROOT
HETATM    1  C2  UNL     1     -34.889   4.827   6.127  1.00 20.00     0.005 C 
HETATM    2  C3  UNL     1     -34.816   3.903   4.902  1.00 20.00     0.005 C 
HETATM    3  C4  UNL     1     -35.477   6.065   4.181  1.00 20.00     0.009 C 
HETATM    4  C5  UNL     1     -33.294   6.434   5.048  1.00 20.00     0.010 C 
HETATM    5  C6  UNL     1     -34.748   6.230   5.512  1.00 20.00    -0.014 C 
HETATM    6  C7  UNL     1     -34.602   4.891   3.739  1.00 20.00    -0.010 C 
HETATM    7  C8  UNL     1     -33.170   5.468   3.850  1.00 20.00    -0.004 C 
ENDROOT
BRANCH   7   8
HETATM    8  C9  UNL     1     -32.717   6.179   2.579  1.00 20.00     0.074 C 
BRANCH   8   9
HETATM    9  C1  UNL     1     -32.147   7.544   2.856  1.00 20.00     0.231 C 
HETATM   10  O10 UNL     1     -32.145   8.480   2.063  1.00 20.00    -0.307 OA
ENDBRANCH   8   9
ENDBRANCH   7   8
TORSDOF 2
ENDMDL
MODEL 3
REMARK VINA RESULT:      -4.4     12.200     12.985
REMARK  2 active torsions:
REMARK  status: ('A' for Active; 'I' for Inactive)
REMARK    1  A    between atoms: C1_1  and  C9_9 
REMARK    2  A    between atoms: C8_8  and  C9_9 
ROOT
HETATM    1  C2  UNL     1     -33.468  17.526  -1.273  1.00 20.00     0.005 C 
HETATM    2  C3  UNL     1     -34.653  16.761  -0.665  1.00 20.00     0.005 C 
HETATM    3  C4  UNL     1     -35.300  17.591  -2.791  1.00 20.00     0.009 C 
HETATM    4  C5  UNL     1     -33.543  16.078  -3.319  1.00 20.00     0.010 C 
HETATM    5  C6  UNL     1     -33.776  17.501  -2.780  1.00 20.00    -0.014 C 
HETATM    6  C7  UNL     1     -35.473  16.357  -1.905  1.00 20.00    -0.010 C 
HETATM    7  C8  UNL     1     -34.687  15.267  -2.674  1.00 20.00    -0.004 C 
ENDROOT
BRANCH   7   8
HETATM    8  C9  UNL     1     -35.539  14.542  -3.710  1.00 20.00     0.074 C 
BRANCH   8   9
HETATM    9  C1  UNL     1     -34.708  13.749  -4.682  1.00 20.00     0.231 C 
HETATM   10  O10 UNL     1     -34.781  12.535  -4.842  1.00 20.00    -0.307 OA
ENDBRANCH   8   9
ENDBRANCH   7   8
TORSDOF 2
ENDMDL
MODEL 4
REMARK VINA RESULT:      -4.3     11.813     12.821
REMARK  2 active torsions:
REMARK  status: ('A' for Active; 'I' for Inactive)
REMARK    1  A    between atoms: C1_1  and  C9_9 
REMARK    2  A    between atoms: C8_8  and  C9_9 
ROOT
HETATM    1  C2  UNL     1     -34.731  13.297  -4.313  1.00 20.00     0.005 C 
HETATM    2  C3  UNL     1     -33.335  13.591  -3.745  1.00 20.00     0.005 C 
HETATM    3  C4  UNL     1     -34.058  15.477  -4.989  1.00 20.00     0.009 C 
HETATM    4  C5  UNL     1     -35.645  15.362  -3.221  1.00 20.00     0.010 C 
HETATM    5  C6  UNL     1     -35.304  14.701  -4.570  1.00 20.00    -0.014 C 
HETATM    6  C7  UNL     1     -33.296  15.131  -3.709  1.00 20.00    -0.010 C 
HETATM    7  C8  UNL     1     -34.256  15.615  -2.595  1.00 20.00    -0.004 C 
ENDROOT
BRANCH   7   8
HETATM    8  C9  UNL     1     -34.046  17.080  -2.227  1.00 20.00     0.074 C 
BRANCH   8   9
HETATM    9  C1  UNL     1     -34.037  17.302  -0.739  1.00 20.00     0.231 C 
HETATM   10  O10 UNL     1     -34.880  16.870   0.042  1.00 20.00    -0.307 OA
ENDBRANCH   8   9
ENDBRANCH   7   8
TORSDOF 2
ENDMDL
MODEL 5
REMARK VINA RESULT:      -4.3     11.724     13.121
REMARK  2 active torsions:
REMARK  status: ('A' for Active; 'I' for Inactive)
REMARK    1  A    between atoms: C1_1  and  C9_9 
REMARK    2  A    between atoms: C8_8  and  C9_9 
ROOT
HETATM    1  C2  UNL     1     -34.504  18.100  -1.389  1.00 20.00     0.005 C 
HETATM    2  C3  UNL     1     -34.532  16.657  -0.861  1.00 20.00     0.005 C 
HETATM    3  C4  UNL     1     -35.868  16.771  -2.818  1.00 20.00     0.009 C 
HETATM    4  C5  UNL     1     -33.693  17.298  -3.623  1.00 20.00     0.010 C 
HETATM    5  C6  UNL     1     -34.878  17.933  -2.872  1.00 20.00    -0.014 C 
HETATM    6  C7  UNL     1     -34.879  15.837  -2.118  1.00 20.00    -0.010 C 
HETATM    7  C8  UNL     1     -33.655  15.859  -3.066  1.00 20.00    -0.004 C 
ENDROOT
BRANCH   7   8
HETATM    8  C9  UNL     1     -33.741  14.809  -4.168  1.00 20.00     0.074 C 
BRANCH   8   9
HETATM    9  C1  UNL     1     -34.516  13.591  -3.742  1.00 20.00     0.231 C 
HETATM   10  O10 UNL     1     -34.905  12.706  -4.497  1.00 20.00    -0.307 OA
ENDBRANCH   8   9
ENDBRANCH   7   8
TORSDOF 2
ENDMDL
MODEL 6
REMARK VINA RESULT:      -4.2     11.929     13.070
REMARK  2 active torsions:
REMARK  status: ('A' for Active; 'I' for Inactive)
REMARK    1  A    between atoms: C1_1  and  C9_9 
REMARK    2  A    between atoms: C8_8  and  C9_9 
ROOT
HETATM    1  C2  UNL     1     -35.204  18.441  -2.372  1.00 20.00     0.005 C 
HETATM    2  C3  UNL     1     -33.729  18.081  -2.610  1.00 20.00     0.005 C 
HETATM    3  C4  UNL     1     -34.655  16.512  -1.091  1.00 20.00     0.009 C 
HETATM    4  C5  UNL     1     -35.910  16.139  -3.075  1.00 20.00     0.010 C 
HETATM    5  C6  UNL     1     -35.810  17.113  -1.887  1.00 20.00    -0.014 C 
HETATM    6  C7  UNL     1     -33.683  16.580  -2.270  1.00 20.00    -0.010 C 
HETATM    7  C8  UNL     1     -34.434  15.806  -3.381  1.00 20.00    -0.004 C 
ENDROOT
BRANCH   7   8
HETATM    8  C9  UNL     1     -34.161  14.306  -3.346  1.00 20.00     0.074 C 
BRANCH   8   9
HETATM    9  C1  UNL     1     -35.126  13.528  -4.198  1.00 20.00     0.231 C 
HETATM   10  O10 UNL     1     -34.845  12.520  -4.840  1.00 20.00    -0.307 OA
ENDBRANCH   8   9
ENDBRANCH   7   8
TORSDOF 2
ENDMDL
MODEL 7
REMARK VINA RESULT:      -4.1     12.318     13.155
REMARK  2 active torsions:
REMARK  status: ('A' for Active; 'I' for Inactive)
REMARK    1  A    between atoms: C1_1  and  C9_9 
REMARK    2  A    between atoms: C8_8  and  C9_9 
ROOT
HETATM    1  C2  UNL     1     -33.515  17.189  -1.448  1.00 20.00     0.005 C 
HETATM    2  C3  UNL     1     -34.851  16.601  -0.968  1.00 20.00     0.005 C 
HETATM    3  C4  UNL     1     -35.133  17.415  -3.179  1.00 20.00     0.009 C 
HETATM    4  C5  UNL     1     -33.533  15.677  -3.449  1.00 20.00     0.010 C 
HETATM    5  C6  UNL     1     -33.645  17.139  -2.980  1.00 20.00    -0.014 C 
HETATM    6  C7  UNL     1     -35.565  16.249  -2.287  1.00 20.00    -0.010 C 
HETATM    7  C8  UNL     1     -34.839  15.040  -2.925  1.00 20.00    -0.004 C 
ENDROOT
BRANCH   7   8
HETATM    8  C9  UNL     1     -35.648  14.383  -4.038  1.00 20.00     0.074 C 
BRANCH   8   9
HETATM    9  C1  UNL     1     -37.088  14.821  -4.036  1.00 20.00     0.231 C 
HETATM   10  O10 UNL     1     -38.037  14.115  -3.708  1.00 20.00    -0.307 OA
ENDBRANCH   8   9
ENDBRANCH   7   8
TORSDOF 2
ENDMDL
MODEL 8
REMARK VINA RESULT:      -4.1     12.047     13.215
REMARK  2 active torsions:
REMARK  status: ('A' for Active; 'I' for Inactive)
REMARK    1  A    between atoms: C1_1  and  C9_9 
REMARK    2  A    between atoms: C8_8  and  C9_9 
ROOT
HETATM    1  C2  UNL     1     -34.508  14.602  -5.508  1.00 20.00     0.005 C 
HETATM    2  C3  UNL     1     -34.757  13.659  -4.322  1.00 20.00     0.005 C 
HETATM    3  C4  UNL     1     -32.891  15.034  -3.816  1.00 20.00     0.009 C 
HETATM    4  C5  UNL     1     -34.674  16.597  -3.997  1.00 20.00     0.010 C 
HETATM    5  C6  UNL     1     -33.721  15.760  -4.871  1.00 20.00    -0.014 C 
HETATM    6  C7  UNL     1     -34.117  14.415  -3.142  1.00 20.00    -0.010 C 
HETATM    7  C8  UNL     1     -34.994  15.649  -2.821  1.00 20.00    -0.004 C 
ENDROOT
BRANCH   7   8
HETATM    8  C9  UNL     1     -34.666  16.274  -1.470  1.00 20.00     0.074 C 
BRANCH   8   9
HETATM    9  C1  UNL     1     -34.257  17.717  -1.588  1.00 20.00     0.231 C 
HETATM   10  O10 UNL     1     -33.234  18.199  -1.112  1.00 20.00    -0.307 OA
ENDBRANCH   8   9
ENDBRANCH   7   8
TORSDOF 2
ENDMDL
MODEL 9
REMARK VINA RESULT:      -4.1      9.698     10.882
REMARK  2 active torsions:
REMARK  status: ('A' for Active; 'I' for Inactive)
REMARK    1  A    between atoms: C1_1  and  C9_9 
REMARK    2  A    between atoms: C8_8  and  C9_9 
ROOT
HETATM    1  C2  UNL     1     -40.732   4.665  -0.688  1.00 20.00     0.005 C 
HETATM    2  C3  UNL     1     -41.564   4.335  -1.936  1.00 20.00     0.005 C 
HETATM    3  C4  UNL     1     -42.865   5.703  -0.500  1.00 20.00     0.009 C 
HETATM    4  C5  UNL     1     -41.049   7.120  -1.088  1.00 20.00     0.010 C 
HETATM    5  C6  UNL     1     -41.397   5.946  -0.156  1.00 20.00    -0.014 C 
HETATM    6  C7  UNL     1     -42.580   5.492  -1.988  1.00 20.00    -0.010 C 
HETATM    7  C8  UNL     1     -41.824   6.785  -2.381  1.00 20.00    -0.004 C 
ENDROOT
BRANCH   7   8
HETATM    8  C9  UNL     1     -42.760   7.912  -2.803  1.00 20.00     0.074 C 
BRANCH   8   9
HETATM    9  C1  UNL     1     -42.609   8.269  -4.257  1.00 20.00     0.231 C 
HETATM   10  O10 UNL     1     -43.417   7.989  -5.137  1.00 20.00    -0.307 OA
ENDBRANCH   8   9
ENDBRANCH   7   8
TORSDOF 2
ENDMDL
