MODEL 1
REMARK VINA RESULT:      -4.2      0.000      0.000
REMARK  2 active torsions:
REMARK  status: ('A' for Active; 'I' for Inactive)
REMARK    1  A    between atoms: C1_1  and  C3_3 
REMARK    2  A    between atoms: C3_3  and  C5_5 
ROOT
HETATM    1  C3  UNL     1     -34.464   5.669   4.122  1.00 20.00     0.168 C 
HETATM    2  O6  UNL     1     -34.807   4.920   3.210  1.00 20.00    -0.292 OA
ENDROOT
BRANCH   1   3
HETATM    3  C1  UNL     1     -33.546   6.820   3.876  1.00 20.00     0.063 C 
HETATM    4  C2  UNL     1     -32.713   6.804   2.834  1.00 20.00     0.088 C 
HETATM    5 CL7  UNL     1     -31.634   8.092   2.495  1.00 20.00    -0.097 Cl
ENDBRANCH   1   3
BRANCH   1   6
HETATM    6  C5  UNL     1     -34.900   5.467   5.563  1.00 20.00     0.152 C 
HETATM    7  C4  UNL     1     -34.652   4.035   6.002  1.00 20.00     0.035 C 
HETATM    8 CL8  UNL     1     -33.985   6.593   6.600  1.00 20.00    -0.117 Cl
ENDBRANCH   1   6
TORSDOF 2
ENDMDL
MODEL 2
REMARK VINA RESULT:      -4.0      1.982      1.982
REMARK  2 active torsions:
REMARK  status: ('A' for Active; 'I' for Inactive)
REMARK    1  A    between atoms: C1_1  and  C3_3 
REMARK    2  A    between atoms: C3_3  and  C5_5 
ROOT
HETATM    1  C3  UNL     1     -33.837   6.267   5.156  1.00 20.00     0.168 C 
HETATM    2  O6  UNL     1     -33.591   6.590   6.315  1.00 20.00    -0.292 OA
ENDROOT
BRANCH   1   3
HETATM    3  C1  UNL     1     -33.460   7.147   4.010  1.00 20.00     0.063 C 
HETATM    4  C2  UNL     1     -32.329   6.927   3.338  1.00 20.00     0.088 C 
HETATM    5 CL7  UNL     1     -31.838   7.899   2.014  1.00 20.00    -0.097 Cl
ENDBRANCH   1   3
BRANCH   1   6
HETATM    6  C5  UNL     1     -34.570   4.987   4.794  1.00 20.00     0.152 C 
HETATM    7  C4  UNL     1     -35.108   4.308   6.040  1.00 20.00     0.035 C 
HETATM    8 CL8  UNL     1     -35.909   5.390   3.688  1.00 20.00    -0.117 Cl
ENDBRANCH   1   6
TORSDOF 2
ENDMDL
MODEL 3
REMARK VINA RESULT:      -3.8      1.854      2.208
REMARK  2 active torsions:
REMARK  status: ('A' for Active; 'I' for Inactive)
REMARK    1  A    between atoms: C1_1  and  C3_3 
REMARK    2  A    between atoms: C3_3  and  C5_5 
ROOT
HETATM    1  C3  UNL     1     -32.606   6.523   3.383  1.00 20.00     0.168 C 
HETATM    2  O6  UNL     1     -31.917   5.510   3.288  1.00 20.00    -0.292 OA
ENDROOT
BRANCH   1   3
HETATM    3  C1  UNL     1     -32.115   7.843   2.889  1.00 20.00     0.063 C 
HETATM    4  C2  UNL     1     -32.630   8.379   1.781  1.00 20.00     0.088 C 
HETATM    5 CL7  UNL     1     -32.111   9.890   1.159  1.00 20.00    -0.097 Cl
ENDBRANCH   1   3
BRANCH   1   6
HETATM    6  C5  UNL     1     -33.976   6.530   4.038  1.00 20.00     0.152 C 
HETATM    7  C4  UNL     1     -34.799   5.343   3.570  1.00 20.00     0.035 C 
HETATM    8 CL8  UNL     1     -33.764   6.469   5.807  1.00 20.00    -0.117 Cl
ENDBRANCH   1   6
TORSDOF 2
ENDMDL
MODEL 4
REMARK VINA RESULT:      -3.8     11.681     12.776
REMARK  2 active torsions:
REMARK  status: ('A' for Active; 'I' for Inactive)
REMARK    1  A    between atoms: C1_1  and  C3_3 
REMARK    2  A    between atoms: C3_3  and  C5_5 
ROOT
HETATM    1  C3  UNL     1     -34.603  13.835  -4.588  1.00 20.00     0.168 C 
HETATM    2  O6  UNL     1     -34.991  12.680  -4.429  1.00 20.00    -0.292 OA
ENDROOT
BRANCH   1   3
HETATM    3  C1  UNL     1     -34.155  14.667  -3.432  1.00 20.00     0.063 C 
HETATM    4  C2  UNL     1     -35.050  15.324  -2.692  1.00 20.00     0.088 C 
HETATM    5 CL7  UNL     1     -34.603  16.297  -1.353  1.00 20.00    -0.097 Cl
ENDBRANCH   1   3
BRANCH   1   6
HETATM    6  C5  UNL     1     -34.584  14.520  -5.943  1.00 20.00     0.152 C 
HETATM    7  C4  UNL     1     -35.997  14.814  -6.414  1.00 20.00     0.035 C 
HETATM    8 CL8  UNL     1     -33.656  16.037  -5.803  1.00 20.00    -0.117 Cl
ENDBRANCH   1   6
TORSDOF 2
ENDMDL
MODEL 5
REMARK VINA RESULT:      -3.7     11.966     12.797
REMARK  2 active torsions:
REMARK  status: ('A' for Active; 'I' for Inactive)
REMARK    1  A    between atoms: C1_1  and  C3_3 
REMARK    2  A    between atoms: C3_3  and  C5_5 
ROOT
HETATM    1  C3  UNL     1     -33.683  15.380  -4.130  1.00 20.00     0.168 C 
HETATM    2  O6  UNL     1     -32.830  16.170  -4.527  1.00 20.00    -0.292 OA
ENDROOT
BRANCH   1   3
HETATM    3  C1  UNL     1     -34.322  15.538  -2.790  1.00 20.00     0.063 C 
HETATM    4  C2  UNL     1     -33.968  16.547  -1.992  1.00 20.00     0.088 C 
HETATM    5 CL7  UNL     1     -34.660  16.786  -0.443  1.00 20.00    -0.097 Cl
ENDBRANCH   1   3
BRANCH   1   6
HETATM    6  C5  UNL     1     -34.125  14.169  -4.934  1.00 20.00     0.152 C 
HETATM    7  C4  UNL     1     -35.328  13.507  -4.288  1.00 20.00     0.035 C 
HETATM    8 CL8  UNL     1     -34.532  14.700  -6.587  1.00 20.00    -0.117 Cl
ENDBRANCH   1   6
TORSDOF 2
ENDMDL
MODEL 6
REMARK VINA RESULT:      -3.7     12.481     13.167
REMARK  2 active torsions:
REMARK  status: ('A' for Active; 'I' for Inactive)
REMARK    1  A    between atoms: C1_1  and  C3_3 
REMARK    2  A    between atoms: C3_3  and  C5_5 
ROOT
HETATM    1  C3  UNL     1     -33.615  15.827  -4.500  1.00 20.00     0.168 C 
HETATM    2  O6  UNL     1     -32.818  16.534  -5.112  1.00 20.00    -0.292 OA
ENDROOT
BRANCH   1   3
HETATM    3  C1  UNL     1     -33.648  15.810  -3.008  1.00 20.00     0.063 C 
HETATM    4  C2  UNL     1     -34.556  16.533  -2.348  1.00 20.00     0.088 C 
HETATM    5 CL7  UNL     1     -34.648  16.560  -0.637  1.00 20.00    -0.097 Cl
ENDBRANCH   1   3
BRANCH   1   6
HETATM    6  C5  UNL     1     -34.591  14.892  -5.194  1.00 20.00     0.152 C 
HETATM    7  C4  UNL     1     -34.447  14.992  -6.702  1.00 20.00     0.035 C 
HETATM    8 CL8  UNL     1     -34.264  13.224  -4.656  1.00 20.00    -0.117 Cl
ENDBRANCH   1   6
TORSDOF 2
ENDMDL
MODEL 7
REMARK VINA RESULT:      -3.5     11.846     12.503
REMARK  2 active torsions:
REMARK  status: ('A' for Active; 'I' for Inactive)
REMARK    1  A    between atoms: C1_1  and  C3_3 
REMARK    2  A    between atoms: C3_3  and  C5_5 
ROOT
HETATM    1  C3  UNL     1     -34.751  15.586  -2.696  1.00 20.00     0.168 C 
HETATM    2  O6  UNL     1     -35.831  15.229  -3.160  1.00 20.00    -0.292 OA
ENDROOT
BRANCH   1   3
HETATM    3  C1  UNL     1     -34.675  16.374  -1.431  1.00 20.00     0.063 C 
HETATM    4  C2  UNL     1     -33.698  17.266  -1.254  1.00 20.00     0.088 C 
HETATM    5 CL7  UNL     1     -33.552  18.203   0.173  1.00 20.00    -0.097 Cl
ENDBRANCH   1   3
BRANCH   1   6
HETATM    6  C5  UNL     1     -33.425  15.299  -3.378  1.00 20.00     0.152 C 
HETATM    7  C4  UNL     1     -33.344  13.842  -3.800  1.00 20.00     0.035 C 
HETATM    8 CL8  UNL     1     -33.274  16.359  -4.804  1.00 20.00    -0.117 Cl
ENDBRANCH   1   6
TORSDOF 2
ENDMDL
MODEL 8
REMARK VINA RESULT:      -3.5      1.368      3.963
REMARK  2 active torsions:
REMARK  status: ('A' for Active; 'I' for Inactive)
REMARK    1  A    between atoms: C1_1  and  C3_3 
REMARK    2  A    between atoms: C3_3  and  C5_5 
ROOT
HETATM    1  C3  UNL     1     -33.068   6.279   3.146  1.00 20.00     0.168 C 
HETATM    2  O6  UNL     1     -33.591   5.564   2.295  1.00 20.00    -0.292 OA
ENDROOT
BRANCH   1   3
HETATM    3  C1  UNL     1     -33.605   6.347   4.537  1.00 20.00     0.063 C 
HETATM    4  C2  UNL     1     -34.303   5.326   5.038  1.00 20.00     0.088 C 
HETATM    5 CL7  UNL     1     -34.948   5.339   6.626  1.00 20.00    -0.097 Cl
ENDBRANCH   1   3
BRANCH   1   6
HETATM    6  C5  UNL     1     -31.877   7.174   2.853  1.00 20.00     0.152 C 
HETATM    7  C4  UNL     1     -32.275   8.310   1.928  1.00 20.00     0.035 C 
HETATM    8 CL8  UNL     1     -31.259   7.826   4.393  1.00 20.00    -0.117 Cl
ENDBRANCH   1   6
TORSDOF 2
ENDMDL
MODEL 9
REMARK VINA RESULT:      -3.4     11.705     12.510
REMARK  2 active torsions:
REMARK  status: ('A' for Active; 'I' for Inactive)
REMARK    1  A    between atoms: C1_1  and  C3_3 
REMARK    2  A    between atoms: C3_3  and  C5_5 
ROOT
HETATM    1  C3  UNL     1     -34.295  14.390  -3.494  1.00 20.00     0.168 C 
HETATM    2  O6  UNL     1     -34.003  13.215  -3.701  1.00 20.00    -0.292 OA
ENDROOT
BRANCH   1   3
HETATM    3  C1  UNL     1     -35.716  14.819  -3.335  1.00 20.00     0.063 C 
HETATM    4  C2  UNL     1     -36.655  14.348  -4.157  1.00 20.00     0.088 C 
HETATM    5 CL7  UNL     1     -38.304  14.800  -4.030  1.00 20.00    -0.097 Cl
ENDBRANCH   1   3
BRANCH   1   6
HETATM    6  C5  UNL     1     -33.258  15.498  -3.425  1.00 20.00     0.152 C 
HETATM    7  C4  UNL     1     -33.209  16.267  -4.733  1.00 20.00     0.035 C 
HETATM    8 CL8  UNL     1     -33.683  16.595  -2.085  1.00 20.00    -0.117 Cl
ENDBRANCH   1   6
TORSDOF 2
ENDMDL
