MODEL 1
REMARK VINA RESULT:      -4.1      0.000      0.000
REMARK  2 active torsions:
REMARK  status: ('A' for Active; 'I' for Inactive)
REMARK    1  A    between atoms: C4_4  and  C6_6 
REMARK    2  A    between atoms: C6_6  and  N7_7 
ROOT
HETATM    1  C1  UNL     1     -32.166   7.340   2.950  1.00 20.00     0.332 C 
HETATM    2  N7  UNL     1     -32.284   6.664   3.894  1.00 20.00    -0.242 NA
HETATM    3  O8  UNL     1     -32.031   8.019   1.998  1.00 20.00    -0.260 OA
ENDROOT
BRANCH   2   4
HETATM    4  C6  UNL     1     -33.663   6.617   4.424  1.00 20.00     0.112 C 
HETATM    5  C5  UNL     1     -33.577   6.635   5.955  1.00 20.00     0.035 C 
BRANCH   4   6
HETATM    6  C4  UNL     1     -34.374   5.419   3.898  1.00 20.00     0.010 A 
HETATM    7  C2  UNL     1     -35.182   4.551   4.823  1.00 20.00     0.007 A 
HETATM    8  C3  UNL     1     -35.875   5.411   3.802  1.00 20.00     0.007 A 
ENDBRANCH   4   6
ENDBRANCH   2   4
TORSDOF 2
ENDMDL
MODEL 2
REMARK VINA RESULT:      -4.1      2.692      3.858
REMARK  2 active torsions:
REMARK  status: ('A' for Active; 'I' for Inactive)
REMARK    1  A    between atoms: C4_4  and  C6_6 
REMARK    2  A    between atoms: C6_6  and  N7_7 
ROOT
HETATM    1  C1  UNL     1     -34.705   5.142   6.047  1.00 20.00     0.332 C 
HETATM    2  N7  UNL     1     -34.183   6.158   5.802  1.00 20.00    -0.242 NA
HETATM    3  O8  UNL     1     -35.227   4.121   6.309  1.00 20.00    -0.260 OA
ENDROOT
BRANCH   2   4
HETATM    4  C6  UNL     1     -34.108   6.455   4.356  1.00 20.00     0.112 C 
HETATM    5  C5  UNL     1     -34.978   5.427   3.622  1.00 20.00     0.035 C 
BRANCH   4   6
HETATM    6  C4  UNL     1     -32.690   6.442   3.903  1.00 20.00     0.010 A 
HETATM    7  C2  UNL     1     -32.342   5.975   2.517  1.00 20.00     0.007 A 
HETATM    8  C3  UNL     1     -32.215   7.430   2.873  1.00 20.00     0.007 A 
ENDBRANCH   4   6
ENDBRANCH   2   4
TORSDOF 2
ENDMDL
MODEL 3
REMARK VINA RESULT:      -4.1      1.133      1.900
REMARK  2 active torsions:
REMARK  status: ('A' for Active; 'I' for Inactive)
REMARK    1  A    between atoms: C4_4  and  C6_6 
REMARK    2  A    between atoms: C6_6  and  N7_7 
ROOT
HETATM    1  C1  UNL     1     -32.631   7.259   3.072  1.00 20.00     0.332 C 
HETATM    2  N7  UNL     1     -33.442   7.023   3.878  1.00 20.00    -0.242 NA
HETATM    3  O8  UNL     1     -31.814   7.513   2.264  1.00 20.00    -0.260 OA
ENDROOT
BRANCH   2   4
HETATM    4  C6  UNL     1     -33.810   5.594   3.951  1.00 20.00     0.112 C 
HETATM    5  C5  UNL     1     -34.266   5.156   2.553  1.00 20.00     0.035 C 
BRANCH   4   6
HETATM    6  C4  UNL     1     -34.854   5.385   4.992  1.00 20.00     0.010 A 
HETATM    7  C2  UNL     1     -35.058   4.025   5.599  1.00 20.00     0.007 A 
HETATM    8  C3  UNL     1     -34.458   5.131   6.421  1.00 20.00     0.007 A 
ENDBRANCH   4   6
ENDBRANCH   2   4
TORSDOF 2
ENDMDL
MODEL 4
REMARK VINA RESULT:      -4.1      2.748      3.642
REMARK  2 active torsions:
REMARK  status: ('A' for Active; 'I' for Inactive)
REMARK    1  A    between atoms: C4_4  and  C6_6 
REMARK    2  A    between atoms: C6_6  and  N7_7 
ROOT
HETATM    1  C1  UNL     1     -34.992   4.407   5.471  1.00 20.00     0.332 C 
HETATM    2  N7  UNL     1     -34.852   5.430   6.015  1.00 20.00    -0.242 NA
HETATM    3  O8  UNL     1     -35.147   3.373   4.930  1.00 20.00    -0.260 OA
ENDROOT
BRANCH   2   4
HETATM    4  C6  UNL     1     -33.598   6.127   5.660  1.00 20.00     0.112 C 
HETATM    5  C5  UNL     1     -33.432   7.310   6.621  1.00 20.00     0.035 C 
BRANCH   4   6
HETATM    6  C4  UNL     1     -33.631   6.543   4.230  1.00 20.00     0.010 A 
HETATM    7  C2  UNL     1     -32.436   7.209   3.608  1.00 20.00     0.007 A 
HETATM    8  C3  UNL     1     -32.807   5.808   3.209  1.00 20.00     0.007 A 
ENDBRANCH   4   6
ENDBRANCH   2   4
TORSDOF 2
ENDMDL
MODEL 5
REMARK VINA RESULT:      -4.0     11.040     12.102
REMARK  2 active torsions:
REMARK  status: ('A' for Active; 'I' for Inactive)
REMARK    1  A    between atoms: C4_4  and  C6_6 
REMARK    2  A    between atoms: C6_6  and  N7_7 
ROOT
HETATM    1  C1  UNL     1     -34.220  13.457  -4.162  1.00 20.00     0.332 C 
HETATM    2  N7  UNL     1     -33.397  14.241  -3.892  1.00 20.00    -0.242 NA
HETATM    3  O8  UNL     1     -35.038  12.656  -4.434  1.00 20.00    -0.260 OA
ENDROOT
BRANCH   2   4
HETATM    4  C6  UNL     1     -33.904  15.626  -3.796  1.00 20.00     0.112 C 
HETATM    5  C5  UNL     1     -33.270  16.436  -4.935  1.00 20.00     0.035 C 
BRANCH   4   6
HETATM    6  C4  UNL     1     -33.606  16.189  -2.450  1.00 20.00     0.010 A 
HETATM    7  C2  UNL     1     -34.063  17.575  -2.090  1.00 20.00     0.007 A 
HETATM    8  C3  UNL     1     -34.711  16.380  -1.448  1.00 20.00     0.007 A 
ENDBRANCH   4   6
ENDBRANCH   2   4
TORSDOF 2
ENDMDL
MODEL 6
REMARK VINA RESULT:      -4.0     11.226     12.042
REMARK  2 active torsions:
REMARK  status: ('A' for Active; 'I' for Inactive)
REMARK    1  A    between atoms: C4_4  and  C6_6 
REMARK    2  A    between atoms: C6_6  and  N7_7 
ROOT
HETATM    1  C1  UNL     1     -35.363  13.508  -4.267  1.00 20.00     0.332 C 
HETATM    2  N7  UNL     1     -36.143  14.288  -3.882  1.00 20.00    -0.242 NA
HETATM    3  O8  UNL     1     -34.589  12.710  -4.654  1.00 20.00    -0.260 OA
ENDROOT
BRANCH   2   4
HETATM    4  C6  UNL     1     -35.570  15.627  -3.633  1.00 20.00     0.112 C 
HETATM    5  C5  UNL     1     -34.974  16.134  -4.952  1.00 20.00     0.035 C 
BRANCH   4   6
HETATM    6  C4  UNL     1     -34.569  15.560  -2.533  1.00 20.00     0.010 A 
HETATM    7  C2  UNL     1     -33.664  16.729  -2.260  1.00 20.00     0.007 A 
HETATM    8  C3  UNL     1     -34.756  16.381  -1.287  1.00 20.00     0.007 A 
ENDBRANCH   4   6
ENDBRANCH   2   4
TORSDOF 2
ENDMDL
MODEL 7
REMARK VINA RESULT:      -3.8     11.391     11.912
REMARK  2 active torsions:
REMARK  status: ('A' for Active; 'I' for Inactive)
REMARK    1  A    between atoms: C4_4  and  C6_6 
REMARK    2  A    between atoms: C6_6  and  N7_7 
ROOT
HETATM    1  C1  UNL     1     -37.081  15.037  -3.503  1.00 20.00     0.332 C 
HETATM    2  N7  UNL     1     -36.335  15.882  -3.198  1.00 20.00    -0.242 NA
HETATM    3  O8  UNL     1     -37.844  14.196  -3.813  1.00 20.00    -0.260 OA
ENDROOT
BRANCH   2   4
HETATM    4  C6  UNL     1     -35.044  15.380  -2.682  1.00 20.00     0.112 C 
HETATM    5  C5  UNL     1     -34.461  16.453  -1.755  1.00 20.00     0.035 C 
BRANCH   4   6
HETATM    6  C4  UNL     1     -34.139  15.038  -3.814  1.00 20.00     0.010 A 
HETATM    7  C2  UNL     1     -32.675  14.798  -3.567  1.00 20.00     0.007 A 
HETATM    8  C3  UNL     1     -33.572  13.650  -3.938  1.00 20.00     0.007 A 
ENDBRANCH   4   6
ENDBRANCH   2   4
TORSDOF 2
ENDMDL
MODEL 8
REMARK VINA RESULT:      -3.7     11.183     12.551
REMARK  2 active torsions:
REMARK  status: ('A' for Active; 'I' for Inactive)
REMARK    1  A    between atoms: C4_4  and  C6_6 
REMARK    2  A    between atoms: C6_6  and  N7_7 
ROOT
HETATM    1  C1  UNL     1     -35.165  13.531  -4.183  1.00 20.00     0.332 C 
HETATM    2  N7  UNL     1     -35.544  14.458  -3.581  1.00 20.00    -0.242 NA
HETATM    3  O8  UNL     1     -34.798  12.591  -4.787  1.00 20.00    -0.260 OA
ENDROOT
BRANCH   2   4
HETATM    4  C6  UNL     1     -34.501  15.476  -3.337  1.00 20.00     0.112 C 
HETATM    5  C5  UNL     1     -34.742  16.066  -1.942  1.00 20.00     0.035 C 
BRANCH   4   6
HETATM    6  C4  UNL     1     -34.526  16.505  -4.413  1.00 20.00     0.010 A 
HETATM    7  C2  UNL     1     -33.681  17.742  -4.298  1.00 20.00     0.007 A 
HETATM    8  C3  UNL     1     -33.335  16.688  -5.313  1.00 20.00     0.007 A 
ENDBRANCH   4   6
ENDBRANCH   2   4
TORSDOF 2
ENDMDL
MODEL 9
REMARK VINA RESULT:      -3.7     11.816     12.619
REMARK  2 active torsions:
REMARK  status: ('A' for Active; 'I' for Inactive)
REMARK    1  A    between atoms: C4_4  and  C6_6 
REMARK    2  A    between atoms: C6_6  and  N7_7 
ROOT
HETATM    1  C1  UNL     1     -33.732  16.446  -5.317  1.00 20.00     0.332 C 
HETATM    2  N7  UNL     1     -32.851  16.178  -4.598  1.00 20.00    -0.242 NA
HETATM    3  O8  UNL     1     -34.608  16.721  -6.052  1.00 20.00    -0.260 OA
ENDROOT
BRANCH   2   4
HETATM    4  C6  UNL     1     -33.291  15.667  -3.283  1.00 20.00     0.112 C 
HETATM    5  C5  UNL     1     -34.076  14.371  -3.523  1.00 20.00     0.035 C 
BRANCH   4   6
HETATM    6  C4  UNL     1     -34.089  16.703  -2.571  1.00 20.00     0.010 A 
HETATM    7  C2  UNL     1     -34.773  16.375  -1.273  1.00 20.00     0.007 A 
HETATM    8  C3  UNL     1     -33.584  17.295  -1.284  1.00 20.00     0.007 A 
ENDBRANCH   4   6
ENDBRANCH   2   4
TORSDOF 2
ENDMDL
