MODEL 1
REMARK VINA RESULT:      -4.9      0.000      0.000
REMARK  1 active torsions:
REMARK  status: ('A' for Active; 'I' for Inactive)
REMARK    1  A    between atoms: C11_11  and  N13_13 
ROOT
HETATM    1  C1  UNL     1     -35.078  13.937  -4.643  1.00 20.00     0.086 C 
HETATM    2  C11 UNL     1     -35.227  15.374  -4.852  1.00 20.00     0.357 C 
HETATM    3  N12 UNL     1     -34.961  12.794  -4.481  1.00 20.00    -0.196 NA
ENDROOT
BRANCH   2   4
HETATM    4  N13 UNL     1     -35.396  16.064  -3.526  1.00 20.00    -0.059 N 
HETATM    5  C8  UNL     1     -34.307  15.681  -2.557  1.00 20.00     0.236 C 
HETATM    6  C6  UNL     1     -34.580  16.318  -1.199  1.00 20.00     0.037 C 
HETATM    7  C10 UNL     1     -34.764  17.852  -1.272  1.00 20.00    -0.037 C 
HETATM    8  C4  UNL     1     -35.155  18.426   0.100  1.00 20.00     0.010 C 
HETATM    9  C5  UNL     1     -33.434  18.587  -1.527  1.00 20.00     0.010 C 
HETATM   10  C7  UNL     1     -35.824  18.187  -2.335  1.00 20.00     0.037 C 
HETATM   11  C2  UNL     1     -33.848  18.522   0.880  1.00 20.00     0.001 C 
HETATM   12  C3  UNL     1     -32.741  18.643  -0.166  1.00 20.00     0.001 C 
HETATM   13  C9  UNL     1     -35.520  17.559  -3.688  1.00 20.00     0.236 C 
HETATM   14  H32 UNL     1     -36.286  15.725  -3.134  1.00 20.00     0.281 HD
ENDBRANCH   2   4
TORSDOF 1
ENDMDL
MODEL 2
REMARK VINA RESULT:      -4.9      1.375      1.911
REMARK  1 active torsions:
REMARK  status: ('A' for Active; 'I' for Inactive)
REMARK    1  A    between atoms: C11_11  and  N13_13 
ROOT
HETATM    1  C1  UNL     1     -34.805  13.659  -5.239  1.00 20.00     0.086 C 
HETATM    2  C11 UNL     1     -34.856  14.903  -6.002  1.00 20.00     0.357 C 
HETATM    3  N12 UNL     1     -34.767  12.668  -4.636  1.00 20.00    -0.196 NA
ENDROOT
BRANCH   2   4
HETATM    4  N13 UNL     1     -34.952  16.071  -5.060  1.00 20.00    -0.059 N 
HETATM    5  C8  UNL     1     -35.895  15.788  -3.918  1.00 20.00     0.236 C 
HETATM    6  C6  UNL     1     -36.042  17.035  -3.052  1.00 20.00     0.037 C 
HETATM    7  C10 UNL     1     -34.689  17.589  -2.549  1.00 20.00    -0.037 C 
HETATM    8  C4  UNL     1     -34.884  18.910  -1.785  1.00 20.00     0.010 C 
HETATM    9  C5  UNL     1     -34.069  16.706  -1.450  1.00 20.00     0.010 C 
HETATM   10  C7  UNL     1     -33.740  17.778  -3.745  1.00 20.00     0.037 C 
HETATM   11  C2  UNL     1     -35.346  18.499  -0.390  1.00 20.00     0.001 C 
HETATM   12  C3  UNL     1     -34.807  17.087  -0.166  1.00 20.00     0.001 C 
HETATM   13  C9  UNL     1     -33.591  16.515  -4.582  1.00 20.00     0.236 C 
HETATM   14  H32 UNL     1     -35.354  16.849  -5.601  1.00 20.00     0.281 HD
ENDBRANCH   2   4
TORSDOF 1
ENDMDL
MODEL 3
REMARK VINA RESULT:      -4.8      1.410      2.289
REMARK  1 active torsions:
REMARK  status: ('A' for Active; 'I' for Inactive)
REMARK    1  A    between atoms: C11_11  and  N13_13 
ROOT
HETATM    1  C1  UNL     1     -37.355  14.998  -4.304  1.00 20.00     0.086 C 
HETATM    2  C11 UNL     1     -36.420  15.798  -5.090  1.00 20.00     0.357 C 
HETATM    3  N12 UNL     1     -38.101  14.362  -3.682  1.00 20.00    -0.196 NA
ENDROOT
BRANCH   2   4
HETATM    4  N13 UNL     1     -35.456  16.497  -4.172  1.00 20.00    -0.059 N 
HETATM    5  C8  UNL     1     -36.162  17.468  -3.259  1.00 20.00     0.236 C 
HETATM    6  C6  UNL     1     -35.135  18.228  -2.426  1.00 20.00     0.037 C 
HETATM    7  C10 UNL     1     -34.181  17.299  -1.640  1.00 20.00    -0.037 C 
HETATM    8  C4  UNL     1     -33.095  18.112  -0.914  1.00 20.00     0.010 C 
HETATM    9  C5  UNL     1     -34.880  16.619  -0.448  1.00 20.00     0.010 C 
HETATM   10  C7  UNL     1     -33.556  16.278  -2.605  1.00 20.00     0.037 C 
HETATM   11  C2  UNL     1     -33.770  18.645   0.345  1.00 20.00     0.001 C 
HETATM   12  C3  UNL     1     -34.908  17.675   0.656  1.00 20.00     0.001 C 
HETATM   13  C9  UNL     1     -34.599  15.516  -3.411  1.00 20.00     0.236 C 
HETATM   14  H32 UNL     1     -34.828  17.047  -4.775  1.00 20.00     0.281 HD
ENDBRANCH   2   4
TORSDOF 1
ENDMDL
MODEL 4
REMARK VINA RESULT:      -4.7      1.882      2.562
REMARK  1 active torsions:
REMARK  status: ('A' for Active; 'I' for Inactive)
REMARK    1  A    between atoms: C11_11  and  N13_13 
ROOT
HETATM    1  C1  UNL     1     -34.528  16.190  -7.166  1.00 20.00     0.086 C 
HETATM    2  C11 UNL     1     -34.521  14.898  -6.486  1.00 20.00     0.357 C 
HETATM    3  N12 UNL     1     -34.531  17.214  -7.710  1.00 20.00    -0.196 NA
ENDROOT
BRANCH   2   4
HETATM    4  N13 UNL     1     -34.551  15.109  -4.997  1.00 20.00    -0.059 N 
HETATM    5  C8  UNL     1     -33.316  15.826  -4.512  1.00 20.00     0.236 C 
HETATM    6  C6  UNL     1     -33.342  15.921  -2.991  1.00 20.00     0.037 C 
HETATM    7  C10 UNL     1     -34.632  16.576  -2.444  1.00 20.00    -0.037 C 
HETATM    8  C4  UNL     1     -34.659  16.537  -0.906  1.00 20.00     0.010 C 
HETATM    9  C5  UNL     1     -34.668  18.095  -2.697  1.00 20.00     0.010 C 
HETATM   10  C7  UNL     1     -35.857  15.859  -3.037  1.00 20.00     0.037 C 
HETATM   11  C2  UNL     1     -33.768  17.693  -0.462  1.00 20.00     0.001 C 
HETATM   12  C3  UNL     1     -33.787  18.704  -1.607  1.00 20.00     0.001 C 
HETATM   13  C9  UNL     1     -35.821  15.795  -4.557  1.00 20.00     0.236 C 
HETATM   14  H32 UNL     1     -34.547  14.172  -4.571  1.00 20.00     0.281 HD
ENDBRANCH   2   4
TORSDOF 1
ENDMDL
MODEL 5
REMARK VINA RESULT:      -4.7      1.859      5.556
REMARK  1 active torsions:
REMARK  status: ('A' for Active; 'I' for Inactive)
REMARK    1  A    between atoms: C11_11  and  N13_13 
ROOT
HETATM    1  C1  UNL     1     -33.884  17.835  -1.555  1.00 20.00     0.086 C 
HETATM    2  C11 UNL     1     -34.591  16.607  -1.205  1.00 20.00     0.357 C 
HETATM    3  N12 UNL     1     -33.323  18.814  -1.829  1.00 20.00    -0.196 NA
ENDROOT
BRANCH   2   4
HETATM    4  N13 UNL     1     -34.812  15.780  -2.441  1.00 20.00    -0.059 N 
HETATM    5  C8  UNL     1     -35.695  16.492  -3.436  1.00 20.00     0.236 C 
HETATM    6  C6  UNL     1     -35.977  15.574  -4.620  1.00 20.00     0.037 C 
HETATM    7  C10 UNL     1     -34.693  15.029  -5.287  1.00 20.00    -0.037 C 
HETATM    8  C4  UNL     1     -35.034  14.018  -6.396  1.00 20.00     0.010 C 
HETATM    9  C5  UNL     1     -33.952  16.110  -6.097  1.00 20.00     0.010 C 
HETATM   10  C7  UNL     1     -33.794  14.391  -4.215  1.00 20.00     0.037 C 
HETATM   11  C2  UNL     1     -35.419  14.866  -7.604  1.00 20.00     0.001 C 
HETATM   12  C3  UNL     1     -34.709  16.206  -7.422  1.00 20.00     0.001 C 
HETATM   13  C9  UNL     1     -33.508  15.331  -3.052  1.00 20.00     0.236 C 
HETATM   14  H32 UNL     1     -35.315  14.934  -2.139  1.00 20.00     0.281 HD
ENDBRANCH   2   4
TORSDOF 1
ENDMDL
MODEL 6
REMARK VINA RESULT:      -4.5      2.288      5.262
REMARK  1 active torsions:
REMARK  status: ('A' for Active; 'I' for Inactive)
REMARK    1  A    between atoms: C11_11  and  N13_13 
ROOT
HETATM    1  C1  UNL     1     -37.008  18.527  -0.147  1.00 20.00     0.086 C 
HETATM    2  C11 UNL     1     -36.629  18.520  -1.557  1.00 20.00     0.357 C 
HETATM    3  N12 UNL     1     -37.308  18.538   0.974  1.00 20.00    -0.196 NA
ENDROOT
BRANCH   2   4
HETATM    4  N13 UNL     1     -36.098  17.164  -1.932  1.00 20.00    -0.059 N 
HETATM    5  C8  UNL     1     -36.841  16.581  -3.108  1.00 20.00     0.236 C 
HETATM    6  C6  UNL     1     -36.341  15.166  -3.381  1.00 20.00     0.037 C 
HETATM    7  C10 UNL     1     -34.809  15.090  -3.580  1.00 20.00    -0.037 C 
HETATM    8  C4  UNL     1     -34.346  13.631  -3.731  1.00 20.00     0.010 C 
HETATM    9  C5  UNL     1     -34.366  15.678  -4.933  1.00 20.00     0.010 C 
HETATM   10  C7  UNL     1     -34.107  15.773  -2.393  1.00 20.00     0.037 C 
HETATM   11  C2  UNL     1     -34.650  13.264  -5.180  1.00 20.00     0.001 C 
HETATM   12  C3  UNL     1     -34.646  14.579  -5.958  1.00 20.00     0.001 C 
HETATM   13  C9  UNL     1     -34.606  17.191  -2.152  1.00 20.00     0.236 C 
HETATM   14  H32 UNL     1     -36.276  16.549  -1.125  1.00 20.00     0.281 HD
ENDBRANCH   2   4
TORSDOF 1
ENDMDL
MODEL 7
REMARK VINA RESULT:      -4.5      2.023      5.300
REMARK  1 active torsions:
REMARK  status: ('A' for Active; 'I' for Inactive)
REMARK    1  A    between atoms: C11_11  and  N13_13 
ROOT
HETATM    1  C1  UNL     1     -35.517  17.759   0.466  1.00 20.00     0.086 C 
HETATM    2  C11 UNL     1     -35.867  18.037  -0.924  1.00 20.00     0.357 C 
HETATM    3  N12 UNL     1     -35.239  17.543   1.571  1.00 20.00    -0.196 NA
ENDROOT
BRANCH   2   4
HETATM    4  N13 UNL     1     -35.652  16.803  -1.757  1.00 20.00    -0.059 N 
HETATM    5  C8  UNL     1     -36.425  16.862  -3.050  1.00 20.00     0.236 C 
HETATM    6  C6  UNL     1     -36.261  15.549  -3.807  1.00 20.00     0.037 C 
HETATM    7  C10 UNL     1     -34.782  15.164  -4.045  1.00 20.00    -0.037 C 
HETATM    8  C4  UNL     1     -34.672  13.778  -4.703  1.00 20.00     0.010 C 
HETATM    9  C5  UNL     1     -34.114  16.048  -5.115  1.00 20.00     0.010 C 
HETATM   10  C7  UNL     1     -34.025  15.202  -2.707  1.00 20.00     0.037 C 
HETATM   11  C2  UNL     1     -34.950  14.016  -6.184  1.00 20.00     0.001 C 
HETATM   12  C3  UNL     1     -34.574  15.472  -6.454  1.00 20.00     0.001 C 
HETATM   13  C9  UNL     1     -34.185  16.529  -1.978  1.00 20.00     0.236 C 
HETATM   14  H32 UNL     1     -36.030  16.015  -1.212  1.00 20.00     0.281 HD
ENDBRANCH   2   4
TORSDOF 1
ENDMDL
MODEL 8
REMARK VINA RESULT:      -4.5     13.088     15.415
REMARK  1 active torsions:
REMARK  status: ('A' for Active; 'I' for Inactive)
REMARK    1  A    between atoms: C11_11  and  N13_13 
ROOT
HETATM    1  C1  UNL     1     -42.684  -0.309  -3.162  1.00 20.00     0.086 C 
HETATM    2  C11 UNL     1     -42.436   1.010  -3.738  1.00 20.00     0.357 C 
HETATM    3  N12 UNL     1     -42.883  -1.358  -2.709  1.00 20.00    -0.196 NA
ENDROOT
BRANCH   2   4
HETATM    4  N13 UNL     1     -42.156   1.997  -2.639  1.00 20.00    -0.059 N 
HETATM    5  C8  UNL     1     -41.089   2.985  -3.037  1.00 20.00     0.236 C 
HETATM    6  C6  UNL     1     -40.765   3.895  -1.857  1.00 20.00     0.037 C 
HETATM    7  C10 UNL     1     -42.010   4.605  -1.276  1.00 20.00    -0.037 C 
HETATM    8  C4  UNL     1     -41.646   5.412  -0.017  1.00 20.00     0.010 C 
HETATM    9  C5  UNL     1     -42.527   5.723  -2.200  1.00 20.00     0.010 C 
HETATM   10  C7  UNL     1     -43.095   3.559  -0.968  1.00 20.00     0.037 C 
HETATM   11  C2  UNL     1     -41.030   6.706  -0.538  1.00 20.00     0.001 C 
HETATM   12  C3  UNL     1     -41.610   6.917  -1.936  1.00 20.00     0.001 C 
HETATM   13  C9  UNL     1     -43.417   2.676  -2.165  1.00 20.00     0.236 C 
HETATM   14  H32 UNL     1     -41.787   1.453  -1.846  1.00 20.00     0.281 HD
ENDBRANCH   2   4
TORSDOF 1
ENDMDL
MODEL 9
REMARK VINA RESULT:      -4.5      2.413      5.166
REMARK  1 active torsions:
REMARK  status: ('A' for Active; 'I' for Inactive)
REMARK    1  A    between atoms: C11_11  and  N13_13 
ROOT
HETATM    1  C1  UNL     1     -38.613  18.258  -1.328  1.00 20.00     0.086 C 
HETATM    2  C11 UNL     1     -37.276  18.478  -1.871  1.00 20.00     0.357 C 
HETATM    3  N12 UNL     1     -39.675  18.089  -0.893  1.00 20.00    -0.196 NA
ENDROOT
BRANCH   2   4
HETATM    4  N13 UNL     1     -36.608  17.154  -2.121  1.00 20.00    -0.059 N 
HETATM    5  C8  UNL     1     -37.177  16.463  -3.334  1.00 20.00     0.236 C 
HETATM    6  C6  UNL     1     -36.546  15.083  -3.483  1.00 20.00     0.037 C 
HETATM    7  C10 UNL     1     -35.001  15.122  -3.523  1.00 20.00    -0.037 C 
HETATM    8  C4  UNL     1     -34.415  13.699  -3.552  1.00 20.00     0.010 C 
HETATM    9  C5  UNL     1     -34.466  15.684  -4.853  1.00 20.00     0.010 C 
HETATM   10  C7  UNL     1     -34.480  15.909  -2.309  1.00 20.00     0.037 C 
HETATM   11  C2  UNL     1     -34.538  13.247  -5.004  1.00 20.00     0.001 C 
HETATM   12  C3  UNL     1     -34.553  14.523  -5.843  1.00 20.00     0.001 C 
HETATM   13  C9  UNL     1     -35.107  17.291  -2.192  1.00 20.00     0.236 C 
HETATM   14  H32 UNL     1     -36.821  16.562  -1.305  1.00 20.00     0.281 HD
ENDBRANCH   2   4
TORSDOF 1
ENDMDL
