MODEL 1
REMARK VINA RESULT:      -4.2      0.000      0.000
REMARK  3 active torsions:
REMARK  status: ('A' for Active; 'I' for Inactive)
REMARK    1  A    between atoms: C6_6  and  N10_10 
REMARK    2  A    between atoms: C7_7  and  C8_8 
REMARK    3  A    between atoms: C8_8  and  N10_10 
ROOT
HETATM    1  C1  UNL     1     -33.252  18.260  -0.869  1.00 20.00     0.013 C 
HETATM    2  C2  UNL     1     -33.899  17.306  -1.205  1.00 20.00    -0.087 C 
HETATM    3  C6  UNL     1     -34.689  16.141  -1.610  1.00 20.00     0.364 C 
ENDROOT
BRANCH   3   4
HETATM    4  N10 UNL     1     -34.706  16.009  -3.072  1.00 20.00     0.100 N 
HETATM    5  C5  UNL     1     -35.344  17.189  -3.670  1.00 20.00     0.311 C 
BRANCH   4   6
HETATM    6  C8  UNL     1     -33.370  15.821  -3.593  1.00 20.00     0.232 C 
HETATM    7  C4  UNL     1     -33.271  16.416  -4.993  1.00 20.00     0.044 C 
BRANCH   6   8
HETATM    8  C7  UNL     1     -32.990  14.335  -3.603  1.00 20.00     0.159 C 
HETATM    9  C3  UNL     1     -34.075  13.496  -4.136  1.00 20.00     0.061 C 
HETATM   10  N9  UNL     1     -34.929  12.831  -4.556  1.00 20.00    -0.197 NA
ENDBRANCH   6   8
ENDBRANCH   4   6
ENDBRANCH   3   4
TORSDOF 3
ENDMDL
MODEL 2
REMARK VINA RESULT:      -4.2      1.714      2.273
REMARK  3 active torsions:
REMARK  status: ('A' for Active; 'I' for Inactive)
REMARK    1  A    between atoms: C6_6  and  N10_10 
REMARK    2  A    between atoms: C7_7  and  C8_8 
REMARK    3  A    between atoms: C8_8  and  N10_10 
ROOT
HETATM    1  C1  UNL     1     -34.637  16.636  -1.130  1.00 20.00     0.013 C 
HETATM    2  C2  UNL     1     -34.050  16.226  -2.094  1.00 20.00    -0.087 C 
HETATM    3  C6  UNL     1     -33.331  15.726  -3.267  1.00 20.00     0.364 C 
ENDROOT
BRANCH   3   4
HETATM    4  N10 UNL     1     -34.176  15.802  -4.465  1.00 20.00     0.100 N 
HETATM    5  C5  UNL     1     -33.707  16.888  -5.337  1.00 20.00     0.311 C 
BRANCH   4   6
HETATM    6  C8  UNL     1     -34.193  14.540  -5.171  1.00 20.00     0.232 C 
HETATM    7  C4  UNL     1     -34.738  14.741  -6.581  1.00 20.00     0.044 C 
BRANCH   6   8
HETATM    8  C7  UNL     1     -35.020  13.497  -4.410  1.00 20.00     0.159 C 
HETATM    9  C3  UNL     1     -36.367  13.995  -4.087  1.00 20.00     0.061 C 
HETATM   10  N9  UNL     1     -37.430  14.386  -3.831  1.00 20.00    -0.197 NA
ENDBRANCH   6   8
ENDBRANCH   4   6
ENDBRANCH   3   4
TORSDOF 3
ENDMDL
MODEL 3
REMARK VINA RESULT:      -4.1      1.244      1.655
REMARK  3 active torsions:
REMARK  status: ('A' for Active; 'I' for Inactive)
REMARK    1  A    between atoms: C6_6  and  N10_10 
REMARK    2  A    between atoms: C7_7  and  C8_8 
REMARK    3  A    between atoms: C8_8  and  N10_10 
ROOT
HETATM    1  C1  UNL     1     -34.653  16.716  -0.662  1.00 20.00     0.013 C 
HETATM    2  C2  UNL     1     -34.168  16.597  -1.754  1.00 20.00    -0.087 C 
HETATM    3  C6  UNL     1     -33.571  16.453  -3.084  1.00 20.00     0.364 C 
ENDROOT
BRANCH   3   4
HETATM    4  N10 UNL     1     -34.606  16.190  -4.091  1.00 20.00     0.100 N 
HETATM    5  C5  UNL     1     -35.541  17.322  -4.151  1.00 20.00     0.311 C 
BRANCH   4   6
HETATM    6  C8  UNL     1     -34.017  15.934  -5.387  1.00 20.00     0.232 C 
HETATM    7  C4  UNL     1     -34.133  17.177  -6.264  1.00 20.00     0.044 C 
BRANCH   6   8
HETATM    8  C7  UNL     1     -34.678  14.726  -6.061  1.00 20.00     0.159 C 
HETATM    9  C3  UNL     1     -34.824  13.593  -5.133  1.00 20.00     0.061 C 
HETATM   10  N9  UNL     1     -34.939  12.698  -4.403  1.00 20.00    -0.197 NA
ENDBRANCH   6   8
ENDBRANCH   4   6
ENDBRANCH   3   4
TORSDOF 3
ENDMDL
MODEL 4
REMARK VINA RESULT:      -4.0      1.309      1.736
REMARK  3 active torsions:
REMARK  status: ('A' for Active; 'I' for Inactive)
REMARK    1  A    between atoms: C6_6  and  N10_10 
REMARK    2  A    between atoms: C7_7  and  C8_8 
REMARK    3  A    between atoms: C8_8  and  N10_10 
ROOT
HETATM    1  C1  UNL     1     -35.054  17.414   0.503  1.00 20.00     0.013 C 
HETATM    2  C2  UNL     1     -34.492  17.122  -0.517  1.00 20.00    -0.087 C 
HETATM    3  C6  UNL     1     -33.802  16.765  -1.758  1.00 20.00     0.364 C 
ENDROOT
BRANCH   3   4
HETATM    4  N10 UNL     1     -34.605  17.147  -2.926  1.00 20.00     0.100 N 
HETATM    5  C5  UNL     1     -33.848  18.085  -3.765  1.00 20.00     0.311 C 
BRANCH   4   6
HETATM    6  C8  UNL     1     -35.009  15.983  -3.683  1.00 20.00     0.232 C 
HETATM    7  C4  UNL     1     -36.456  15.628  -3.358  1.00 20.00     0.044 C 
BRANCH   6   8
HETATM    8  C7  UNL     1     -34.079  14.796  -3.401  1.00 20.00     0.159 C 
HETATM    9  C3  UNL     1     -34.484  13.593  -4.146  1.00 20.00     0.061 C 
HETATM   10  N9  UNL     1     -34.802  12.643  -4.733  1.00 20.00    -0.197 NA
ENDBRANCH   6   8
ENDBRANCH   4   6
ENDBRANCH   3   4
TORSDOF 3
ENDMDL
MODEL 5
REMARK VINA RESULT:      -3.9     11.497     12.565
REMARK  3 active torsions:
REMARK  status: ('A' for Active; 'I' for Inactive)
REMARK    1  A    between atoms: C6_6  and  N10_10 
REMARK    2  A    between atoms: C7_7  and  C8_8 
REMARK    3  A    between atoms: C8_8  and  N10_10 
ROOT
HETATM    1  C1  UNL     1     -33.230   7.714   7.076  1.00 20.00     0.013 C 
HETATM    2  C2  UNL     1     -33.875   6.754   6.753  1.00 20.00    -0.087 C 
HETATM    3  C6  UNL     1     -34.665   5.584   6.362  1.00 20.00     0.364 C 
ENDROOT
BRANCH   3   4
HETATM    4  N10 UNL     1     -34.148   5.002   5.118  1.00 20.00     0.100 N 
HETATM    5  C5  UNL     1     -35.010   3.891   4.693  1.00 20.00     0.311 C 
BRANCH   4   6
HETATM    6  C8  UNL     1     -34.042   6.003   4.080  1.00 20.00     0.232 C 
HETATM    7  C4  UNL     1     -35.117   5.772   3.024  1.00 20.00     0.044 C 
BRANCH   6   8
HETATM    8  C7  UNL     1     -32.645   5.993   3.448  1.00 20.00     0.159 C 
HETATM    9  C3  UNL     1     -32.359   7.244   2.728  1.00 20.00     0.061 C 
HETATM   10  N9  UNL     1     -32.132   8.231   2.160  1.00 20.00    -0.197 NA
ENDBRANCH   6   8
ENDBRANCH   4   6
ENDBRANCH   3   4
TORSDOF 3
ENDMDL
MODEL 6
REMARK VINA RESULT:      -3.9      1.729      2.240
REMARK  3 active torsions:
REMARK  status: ('A' for Active; 'I' for Inactive)
REMARK    1  A    between atoms: C6_6  and  N10_10 
REMARK    2  A    between atoms: C7_7  and  C8_8 
REMARK    3  A    between atoms: C8_8  and  N10_10 
ROOT
HETATM    1  C1  UNL     1     -34.783  17.054  -0.105  1.00 20.00     0.013 C 
HETATM    2  C2  UNL     1     -34.461  16.667  -1.195  1.00 20.00    -0.087 C 
HETATM    3  C6  UNL     1     -34.064  16.199  -2.525  1.00 20.00     0.364 C 
ENDROOT
BRANCH   3   4
HETATM    4  N10 UNL     1     -35.035  15.228  -3.044  1.00 20.00     0.100 N 
HETATM    5  C5  UNL     1     -36.298  15.909  -3.362  1.00 20.00     0.311 C 
BRANCH   4   6
HETATM    6  C8  UNL     1     -34.512  14.537  -4.201  1.00 20.00     0.232 C 
HETATM    7  C4  UNL     1     -33.368  13.619  -3.784  1.00 20.00     0.044 C 
BRANCH   6   8
HETATM    8  C7  UNL     1     -34.051  15.533  -5.272  1.00 20.00     0.159 C 
HETATM    9  C3  UNL     1     -34.435  15.101  -6.625  1.00 20.00     0.061 C 
HETATM   10  N9  UNL     1     -34.737  14.761  -7.693  1.00 20.00    -0.197 NA
ENDBRANCH   6   8
ENDBRANCH   4   6
ENDBRANCH   3   4
TORSDOF 3
ENDMDL
MODEL 7
REMARK VINA RESULT:      -3.8     10.699     11.946
REMARK  3 active torsions:
REMARK  status: ('A' for Active; 'I' for Inactive)
REMARK    1  A    between atoms: C6_6  and  N10_10 
REMARK    2  A    between atoms: C7_7  and  C8_8 
REMARK    3  A    between atoms: C8_8  and  N10_10 
ROOT
HETATM    1  C1  UNL     1     -32.143   9.175   0.757  1.00 20.00     0.013 C 
HETATM    2  C2  UNL     1     -32.124   8.545   1.779  1.00 20.00    -0.087 C 
HETATM    3  C6  UNL     1     -32.097   7.780   3.027  1.00 20.00     0.364 C 
ENDROOT
BRANCH   3   4
HETATM    4  N10 UNL     1     -32.937   6.580   2.919  1.00 20.00     0.100 N 
HETATM    5  C5  UNL     1     -32.109   5.377   3.077  1.00 20.00     0.311 C 
BRANCH   4   6
HETATM    6  C8  UNL     1     -34.008   6.606   3.890  1.00 20.00     0.232 C 
HETATM    7  C4  UNL     1     -33.428   6.653   5.300  1.00 20.00     0.044 C 
BRANCH   6   8
HETATM    8  C7  UNL     1     -34.932   5.394   3.720  1.00 20.00     0.159 C 
HETATM    9  C3  UNL     1     -35.084   4.640   4.974  1.00 20.00     0.061 C 
HETATM   10  N9  UNL     1     -35.206   4.044   5.963  1.00 20.00    -0.197 NA
ENDBRANCH   6   8
ENDBRANCH   4   6
ENDBRANCH   3   4
TORSDOF 3
ENDMDL
MODEL 8
REMARK VINA RESULT:      -3.8      2.073      2.710
REMARK  3 active torsions:
REMARK  status: ('A' for Active; 'I' for Inactive)
REMARK    1  A    between atoms: C6_6  and  N10_10 
REMARK    2  A    between atoms: C7_7  and  C8_8 
REMARK    3  A    between atoms: C8_8  and  N10_10 
ROOT
HETATM    1  C1  UNL     1     -34.838  17.048  -0.290  1.00 20.00     0.013 C 
HETATM    2  C2  UNL     1     -34.249  16.741  -1.291  1.00 20.00    -0.087 C 
HETATM    3  C6  UNL     1     -33.526  16.366  -2.508  1.00 20.00     0.364 C 
ENDROOT
BRANCH   3   4
HETATM    4  N10 UNL     1     -34.429  16.358  -3.665  1.00 20.00     0.100 N 
HETATM    5  C5  UNL     1     -33.647  16.266  -4.906  1.00 20.00     0.311 C 
BRANCH   4   6
HETATM    6  C8  UNL     1     -35.385  15.277  -3.572  1.00 20.00     0.232 C 
HETATM    7  C4  UNL     1     -34.671  13.939  -3.732  1.00 20.00     0.044 C 
BRANCH   6   8
HETATM    8  C7  UNL     1     -36.494  15.434  -4.620  1.00 20.00     0.159 C 
HETATM    9  C3  UNL     1     -37.744  14.783  -4.196  1.00 20.00     0.061 C 
HETATM   10  N9  UNL     1     -38.731  14.271  -3.863  1.00 20.00    -0.197 NA
ENDBRANCH   6   8
ENDBRANCH   4   6
ENDBRANCH   3   4
TORSDOF 3
ENDMDL
MODEL 9
REMARK VINA RESULT:      -3.8     11.570     12.846
REMARK  3 active torsions:
REMARK  status: ('A' for Active; 'I' for Inactive)
REMARK    1  A    between atoms: C6_6  and  N10_10 
REMARK    2  A    between atoms: C7_7  and  C8_8 
REMARK    3  A    between atoms: C8_8  and  N10_10 
ROOT
HETATM    1  C1  UNL     1     -32.150   8.213   2.216  1.00 20.00     0.013 C 
HETATM    2  C2  UNL     1     -32.418   7.169   2.744  1.00 20.00    -0.087 C 
HETATM    3  C6  UNL     1     -32.741   5.893   3.385  1.00 20.00     0.364 C 
ENDROOT
BRANCH   3   4
HETATM    4  N10 UNL     1     -34.055   5.958   4.039  1.00 20.00     0.100 N 
HETATM    5  C5  UNL     1     -35.112   5.681   3.058  1.00 20.00     0.311 C 
BRANCH   4   6
HETATM    6  C8  UNL     1     -34.127   5.041   5.154  1.00 20.00     0.232 C 
HETATM    7  C4  UNL     1     -35.036   3.868   4.803  1.00 20.00     0.044 C 
BRANCH   6   8
HETATM    8  C7  UNL     1     -34.619   5.754   6.419  1.00 20.00     0.159 C 
HETATM    9  C3  UNL     1     -33.746   6.880   6.788  1.00 20.00     0.061 C 
HETATM   10  N9  UNL     1     -33.060   7.769   7.081  1.00 20.00    -0.197 NA
ENDBRANCH   6   8
ENDBRANCH   4   6
ENDBRANCH   3   4
TORSDOF 3
ENDMDL
