MODEL 1
REMARK VINA RESULT:      -4.4      0.000      0.000
REMARK  3 active torsions:
REMARK  status: ('A' for Active; 'I' for Inactive)
REMARK    1  A    between atoms: C5_5  and  C7_7 
REMARK    2  A    between atoms: C6_6  and  C7_7 
REMARK    3  A    between atoms: C7_7  and  O8_8 
ROOT
HETATM    1  C1  UNL     1     -31.888   7.221   3.148  1.00 20.00     0.012 C 
HETATM    2  C2  UNL     1     -32.747   6.387   3.057  1.00 20.00    -0.115 C 
HETATM    3  C5  UNL     1     -33.797   5.363   2.935  1.00 20.00     0.130 C 
ENDROOT
BRANCH   3   4
HETATM    4  C7  UNL     1     -34.781   5.357   4.125  1.00 20.00     0.064 C 
HETATM    5  C4  UNL     1     -34.888   3.934   4.691  1.00 20.00     0.046 C 
BRANCH   4   6
HETATM    6  C6  UNL     1     -34.438   6.368   5.240  1.00 20.00     0.034 C 
HETATM    7  C3  UNL     1     -34.423   5.806   6.654  1.00 20.00     0.008 C 
ENDBRANCH   4   6
BRANCH   4   8
HETATM    8  O8  UNL     1     -36.086   5.711   3.641  1.00 20.00    -0.389 OA
HETATM    9  H20 UNL     1     -36.373   6.461   4.179  1.00 20.00     0.210 HD
ENDBRANCH   4   8
ENDBRANCH   3   4
TORSDOF 3
ENDMDL
MODEL 2
REMARK VINA RESULT:      -4.2      1.343      1.653
REMARK  3 active torsions:
REMARK  status: ('A' for Active; 'I' for Inactive)
REMARK    1  A    between atoms: C5_5  and  C7_7 
REMARK    2  A    between atoms: C6_6  and  C7_7 
REMARK    3  A    between atoms: C7_7  and  O8_8 
ROOT
HETATM    1  C1  UNL     1     -32.039   8.344   1.819  1.00 20.00     0.012 C 
HETATM    2  C2  UNL     1     -32.205   7.472   2.627  1.00 20.00    -0.115 C 
HETATM    3  C5  UNL     1     -32.399   6.398   3.616  1.00 20.00     0.130 C 
ENDROOT
BRANCH   3   4
HETATM    4  C7  UNL     1     -33.860   6.274   4.100  1.00 20.00     0.064 C 
HETATM    5  C4  UNL     1     -34.593   5.229   3.248  1.00 20.00     0.046 C 
BRANCH   4   6
HETATM    6  C6  UNL     1     -34.007   5.961   5.605  1.00 20.00     0.034 C 
HETATM    7  C3  UNL     1     -34.854   4.742   5.941  1.00 20.00     0.008 C 
ENDBRANCH   4   6
BRANCH   4   8
HETATM    8  O8  UNL     1     -34.522   7.529   3.878  1.00 20.00    -0.389 OA
HETATM    9  H20 UNL     1     -35.105   7.390   3.119  1.00 20.00     0.210 HD
ENDBRANCH   4   8
ENDBRANCH   3   4
TORSDOF 3
ENDMDL
MODEL 3
REMARK VINA RESULT:      -4.2      1.392      2.984
REMARK  3 active torsions:
REMARK  status: ('A' for Active; 'I' for Inactive)
REMARK    1  A    between atoms: C5_5  and  C7_7 
REMARK    2  A    between atoms: C6_6  and  C7_7 
REMARK    3  A    between atoms: C7_7  and  O8_8 
ROOT
HETATM    1  C1  UNL     1     -33.343   7.410   6.787  1.00 20.00     0.012 C 
HETATM    2  C2  UNL     1     -34.053   6.480   6.516  1.00 20.00    -0.115 C 
HETATM    3  C5  UNL     1     -34.925   5.339   6.194  1.00 20.00     0.130 C 
ENDROOT
BRANCH   3   4
HETATM    4  C7  UNL     1     -34.833   4.901   4.717  1.00 20.00     0.064 C 
HETATM    5  C4  UNL     1     -35.867   5.676   3.889  1.00 20.00     0.046 C 
BRANCH   4   6
HETATM    6  C6  UNL     1     -33.424   5.031   4.100  1.00 20.00     0.034 C 
HETATM    7  C3  UNL     1     -33.259   6.137   3.069  1.00 20.00     0.008 C 
ENDBRANCH   4   6
BRANCH   4   8
HETATM    8  O8  UNL     1     -35.189   3.512   4.630  1.00 20.00    -0.389 OA
HETATM    9  H20 UNL     1     -36.096   3.492   4.295  1.00 20.00     0.210 HD
ENDBRANCH   4   8
ENDBRANCH   3   4
TORSDOF 3
ENDMDL
MODEL 4
REMARK VINA RESULT:      -4.2     11.351     12.551
REMARK  3 active torsions:
REMARK  status: ('A' for Active; 'I' for Inactive)
REMARK    1  A    between atoms: C5_5  and  C7_7 
REMARK    2  A    between atoms: C6_6  and  C7_7 
REMARK    3  A    between atoms: C7_7  and  O8_8 
ROOT
HETATM    1  C1  UNL     1     -34.042  16.722  -6.305  1.00 20.00     0.012 C 
HETATM    2  C2  UNL     1     -34.354  15.586  -6.074  1.00 20.00    -0.115 C 
HETATM    3  C5  UNL     1     -34.740  14.192  -5.800  1.00 20.00     0.130 C 
ENDROOT
BRANCH   3   4
HETATM    4  C7  UNL     1     -34.773  13.854  -4.294  1.00 20.00     0.064 C 
HETATM    5  C4  UNL     1     -33.338  13.745  -3.763  1.00 20.00     0.046 C 
BRANCH   4   6
HETATM    6  C6  UNL     1     -35.604  14.837  -3.440  1.00 20.00     0.034 C 
HETATM    7  C3  UNL     1     -34.809  15.683  -2.455  1.00 20.00     0.008 C 
ENDBRANCH   4   6
BRANCH   4   8
HETATM    8  O8  UNL     1     -35.377  12.561  -4.130  1.00 20.00    -0.389 OA
HETATM    9  H20 UNL     1     -35.709  12.312  -5.003  1.00 20.00     0.210 HD
ENDBRANCH   4   8
ENDBRANCH   3   4
TORSDOF 3
ENDMDL
MODEL 5
REMARK VINA RESULT:      -4.1     11.650     12.477
REMARK  3 active torsions:
REMARK  status: ('A' for Active; 'I' for Inactive)
REMARK    1  A    between atoms: C5_5  and  C7_7 
REMARK    2  A    between atoms: C6_6  and  C7_7 
REMARK    3  A    between atoms: C7_7  and  O8_8 
ROOT
HETATM    1  C1  UNL     1     -34.427  16.330  -1.878  1.00 20.00     0.012 C 
HETATM    2  C2  UNL     1     -34.204  15.449  -2.663  1.00 20.00    -0.115 C 
HETATM    3  C5  UNL     1     -33.921  14.370  -3.624  1.00 20.00     0.130 C 
ENDROOT
BRANCH   3   4
HETATM    4  C7  UNL     1     -35.170  13.909  -4.406  1.00 20.00     0.064 C 
HETATM    5  C4  UNL     1     -36.408  14.642  -3.870  1.00 20.00     0.046 C 
BRANCH   4   6
HETATM    6  C6  UNL     1     -35.057  14.067  -5.938  1.00 20.00     0.034 C 
HETATM    7  C3  UNL     1     -34.311  15.304  -6.416  1.00 20.00     0.008 C 
ENDBRANCH   4   6
BRANCH   4   8
HETATM    8  O8  UNL     1     -35.374  12.510  -4.155  1.00 20.00    -0.389 OA
HETATM    9  H20 UNL     1     -35.953  12.195  -4.863  1.00 20.00     0.210 HD
ENDBRANCH   4   8
ENDBRANCH   3   4
TORSDOF 3
ENDMDL
MODEL 6
REMARK VINA RESULT:      -4.1     11.398     12.349
REMARK  3 active torsions:
REMARK  status: ('A' for Active; 'I' for Inactive)
REMARK    1  A    between atoms: C5_5  and  C7_7 
REMARK    2  A    between atoms: C6_6  and  C7_7 
REMARK    3  A    between atoms: C7_7  and  O8_8 
ROOT
HETATM    1  C1  UNL     1     -38.380  14.697  -4.145  1.00 20.00     0.012 C 
HETATM    2  C2  UNL     1     -37.216  14.759  -3.857  1.00 20.00    -0.115 C 
HETATM    3  C5  UNL     1     -35.790  14.844  -3.500  1.00 20.00     0.130 C 
ENDROOT
BRANCH   3   4
HETATM    4  C7  UNL     1     -34.911  13.828  -4.259  1.00 20.00     0.064 C 
HETATM    5  C4  UNL     1     -35.019  14.086  -5.768  1.00 20.00     0.046 C 
BRANCH   4   6
HETATM    6  C6  UNL     1     -33.434  13.802  -3.809  1.00 20.00     0.034 C 
HETATM    7  C3  UNL     1     -32.757  15.160  -3.702  1.00 20.00     0.008 C 
ENDBRANCH   4   6
BRANCH   4   8
HETATM    8  O8  UNL     1     -35.432  12.510  -4.025  1.00 20.00    -0.389 OA
HETATM    9  H20 UNL     1     -34.914  12.147  -3.293  1.00 20.00     0.210 HD
ENDBRANCH   4   8
ENDBRANCH   3   4
TORSDOF 3
ENDMDL
MODEL 7
REMARK VINA RESULT:      -3.9     11.897     12.906
REMARK  3 active torsions:
REMARK  status: ('A' for Active; 'I' for Inactive)
REMARK    1  A    between atoms: C5_5  and  C7_7 
REMARK    2  A    between atoms: C6_6  and  C7_7 
REMARK    3  A    between atoms: C7_7  and  O8_8 
ROOT
HETATM    1  C1  UNL     1     -33.772  17.054  -1.536  1.00 20.00     0.012 C 
HETATM    2  C2  UNL     1     -34.230  16.172  -2.210  1.00 20.00    -0.115 C 
HETATM    3  C5  UNL     1     -34.799  15.089  -3.029  1.00 20.00     0.130 C 
ENDROOT
BRANCH   3   4
HETATM    4  C7  UNL     1     -33.923  14.722  -4.246  1.00 20.00     0.064 C 
HETATM    5  C4  UNL     1     -34.306  13.324  -4.748  1.00 20.00     0.046 C 
BRANCH   4   6
HETATM    6  C6  UNL     1     -33.966  15.752  -5.396  1.00 20.00     0.034 C 
HETATM    7  C3  UNL     1     -34.382  15.203  -6.753  1.00 20.00     0.008 C 
ENDBRANCH   4   6
BRANCH   4   8
HETATM    8  O8  UNL     1     -32.554  14.648  -3.817  1.00 20.00    -0.389 OA
HETATM    9  H20 UNL     1     -32.084  15.335  -4.310  1.00 20.00     0.210 HD
ENDBRANCH   4   8
ENDBRANCH   3   4
TORSDOF 3
ENDMDL
MODEL 8
REMARK VINA RESULT:      -3.9      1.778      3.691
REMARK  3 active torsions:
REMARK  status: ('A' for Active; 'I' for Inactive)
REMARK    1  A    between atoms: C5_5  and  C7_7 
REMARK    2  A    between atoms: C6_6  and  C7_7 
REMARK    3  A    between atoms: C7_7  and  O8_8 
ROOT
HETATM    1  C1  UNL     1     -35.061   4.319   5.896  1.00 20.00     0.012 C 
HETATM    2  C2  UNL     1     -34.431   5.263   5.506  1.00 20.00    -0.115 C 
HETATM    3  C5  UNL     1     -33.661   6.427   5.035  1.00 20.00     0.130 C 
ENDROOT
BRANCH   3   4
HETATM    4  C7  UNL     1     -33.295   6.349   3.537  1.00 20.00     0.064 C 
HETATM    5  C4  UNL     1     -34.257   5.387   2.826  1.00 20.00     0.046 C 
BRANCH   4   6
HETATM    6  C6  UNL     1     -33.252   7.716   2.821  1.00 20.00     0.034 C 
HETATM    7  C3  UNL     1     -31.948   8.042   2.108  1.00 20.00     0.008 C 
ENDBRANCH   4   6
BRANCH   4   8
HETATM    8  O8  UNL     1     -31.980   5.784   3.418  1.00 20.00    -0.389 OA
HETATM    9  H20 UNL     1     -31.436   6.467   3.002  1.00 20.00     0.210 HD
ENDBRANCH   4   8
ENDBRANCH   3   4
TORSDOF 3
ENDMDL
MODEL 9
REMARK VINA RESULT:      -3.9     11.612     12.594
REMARK  3 active torsions:
REMARK  status: ('A' for Active; 'I' for Inactive)
REMARK    1  A    between atoms: C5_5  and  C7_7 
REMARK    2  A    between atoms: C6_6  and  C7_7 
REMARK    3  A    between atoms: C7_7  and  O8_8 
ROOT
HETATM    1  C1  UNL     1     -34.654  16.552  -1.012  1.00 20.00     0.012 C 
HETATM    2  C2  UNL     1     -34.124  16.260  -2.049  1.00 20.00    -0.115 C 
HETATM    3  C5  UNL     1     -33.467  15.908  -3.318  1.00 20.00     0.130 C 
ENDROOT
BRANCH   3   4
HETATM    4  C7  UNL     1     -34.349  15.039  -4.240  1.00 20.00     0.064 C 
HETATM    5  C4  UNL     1     -34.350  13.592  -3.730  1.00 20.00     0.046 C 
BRANCH   4   6
HETATM    6  C6  UNL     1     -35.791  15.562  -4.418  1.00 20.00     0.034 C 
HETATM    7  C3  UNL     1     -36.893  14.614  -3.966  1.00 20.00     0.008 C 
ENDBRANCH   4   6
BRANCH   4   8
HETATM    8  O8  UNL     1     -33.759  15.018  -5.549  1.00 20.00    -0.389 OA
HETATM    9  H20 UNL     1     -34.201  15.718  -6.050  1.00 20.00     0.210 HD
ENDBRANCH   4   8
ENDBRANCH   3   4
TORSDOF 3
ENDMDL
