MODEL 1
REMARK VINA RESULT:      -4.2      0.000      0.000
REMARK  3 active torsions:
REMARK  status: ('A' for Active; 'I' for Inactive)
REMARK    1  A    between atoms: C3_3  and  C4_4 
REMARK    2  A    between atoms: C4_4  and  C6_6 
REMARK    3  A    between atoms: C5_5  and  C6_6 
ROOT
HETATM    1  C1  UNL     1     -34.847   4.694   4.488  1.00 20.00     0.065 C 
HETATM    2  C6  UNL     1     -34.325   6.015   4.082  1.00 20.00     0.106 C 
HETATM    3  N7  UNL     1     -35.259   3.656   4.805  1.00 20.00    -0.197 NA
ENDROOT
BRANCH   2   4
HETATM    4  C4  UNL     1     -33.321   5.890   2.920  1.00 20.00     0.020 C 
BRANCH   4   5
HETATM    5  C3  UNL     1     -32.072   6.756   3.122  1.00 20.00    -0.003 C 
HETATM    6  C2  UNL     1     -32.085   7.972   2.209  1.00 20.00     0.005 C 
ENDBRANCH   4   5
ENDBRANCH   2   4
BRANCH   2   7
HETATM    7  C5  UNL     1     -33.731   6.756   5.290  1.00 20.00     0.133 C 
HETATM    8 CL8  UNL     1     -34.360   6.182   6.858  1.00 20.00    -0.129 Cl
ENDBRANCH   2   7
TORSDOF 3
ENDMDL
MODEL 2
REMARK VINA RESULT:      -4.2      1.845      2.210
REMARK  3 active torsions:
REMARK  status: ('A' for Active; 'I' for Inactive)
REMARK    1  A    between atoms: C3_3  and  C4_4 
REMARK    2  A    between atoms: C4_4  and  C6_6 
REMARK    3  A    between atoms: C5_5  and  C6_6 
ROOT
HETATM    1  C1  UNL     1     -33.716   6.548   5.793  1.00 20.00     0.065 C 
HETATM    2  C6  UNL     1     -33.760   5.735   4.560  1.00 20.00     0.106 C 
HETATM    3  N7  UNL     1     -33.680   7.186   6.761  1.00 20.00    -0.197 NA
ENDROOT
BRANCH   2   4
HETATM    4  C4  UNL     1     -33.589   6.610   3.303  1.00 20.00     0.020 C 
BRANCH   4   5
HETATM    5  C3  UNL     1     -32.140   7.067   3.093  1.00 20.00    -0.003 C 
HETATM    6  C2  UNL     1     -32.055   8.194   2.077  1.00 20.00     0.005 C 
ENDBRANCH   4   5
ENDBRANCH   2   4
BRANCH   2   7
HETATM    7  C5  UNL     1     -35.042   4.890   4.514  1.00 20.00     0.133 C 
HETATM    8 CL8  UNL     1     -35.348   3.975   6.015  1.00 20.00    -0.129 Cl
ENDBRANCH   2   7
TORSDOF 3
ENDMDL
MODEL 3
REMARK VINA RESULT:      -4.1      2.584      3.805
REMARK  3 active torsions:
REMARK  status: ('A' for Active; 'I' for Inactive)
REMARK    1  A    between atoms: C3_3  and  C4_4 
REMARK    2  A    between atoms: C4_4  and  C6_6 
REMARK    3  A    between atoms: C5_5  and  C6_6 
ROOT
HETATM    1  C1  UNL     1     -33.599   6.788   5.382  1.00 20.00     0.065 C 
HETATM    2  C6  UNL     1     -33.641   6.632   3.913  1.00 20.00     0.106 C 
HETATM    3  N7  UNL     1     -33.567   6.912   6.535  1.00 20.00    -0.197 NA
ENDROOT
BRANCH   2   4
HETATM    4  C4  UNL     1     -34.378   5.341   3.506  1.00 20.00     0.020 C 
BRANCH   4   5
HETATM    5  C3  UNL     1     -35.452   4.927   4.520  1.00 20.00    -0.003 C 
HETATM    6  C2  UNL     1     -34.962   3.804   5.420  1.00 20.00     0.005 C 
ENDBRANCH   4   5
ENDBRANCH   2   4
BRANCH   2   7
HETATM    7  C5  UNL     1     -32.226   6.709   3.319  1.00 20.00     0.133 C 
HETATM    8 CL8  UNL     1     -32.021   8.030   2.137  1.00 20.00    -0.129 Cl
ENDBRANCH   2   7
TORSDOF 3
ENDMDL
MODEL 4
REMARK VINA RESULT:      -4.1     11.934     12.479
REMARK  3 active torsions:
REMARK  status: ('A' for Active; 'I' for Inactive)
REMARK    1  A    between atoms: C3_3  and  C4_4 
REMARK    2  A    between atoms: C4_4  and  C6_6 
REMARK    3  A    between atoms: C5_5  and  C6_6 
ROOT
HETATM    1  C1  UNL     1     -34.339  13.735  -4.037  1.00 20.00     0.065 C 
HETATM    2  C6  UNL     1     -33.718  14.921  -3.413  1.00 20.00     0.106 C 
HETATM    3  N7  UNL     1     -34.826  12.803  -4.527  1.00 20.00    -0.197 NA
ENDROOT
BRANCH   2   4
HETATM    4  C4  UNL     1     -34.705  15.646  -2.477  1.00 20.00     0.020 C 
BRANCH   4   5
HETATM    5  C3  UNL     1     -34.032  16.744  -1.644  1.00 20.00    -0.003 C 
HETATM    6  C2  UNL     1     -34.753  16.958  -0.323  1.00 20.00     0.005 C 
ENDBRANCH   4   5
ENDBRANCH   2   4
BRANCH   2   7
HETATM    7  C5  UNL     1     -33.136  15.856  -4.485  1.00 20.00     0.133 C 
HETATM    8 CL8  UNL     1     -34.019  15.799  -6.034  1.00 20.00    -0.129 Cl
ENDBRANCH   2   7
TORSDOF 3
ENDMDL
MODEL 5
REMARK VINA RESULT:      -3.7     12.051     12.628
REMARK  3 active torsions:
REMARK  status: ('A' for Active; 'I' for Inactive)
REMARK    1  A    between atoms: C3_3  and  C4_4 
REMARK    2  A    between atoms: C4_4  and  C6_6 
REMARK    3  A    between atoms: C5_5  and  C6_6 
ROOT
HETATM    1  C1  UNL     1     -34.408  13.780  -4.461  1.00 20.00     0.065 C 
HETATM    2  C6  UNL     1     -33.774  15.114  -4.493  1.00 20.00     0.106 C 
HETATM    3  N7  UNL     1     -34.905  12.732  -4.436  1.00 20.00    -0.197 NA
ENDROOT
BRANCH   2   4
HETATM    4  C4  UNL     1     -33.532  15.656  -3.071  1.00 20.00     0.020 C 
BRANCH   4   5
HETATM    5  C3  UNL     1     -34.827  15.788  -2.260  1.00 20.00    -0.003 C 
HETATM    6  C2  UNL     1     -34.614  16.622  -1.007  1.00 20.00     0.005 C 
ENDBRANCH   4   5
ENDBRANCH   2   4
BRANCH   2   7
HETATM    7  C5  UNL     1     -34.595  16.083  -5.356  1.00 20.00     0.133 C 
HETATM    8 CL8  UNL     1     -36.302  15.598  -5.544  1.00 20.00    -0.129 Cl
ENDBRANCH   2   7
TORSDOF 3
ENDMDL
MODEL 6
REMARK VINA RESULT:      -3.7     12.109     12.744
REMARK  3 active torsions:
REMARK  status: ('A' for Active; 'I' for Inactive)
REMARK    1  A    between atoms: C3_3  and  C4_4 
REMARK    2  A    between atoms: C4_4  and  C6_6 
REMARK    3  A    between atoms: C5_5  and  C6_6 
ROOT
HETATM    1  C1  UNL     1     -36.680  14.368  -4.072  1.00 20.00     0.065 C 
HETATM    2  C6  UNL     1     -35.268  14.396  -4.504  1.00 20.00     0.106 C 
HETATM    3  N7  UNL     1     -37.790  14.345  -3.733  1.00 20.00    -0.197 NA
ENDROOT
BRANCH   2   4
HETATM    4  C4  UNL     1     -34.311  14.423  -3.296  1.00 20.00     0.020 C 
BRANCH   4   5
HETATM    5  C3  UNL     1     -33.928  15.848  -2.877  1.00 20.00    -0.003 C 
HETATM    6  C2  UNL     1     -34.630  16.256  -1.592  1.00 20.00     0.005 C 
ENDBRANCH   4   5
ENDBRANCH   2   4
BRANCH   2   7
HETATM    7  C5  UNL     1     -35.020  15.563  -5.472  1.00 20.00     0.133 C 
HETATM    8 CL8  UNL     1     -34.304  15.059  -7.027  1.00 20.00    -0.129 Cl
ENDBRANCH   2   7
TORSDOF 3
ENDMDL
MODEL 7
REMARK VINA RESULT:      -3.7      2.249      3.569
REMARK  3 active torsions:
REMARK  status: ('A' for Active; 'I' for Inactive)
REMARK    1  A    between atoms: C3_3  and  C4_4 
REMARK    2  A    between atoms: C4_4  and  C6_6 
REMARK    3  A    between atoms: C5_5  and  C6_6 
ROOT
HETATM    1  C1  UNL     1     -32.518   7.084   2.982  1.00 20.00     0.065 C 
HETATM    2  C6  UNL     1     -33.240   6.297   4.003  1.00 20.00     0.106 C 
HETATM    3  N7  UNL     1     -31.950   7.701   2.181  1.00 20.00    -0.197 NA
ENDROOT
BRANCH   2   4
HETATM    4  C4  UNL     1     -34.244   5.323   3.357  1.00 20.00     0.020 C 
BRANCH   4   5
HETATM    5  C3  UNL     1     -35.395   4.949   4.299  1.00 20.00    -0.003 C 
HETATM    6  C2  UNL     1     -34.956   3.921   5.330  1.00 20.00     0.005 C 
ENDBRANCH   4   5
ENDBRANCH   2   4
BRANCH   2   7
HETATM    7  C5  UNL     1     -33.905   7.224   5.032  1.00 20.00     0.133 C 
HETATM    8 CL8  UNL     1     -33.457   6.855   6.719  1.00 20.00    -0.129 Cl
ENDBRANCH   2   7
TORSDOF 3
ENDMDL
MODEL 8
REMARK VINA RESULT:      -3.7     11.903     12.716
REMARK  3 active torsions:
REMARK  status: ('A' for Active; 'I' for Inactive)
REMARK    1  A    between atoms: C3_3  and  C4_4 
REMARK    2  A    between atoms: C4_4  and  C6_6 
REMARK    3  A    between atoms: C5_5  and  C6_6 
ROOT
HETATM    1  C1  UNL     1     -33.511  16.992  -4.150  1.00 20.00     0.065 C 
HETATM    2  C6  UNL     1     -33.494  15.970  -3.083  1.00 20.00     0.106 C 
HETATM    3  N7  UNL     1     -33.523  17.794  -4.987  1.00 20.00    -0.197 NA
ENDROOT
BRANCH   2   4
HETATM    4  C4  UNL     1     -33.162  14.575  -3.645  1.00 20.00     0.020 C 
BRANCH   4   5
HETATM    5  C3  UNL     1     -34.381  13.645  -3.679  1.00 20.00    -0.003 C 
HETATM    6  C2  UNL     1     -34.805  13.338  -5.107  1.00 20.00     0.005 C 
ENDBRANCH   4   5
ENDBRANCH   2   4
BRANCH   2   7
HETATM    7  C5  UNL     1     -34.815  15.985  -2.298  1.00 20.00     0.133 C 
HETATM    8 CL8  UNL     1     -34.647  16.603  -0.633  1.00 20.00    -0.129 Cl
ENDBRANCH   2   7
TORSDOF 3
ENDMDL
MODEL 9
REMARK VINA RESULT:      -3.6     12.227     12.709
REMARK  3 active torsions:
REMARK  status: ('A' for Active; 'I' for Inactive)
REMARK    1  A    between atoms: C3_3  and  C4_4 
REMARK    2  A    between atoms: C4_4  and  C6_6 
REMARK    3  A    between atoms: C5_5  and  C6_6 
ROOT
HETATM    1  C1  UNL     1     -36.542  14.451  -3.961  1.00 20.00     0.065 C 
HETATM    2  C6  UNL     1     -35.093  14.636  -4.177  1.00 20.00     0.106 C 
HETATM    3  N7  UNL     1     -37.681  14.304  -3.791  1.00 20.00    -0.197 NA
ENDROOT
BRANCH   2   4
HETATM    4  C4  UNL     1     -34.395  15.152  -2.903  1.00 20.00     0.020 C 
BRANCH   4   5
HETATM    5  C3  UNL     1     -35.188  16.263  -2.204  1.00 20.00    -0.003 C 
HETATM    6  C2  UNL     1     -34.563  16.635  -0.869  1.00 20.00     0.005 C 
ENDBRANCH   4   5
ENDBRANCH   2   4
BRANCH   2   7
HETATM    7  C5  UNL     1     -34.838  15.543  -5.391  1.00 20.00     0.133 C 
HETATM    8 CL8  UNL     1     -33.287  16.422  -5.310  1.00 20.00    -0.129 Cl
ENDBRANCH   2   7
TORSDOF 3
ENDMDL
