MODEL 1
REMARK VINA RESULT:      -4.2      0.000      0.000
REMARK  3 active torsions:
REMARK  status: ('A' for Active; 'I' for Inactive)
REMARK    1  A    between atoms: C4_4  and  C6_6 
REMARK    2  A    between atoms: C4_4  and  C7_7 
REMARK    3  A    between atoms: C5_5  and  C6_6 
ROOT
HETATM    1  C1  UNL     1     -34.525  13.744  -3.866  1.00 20.00     0.065 C 
HETATM    2  C6  UNL     1     -33.968  14.989  -3.299  1.00 20.00     0.107 C 
HETATM    3  N8  UNL     1     -34.961  12.764  -4.308  1.00 20.00    -0.197 NA
ENDROOT
BRANCH   2   4
HETATM    4  C4  UNL     1     -33.204  15.801  -4.365  1.00 20.00     0.024 C 
BRANCH   4   5
HETATM    5  C7  UNL     1     -34.092  16.550  -5.385  1.00 20.00    -0.021 C 
HETATM    6  C2  UNL     1     -33.587  17.987  -5.550  1.00 20.00     0.009 C 
HETATM    7  C3  UNL     1     -34.127  15.861  -6.751  1.00 20.00     0.009 C 
ENDBRANCH   4   5
ENDBRANCH   2   4
BRANCH   2   8
HETATM    8  C5  UNL     1     -35.072  15.816  -2.618  1.00 20.00     0.133 C 
HETATM    9 CL9  UNL     1     -34.622  16.421  -1.001  1.00 20.00    -0.129 Cl
ENDBRANCH   2   8
TORSDOF 3
ENDMDL
MODEL 2
REMARK VINA RESULT:      -4.2     11.227     12.616
REMARK  3 active torsions:
REMARK  status: ('A' for Active; 'I' for Inactive)
REMARK    1  A    between atoms: C4_4  and  C6_6 
REMARK    2  A    between atoms: C4_4  and  C7_7 
REMARK    3  A    between atoms: C5_5  and  C6_6 
ROOT
HETATM    1  C1  UNL     1     -33.987   6.526   5.512  1.00 20.00     0.065 C 
HETATM    2  C6  UNL     1     -34.272   6.231   4.094  1.00 20.00     0.107 C 
HETATM    3  N8  UNL     1     -33.766   6.760   6.628  1.00 20.00    -0.197 NA
ENDROOT
BRANCH   2   4
HETATM    4  C4  UNL     1     -32.988   6.282   3.239  1.00 20.00     0.024 C 
BRANCH   4   5
HETATM    5  C7  UNL     1     -32.318   7.671   3.140  1.00 20.00    -0.021 C 
HETATM    6  C2  UNL     1     -31.013   7.671   3.943  1.00 20.00     0.009 C 
HETATM    7  C3  UNL     1     -32.029   8.083   1.695  1.00 20.00     0.009 C 
ENDBRANCH   4   5
ENDBRANCH   2   4
BRANCH   2   8
HETATM    8  C5  UNL     1     -35.009   4.889   3.956  1.00 20.00     0.133 C 
HETATM    9 CL9  UNL     1     -34.968   3.892   5.436  1.00 20.00    -0.129 Cl
ENDBRANCH   2   8
TORSDOF 3
ENDMDL
MODEL 3
REMARK VINA RESULT:      -4.1      2.743      3.599
REMARK  3 active torsions:
REMARK  status: ('A' for Active; 'I' for Inactive)
REMARK    1  A    between atoms: C4_4  and  C6_6 
REMARK    2  A    between atoms: C4_4  and  C7_7 
REMARK    3  A    between atoms: C5_5  and  C6_6 
ROOT
HETATM    1  C1  UNL     1     -36.778  14.531  -4.064  1.00 20.00     0.065 C 
HETATM    2  C6  UNL     1     -35.385  14.817  -4.464  1.00 20.00     0.107 C 
HETATM    3  N8  UNL     1     -37.873  14.309  -3.751  1.00 20.00    -0.197 NA
ENDROOT
BRANCH   2   4
HETATM    4  C4  UNL     1     -34.406  14.605  -3.290  1.00 20.00     0.024 C 
BRANCH   4   5
HETATM    5  C7  UNL     1     -33.831  15.899  -2.670  1.00 20.00    -0.021 C 
HETATM    6  C2  UNL     1     -33.804  17.008  -3.727  1.00 20.00     0.009 C 
HETATM    7  C3  UNL     1     -34.628  16.372  -1.453  1.00 20.00     0.009 C 
ENDBRANCH   4   5
ENDBRANCH   2   4
BRANCH   2   8
HETATM    8  C5  UNL     1     -34.997  13.993  -5.702  1.00 20.00     0.133 C 
HETATM    9 CL9  UNL     1     -34.328  14.972  -7.036  1.00 20.00    -0.129 Cl
ENDBRANCH   2   8
TORSDOF 3
ENDMDL
MODEL 4
REMARK VINA RESULT:      -4.1      2.921      3.785
REMARK  3 active torsions:
REMARK  status: ('A' for Active; 'I' for Inactive)
REMARK    1  A    between atoms: C4_4  and  C6_6 
REMARK    2  A    between atoms: C4_4  and  C7_7 
REMARK    3  A    between atoms: C5_5  and  C6_6 
ROOT
HETATM    1  C1  UNL     1     -34.461  16.545  -1.263  1.00 20.00     0.065 C 
HETATM    2  C6  UNL     1     -34.048  16.130  -2.619  1.00 20.00     0.107 C 
HETATM    3  N8  UNL     1     -34.783  16.871  -0.196  1.00 20.00    -0.197 NA
ENDROOT
BRANCH   2   4
HETATM    4  C4  UNL     1     -35.060  15.144  -3.240  1.00 20.00     0.024 C 
BRANCH   4   5
HETATM    5  C7  UNL     1     -34.475  13.777  -3.660  1.00 20.00    -0.021 C 
HETATM    6  C2  UNL     1     -34.894  13.459  -5.099  1.00 20.00     0.009 C 
HETATM    7  C3  UNL     1     -32.950  13.731  -3.549  1.00 20.00     0.009 C 
ENDBRANCH   4   5
ENDBRANCH   2   4
BRANCH   2   8
HETATM    8  C5  UNL     1     -33.809  17.358  -3.512  1.00 20.00     0.133 C 
HETATM    9 CL9  UNL     1     -33.296  16.950  -5.172  1.00 20.00    -0.129 Cl
ENDBRANCH   2   8
TORSDOF 3
ENDMDL
MODEL 5
REMARK VINA RESULT:      -4.0      2.497      3.403
REMARK  3 active torsions:
REMARK  status: ('A' for Active; 'I' for Inactive)
REMARK    1  A    between atoms: C4_4  and  C6_6 
REMARK    2  A    between atoms: C4_4  and  C7_7 
REMARK    3  A    between atoms: C5_5  and  C6_6 
ROOT
HETATM    1  C1  UNL     1     -34.303  13.675  -3.813  1.00 20.00     0.065 C 
HETATM    2  C6  UNL     1     -35.608  14.348  -3.974  1.00 20.00     0.107 C 
HETATM    3  N8  UNL     1     -33.279  13.143  -3.687  1.00 20.00    -0.197 NA
ENDROOT
BRANCH   2   4
HETATM    4  C4  UNL     1     -35.747  15.545  -3.012  1.00 20.00     0.024 C 
BRANCH   4   5
HETATM    5  C7  UNL     1     -34.422  16.059  -2.403  1.00 20.00    -0.021 C 
HETATM    6  C2  UNL     1     -33.856  17.183  -3.278  1.00 20.00     0.009 C 
HETATM    7  C3  UNL     1     -34.590  16.564  -0.969  1.00 20.00     0.009 C 
ENDBRANCH   4   5
ENDBRANCH   2   4
BRANCH   2   8
HETATM    8  C5  UNL     1     -35.832  14.751  -5.441  1.00 20.00     0.133 C 
HETATM    9 CL9  UNL     1     -34.328  15.151  -6.314  1.00 20.00    -0.129 Cl
ENDBRANCH   2   8
TORSDOF 3
ENDMDL
MODEL 6
REMARK VINA RESULT:      -4.0      2.367      3.490
REMARK  3 active torsions:
REMARK  status: ('A' for Active; 'I' for Inactive)
REMARK    1  A    between atoms: C4_4  and  C6_6 
REMARK    2  A    between atoms: C4_4  and  C7_7 
REMARK    3  A    between atoms: C5_5  and  C6_6 
ROOT
HETATM    1  C1  UNL     1     -34.646  13.886  -4.439  1.00 20.00     0.065 C 
HETATM    2  C6  UNL     1     -34.477  15.344  -4.279  1.00 20.00     0.107 C 
HETATM    3  N8  UNL     1     -34.782  12.740  -4.566  1.00 20.00    -0.197 NA
ENDROOT
BRANCH   2   4
HETATM    4  C4  UNL     1     -33.745  15.686  -2.964  1.00 20.00     0.024 C 
BRANCH   4   5
HETATM    5  C7  UNL     1     -34.638  16.269  -1.846  1.00 20.00    -0.021 C 
HETATM    6  C2  UNL     1     -33.840  17.290  -1.030  1.00 20.00     0.009 C 
HETATM    7  C3  UNL     1     -35.907  16.929  -2.390  1.00 20.00     0.009 C 
ENDBRANCH   4   5
ENDBRANCH   2   4
BRANCH   2   8
HETATM    8  C5  UNL     1     -33.776  15.947  -5.508  1.00 20.00     0.133 C 
HETATM    9 CL9  UNL     1     -34.227  15.165  -7.047  1.00 20.00    -0.129 Cl
ENDBRANCH   2   8
TORSDOF 3
ENDMDL
MODEL 7
REMARK VINA RESULT:      -3.9      2.438      3.411
REMARK  3 active torsions:
REMARK  status: ('A' for Active; 'I' for Inactive)
REMARK    1  A    between atoms: C4_4  and  C6_6 
REMARK    2  A    between atoms: C4_4  and  C7_7 
REMARK    3  A    between atoms: C5_5  and  C6_6 
ROOT
HETATM    1  C1  UNL     1     -36.744  14.751  -3.781  1.00 20.00     0.065 C 
HETATM    2  C6  UNL     1     -35.364  15.276  -3.796  1.00 20.00     0.107 C 
HETATM    3  N8  UNL     1     -37.830  14.341  -3.771  1.00 20.00    -0.197 NA
ENDROOT
BRANCH   2   4
HETATM    4  C4  UNL     1     -34.816  15.464  -2.366  1.00 20.00     0.024 C 
BRANCH   4   5
HETATM    5  C7  UNL     1     -33.929  16.713  -2.159  1.00 20.00    -0.021 C 
HETATM    6  C2  UNL     1     -34.283  17.773  -3.206  1.00 20.00     0.009 C 
HETATM    7  C3  UNL     1     -34.072  17.310  -0.758  1.00 20.00     0.009 C 
ENDBRANCH   4   5
ENDBRANCH   2   4
BRANCH   2   8
HETATM    8  C5  UNL     1     -34.454  14.381  -4.655  1.00 20.00     0.133 C 
HETATM    9 CL9  UNL     1     -33.153  13.582  -3.730  1.00 20.00    -0.129 Cl
ENDBRANCH   2   8
TORSDOF 3
ENDMDL
MODEL 8
REMARK VINA RESULT:      -3.9      2.601      3.813
REMARK  3 active torsions:
REMARK  status: ('A' for Active; 'I' for Inactive)
REMARK    1  A    between atoms: C4_4  and  C6_6 
REMARK    2  A    between atoms: C4_4  and  C7_7 
REMARK    3  A    between atoms: C5_5  and  C6_6 
ROOT
HETATM    1  C1  UNL     1     -33.620  16.023  -4.882  1.00 20.00     0.065 C 
HETATM    2  C6  UNL     1     -33.418  15.389  -3.563  1.00 20.00     0.107 C 
HETATM    3  N8  UNL     1     -33.775  16.521  -5.918  1.00 20.00    -0.197 NA
ENDROOT
BRANCH   2   4
HETATM    4  C4  UNL     1     -34.445  15.898  -2.530  1.00 20.00     0.024 C 
BRANCH   4   5
HETATM    5  C7  UNL     1     -33.885  16.877  -1.473  1.00 20.00    -0.021 C 
HETATM    6  C2  UNL     1     -33.710  18.265  -2.099  1.00 20.00     0.009 C 
HETATM    7  C3  UNL     1     -34.780  16.983  -0.237  1.00 20.00     0.009 C 
ENDBRANCH   4   5
ENDBRANCH   2   4
BRANCH   2   8
HETATM    8  C5  UNL     1     -33.432  13.857  -3.691  1.00 20.00     0.133 C 
HETATM    9 CL9  UNL     1     -34.998  13.195  -4.233  1.00 20.00    -0.129 Cl
ENDBRANCH   2   8
TORSDOF 3
ENDMDL
MODEL 9
REMARK VINA RESULT:      -3.8      2.438      3.311
REMARK  3 active torsions:
REMARK  status: ('A' for Active; 'I' for Inactive)
REMARK    1  A    between atoms: C4_4  and  C6_6 
REMARK    2  A    between atoms: C4_4  and  C7_7 
REMARK    3  A    between atoms: C5_5  and  C6_6 
ROOT
HETATM    1  C1  UNL     1     -34.252  14.127  -3.424  1.00 20.00     0.065 C 
HETATM    2  C6  UNL     1     -34.775  15.397  -2.881  1.00 20.00     0.107 C 
HETATM    3  N8  UNL     1     -33.843  13.127  -3.848  1.00 20.00    -0.197 NA
ENDROOT
BRANCH   2   4
HETATM    4  C4  UNL     1     -33.661  16.456  -2.753  1.00 20.00     0.024 C 
BRANCH   4   5
HETATM    5  C7  UNL     1     -33.635  17.227  -1.413  1.00 20.00    -0.021 C 
HETATM    6  C2  UNL     1     -33.730  18.732  -1.683  1.00 20.00     0.009 C 
HETATM    7  C3  UNL     1     -34.763  16.804  -0.470  1.00 20.00     0.009 C 
ENDBRANCH   4   5
ENDBRANCH   2   4
BRANCH   2   8
HETATM    8  C5  UNL     1     -35.961  15.898  -3.721  1.00 20.00     0.133 C 
HETATM    9 CL9  UNL     1     -37.347  14.775  -3.751  1.00 20.00    -0.129 Cl
ENDBRANCH   2   8
TORSDOF 3
ENDMDL
