MODEL 1
REMARK VINA RESULT:      -4.3      0.000      0.000
REMARK  2 active torsions:
REMARK  status: ('A' for Active; 'I' for Inactive)
REMARK    1  A    between atoms: C9_9  and  C10_10 
REMARK    2  A    between atoms: C10_10  and  N12_12 
ROOT
HETATM    1  C1  UNL     1     -34.722  16.867  -0.522  1.00 20.00     0.061 C 
HETATM    2  C9  UNL     1     -34.400  16.116  -1.745  1.00 20.00     0.159 C 
HETATM    3  N11 UNL     1     -34.975  17.457   0.445  1.00 20.00    -0.197 NA
ENDROOT
BRANCH   2   4
HETATM    4  C10 UNL     1     -35.110  16.697  -2.975  1.00 20.00     0.233 C 
HETATM    5  C8  UNL     1     -36.445  17.324  -2.585  1.00 20.00     0.044 C 
BRANCH   4   6
HETATM    6  N12 UNL     1     -35.322  15.676  -3.987  1.00 20.00     0.102 N 
HETATM    7  C4  UNL     1     -34.880  14.355  -3.547  1.00 20.00     0.274 C 
HETATM    8  C2  UNL     1     -35.000  13.548  -4.822  1.00 20.00     0.033 C 
HETATM    9  C3  UNL     1     -34.490  14.504  -5.891  1.00 20.00     0.043 C 
HETATM   10  C5  UNL     1     -34.733  15.922  -5.321  1.00 20.00     0.153 C 
HETATM   11  C6  UNL     1     -35.771  16.664  -6.175  1.00 20.00     0.049 C 
HETATM   12  C7  UNL     1     -33.414  16.714  -5.325  1.00 20.00     0.049 C 
ENDBRANCH   4   6
ENDBRANCH   2   4
TORSDOF 2
ENDMDL
MODEL 2
REMARK VINA RESULT:      -4.3      1.642      4.227
REMARK  2 active torsions:
REMARK  status: ('A' for Active; 'I' for Inactive)
REMARK    1  A    between atoms: C9_9  and  C10_10 
REMARK    2  A    between atoms: C10_10  and  N12_12 
ROOT
HETATM    1  C1  UNL     1     -34.316  13.629  -4.262  1.00 20.00     0.061 C 
HETATM    2  C9  UNL     1     -33.651  14.781  -3.633  1.00 20.00     0.159 C 
HETATM    3  N11 UNL     1     -34.839  12.719  -4.758  1.00 20.00    -0.197 NA
ENDROOT
BRANCH   2   4
HETATM    4  C10 UNL     1     -34.244  16.113  -4.110  1.00 20.00     0.233 C 
HETATM    5  C8  UNL     1     -33.322  16.784  -5.123  1.00 20.00     0.044 C 
BRANCH   4   6
HETATM    6  N12 UNL     1     -34.483  17.009  -2.991  1.00 20.00     0.102 N 
HETATM    7  C4  UNL     1     -34.151  16.397  -1.707  1.00 20.00     0.274 C 
HETATM    8  C2  UNL     1     -34.686  17.422  -0.730  1.00 20.00     0.033 C 
HETATM    9  C3  UNL     1     -36.003  17.853  -1.358  1.00 20.00     0.043 C 
HETATM   10  C5  UNL     1     -35.839  17.587  -2.873  1.00 20.00     0.153 C 
HETATM   11  C6  UNL     1     -35.866  18.912  -3.649  1.00 20.00     0.049 C 
HETATM   12  C7  UNL     1     -36.986  16.688  -3.368  1.00 20.00     0.049 C 
ENDBRANCH   4   6
ENDBRANCH   2   4
TORSDOF 2
ENDMDL
MODEL 3
REMARK VINA RESULT:      -4.3      1.906      4.243
REMARK  2 active torsions:
REMARK  status: ('A' for Active; 'I' for Inactive)
REMARK    1  A    between atoms: C9_9  and  C10_10 
REMARK    2  A    between atoms: C10_10  and  N12_12 
ROOT
HETATM    1  C1  UNL     1     -34.366  13.601  -4.196  1.00 20.00     0.061 C 
HETATM    2  C9  UNL     1     -33.804  14.793  -3.543  1.00 20.00     0.159 C 
HETATM    3  N11 UNL     1     -34.808  12.660  -4.713  1.00 20.00    -0.197 NA
ENDROOT
BRANCH   2   4
HETATM    4  C10 UNL     1     -34.897  15.675  -2.925  1.00 20.00     0.233 C 
HETATM    5  C8  UNL     1     -36.283  15.190  -3.339  1.00 20.00     0.044 C 
BRANCH   4   6
HETATM    6  N12 UNL     1     -34.725  17.066  -3.309  1.00 20.00     0.102 N 
HETATM    7  C4  UNL     1     -33.676  17.243  -4.310  1.00 20.00     0.274 C 
HETATM    8  C2  UNL     1     -33.553  18.750  -4.364  1.00 20.00     0.033 C 
HETATM    9  C3  UNL     1     -33.668  19.165  -2.905  1.00 20.00     0.043 C 
HETATM   10  C5  UNL     1     -34.473  18.035  -2.221  1.00 20.00     0.153 C 
HETATM   11  C6  UNL     1     -35.826  18.572  -1.731  1.00 20.00     0.049 C 
HETATM   12  C7  UNL     1     -33.680  17.489  -1.020  1.00 20.00     0.049 C 
ENDBRANCH   4   6
ENDBRANCH   2   4
TORSDOF 2
ENDMDL
MODEL 4
REMARK VINA RESULT:      -4.3      1.305      1.559
REMARK  2 active torsions:
REMARK  status: ('A' for Active; 'I' for Inactive)
REMARK    1  A    between atoms: C9_9  and  C10_10 
REMARK    2  A    between atoms: C10_10  and  N12_12 
ROOT
HETATM    1  C1  UNL     1     -34.363  17.466  -0.093  1.00 20.00     0.061 C 
HETATM    2  C9  UNL     1     -34.769  16.526  -1.149  1.00 20.00     0.159 C 
HETATM    3  N11 UNL     1     -34.045  18.207   0.742  1.00 20.00    -0.197 NA
ENDROOT
BRANCH   2   4
HETATM    4  C10 UNL     1     -34.240  16.949  -2.526  1.00 20.00     0.233 C 
HETATM    5  C8  UNL     1     -34.507  18.430  -2.777  1.00 20.00     0.044 C 
BRANCH   4   6
HETATM    6  N12 UNL     1     -34.839  16.153  -3.583  1.00 20.00     0.102 N 
HETATM    7  C4  UNL     1     -35.872  15.249  -3.083  1.00 20.00     0.274 C 
HETATM    8  C2  UNL     1     -36.164  14.407  -4.307  1.00 20.00     0.033 C 
HETATM    9  C3  UNL     1     -34.786  14.169  -4.906  1.00 20.00     0.043 C 
HETATM   10  C5  UNL     1     -33.920  15.359  -4.427  1.00 20.00     0.153 C 
HETATM   11  C6  UNL     1     -33.499  16.222  -5.624  1.00 20.00     0.049 C 
HETATM   12  C7  UNL     1     -32.662  14.830  -3.716  1.00 20.00     0.049 C 
ENDBRANCH   4   6
ENDBRANCH   2   4
TORSDOF 2
ENDMDL
MODEL 5
REMARK VINA RESULT:      -4.2      2.170      3.303
REMARK  2 active torsions:
REMARK  status: ('A' for Active; 'I' for Inactive)
REMARK    1  A    between atoms: C9_9  and  C10_10 
REMARK    2  A    between atoms: C10_10  and  N12_12 
ROOT
HETATM    1  C1  UNL     1     -39.005  15.449  -3.377  1.00 20.00     0.061 C 
HETATM    2  C9  UNL     1     -37.762  14.801  -3.823  1.00 20.00     0.159 C 
HETATM    3  N11 UNL     1     -39.987  15.959  -3.026  1.00 20.00    -0.197 NA
ENDROOT
BRANCH   2   4
HETATM    4  C10 UNL     1     -36.666  15.825  -4.145  1.00 20.00     0.233 C 
HETATM    5  C8  UNL     1     -37.083  16.715  -5.312  1.00 20.00     0.044 C 
BRANCH   4   6
HETATM    6  N12 UNL     1     -35.408  15.166  -4.451  1.00 20.00     0.102 N 
HETATM    7  C4  UNL     1     -35.518  13.710  -4.413  1.00 20.00     0.274 C 
HETATM    8  C2  UNL     1     -34.070  13.288  -4.540  1.00 20.00     0.033 C 
HETATM    9  C3  UNL     1     -33.333  14.291  -3.665  1.00 20.00     0.043 C 
HETATM   10  C5  UNL     1     -34.235  15.547  -3.635  1.00 20.00     0.153 C 
HETATM   11  C6  UNL     1     -33.529  16.722  -4.327  1.00 20.00     0.049 C 
HETATM   12  C7  UNL     1     -34.542  15.929  -2.176  1.00 20.00     0.049 C 
ENDBRANCH   4   6
ENDBRANCH   2   4
TORSDOF 2
ENDMDL
MODEL 6
REMARK VINA RESULT:      -4.1      1.923      3.586
REMARK  2 active torsions:
REMARK  status: ('A' for Active; 'I' for Inactive)
REMARK    1  A    between atoms: C9_9  and  C10_10 
REMARK    2  A    between atoms: C10_10  and  N12_12 
ROOT
HETATM    1  C1  UNL     1     -35.090  13.621  -4.125  1.00 20.00     0.061 C 
HETATM    2  C9  UNL     1     -35.490  14.832  -3.392  1.00 20.00     0.159 C 
HETATM    3  N11 UNL     1     -34.775  12.664  -4.702  1.00 20.00    -0.197 NA
ENDROOT
BRANCH   2   4
HETATM    4  C10 UNL     1     -34.505  15.987  -3.615  1.00 20.00     0.233 C 
HETATM    5  C8  UNL     1     -33.872  16.422  -2.296  1.00 20.00     0.044 C 
BRANCH   4   6
HETATM    6  N12 UNL     1     -35.162  17.120  -4.244  1.00 20.00     0.102 N 
HETATM    7  C4  UNL     1     -36.613  16.963  -4.299  1.00 20.00     0.274 C 
HETATM    8  C2  UNL     1     -37.017  18.132  -5.172  1.00 20.00     0.033 C 
HETATM    9  C3  UNL     1     -35.940  18.157  -6.246  1.00 20.00     0.043 C 
HETATM   10  C5  UNL     1     -34.701  17.493  -5.599  1.00 20.00     0.153 C 
HETATM   11  C6  UNL     1     -33.567  18.518  -5.456  1.00 20.00     0.049 C 
HETATM   12  C7  UNL     1     -34.220  16.326  -6.479  1.00 20.00     0.049 C 
ENDBRANCH   4   6
ENDBRANCH   2   4
TORSDOF 2
ENDMDL
MODEL 7
REMARK VINA RESULT:      -4.1      1.899      4.469
REMARK  2 active torsions:
REMARK  status: ('A' for Active; 'I' for Inactive)
REMARK    1  A    between atoms: C9_9  and  C10_10 
REMARK    2  A    between atoms: C10_10  and  N12_12 
ROOT
HETATM    1  C1  UNL     1     -37.260  15.181  -6.539  1.00 20.00     0.061 C 
HETATM    2  C9  UNL     1     -36.791  15.236  -5.146  1.00 20.00     0.159 C 
HETATM    3  N11 UNL     1     -37.633  15.137  -7.638  1.00 20.00    -0.197 NA
ENDROOT
BRANCH   2   4
HETATM    4  C10 UNL     1     -35.310  14.852  -5.026  1.00 20.00     0.233 C 
HETATM    5  C8  UNL     1     -35.109  13.370  -5.326  1.00 20.00     0.044 C 
BRANCH   4   6
HETATM    6  N12 UNL     1     -34.796  15.161  -3.703  1.00 20.00     0.102 N 
HETATM    7  C4  UNL     1     -35.772  15.868  -2.877  1.00 20.00     0.274 C 
HETATM    8  C2  UNL     1     -34.936  16.256  -1.676  1.00 20.00     0.033 C 
HETATM    9  C3  UNL     1     -33.609  16.674  -2.291  1.00 20.00     0.043 C 
HETATM   10  C5  UNL     1     -33.526  15.915  -3.637  1.00 20.00     0.153 C 
HETATM   11  C6  UNL     1     -32.368  14.906  -3.604  1.00 20.00     0.049 C 
HETATM   12  C7  UNL     1     -33.291  16.916  -4.782  1.00 20.00     0.049 C 
ENDBRANCH   4   6
ENDBRANCH   2   4
TORSDOF 2
ENDMDL
MODEL 8
REMARK VINA RESULT:      -4.1      2.082      3.459
REMARK  2 active torsions:
REMARK  status: ('A' for Active; 'I' for Inactive)
REMARK    1  A    between atoms: C9_9  and  C10_10 
REMARK    2  A    between atoms: C10_10  and  N12_12 
ROOT
HETATM    1  C1  UNL     1     -33.672  18.483  -6.055  1.00 20.00     0.061 C 
HETATM    2  C9  UNL     1     -33.500  17.557  -4.925  1.00 20.00     0.159 C 
HETATM    3  N11 UNL     1     -33.806  19.214  -6.946  1.00 20.00    -0.197 NA
ENDROOT
BRANCH   2   4
HETATM    4  C10 UNL     1     -34.844  17.024  -4.412  1.00 20.00     0.233 C 
HETATM    5  C8  UNL     1     -35.360  17.877  -3.257  1.00 20.00     0.044 C 
BRANCH   4   6
HETATM    6  N12 UNL     1     -34.730  15.638  -3.990  1.00 20.00     0.102 N 
HETATM    7  C4  UNL     1     -33.350  15.161  -4.011  1.00 20.00     0.274 C 
HETATM    8  C2  UNL     1     -33.532  13.680  -3.756  1.00 20.00     0.033 C 
HETATM    9  C3  UNL     1     -34.759  13.329  -4.584  1.00 20.00     0.043 C 
HETATM   10  C5  UNL     1     -35.557  14.648  -4.713  1.00 20.00     0.153 C 
HETATM   11  C6  UNL     1     -36.904  14.523  -3.986  1.00 20.00     0.049 C 
HETATM   12  C7  UNL     1     -35.811  14.957  -6.198  1.00 20.00     0.049 C 
ENDBRANCH   4   6
ENDBRANCH   2   4
TORSDOF 2
ENDMDL
MODEL 9
REMARK VINA RESULT:      -4.1      1.719      3.340
REMARK  2 active torsions:
REMARK  status: ('A' for Active; 'I' for Inactive)
REMARK    1  A    between atoms: C9_9  and  C10_10 
REMARK    2  A    between atoms: C10_10  and  N12_12 
ROOT
HETATM    1  C1  UNL     1     -38.026  15.228  -3.580  1.00 20.00     0.061 C 
HETATM    2  C9  UNL     1     -37.141  16.353  -3.239  1.00 20.00     0.159 C 
HETATM    3  N11 UNL     1     -38.726  14.342  -3.848  1.00 20.00    -0.197 NA
ENDROOT
BRANCH   2   4
HETATM    4  C10 UNL     1     -35.719  15.882  -2.907  1.00 20.00     0.233 C 
HETATM    5  C8  UNL     1     -35.180  16.610  -1.680  1.00 20.00     0.044 C 
BRANCH   4   6
HETATM    6  N12 UNL     1     -34.826  16.086  -4.035  1.00 20.00     0.102 N 
HETATM    7  C4  UNL     1     -35.480  16.766  -5.149  1.00 20.00     0.274 C 
HETATM    8  C2  UNL     1     -34.433  16.655  -6.236  1.00 20.00     0.033 C 
HETATM    9  C3  UNL     1     -33.895  15.243  -6.062  1.00 20.00     0.043 C 
HETATM   10  C5  UNL     1     -34.149  14.888  -4.578  1.00 20.00     0.153 C 
HETATM   11  C6  UNL     1     -32.814  14.714  -3.840  1.00 20.00     0.049 C 
HETATM   12  C7  UNL     1     -34.951  13.578  -4.489  1.00 20.00     0.049 C 
ENDBRANCH   4   6
ENDBRANCH   2   4
TORSDOF 2
ENDMDL
