MODEL 1
REMARK VINA RESULT:      -4.7      0.000      0.000
REMARK  2 active torsions:
REMARK  status: ('A' for Active; 'I' for Inactive)
REMARK    1  A    between atoms: C1_1  and  C3_3 
REMARK    2  A    between atoms: C3_3  and  C4_4 
ROOT
HETATM    1  C1  UNL     1     -34.912   4.754   5.006  1.00 20.00     0.162 C 
HETATM    2  C2  UNL     1     -34.474   5.242   6.170  1.00 20.00     0.301 C 
HETATM    3  F5  UNL     1     -35.078   3.413   4.908  1.00 20.00    -0.205 F 
HETATM    4  F6  UNL     1     -34.193   4.418   7.202  1.00 20.00    -0.170 F 
HETATM    5  F7  UNL     1     -34.313   6.574   6.318  1.00 20.00    -0.170 F 
ENDROOT
BRANCH   1   6
HETATM    6  C3  UNL     1     -35.248   5.591   3.808  1.00 20.00     0.086 C 
BRANCH   6   7
HETATM    7  C4  UNL     1     -34.176   5.457   2.728  1.00 20.00     0.086 C 
HETATM    8  I8  UNL     1     -32.481   6.677   3.195  1.00 20.00    -0.090 I 
ENDBRANCH   6   7
ENDBRANCH   1   6
TORSDOF 2
ENDMDL
MODEL 2
REMARK VINA RESULT:      -4.4      1.386      2.311
REMARK  2 active torsions:
REMARK  status: ('A' for Active; 'I' for Inactive)
REMARK    1  A    between atoms: C1_1  and  C3_3 
REMARK    2  A    between atoms: C3_3  and  C4_4 
ROOT
HETATM    1  C1  UNL     1     -34.115   5.823   4.857  1.00 20.00     0.162 C 
HETATM    2  C2  UNL     1     -34.890   4.817   5.274  1.00 20.00     0.301 C 
HETATM    3  F5  UNL     1     -33.740   6.750   5.771  1.00 20.00    -0.205 F 
HETATM    4  F6  UNL     1     -35.295   4.746   6.560  1.00 20.00    -0.170 F 
HETATM    5  F7  UNL     1     -35.270   3.861   4.401  1.00 20.00    -0.170 F 
ENDROOT
BRANCH   1   6
HETATM    6  C3  UNL     1     -33.618   5.984   3.451  1.00 20.00     0.086 C 
BRANCH   6   7
HETATM    7  C4  UNL     1     -32.222   6.605   3.431  1.00 20.00     0.086 C 
HETATM    8  I8  UNL     1     -32.154   8.261   2.077  1.00 20.00    -0.090 I 
ENDBRANCH   6   7
ENDBRANCH   1   6
TORSDOF 2
ENDMDL
MODEL 3
REMARK VINA RESULT:      -4.4      1.040      1.040
REMARK  2 active torsions:
REMARK  status: ('A' for Active; 'I' for Inactive)
REMARK    1  A    between atoms: C1_1  and  C3_3 
REMARK    2  A    between atoms: C3_3  and  C4_4 
ROOT
HETATM    1  C1  UNL     1     -34.789   5.088   4.723  1.00 20.00     0.162 C 
HETATM    2  C2  UNL     1     -34.820   5.215   6.053  1.00 20.00     0.301 C 
HETATM    3  F5  UNL     1     -35.227   3.923   4.190  1.00 20.00    -0.205 F 
HETATM    4  F6  UNL     1     -35.259   4.203   6.831  1.00 20.00    -0.170 F 
HETATM    5  F7  UNL     1     -34.410   6.367   6.624  1.00 20.00    -0.170 F 
ENDROOT
BRANCH   1   6
HETATM    6  C3  UNL     1     -34.318   6.156   3.780  1.00 20.00     0.086 C 
BRANCH   6   7
HETATM    7  C4  UNL     1     -32.805   6.080   3.579  1.00 20.00     0.086 C 
HETATM    8  I8  UNL     1     -32.096   7.817   2.547  1.00 20.00    -0.090 I 
ENDBRANCH   6   7
ENDBRANCH   1   6
TORSDOF 2
ENDMDL
MODEL 4
REMARK VINA RESULT:      -4.2      3.782      4.518
REMARK  2 active torsions:
REMARK  status: ('A' for Active; 'I' for Inactive)
REMARK    1  A    between atoms: C1_1  and  C3_3 
REMARK    2  A    between atoms: C3_3  and  C4_4 
ROOT
HETATM    1  C1  UNL     1     -32.569   6.884   2.942  1.00 20.00     0.162 C 
HETATM    2  C2  UNL     1     -32.263   7.974   2.232  1.00 20.00     0.301 C 
HETATM    3  F5  UNL     1     -31.847   5.761   2.715  1.00 20.00    -0.205 F 
HETATM    4  F6  UNL     1     -31.278   7.943   1.310  1.00 20.00    -0.170 F 
HETATM    5  F7  UNL     1     -32.945   9.120   2.441  1.00 20.00    -0.170 F 
ENDROOT
BRANCH   1   6
HETATM    6  C3  UNL     1     -33.645   6.826   3.985  1.00 20.00     0.086 C 
BRANCH   6   7
HETATM    7  C4  UNL     1     -34.509   5.577   3.812  1.00 20.00     0.086 C 
HETATM    8  I8  UNL     1     -34.806   4.601   5.693  1.00 20.00    -0.090 I 
ENDBRANCH   6   7
ENDBRANCH   1   6
TORSDOF 2
ENDMDL
MODEL 5
REMARK VINA RESULT:      -4.2      3.036      3.759
REMARK  2 active torsions:
REMARK  status: ('A' for Active; 'I' for Inactive)
REMARK    1  A    between atoms: C1_1  and  C3_3 
REMARK    2  A    between atoms: C3_3  and  C4_4 
ROOT
HETATM    1  C1  UNL     1     -33.568   6.499   3.435  1.00 20.00     0.162 C 
HETATM    2  C2  UNL     1     -32.232   6.514   3.398  1.00 20.00     0.301 C 
HETATM    3  F5  UNL     1     -34.202   7.645   3.778  1.00 20.00    -0.205 F 
HETATM    4  F6  UNL     1     -31.546   7.633   3.711  1.00 20.00    -0.170 F 
HETATM    5  F7  UNL     1     -31.562   5.398   3.041  1.00 20.00    -0.170 F 
ENDROOT
BRANCH   1   6
HETATM    6  C3  UNL     1     -34.413   5.303   3.104  1.00 20.00     0.086 C 
BRANCH   6   7
HETATM    7  C4  UNL     1     -35.523   5.115   4.136  1.00 20.00     0.086 C 
HETATM    8  I8  UNL     1     -34.694   4.700   6.066  1.00 20.00    -0.090 I 
ENDBRANCH   6   7
ENDBRANCH   1   6
TORSDOF 2
ENDMDL
MODEL 6
REMARK VINA RESULT:      -3.7      3.034      3.675
REMARK  2 active torsions:
REMARK  status: ('A' for Active; 'I' for Inactive)
REMARK    1  A    between atoms: C1_1  and  C3_3 
REMARK    2  A    between atoms: C3_3  and  C4_4 
ROOT
HETATM    1  C1  UNL     1     -33.613   6.051   3.354  1.00 20.00     0.162 C 
HETATM    2  C2  UNL     1     -32.306   6.147   3.093  1.00 20.00     0.301 C 
HETATM    3  F5  UNL     1     -34.331   5.141   2.653  1.00 20.00    -0.205 F 
HETATM    4  F6  UNL     1     -31.733   5.371   2.149  1.00 20.00    -0.170 F 
HETATM    5  F7  UNL     1     -31.551   7.028   3.783  1.00 20.00    -0.170 F 
ENDROOT
BRANCH   1   6
HETATM    6  C3  UNL     1     -34.335   6.871   4.383  1.00 20.00     0.086 C 
BRANCH   6   7
HETATM    7  C4  UNL     1     -34.089   6.326   5.789  1.00 20.00     0.086 C 
HETATM    8  I8  UNL     1     -34.826   4.323   5.959  1.00 20.00    -0.090 I 
ENDBRANCH   6   7
ENDBRANCH   1   6
TORSDOF 2
ENDMDL
MODEL 7
REMARK VINA RESULT:      -3.7     12.608     12.961
REMARK  2 active torsions:
REMARK  status: ('A' for Active; 'I' for Inactive)
REMARK    1  A    between atoms: C1_1  and  C3_3 
REMARK    2  A    between atoms: C3_3  and  C4_4 
ROOT
HETATM    1  C1  UNL     1     -34.140  14.568  -3.425  1.00 20.00     0.162 C 
HETATM    2  C2  UNL     1     -34.743  13.608  -4.133  1.00 20.00     0.301 C 
HETATM    3  F5  UNL     1     -32.791  14.657  -3.504  1.00 20.00    -0.205 F 
HETATM    4  F6  UNL     1     -34.022  12.751  -4.886  1.00 20.00    -0.170 F 
HETATM    5  F7  UNL     1     -36.088  13.497  -4.098  1.00 20.00    -0.170 F 
ENDROOT
BRANCH   1   6
HETATM    6  C3  UNL     1     -34.858  15.563  -2.562  1.00 20.00     0.086 C 
BRANCH   6   7
HETATM    7  C4  UNL     1     -33.892  16.612  -2.016  1.00 20.00     0.086 C 
HETATM    8  I8  UNL     1     -34.703  17.545  -0.268  1.00 20.00    -0.090 I 
ENDBRANCH   6   7
ENDBRANCH   1   6
TORSDOF 2
ENDMDL
MODEL 8
REMARK VINA RESULT:      -3.6      4.838      5.806
REMARK  2 active torsions:
REMARK  status: ('A' for Active; 'I' for Inactive)
REMARK    1  A    between atoms: C1_1  and  C3_3 
REMARK    2  A    between atoms: C3_3  and  C4_4 
ROOT
HETATM    1  C1  UNL     1     -31.943   8.415   1.686  1.00 20.00     0.162 C 
HETATM    2  C2  UNL     1     -32.550   9.564   1.377  1.00 20.00     0.301 C 
HETATM    3  F5  UNL     1     -31.278   7.768   0.701  1.00 20.00    -0.205 F 
HETATM    4  F6  UNL     1     -32.509  10.048   0.117  1.00 20.00    -0.170 F 
HETATM    5  F7  UNL     1     -33.208  10.251   2.334  1.00 20.00    -0.170 F 
ENDROOT
BRANCH   1   6
HETATM    6  C3  UNL     1     -31.936   7.802   3.056  1.00 20.00     0.086 C 
BRANCH   6   7
HETATM    7  C4  UNL     1     -32.340   6.330   2.999  1.00 20.00     0.086 C 
HETATM    8  I8  UNL     1     -34.079   5.980   4.198  1.00 20.00    -0.090 I 
ENDBRANCH   6   7
ENDBRANCH   1   6
TORSDOF 2
ENDMDL
MODEL 9
REMARK VINA RESULT:      -3.6     12.410     13.430
REMARK  2 active torsions:
REMARK  status: ('A' for Active; 'I' for Inactive)
REMARK    1  A    between atoms: C1_1  and  C3_3 
REMARK    2  A    between atoms: C3_3  and  C4_4 
ROOT
HETATM    1  C1  UNL     1     -34.258  15.014  -4.342  1.00 20.00     0.162 C 
HETATM    2  C2  UNL     1     -34.039  13.723  -4.073  1.00 20.00     0.301 C 
HETATM    3  F5  UNL     1     -35.500  15.370  -4.749  1.00 20.00    -0.205 F 
HETATM    4  F6  UNL     1     -35.022  12.811  -4.222  1.00 20.00    -0.170 F 
HETATM    5  F7  UNL     1     -32.821  13.328  -3.646  1.00 20.00    -0.170 F 
ENDROOT
BRANCH   1   6
HETATM    6  C3  UNL     1     -33.228  16.096  -4.206  1.00 20.00     0.086 C 
BRANCH   6   7
HETATM    7  C4  UNL     1     -33.811  17.322  -3.506  1.00 20.00     0.086 C 
HETATM    8  I8  UNL     1     -34.505  16.811  -1.546  1.00 20.00    -0.090 I 
ENDBRANCH   6   7
ENDBRANCH   1   6
TORSDOF 2
ENDMDL
