MODEL 1
REMARK VINA RESULT:      -4.9      0.000      0.000
REMARK  3 active torsions:
REMARK  status: ('A' for Active; 'I' for Inactive)
REMARK    1  A    between atoms: C2_2  and  C3_3 
REMARK    2  A    between atoms: C2_2  and  C4_4 
REMARK    3  A    between atoms: C3_3  and  N5_5 
ROOT
HETATM    1  C1  UNL     1     -32.474   6.914   3.061  1.00 20.00     0.332 C 
HETATM    2  N5  UNL     1     -33.056   5.976   3.463  1.00 20.00    -0.247 NA
HETATM    3  O6  UNL     1     -31.888   7.850   2.660  1.00 20.00    -0.260 OA
ENDROOT
BRANCH   2   4
HETATM    4  C3  UNL     1     -34.369   6.279   4.034  1.00 20.00     0.162 C 
BRANCH   4   5
HETATM    5  C2  UNL     1     -35.014   4.983   4.504  1.00 20.00     0.139 C 
BRANCH   5   6
HETATM    6  C4  UNL     1     -34.739   4.712   5.966  1.00 20.00     0.389 C 
HETATM    7  F7  UNL     1     -33.622   3.971   6.127  1.00 20.00    -0.171 F 
HETATM    8  F8  UNL     1     -34.563   5.870   6.639  1.00 20.00    -0.171 F 
HETATM    9  F9  UNL     1     -35.764   4.052   6.545  1.00 20.00    -0.171 F 
ENDBRANCH   5   6
ENDBRANCH   4   5
ENDBRANCH   2   4
TORSDOF 3
ENDMDL
MODEL 2
REMARK VINA RESULT:      -4.9      1.114      1.564
REMARK  3 active torsions:
REMARK  status: ('A' for Active; 'I' for Inactive)
REMARK    1  A    between atoms: C2_2  and  C3_3 
REMARK    2  A    between atoms: C2_2  and  C4_4 
REMARK    3  A    between atoms: C3_3  and  N5_5 
ROOT
HETATM    1  C1  UNL     1     -32.175   7.572   2.608  1.00 20.00     0.332 C 
HETATM    2  N5  UNL     1     -32.183   6.692   3.386  1.00 20.00    -0.247 NA
HETATM    3  O6  UNL     1     -32.163   8.455   1.832  1.00 20.00    -0.260 OA
ENDROOT
BRANCH   2   4
HETATM    4  C3  UNL     1     -33.512   6.148   3.668  1.00 20.00     0.162 C 
BRANCH   4   5
HETATM    5  C2  UNL     1     -33.770   6.226   5.166  1.00 20.00     0.139 C 
BRANCH   5   6
HETATM    6  C4  UNL     1     -34.738   5.161   5.630  1.00 20.00     0.389 C 
HETATM    7  F7  UNL     1     -35.719   4.960   4.725  1.00 20.00    -0.171 F 
HETATM    8  F8  UNL     1     -34.099   3.985   5.810  1.00 20.00    -0.171 F 
HETATM    9  F9  UNL     1     -35.314   5.498   6.803  1.00 20.00    -0.171 F 
ENDBRANCH   5   6
ENDBRANCH   4   5
ENDBRANCH   2   4
TORSDOF 3
ENDMDL
MODEL 3
REMARK VINA RESULT:      -4.9      0.203      1.314
REMARK  3 active torsions:
REMARK  status: ('A' for Active; 'I' for Inactive)
REMARK    1  A    between atoms: C2_2  and  C3_3 
REMARK    2  A    between atoms: C2_2  and  C4_4 
REMARK    3  A    between atoms: C3_3  and  N5_5 
ROOT
HETATM    1  C1  UNL     1     -32.441   6.795   3.256  1.00 20.00     0.332 C 
HETATM    2  N5  UNL     1     -33.116   5.861   3.484  1.00 20.00    -0.247 NA
HETATM    3  O6  UNL     1     -31.761   7.727   3.029  1.00 20.00    -0.260 OA
ENDROOT
BRANCH   2   4
HETATM    4  C3  UNL     1     -34.467   6.190   3.941  1.00 20.00     0.162 C 
BRANCH   4   5
HETATM    5  C2  UNL     1     -35.115   4.935   4.508  1.00 20.00     0.139 C 
BRANCH   5   6
HETATM    6  C4  UNL     1     -34.735   4.705   5.953  1.00 20.00     0.389 C 
HETATM    7  F7  UNL     1     -35.758   4.169   6.652  1.00 20.00    -0.171 F 
HETATM    8  F8  UNL     1     -33.689   3.854   6.038  1.00 20.00    -0.171 F 
HETATM    9  F9  UNL     1     -34.375   5.857   6.556  1.00 20.00    -0.171 F 
ENDBRANCH   5   6
ENDBRANCH   4   5
ENDBRANCH   2   4
TORSDOF 3
ENDMDL
MODEL 4
REMARK VINA RESULT:      -4.8      1.181      1.599
REMARK  3 active torsions:
REMARK  status: ('A' for Active; 'I' for Inactive)
REMARK    1  A    between atoms: C2_2  and  C3_3 
REMARK    2  A    between atoms: C2_2  and  C4_4 
REMARK    3  A    between atoms: C3_3  and  N5_5 
ROOT
HETATM    1  C1  UNL     1     -32.169   7.611   2.589  1.00 20.00     0.332 C 
HETATM    2  N5  UNL     1     -32.167   6.733   3.369  1.00 20.00    -0.247 NA
HETATM    3  O6  UNL     1     -32.167   8.491   1.809  1.00 20.00    -0.260 OA
ENDROOT
BRANCH   2   4
HETATM    4  C3  UNL     1     -33.482   6.137   3.610  1.00 20.00     0.162 C 
BRANCH   4   5
HETATM    5  C2  UNL     1     -33.758   6.142   5.107  1.00 20.00     0.139 C 
BRANCH   5   6
HETATM    6  C4  UNL     1     -34.769   5.088   5.499  1.00 20.00     0.389 C 
HETATM    7  F7  UNL     1     -35.334   5.366   6.693  1.00 20.00    -0.171 F 
HETATM    8  F8  UNL     1     -35.760   5.017   4.584  1.00 20.00    -0.171 F 
HETATM    9  F9  UNL     1     -34.199   3.867   5.581  1.00 20.00    -0.171 F 
ENDBRANCH   5   6
ENDBRANCH   4   5
ENDBRANCH   2   4
TORSDOF 3
ENDMDL
MODEL 5
REMARK VINA RESULT:      -4.7      3.479      4.208
REMARK  3 active torsions:
REMARK  status: ('A' for Active; 'I' for Inactive)
REMARK    1  A    between atoms: C2_2  and  C3_3 
REMARK    2  A    between atoms: C2_2  and  C4_4 
REMARK    3  A    between atoms: C3_3  and  N5_5 
ROOT
HETATM    1  C1  UNL     1     -34.928   4.512   5.516  1.00 20.00     0.332 C 
HETATM    2  N5  UNL     1     -34.796   5.547   6.054  1.00 20.00    -0.247 NA
HETATM    3  O6  UNL     1     -35.063   3.474   4.980  1.00 20.00    -0.260 OA
ENDROOT
BRANCH   2   4
HETATM    4  C3  UNL     1     -33.703   6.366   5.527  1.00 20.00     0.162 C 
BRANCH   4   5
HETATM    5  C2  UNL     1     -33.832   6.444   4.012  1.00 20.00     0.139 C 
BRANCH   5   6
HETATM    6  C4  UNL     1     -32.503   6.724   3.346  1.00 20.00     0.389 C 
HETATM    7  F7  UNL     1     -31.889   5.581   2.974  1.00 20.00    -0.171 F 
HETATM    8  F8  UNL     1     -32.678   7.476   2.237  1.00 20.00    -0.171 F 
HETATM    9  F9  UNL     1     -31.672   7.396   4.170  1.00 20.00    -0.171 F 
ENDBRANCH   5   6
ENDBRANCH   4   5
ENDBRANCH   2   4
TORSDOF 3
ENDMDL
MODEL 6
REMARK VINA RESULT:      -4.7      3.470      4.274
REMARK  3 active torsions:
REMARK  status: ('A' for Active; 'I' for Inactive)
REMARK    1  A    between atoms: C2_2  and  C3_3 
REMARK    2  A    between atoms: C2_2  and  C4_4 
REMARK    3  A    between atoms: C3_3  and  N5_5 
ROOT
HETATM    1  C1  UNL     1     -34.941   4.522   5.516  1.00 20.00     0.332 C 
HETATM    2  N5  UNL     1     -34.792   5.549   6.066  1.00 20.00    -0.247 NA
HETATM    3  O6  UNL     1     -35.092   3.493   4.968  1.00 20.00    -0.260 OA
ENDROOT
BRANCH   2   4
HETATM    4  C3  UNL     1     -33.695   6.362   5.540  1.00 20.00     0.162 C 
BRANCH   4   5
HETATM    5  C2  UNL     1     -33.838   6.465   4.028  1.00 20.00     0.139 C 
BRANCH   5   6
HETATM    6  C4  UNL     1     -32.513   6.737   3.352  1.00 20.00     0.389 C 
HETATM    7  F7  UNL     1     -31.671   7.404   4.169  1.00 20.00    -0.171 F 
HETATM    8  F8  UNL     1     -31.913   5.580   3.000  1.00 20.00    -0.171 F 
HETATM    9  F9  UNL     1     -32.675   7.472   2.231  1.00 20.00    -0.171 F 
ENDBRANCH   5   6
ENDBRANCH   4   5
ENDBRANCH   2   4
TORSDOF 3
ENDMDL
MODEL 7
REMARK VINA RESULT:      -4.6      3.518      4.315
REMARK  3 active torsions:
REMARK  status: ('A' for Active; 'I' for Inactive)
REMARK    1  A    between atoms: C2_2  and  C3_3 
REMARK    2  A    between atoms: C2_2  and  C4_4 
REMARK    3  A    between atoms: C3_3  and  N5_5 
ROOT
HETATM    1  C1  UNL     1     -35.020   4.631   5.278  1.00 20.00     0.332 C 
HETATM    2  N5  UNL     1     -35.478   5.046   4.279  1.00 20.00    -0.247 NA
HETATM    3  O6  UNL     1     -34.565   4.217   6.280  1.00 20.00    -0.260 OA
ENDROOT
BRANCH   2   4
HETATM    4  C3  UNL     1     -34.488   5.520   3.312  1.00 20.00     0.162 C 
BRANCH   4   5
HETATM    5  C2  UNL     1     -33.643   6.607   3.962  1.00 20.00     0.139 C 
BRANCH   5   6
HETATM    6  C4  UNL     1     -32.351   6.843   3.214  1.00 20.00     0.389 C 
HETATM    7  F7  UNL     1     -31.443   7.475   3.987  1.00 20.00    -0.171 F 
HETATM    8  F8  UNL     1     -31.809   5.669   2.821  1.00 20.00    -0.171 F 
HETATM    9  F9  UNL     1     -32.552   7.591   2.108  1.00 20.00    -0.171 F 
ENDBRANCH   5   6
ENDBRANCH   4   5
ENDBRANCH   2   4
TORSDOF 3
ENDMDL
MODEL 8
REMARK VINA RESULT:      -4.6      2.194      2.564
REMARK  3 active torsions:
REMARK  status: ('A' for Active; 'I' for Inactive)
REMARK    1  A    between atoms: C2_2  and  C3_3 
REMARK    2  A    between atoms: C2_2  and  C4_4 
REMARK    3  A    between atoms: C3_3  and  N5_5 
ROOT
HETATM    1  C1  UNL     1     -32.009   8.091   2.250  1.00 20.00     0.332 C 
HETATM    2  N5  UNL     1     -31.844   7.532   3.270  1.00 20.00    -0.247 NA
HETATM    3  O6  UNL     1     -32.174   8.653   1.231  1.00 20.00    -0.260 OA
ENDROOT
BRANCH   2   4
HETATM    4  C3  UNL     1     -32.492   6.223   3.353  1.00 20.00     0.162 C 
BRANCH   4   5
HETATM    5  C2  UNL     1     -33.845   6.384   4.031  1.00 20.00     0.139 C 
BRANCH   5   6
HETATM    6  C4  UNL     1     -34.834   5.334   3.577  1.00 20.00     0.389 C 
HETATM    7  F7  UNL     1     -34.912   4.315   4.460  1.00 20.00    -0.171 F 
HETATM    8  F8  UNL     1     -36.069   5.867   3.456  1.00 20.00    -0.171 F 
HETATM    9  F9  UNL     1     -34.490   4.821   2.377  1.00 20.00    -0.171 F 
ENDBRANCH   5   6
ENDBRANCH   4   5
ENDBRANCH   2   4
TORSDOF 3
ENDMDL
MODEL 9
REMARK VINA RESULT:      -4.5      3.523      4.254
REMARK  3 active torsions:
REMARK  status: ('A' for Active; 'I' for Inactive)
REMARK    1  A    between atoms: C2_2  and  C3_3 
REMARK    2  A    between atoms: C2_2  and  C4_4 
REMARK    3  A    between atoms: C3_3  and  N5_5 
ROOT
HETATM    1  C1  UNL     1     -35.059   4.682   5.273  1.00 20.00     0.332 C 
HETATM    2  N5  UNL     1     -35.492   5.049   4.245  1.00 20.00    -0.247 NA
HETATM    3  O6  UNL     1     -34.630   4.314   6.304  1.00 20.00    -0.260 OA
ENDROOT
BRANCH   2   4
HETATM    4  C3  UNL     1     -34.479   5.504   3.291  1.00 20.00     0.162 C 
BRANCH   4   5
HETATM    5  C2  UNL     1     -33.638   6.591   3.945  1.00 20.00     0.139 C 
BRANCH   5   6
HETATM    6  C4  UNL     1     -32.340   6.825   3.205  1.00 20.00     0.389 C 
HETATM    7  F7  UNL     1     -31.780   5.661   2.813  1.00 20.00    -0.171 F 
HETATM    8  F8  UNL     1     -32.553   7.570   2.099  1.00 20.00    -0.171 F 
HETATM    9  F9  UNL     1     -31.446   7.480   3.975  1.00 20.00    -0.171 F 
ENDBRANCH   5   6
ENDBRANCH   4   5
ENDBRANCH   2   4
TORSDOF 3
ENDMDL
