MODEL 1
REMARK VINA RESULT:      -4.2      0.000      0.000
REMARK  0 active torsions:
REMARK  status: ('A' for Active; 'I' for Inactive)
ROOT
HETATM    1  C1  UNL     1     -33.377   6.055   3.674  1.00 20.00     0.219 C 
HETATM    2  C2  UNL     1     -34.112   5.827   4.771  1.00 20.00     0.153 C 
HETATM    3  F3  UNL     1     -33.680   5.400   2.529  1.00 20.00    -0.190 F 
HETATM    4 CL4  UNL     1     -32.044   7.153   3.629  1.00 20.00    -0.049 Cl
HETATM    5 CL5  UNL     1     -33.746   6.652   6.250  1.00 20.00    -0.067 Cl
HETATM    6 CL6  UNL     1     -35.446   4.728   4.811  1.00 20.00    -0.067 Cl
ENDROOT
TORSDOF 0
ENDMDL
MODEL 2
REMARK VINA RESULT:      -4.1      2.108      2.810
REMARK  0 active torsions:
REMARK  status: ('A' for Active; 'I' for Inactive)
ROOT
HETATM    1  C1  UNL     1     -34.197   6.208   6.147  1.00 20.00     0.219 C 
HETATM    2  C2  UNL     1     -34.107   5.833   4.864  1.00 20.00     0.153 C 
HETATM    3  F3  UNL     1     -35.126   5.626   6.941  1.00 20.00    -0.190 F 
HETATM    4 CL4  UNL     1     -33.183   7.409   6.865  1.00 20.00    -0.049 Cl
HETATM    5 CL5  UNL     1     -32.926   6.562   3.826  1.00 20.00    -0.067 Cl
HETATM    6 CL6  UNL     1     -35.123   4.629   4.151  1.00 20.00    -0.067 Cl
ENDROOT
TORSDOF 0
ENDMDL
MODEL 3
REMARK VINA RESULT:      -4.0      2.013      3.446
REMARK  0 active torsions:
REMARK  status: ('A' for Active; 'I' for Inactive)
ROOT
HETATM    1  C1  UNL     1     -33.875   6.133   5.471  1.00 20.00     0.219 C 
HETATM    2  C2  UNL     1     -33.591   6.169   4.163  1.00 20.00     0.153 C 
HETATM    3  F3  UNL     1     -33.163   6.909   6.323  1.00 20.00    -0.190 F 
HETATM    4 CL4  UNL     1     -35.114   5.140   6.153  1.00 20.00    -0.049 Cl
HETATM    5 CL5  UNL     1     -34.485   5.186   3.051  1.00 20.00    -0.067 Cl
HETATM    6 CL6  UNL     1     -32.350   7.166   3.485  1.00 20.00    -0.067 Cl
ENDROOT
TORSDOF 0
ENDMDL
MODEL 4
REMARK VINA RESULT:      -4.0      1.671      2.366
REMARK  0 active torsions:
REMARK  status: ('A' for Active; 'I' for Inactive)
ROOT
HETATM    1  C1  UNL     1     -33.789   6.117   4.012  1.00 20.00     0.219 C 
HETATM    2  C2  UNL     1     -34.148   5.911   5.286  1.00 20.00     0.153 C 
HETATM    3  F3  UNL     1     -32.980   7.162   3.715  1.00 20.00    -0.190 F 
HETATM    4 CL4  UNL     1     -34.301   5.115   2.701  1.00 20.00    -0.049 Cl
HETATM    5 CL5  UNL     1     -35.182   4.582   5.694  1.00 20.00    -0.067 Cl
HETATM    6 CL6  UNL     1     -33.631   6.916   6.595  1.00 20.00    -0.067 Cl
ENDROOT
TORSDOF 0
ENDMDL
MODEL 5
REMARK VINA RESULT:      -4.0      0.593      2.590
REMARK  0 active torsions:
REMARK  status: ('A' for Active; 'I' for Inactive)
ROOT
HETATM    1  C1  UNL     1     -34.285   5.502   3.704  1.00 20.00     0.219 C 
HETATM    2  C2  UNL     1     -33.414   6.330   4.296  1.00 20.00     0.153 C 
HETATM    3  F3  UNL     1     -34.129   5.209   2.391  1.00 20.00    -0.190 F 
HETATM    4 CL4  UNL     1     -35.620   4.773   4.524  1.00 20.00    -0.049 Cl
HETATM    5 CL5  UNL     1     -33.590   6.722   5.974  1.00 20.00    -0.067 Cl
HETATM    6 CL6  UNL     1     -32.079   7.055   3.470  1.00 20.00    -0.067 Cl
ENDROOT
TORSDOF 0
ENDMDL
MODEL 6
REMARK VINA RESULT:      -3.9      2.233      3.414
REMARK  0 active torsions:
REMARK  status: ('A' for Active; 'I' for Inactive)
ROOT
HETATM    1  C1  UNL     1     -34.755   5.229   5.713  1.00 20.00     0.219 C 
HETATM    2  C2  UNL     1     -33.874   6.221   5.535  1.00 20.00     0.153 C 
HETATM    3  F3  UNL     1     -35.342   5.076   6.924  1.00 20.00    -0.190 F 
HETATM    4 CL4  UNL     1     -35.199   4.111   4.473  1.00 20.00    -0.049 Cl
HETATM    5 CL5  UNL     1     -33.109   6.439   3.996  1.00 20.00    -0.067 Cl
HETATM    6 CL6  UNL     1     -33.434   7.339   6.779  1.00 20.00    -0.067 Cl
ENDROOT
TORSDOF 0
ENDMDL
MODEL 7
REMARK VINA RESULT:      -3.6      1.752      2.465
REMARK  0 active torsions:
REMARK  status: ('A' for Active; 'I' for Inactive)
ROOT
HETATM    1  C1  UNL     1     -33.615   6.380   4.783  1.00 20.00     0.219 C 
HETATM    2  C2  UNL     1     -34.319   5.444   4.132  1.00 20.00     0.153 C 
HETATM    3  F3  UNL     1     -32.724   7.133   4.095  1.00 20.00    -0.190 F 
HETATM    4 CL4  UNL     1     -33.777   6.692   6.474  1.00 20.00    -0.049 Cl
HETATM    5 CL5  UNL     1     -35.465   4.467   4.987  1.00 20.00    -0.067 Cl
HETATM    6 CL6  UNL     1     -34.155   5.136   2.438  1.00 20.00    -0.067 Cl
ENDROOT
TORSDOF 0
ENDMDL
MODEL 8
REMARK VINA RESULT:      -3.6      1.886      2.294
REMARK  0 active torsions:
REMARK  status: ('A' for Active; 'I' for Inactive)
ROOT
HETATM    1  C1  UNL     1     -33.271   6.485   4.506  1.00 20.00     0.219 C 
HETATM    2  C2  UNL     1     -34.209   5.590   4.170  1.00 20.00     0.153 C 
HETATM    3  F3  UNL     1     -33.146   6.855   5.803  1.00 20.00    -0.190 F 
HETATM    4 CL4  UNL     1     -32.191   7.210   3.369  1.00 20.00    -0.049 Cl
HETATM    5 CL5  UNL     1     -34.390   5.099   2.518  1.00 20.00    -0.067 Cl
HETATM    6 CL6  UNL     1     -35.287   4.866   5.312  1.00 20.00    -0.067 Cl
ENDROOT
TORSDOF 0
ENDMDL
MODEL 9
REMARK VINA RESULT:      -3.1     11.717     11.940
REMARK  0 active torsions:
REMARK  status: ('A' for Active; 'I' for Inactive)
ROOT
HETATM    1  C1  UNL     1     -33.734  14.303  -3.726  1.00 20.00     0.219 C 
HETATM    2  C2  UNL     1     -34.514  15.171  -3.068  1.00 20.00     0.153 C 
HETATM    3  F3  UNL     1     -32.392  14.361  -3.557  1.00 20.00    -0.190 F 
HETATM    4 CL4  UNL     1     -34.345  13.092  -4.796  1.00 20.00    -0.049 Cl
HETATM    5 CL5  UNL     1     -36.234  15.119  -3.266  1.00 20.00    -0.067 Cl
HETATM    6 CL6  UNL     1     -33.898  16.381  -1.997  1.00 20.00    -0.067 Cl
ENDROOT
TORSDOF 0
ENDMDL
