MODEL 1
REMARK VINA RESULT:      -4.6      0.000      0.000
REMARK  1 active torsions:
REMARK  status: ('A' for Active; 'I' for Inactive)
REMARK    1  A    between atoms: C1_1  and  C2_2 
ROOT
HETATM    1  C2  UNL     1     -34.022   6.257   4.383  1.00 20.00     0.299 C 
HETATM    2  F4  UNL     1     -34.665   7.324   3.834  1.00 20.00    -0.203 F 
HETATM    3 CL6  UNL     1     -32.437   6.089   3.581  1.00 20.00    -0.061 Cl
HETATM    4 CL7  UNL     1     -33.760   6.572   6.118  1.00 20.00    -0.061 Cl
ENDROOT
BRANCH   1   5
HETATM    5  C1  UNL     1     -34.857   5.002   4.156  1.00 20.00     0.336 C 
HETATM    6  F3  UNL     1     -36.126   5.370   3.823  1.00 20.00    -0.227 F 
HETATM    7 CL5  UNL     1     -34.952   3.983   5.614  1.00 20.00    -0.083 Cl
ENDBRANCH   1   5
TORSDOF 1
ENDMDL
MODEL 2
REMARK VINA RESULT:      -4.3      1.246      2.857
REMARK  1 active torsions:
REMARK  status: ('A' for Active; 'I' for Inactive)
REMARK    1  A    between atoms: C1_1  and  C2_2 
ROOT
HETATM    1  C2  UNL     1     -34.896   5.353   3.910  1.00 20.00     0.299 C 
HETATM    2  F4  UNL     1     -36.158   5.766   3.607  1.00 20.00    -0.203 F 
HETATM    3 CL6  UNL     1     -35.018   3.874   4.902  1.00 20.00    -0.061 Cl
HETATM    4 CL7  UNL     1     -34.039   4.963   2.397  1.00 20.00    -0.061 Cl
ENDROOT
BRANCH   1   5
HETATM    5  C1  UNL     1     -34.188   6.450   4.695  1.00 20.00     0.336 C 
HETATM    6  F3  UNL     1     -32.885   6.505   4.301  1.00 20.00    -0.227 F 
HETATM    7 CL5  UNL     1     -34.212   6.147   6.450  1.00 20.00    -0.083 Cl
ENDBRANCH   1   5
TORSDOF 1
ENDMDL
MODEL 3
REMARK VINA RESULT:      -4.1      1.416      2.023
REMARK  1 active torsions:
REMARK  status: ('A' for Active; 'I' for Inactive)
REMARK    1  A    between atoms: C1_1  and  C2_2 
ROOT
HETATM    1  C2  UNL     1     -33.872   6.168   3.827  1.00 20.00     0.299 C 
HETATM    2  F4  UNL     1     -34.583   7.328   3.772  1.00 20.00    -0.203 F 
HETATM    3 CL6  UNL     1     -34.429   5.111   2.502  1.00 20.00    -0.061 Cl
HETATM    4 CL7  UNL     1     -32.146   6.539   3.583  1.00 20.00    -0.061 Cl
ENDROOT
BRANCH   1   5
HETATM    5  C1  UNL     1     -34.121   5.495   5.171  1.00 20.00     0.336 C 
HETATM    6  F3  UNL     1     -35.384   4.984   5.182  1.00 20.00    -0.227 F 
HETATM    7 CL5  UNL     1     -33.986   6.636   6.532  1.00 20.00    -0.083 Cl
ENDBRANCH   1   5
TORSDOF 1
ENDMDL
MODEL 4
REMARK VINA RESULT:      -4.0      1.805      2.876
REMARK  1 active torsions:
REMARK  status: ('A' for Active; 'I' for Inactive)
REMARK    1  A    between atoms: C1_1  and  C2_2 
ROOT
HETATM    1  C2  UNL     1     -34.760   5.351   3.811  1.00 20.00     0.299 C 
HETATM    2  F4  UNL     1     -34.153   4.897   2.680  1.00 20.00    -0.203 F 
HETATM    3 CL6  UNL     1     -36.361   5.998   3.361  1.00 20.00    -0.061 Cl
HETATM    4 CL7  UNL     1     -34.985   3.985   4.933  1.00 20.00    -0.061 Cl
ENDROOT
BRANCH   1   5
HETATM    5  C1  UNL     1     -33.906   6.454   4.426  1.00 20.00     0.336 C 
HETATM    6  F3  UNL     1     -32.608   6.264   4.059  1.00 20.00    -0.227 F 
HETATM    7 CL5  UNL     1     -33.974   6.445   6.206  1.00 20.00    -0.083 Cl
ENDBRANCH   1   5
TORSDOF 1
ENDMDL
MODEL 5
REMARK VINA RESULT:      -3.9      2.022      2.577
REMARK  1 active torsions:
REMARK  status: ('A' for Active; 'I' for Inactive)
REMARK    1  A    between atoms: C1_1  and  C2_2 
ROOT
HETATM    1  C2  UNL     1     -34.598   5.033   4.381  1.00 20.00     0.299 C 
HETATM    2  F4  UNL     1     -34.622   3.730   3.984  1.00 20.00    -0.203 F 
HETATM    3 CL6  UNL     1     -33.197   5.824   3.609  1.00 20.00    -0.061 Cl
HETATM    4 CL7  UNL     1     -36.091   5.832   3.826  1.00 20.00    -0.061 Cl
ENDROOT
BRANCH   1   5
HETATM    5  C1  UNL     1     -34.457   5.088   5.898  1.00 20.00     0.336 C 
HETATM    6  F3  UNL     1     -35.655   4.772   6.465  1.00 20.00    -0.227 F 
HETATM    7 CL5  UNL     1     -33.995   6.709   6.473  1.00 20.00    -0.083 Cl
ENDBRANCH   1   5
TORSDOF 1
ENDMDL
MODEL 6
REMARK VINA RESULT:      -3.9      1.236      2.701
REMARK  1 active torsions:
REMARK  status: ('A' for Active; 'I' for Inactive)
REMARK    1  A    between atoms: C1_1  and  C2_2 
ROOT
HETATM    1  C2  UNL     1     -34.809   5.396   4.392  1.00 20.00     0.299 C 
HETATM    2  F4  UNL     1     -36.121   5.709   4.203  1.00 20.00    -0.203 F 
HETATM    3 CL6  UNL     1     -34.213   6.321   5.797  1.00 20.00    -0.061 Cl
HETATM    4 CL7  UNL     1     -34.677   3.656   4.749  1.00 20.00    -0.061 Cl
ENDROOT
BRANCH   1   5
HETATM    5  C1  UNL     1     -34.022   5.779   3.144  1.00 20.00     0.336 C 
HETATM    6  F3  UNL     1     -34.048   4.737   2.268  1.00 20.00    -0.227 F 
HETATM    7 CL5  UNL     1     -32.315   6.138   3.508  1.00 20.00    -0.083 Cl
ENDBRANCH   1   5
TORSDOF 1
ENDMDL
MODEL 7
REMARK VINA RESULT:      -3.7      1.848      2.694
REMARK  1 active torsions:
REMARK  status: ('A' for Active; 'I' for Inactive)
REMARK    1  A    between atoms: C1_1  and  C2_2 
ROOT
HETATM    1  C2  UNL     1     -34.687   5.168   6.068  1.00 20.00     0.299 C 
HETATM    2  F4  UNL     1     -35.780   5.033   6.870  1.00 20.00    -0.203 F 
HETATM    3 CL6  UNL     1     -33.920   6.738   6.434  1.00 20.00    -0.061 Cl
HETATM    4 CL7  UNL     1     -33.533   3.862   6.441  1.00 20.00    -0.061 Cl
ENDROOT
BRANCH   1   5
HETATM    5  C1  UNL     1     -35.131   5.132   4.611  1.00 20.00     0.336 C 
HETATM    6  F3  UNL     1     -35.322   3.835   4.239  1.00 20.00    -0.227 F 
HETATM    7 CL5  UNL     1     -33.914   5.836   3.517  1.00 20.00    -0.083 Cl
ENDBRANCH   1   5
TORSDOF 1
ENDMDL
MODEL 8
REMARK VINA RESULT:      -3.7      1.553      2.459
REMARK  1 active torsions:
REMARK  status: ('A' for Active; 'I' for Inactive)
REMARK    1  A    between atoms: C1_1  and  C2_2 
ROOT
HETATM    1  C2  UNL     1     -34.258   5.406   5.282  1.00 20.00     0.299 C 
HETATM    2  F4  UNL     1     -33.030   4.908   4.968  1.00 20.00    -0.203 F 
HETATM    3 CL6  UNL     1     -35.205   4.106   6.054  1.00 20.00    -0.061 Cl
HETATM    4 CL7  UNL     1     -34.058   6.742   6.444  1.00 20.00    -0.061 Cl
ENDROOT
BRANCH   1   5
HETATM    5  C1  UNL     1     -34.949   5.867   4.004  1.00 20.00     0.336 C 
HETATM    6  F3  UNL     1     -36.187   5.300   3.943  1.00 20.00    -0.227 F 
HETATM    7 CL5  UNL     1     -34.056   5.379   2.542  1.00 20.00    -0.083 Cl
ENDBRANCH   1   5
TORSDOF 1
ENDMDL
MODEL 9
REMARK VINA RESULT:      -3.7      1.930      3.123
REMARK  1 active torsions:
REMARK  status: ('A' for Active; 'I' for Inactive)
REMARK    1  A    between atoms: C1_1  and  C2_2 
ROOT
HETATM    1  C2  UNL     1     -34.656   5.335   5.119  1.00 20.00     0.299 C 
HETATM    2  F4  UNL     1     -35.062   5.986   6.244  1.00 20.00    -0.203 F 
HETATM    3 CL6  UNL     1     -34.609   3.587   5.473  1.00 20.00    -0.061 Cl
HETATM    4 CL7  UNL     1     -35.843   5.630   3.823  1.00 20.00    -0.061 Cl
ENDROOT
BRANCH   1   5
HETATM    5  C1  UNL     1     -33.266   5.827   4.734  1.00 20.00     0.336 C 
HETATM    6  F3  UNL     1     -32.986   6.958   5.440  1.00 20.00    -0.227 F 
HETATM    7 CL5  UNL     1     -33.147   6.225   3.002  1.00 20.00    -0.083 Cl
ENDBRANCH   1   5
TORSDOF 1
ENDMDL
