MODEL 1
REMARK VINA RESULT:      -5.6      0.000      0.000
REMARK  0 active torsions:
REMARK  status: ('A' for Active; 'I' for Inactive)
ROOT
HETATM    1  C1  UNL     1     -34.399   6.021   6.137  1.00 20.00     0.006 C 
HETATM    2  C2  UNL     1     -35.000   4.612   6.211  1.00 20.00     0.006 C 
HETATM    3  C3  UNL     1     -33.962   6.219   4.688  1.00 20.00     0.079 C 
HETATM    4  C4  UNL     1     -34.895   4.031   4.804  1.00 20.00     0.079 C 
HETATM    5  C5  UNL     1     -34.841   5.257   3.921  1.00 20.00     0.243 C 
HETATM    6  F6  UNL     1     -34.351   4.983   2.700  1.00 20.00    -0.206 F 
HETATM    7  F7  UNL     1     -36.080   5.777   3.765  1.00 20.00    -0.206 F 
ENDROOT
TORSDOF 0
ENDMDL
MODEL 2
REMARK VINA RESULT:      -5.3      1.897      2.675
REMARK  0 active torsions:
REMARK  status: ('A' for Active; 'I' for Inactive)
ROOT
HETATM    1  C1  UNL     1     -33.643   6.483   4.930  1.00 20.00     0.006 C 
HETATM    2  C2  UNL     1     -34.355   5.720   3.807  1.00 20.00     0.006 C 
HETATM    3  C3  UNL     1     -34.275   6.004   6.234  1.00 20.00     0.079 C 
HETATM    4  C4  UNL     1     -35.381   4.819   4.489  1.00 20.00     0.079 C 
HETATM    5  C5  UNL     1     -34.818   4.637   5.880  1.00 20.00     0.243 C 
HETATM    6  F6  UNL     1     -35.748   4.217   6.754  1.00 20.00    -0.206 F 
HETATM    7  F7  UNL     1     -33.819   3.725   5.867  1.00 20.00    -0.206 F 
ENDROOT
TORSDOF 0
ENDMDL
MODEL 3
REMARK VINA RESULT:      -5.2      1.294      2.201
REMARK  0 active torsions:
REMARK  status: ('A' for Active; 'I' for Inactive)
ROOT
HETATM    1  C1  UNL     1     -35.128   4.218   5.133  1.00 20.00     0.006 C 
HETATM    2  C2  UNL     1     -34.448   4.922   6.313  1.00 20.00     0.006 C 
HETATM    3  C3  UNL     1     -35.163   5.236   3.996  1.00 20.00     0.079 C 
HETATM    4  C4  UNL     1     -34.106   6.328   5.830  1.00 20.00     0.079 C 
HETATM    5  C5  UNL     1     -34.024   6.173   4.328  1.00 20.00     0.243 C 
HETATM    6  F6  UNL     1     -34.130   7.350   3.688  1.00 20.00    -0.206 F 
HETATM    7  F7  UNL     1     -32.842   5.616   3.979  1.00 20.00    -0.206 F 
ENDROOT
TORSDOF 0
ENDMDL
MODEL 4
REMARK VINA RESULT:      -5.0      1.097      1.567
REMARK  0 active torsions:
REMARK  status: ('A' for Active; 'I' for Inactive)
ROOT
HETATM    1  C1  UNL     1     -33.631   6.664   4.850  1.00 20.00     0.006 C 
HETATM    2  C2  UNL     1     -34.220   6.353   6.231  1.00 20.00     0.006 C 
HETATM    3  C3  UNL     1     -33.834   5.407   4.010  1.00 20.00     0.079 C 
HETATM    4  C4  UNL     1     -34.750   4.924   6.155  1.00 20.00     0.079 C 
HETATM    5  C5  UNL     1     -35.006   4.723   4.678  1.00 20.00     0.243 C 
HETATM    6  F6  UNL     1     -35.091   3.422   4.349  1.00 20.00    -0.206 F 
HETATM    7  F7  UNL     1     -36.165   5.319   4.318  1.00 20.00    -0.206 F 
ENDROOT
TORSDOF 0
ENDMDL
MODEL 5
REMARK VINA RESULT:      -4.7      2.074      2.877
REMARK  0 active torsions:
REMARK  status: ('A' for Active; 'I' for Inactive)
ROOT
HETATM    1  C1  UNL     1     -35.439   5.380   3.865  1.00 20.00     0.006 C 
HETATM    2  C2  UNL     1     -34.310   6.407   4.008  1.00 20.00     0.006 C 
HETATM    3  C3  UNL     1     -35.180   4.315   4.926  1.00 20.00     0.079 C 
HETATM    4  C4  UNL     1     -33.426   5.911   5.148  1.00 20.00     0.079 C 
HETATM    5  C5  UNL     1     -34.359   5.047   5.965  1.00 20.00     0.243 C 
HETATM    6  F6  UNL     1     -33.694   4.204   6.774  1.00 20.00    -0.206 F 
HETATM    7  F7  UNL     1     -35.159   5.818   6.736  1.00 20.00    -0.206 F 
ENDROOT
TORSDOF 0
ENDMDL
MODEL 6
REMARK VINA RESULT:      -4.4      1.347      1.641
REMARK  0 active torsions:
REMARK  status: ('A' for Active; 'I' for Inactive)
ROOT
HETATM    1  C1  UNL     1     -34.862   5.300   6.140  1.00 20.00     0.006 C 
HETATM    2  C2  UNL     1     -35.227   4.503   4.882  1.00 20.00     0.006 C 
HETATM    3  C3  UNL     1     -33.693   6.199   5.748  1.00 20.00     0.079 C 
HETATM    4  C4  UNL     1     -34.260   4.961   3.794  1.00 20.00     0.079 C 
HETATM    5  C5  UNL     1     -33.847   6.342   4.250  1.00 20.00     0.243 C 
HETATM    6  F6  UNL     1     -32.712   6.754   3.659  1.00 20.00    -0.206 F 
HETATM    7  F7  UNL     1     -34.816   7.240   3.962  1.00 20.00    -0.206 F 
ENDROOT
TORSDOF 0
ENDMDL
MODEL 7
REMARK VINA RESULT:      -4.4      0.801      1.945
REMARK  0 active torsions:
REMARK  status: ('A' for Active; 'I' for Inactive)
ROOT
HETATM    1  C1  UNL     1     -34.523   4.634   6.293  1.00 20.00     0.006 C 
HETATM    2  C2  UNL     1     -34.127   6.115   6.263  1.00 20.00     0.006 C 
HETATM    3  C3  UNL     1     -35.172   4.341   4.944  1.00 20.00     0.079 C 
HETATM    4  C4  UNL     1     -34.556   6.642   4.896  1.00 20.00     0.079 C 
HETATM    5  C5  UNL     1     -34.587   5.399   4.035  1.00 20.00     0.243 C 
HETATM    6  F6  UNL     1     -35.316   5.572   2.919  1.00 20.00    -0.206 F 
HETATM    7  F7  UNL     1     -33.333   5.056   3.663  1.00 20.00    -0.206 F 
ENDROOT
TORSDOF 0
ENDMDL
MODEL 8
REMARK VINA RESULT:      -4.4      2.207      2.868
REMARK  0 active torsions:
REMARK  status: ('A' for Active; 'I' for Inactive)
ROOT
HETATM    1  C1  UNL     1     -34.917   3.918   5.383  1.00 20.00     0.006 C 
HETATM    2  C2  UNL     1     -35.290   5.033   4.398  1.00 20.00     0.006 C 
HETATM    3  C3  UNL     1     -33.836   4.497   6.290  1.00 20.00     0.079 C 
HETATM    4  C4  UNL     1     -34.415   6.229   4.761  1.00 20.00     0.079 C 
HETATM    5  C5  UNL     1     -34.076   5.989   6.215  1.00 20.00     0.243 C 
HETATM    6  F6  UNL     1     -33.005   6.697   6.612  1.00 20.00    -0.206 F 
HETATM    7  F7  UNL     1     -35.119   6.336   7.003  1.00 20.00    -0.206 F 
ENDROOT
TORSDOF 0
ENDMDL
MODEL 9
REMARK VINA RESULT:      -4.1      1.907      2.674
REMARK  0 active torsions:
REMARK  status: ('A' for Active; 'I' for Inactive)
ROOT
HETATM    1  C1  UNL     1     -35.153   5.263   3.694  1.00 20.00     0.006 C 
HETATM    2  C2  UNL     1     -35.071   4.174   4.770  1.00 20.00     0.006 C 
HETATM    3  C3  UNL     1     -34.915   6.588   4.413  1.00 20.00     0.079 C 
HETATM    4  C4  UNL     1     -34.789   4.896   6.085  1.00 20.00     0.079 C 
HETATM    5  C5  UNL     1     -34.133   6.185   5.643  1.00 20.00     0.243 C 
HETATM    6  F6  UNL     1     -34.170   7.128   6.600  1.00 20.00    -0.206 F 
HETATM    7  F7  UNL     1     -32.838   5.966   5.324  1.00 20.00    -0.206 F 
ENDROOT
TORSDOF 0
ENDMDL
