MODEL 1
REMARK VINA RESULT:      -4.9      0.000      0.000
REMARK  1 active torsions:
REMARK  status: ('A' for Active; 'I' for Inactive)
REMARK    1  A    between atoms: C2_2  and  C4_4 
ROOT
HETATM    1  C3  UNL     1     -35.312  14.447  -3.537  1.00 20.00     0.102 C 
HETATM    2  C4  UNL     1     -34.746  15.894  -3.517  1.00 20.00     0.035 C 
HETATM    3  C5  UNL     1     -34.015  13.975  -4.225  1.00 20.00     0.295 C 
HETATM    4  C6  UNL     1     -33.768  15.448  -4.682  1.00 20.00     0.254 C 
HETATM    5  C7  UNL     1     -35.792  16.962  -3.822  1.00 20.00     0.025 C 
HETATM    6  F8  UNL     1     -34.177  13.062  -5.209  1.00 20.00    -0.201 F 
HETATM    7  F9  UNL     1     -33.073  13.474  -3.391  1.00 20.00    -0.201 F 
HETATM    8  F10 UNL     1     -32.481  15.854  -4.519  1.00 20.00    -0.218 F 
HETATM    9 CL11 UNL     1     -34.248  15.810  -6.376  1.00 20.00    -0.075 Cl
ENDROOT
BRANCH   2  10
HETATM   10  C2  UNL     1     -34.024  16.233  -2.251  1.00 20.00    -0.023 C 
HETATM   11  C1  UNL     1     -34.634  16.509  -1.093  1.00 20.00     0.008 C 
ENDBRANCH   2  10
TORSDOF 1
ENDMDL
MODEL 2
REMARK VINA RESULT:      -4.4      1.727      2.313
REMARK  1 active torsions:
REMARK  status: ('A' for Active; 'I' for Inactive)
REMARK    1  A    between atoms: C2_2  and  C4_4 
ROOT
HETATM    1  C3  UNL     1     -35.866  16.337  -4.589  1.00 20.00     0.102 C 
HETATM    2  C4  UNL     1     -34.374  15.928  -4.445  1.00 20.00     0.035 C 
HETATM    3  C5  UNL     1     -36.193  14.899  -5.040  1.00 20.00     0.295 C 
HETATM    4  C6  UNL     1     -34.689  14.720  -5.422  1.00 20.00     0.254 C 
HETATM    5  C7  UNL     1     -33.399  17.002  -4.917  1.00 20.00     0.025 C 
HETATM    6  F8  UNL     1     -37.084  14.794  -6.051  1.00 20.00    -0.201 F 
HETATM    7  F9  UNL     1     -36.631  14.076  -4.058  1.00 20.00    -0.201 F 
HETATM    8  F10 UNL     1     -34.171  13.527  -5.023  1.00 20.00    -0.218 F 
HETATM    9 CL11 UNL     1     -34.318  14.924  -7.168  1.00 20.00    -0.075 Cl
ENDROOT
BRANCH   2  10
HETATM   10  C2  UNL     1     -34.011  15.478  -3.065  1.00 20.00    -0.023 C 
HETATM   11  C1  UNL     1     -34.426  16.085  -1.947  1.00 20.00     0.008 C 
ENDBRANCH   2  10
TORSDOF 1
ENDMDL
MODEL 3
REMARK VINA RESULT:      -4.4      2.073      3.557
REMARK  1 active torsions:
REMARK  status: ('A' for Active; 'I' for Inactive)
REMARK    1  A    between atoms: C2_2  and  C4_4 
ROOT
HETATM    1  C3  UNL     1     -35.206  16.663  -4.900  1.00 20.00     0.102 C 
HETATM    2  C4  UNL     1     -35.262  15.202  -4.373  1.00 20.00     0.035 C 
HETATM    3  C5  UNL     1     -33.768  16.779  -4.356  1.00 20.00     0.295 C 
HETATM    4  C6  UNL     1     -34.080  15.591  -3.392  1.00 20.00     0.254 C 
HETATM    5  C7  UNL     1     -36.610  14.825  -3.765  1.00 20.00     0.025 C 
HETATM    6  F8  UNL     1     -33.460  17.959  -3.771  1.00 20.00    -0.201 F 
HETATM    7  F9  UNL     1     -32.791  16.535  -5.261  1.00 20.00    -0.201 F 
HETATM    8  F10 UNL     1     -33.079  14.672  -3.329  1.00 20.00    -0.218 F 
HETATM    9 CL11 UNL     1     -34.496  16.065  -1.709  1.00 20.00    -0.075 Cl
ENDROOT
BRANCH   2  10
HETATM   10  C2  UNL     1     -34.859  14.186  -5.394  1.00 20.00    -0.023 C 
HETATM   11  C1  UNL     1     -35.154  14.275  -6.695  1.00 20.00     0.008 C 
ENDBRANCH   2  10
TORSDOF 1
ENDMDL
MODEL 4
REMARK VINA RESULT:      -4.4      2.157      3.147
REMARK  1 active torsions:
REMARK  status: ('A' for Active; 'I' for Inactive)
REMARK    1  A    between atoms: C2_2  and  C4_4 
ROOT
HETATM    1  C3  UNL     1     -35.248  16.542  -3.794  1.00 20.00     0.102 C 
HETATM    2  C4  UNL     1     -34.277  15.962  -4.860  1.00 20.00     0.035 C 
HETATM    3  C5  UNL     1     -34.257  16.113  -2.693  1.00 20.00     0.295 C 
HETATM    4  C6  UNL     1     -33.644  15.088  -3.700  1.00 20.00     0.254 C 
HETATM    5  C7  UNL     1     -34.987  15.241  -6.002  1.00 20.00     0.025 C 
HETATM    6  F8  UNL     1     -34.815  15.593  -1.577  1.00 20.00    -0.201 F 
HETATM    7  F9  UNL     1     -33.405  17.081  -2.279  1.00 20.00    -0.201 F 
HETATM    8  F10 UNL     1     -32.284  15.071  -3.690  1.00 20.00    -0.218 F 
HETATM    9 CL11 UNL     1     -34.216  13.395  -3.506  1.00 20.00    -0.075 Cl
ENDROOT
BRANCH   2  10
HETATM   10  C2  UNL     1     -33.324  16.976  -5.409  1.00 20.00    -0.023 C 
HETATM   11  C1  UNL     1     -33.662  18.234  -5.713  1.00 20.00     0.008 C 
ENDBRANCH   2  10
TORSDOF 1
ENDMDL
MODEL 5
REMARK VINA RESULT:      -4.4      2.107      3.016
REMARK  1 active torsions:
REMARK  status: ('A' for Active; 'I' for Inactive)
REMARK    1  A    between atoms: C2_2  and  C4_4 
ROOT
HETATM    1  C3  UNL     1     -33.195  16.217  -4.414  1.00 20.00     0.102 C 
HETATM    2  C4  UNL     1     -34.228  15.152  -3.954  1.00 20.00     0.035 C 
HETATM    3  C5  UNL     1     -34.275  16.839  -5.322  1.00 20.00     0.295 C 
HETATM    4  C6  UNL     1     -35.040  15.478  -5.275  1.00 20.00     0.254 C 
HETATM    5  C7  UNL     1     -33.635  13.755  -3.798  1.00 20.00     0.025 C 
HETATM    6  F8  UNL     1     -33.850  17.244  -6.539  1.00 20.00    -0.201 F 
HETATM    7  F9  UNL     1     -34.945  17.885  -4.783  1.00 20.00    -0.201 F 
HETATM    8  F10 UNL     1     -36.380  15.620  -5.089  1.00 20.00    -0.218 F 
HETATM    9 CL11 UNL     1     -34.794  14.417  -6.705  1.00 20.00    -0.075 Cl
ENDROOT
BRANCH   2  10
HETATM   10  C2  UNL     1     -34.965  15.537  -2.710  1.00 20.00    -0.023 C 
HETATM   11  C1  UNL     1     -34.429  16.251  -1.714  1.00 20.00     0.008 C 
ENDBRANCH   2  10
TORSDOF 1
ENDMDL
MODEL 6
REMARK VINA RESULT:      -4.4      2.054      2.694
REMARK  1 active torsions:
REMARK  status: ('A' for Active; 'I' for Inactive)
REMARK    1  A    between atoms: C2_2  and  C4_4 
ROOT
HETATM    1  C3  UNL     1     -34.621  14.806  -5.858  1.00 20.00     0.102 C 
HETATM    2  C4  UNL     1     -34.466  15.973  -4.844  1.00 20.00     0.035 C 
HETATM    3  C5  UNL     1     -34.703  13.820  -4.675  1.00 20.00     0.295 C 
HETATM    4  C6  UNL     1     -33.996  14.891  -3.785  1.00 20.00     0.254 C 
HETATM    5  C7  UNL     1     -33.463  17.034  -5.285  1.00 20.00     0.025 C 
HETATM    6  F8  UNL     1     -34.044  12.652  -4.843  1.00 20.00    -0.201 F 
HETATM    7  F9  UNL     1     -35.959  13.497  -4.285  1.00 20.00    -0.201 F 
HETATM    8  F10 UNL     1     -34.562  15.028  -2.556  1.00 20.00    -0.218 F 
HETATM    9 CL11 UNL     1     -32.231  14.643  -3.554  1.00 20.00    -0.075 Cl
ENDROOT
BRANCH   2  10
HETATM   10  C2  UNL     1     -35.765  16.617  -4.477  1.00 20.00    -0.023 C 
HETATM   11  C1  UNL     1     -36.744  16.880  -5.351  1.00 20.00     0.008 C 
ENDBRANCH   2  10
TORSDOF 1
ENDMDL
MODEL 7
REMARK VINA RESULT:      -4.4      1.114      1.204
REMARK  1 active torsions:
REMARK  status: ('A' for Active; 'I' for Inactive)
REMARK    1  A    between atoms: C2_2  and  C4_4 
ROOT
HETATM    1  C3  UNL     1     -35.772  15.097  -4.813  1.00 20.00     0.102 C 
HETATM    2  C4  UNL     1     -35.101  16.134  -3.870  1.00 20.00     0.035 C 
HETATM    3  C5  UNL     1     -34.376  14.712  -5.344  1.00 20.00     0.295 C 
HETATM    4  C6  UNL     1     -33.848  16.092  -4.839  1.00 20.00     0.254 C 
HETATM    5  C7  UNL     1     -35.878  17.442  -3.752  1.00 20.00     0.025 C 
HETATM    6  F8  UNL     1     -34.300  14.492  -6.676  1.00 20.00    -0.201 F 
HETATM    7  F9  UNL     1     -33.813  13.635  -4.747  1.00 20.00    -0.201 F 
HETATM    8  F10 UNL     1     -32.649  16.009  -4.202  1.00 20.00    -0.218 F 
HETATM    9 CL11 UNL     1     -33.711  17.363  -6.103  1.00 20.00    -0.075 Cl
ENDROOT
BRANCH   2  10
HETATM   10  C2  UNL     1     -34.800  15.592  -2.509  1.00 20.00    -0.023 C 
HETATM   11  C1  UNL     1     -34.600  16.354  -1.428  1.00 20.00     0.008 C 
ENDBRANCH   2  10
TORSDOF 1
ENDMDL
MODEL 8
REMARK VINA RESULT:      -4.3      2.127      3.517
REMARK  1 active torsions:
REMARK  status: ('A' for Active; 'I' for Inactive)
REMARK    1  A    between atoms: C2_2  and  C4_4 
ROOT
HETATM    1  C3  UNL     1     -35.383  15.093  -3.349  1.00 20.00     0.102 C 
HETATM    2  C4  UNL     1     -34.700  14.742  -4.700  1.00 20.00     0.035 C 
HETATM    3  C5  UNL     1     -34.314  16.180  -3.117  1.00 20.00     0.295 C 
HETATM    4  C6  UNL     1     -33.391  15.431  -4.130  1.00 20.00     0.254 C 
HETATM    5  C7  UNL     1     -34.659  13.246  -4.991  1.00 20.00     0.025 C 
HETATM    6  F8  UNL     1     -33.853  16.283  -1.851  1.00 20.00    -0.201 F 
HETATM    7  F9  UNL     1     -34.676  17.429  -3.495  1.00 20.00    -0.201 F 
HETATM    8  F10 UNL     1     -32.769  16.263  -5.008  1.00 20.00    -0.218 F 
HETATM    9 CL11 UNL     1     -32.137  14.382  -3.385  1.00 20.00    -0.075 Cl
ENDROOT
BRANCH   2  10
HETATM   10  C2  UNL     1     -35.280  15.476  -5.868  1.00 20.00    -0.023 C 
HETATM   11  C1  UNL     1     -35.040  15.159  -7.145  1.00 20.00     0.008 C 
ENDBRANCH   2  10
TORSDOF 1
ENDMDL
MODEL 9
REMARK VINA RESULT:      -4.3     12.341     13.418
REMARK  1 active torsions:
REMARK  status: ('A' for Active; 'I' for Inactive)
REMARK    1  A    between atoms: C2_2  and  C4_4 
ROOT
HETATM    1  C3  UNL     1     -43.349   5.384  -0.769  1.00 20.00     0.102 C 
HETATM    2  C4  UNL     1     -42.248   5.677  -1.827  1.00 20.00     0.035 C 
HETATM    3  C5  UNL     1     -42.557   4.138  -0.325  1.00 20.00     0.295 C 
HETATM    4  C6  UNL     1     -41.836   4.152  -1.711  1.00 20.00     0.254 C 
HETATM    5  C7  UNL     1     -42.800   6.177  -3.158  1.00 20.00     0.025 C 
HETATM    6  F8  UNL     1     -43.300   3.043  -0.049  1.00 20.00    -0.201 F 
HETATM    7  F9  UNL     1     -41.743   4.325   0.740  1.00 20.00    -0.201 F 
HETATM    8  F10 UNL     1     -40.495   3.939  -1.622  1.00 20.00    -0.218 F 
HETATM    9 CL11 UNL     1     -42.496   3.001  -2.923  1.00 20.00    -0.075 Cl
ENDROOT
BRANCH   2  10
HETATM   10  C2  UNL     1     -41.183   6.605  -1.334  1.00 20.00    -0.023 C 
HETATM   11  C1  UNL     1     -41.409   7.866  -0.948  1.00 20.00     0.008 C 
ENDBRANCH   2  10
TORSDOF 1
ENDMDL
