MODEL 1
REMARK VINA RESULT:      -6.0      0.000      0.000
REMARK  0 active torsions:
REMARK  status: ('A' for Active; 'I' for Inactive)
ROOT
HETATM    1  C1  UNL     1     -33.903   6.764   5.734  1.00 20.00     0.059 C 
HETATM    2  C2  UNL     1     -34.366   5.830   6.579  1.00 20.00     0.059 C 
HETATM    3  C3  UNL     1     -33.830   6.221   4.344  1.00 20.00     0.332 C 
HETATM    4  C4  UNL     1     -34.652   4.560   5.846  1.00 20.00     0.332 C 
HETATM    5  C5  UNL     1     -34.822   5.079   4.433  1.00 20.00     0.379 C 
HETATM    6  F6  UNL     1     -34.168   7.093   3.374  1.00 20.00    -0.195 F 
HETATM    7  F7  UNL     1     -32.588   5.756   4.070  1.00 20.00    -0.195 F 
HETATM    8  F8  UNL     1     -33.601   3.710   5.921  1.00 20.00    -0.195 F 
HETATM    9  F9  UNL     1     -35.751   3.898   6.263  1.00 20.00    -0.195 F 
HETATM   10  F10 UNL     1     -34.636   4.139   3.495  1.00 20.00    -0.192 F 
HETATM   11  F11 UNL     1     -36.082   5.565   4.281  1.00 20.00    -0.192 F 
ENDROOT
TORSDOF 0
ENDMDL
MODEL 2
REMARK VINA RESULT:      -5.5      1.403      2.809
REMARK  0 active torsions:
REMARK  status: ('A' for Active; 'I' for Inactive)
ROOT
HETATM    1  C1  UNL     1     -34.858   4.150   4.886  1.00 20.00     0.059 C 
HETATM    2  C2  UNL     1     -34.369   4.655   6.029  1.00 20.00     0.059 C 
HETATM    3  C3  UNL     1     -34.899   5.200   3.825  1.00 20.00     0.332 C 
HETATM    4  C4  UNL     1     -34.031   6.101   5.857  1.00 20.00     0.332 C 
HETATM    5  C5  UNL     1     -33.869   6.177   4.353  1.00 20.00     0.379 C 
HETATM    6  F6  UNL     1     -34.584   4.772   2.587  1.00 20.00    -0.195 F 
HETATM    7  F7  UNL     1     -36.122   5.781   3.765  1.00 20.00    -0.195 F 
HETATM    8  F8  UNL     1     -35.053   6.889   6.268  1.00 20.00    -0.195 F 
HETATM    9  F9  UNL     1     -32.914   6.504   6.495  1.00 20.00    -0.195 F 
HETATM   10  F10 UNL     1     -34.013   7.418   3.864  1.00 20.00    -0.192 F 
HETATM   11  F11 UNL     1     -32.626   5.746   4.013  1.00 20.00    -0.192 F 
ENDROOT
TORSDOF 0
ENDMDL
MODEL 3
REMARK VINA RESULT:      -5.5      1.344      2.729
REMARK  0 active torsions:
REMARK  status: ('A' for Active; 'I' for Inactive)
ROOT
HETATM    1  C1  UNL     1     -33.240   6.301   4.362  1.00 20.00     0.059 C 
HETATM    2  C2  UNL     1     -33.887   5.358   3.660  1.00 20.00     0.059 C 
HETATM    3  C3  UNL     1     -33.866   6.472   5.707  1.00 20.00     0.332 C 
HETATM    4  C4  UNL     1     -35.018   4.796   4.459  1.00 20.00     0.332 C 
HETATM    5  C5  UNL     1     -34.570   5.139   5.865  1.00 20.00     0.379 C 
HETATM    6  F6  UNL     1     -32.999   6.694   6.715  1.00 20.00    -0.195 F 
HETATM    7  F7  UNL     1     -34.762   7.488   5.699  1.00 20.00    -0.195 F 
HETATM    8  F8  UNL     1     -36.180   5.424   4.161  1.00 20.00    -0.195 F 
HETATM    9  F9  UNL     1     -35.214   3.470   4.314  1.00 20.00    -0.195 F 
HETATM   10  F10 UNL     1     -35.576   5.170   6.752  1.00 20.00    -0.192 F 
HETATM   11  F11 UNL     1     -33.677   4.208   6.291  1.00 20.00    -0.192 F 
ENDROOT
TORSDOF 0
ENDMDL
MODEL 4
REMARK VINA RESULT:      -5.5      1.324      3.249
REMARK  0 active torsions:
REMARK  status: ('A' for Active; 'I' for Inactive)
ROOT
HETATM    1  C1  UNL     1     -35.277   4.749   4.407  1.00 20.00     0.059 C 
HETATM    2  C2  UNL     1     -34.661   5.388   3.400  1.00 20.00     0.059 C 
HETATM    3  C3  UNL     1     -34.605   5.051   5.706  1.00 20.00     0.332 C 
HETATM    4  C4  UNL     1     -33.509   6.186   3.917  1.00 20.00     0.332 C 
HETATM    5  C5  UNL     1     -33.907   6.352   5.369  1.00 20.00     0.379 C 
HETATM    6  F6  UNL     1     -35.437   5.195   6.757  1.00 20.00    -0.195 F 
HETATM    7  F7  UNL     1     -33.702   4.091   6.019  1.00 20.00    -0.195 F 
HETATM    8  F8  UNL     1     -32.352   5.489   3.815  1.00 20.00    -0.195 F 
HETATM    9  F9  UNL     1     -33.328   7.380   3.316  1.00 20.00    -0.195 F 
HETATM   10  F10 UNL     1     -32.872   6.626   6.177  1.00 20.00    -0.192 F 
HETATM   11  F11 UNL     1     -34.793   7.378   5.478  1.00 20.00    -0.192 F 
ENDROOT
TORSDOF 0
ENDMDL
MODEL 5
REMARK VINA RESULT:      -5.2      1.108      3.116
REMARK  0 active torsions:
REMARK  status: ('A' for Active; 'I' for Inactive)
ROOT
HETATM    1  C1  UNL     1     -34.719   5.398   5.976  1.00 20.00     0.059 C 
HETATM    2  C2  UNL     1     -33.920   6.462   5.802  1.00 20.00     0.059 C 
HETATM    3  C3  UNL     1     -35.066   4.784   4.659  1.00 20.00     0.332 C 
HETATM    4  C4  UNL     1     -33.645   6.676   4.349  1.00 20.00     0.332 C 
HETATM    5  C5  UNL     1     -33.925   5.292   3.800  1.00 20.00     0.379 C 
HETATM    6  F6  UNL     1     -35.124   3.437   4.656  1.00 20.00    -0.195 F 
HETATM    7  F7  UNL     1     -36.253   5.252   4.203  1.00 20.00    -0.195 F 
HETATM    8  F8  UNL     1     -34.503   7.582   3.822  1.00 20.00    -0.195 F 
HETATM    9  F9  UNL     1     -32.390   7.076   4.060  1.00 20.00    -0.195 F 
HETATM   10  F10 UNL     1     -34.204   5.285   2.488  1.00 20.00    -0.192 F 
HETATM   11  F11 UNL     1     -32.835   4.504   3.991  1.00 20.00    -0.192 F 
ENDROOT
TORSDOF 0
ENDMDL
MODEL 6
REMARK VINA RESULT:      -5.1     12.149     13.290
REMARK  0 active torsions:
REMARK  status: ('A' for Active; 'I' for Inactive)
ROOT
HETATM    1  C1  UNL     1     -35.044  15.935  -2.655  1.00 20.00     0.059 C 
HETATM    2  C2  UNL     1     -33.706  16.028  -2.608  1.00 20.00     0.059 C 
HETATM    3  C3  UNL     1     -35.469  15.109  -3.825  1.00 20.00     0.332 C 
HETATM    4  C4  UNL     1     -33.090  15.274  -3.741  1.00 20.00     0.332 C 
HETATM    5  C5  UNL     1     -34.208  14.309  -4.081  1.00 20.00     0.379 C 
HETATM    6  F6  UNL     1     -36.527  14.304  -3.599  1.00 20.00    -0.195 F 
HETATM    7  F7  UNL     1     -35.764  15.893  -4.890  1.00 20.00    -0.195 F 
HETATM    8  F8  UNL     1     -32.833  16.096  -4.787  1.00 20.00    -0.195 F 
HETATM    9  F9  UNL     1     -31.951  14.620  -3.438  1.00 20.00    -0.195 F 
HETATM   10  F10 UNL     1     -34.131  13.823  -5.329  1.00 20.00    -0.192 F 
HETATM   11  F11 UNL     1     -34.165  13.253  -3.227  1.00 20.00    -0.192 F 
ENDROOT
TORSDOF 0
ENDMDL
MODEL 7
REMARK VINA RESULT:      -4.9     12.062     13.418
REMARK  0 active torsions:
REMARK  status: ('A' for Active; 'I' for Inactive)
ROOT
HETATM    1  C1  UNL     1     -33.823  16.389  -2.833  1.00 20.00     0.059 C 
HETATM    2  C2  UNL     1     -34.822  15.570  -2.470  1.00 20.00     0.059 C 
HETATM    3  C3  UNL     1     -33.263  15.977  -4.155  1.00 20.00     0.332 C 
HETATM    4  C4  UNL     1     -35.039  14.519  -3.510  1.00 20.00     0.332 C 
HETATM    5  C5  UNL     1     -34.426  15.190  -4.723  1.00 20.00     0.379 C 
HETATM    6  F6  UNL     1     -32.912  16.995  -4.967  1.00 20.00    -0.195 F 
HETATM    7  F7  UNL     1     -32.179  15.181  -3.995  1.00 20.00    -0.195 F 
HETATM    8  F8  UNL     1     -34.367  13.385  -3.201  1.00 20.00    -0.195 F 
HETATM    9  F9  UNL     1     -36.328  14.191  -3.728  1.00 20.00    -0.195 F 
HETATM   10  F10 UNL     1     -34.065  14.327  -5.684  1.00 20.00    -0.192 F 
HETATM   11  F11 UNL     1     -35.329  16.051  -5.264  1.00 20.00    -0.192 F 
ENDROOT
TORSDOF 0
ENDMDL
MODEL 8
REMARK VINA RESULT:      -4.8      8.485      9.373
REMARK  0 active torsions:
REMARK  status: ('A' for Active; 'I' for Inactive)
ROOT
HETATM    1  C1  UNL     1     -42.608   6.713  -0.418  1.00 20.00     0.059 C 
HETATM    2  C2  UNL     1     -43.306   5.596  -0.166  1.00 20.00     0.059 C 
HETATM    3  C3  UNL     1     -41.194   6.379  -0.765  1.00 20.00     0.332 C 
HETATM    4  C4  UNL     1     -42.435   4.391  -0.316  1.00 20.00     0.332 C 
HETATM    5  C5  UNL     1     -41.344   4.940  -1.213  1.00 20.00     0.379 C 
HETATM    6  F6  UNL     1     -40.649   7.144  -1.732  1.00 20.00    -0.195 F 
HETATM    7  F7  UNL     1     -40.396   6.460   0.327  1.00 20.00    -0.195 F 
HETATM    8  F8  UNL     1     -41.924   4.011   0.880  1.00 20.00    -0.195 F 
HETATM    9  F9  UNL     1     -43.035   3.319  -0.870  1.00 20.00    -0.195 F 
HETATM   10  F10 UNL     1     -40.201   4.241  -1.150  1.00 20.00    -0.192 F 
HETATM   11  F11 UNL     1     -41.769   4.914  -2.504  1.00 20.00    -0.192 F 
ENDROOT
TORSDOF 0
ENDMDL
MODEL 9
REMARK VINA RESULT:      -4.8     12.154     13.419
REMARK  0 active torsions:
REMARK  status: ('A' for Active; 'I' for Inactive)
ROOT
HETATM    1  C1  UNL     1     -32.656  14.715  -3.527  1.00 20.00     0.059 C 
HETATM    2  C2  UNL     1     -33.308  13.580  -3.819  1.00 20.00     0.059 C 
HETATM    3  C3  UNL     1     -33.448  15.901  -3.971  1.00 20.00     0.332 C 
HETATM    4  C4  UNL     1     -34.607  13.882  -4.493  1.00 20.00     0.332 C 
HETATM    5  C5  UNL     1     -34.840  15.307  -4.032  1.00 20.00     0.379 C 
HETATM    6  F6  UNL     1     -33.400  16.962  -3.140  1.00 20.00    -0.195 F 
HETATM    7  F7  UNL     1     -33.051  16.318  -5.198  1.00 20.00    -0.195 F 
HETATM    8  F8  UNL     1     -34.479  13.830  -5.840  1.00 20.00    -0.195 F 
HETATM    9  F9  UNL     1     -35.631  13.078  -4.142  1.00 20.00    -0.195 F 
HETATM   10  F10 UNL     1     -35.677  15.992  -4.825  1.00 20.00    -0.192 F 
HETATM   11  F11 UNL     1     -35.377  15.293  -2.784  1.00 20.00    -0.192 F 
ENDROOT
TORSDOF 0
ENDMDL
