MODEL 1
REMARK VINA RESULT:      -3.6      0.000      0.000
REMARK  1 active torsions:
REMARK  status: ('A' for Active; 'I' for Inactive)
REMARK    1  A    between atoms: C1_1  and  C2_2 
ROOT
HETATM    1  C2  UNL     1     -35.145   4.952   4.992  1.00 20.00     0.294 C 
HETATM    2  F4  UNL     1     -35.149   3.599   4.855  1.00 20.00    -0.230 F 
HETATM    3 CL5  UNL     1     -34.254   5.671   3.637  1.00 20.00    -0.087 Cl
ENDROOT
BRANCH   1   4
HETATM    4  C1  UNL     1     -34.508   5.306   6.316  1.00 20.00     0.275 C 
HETATM    5  F3  UNL     1     -34.329   6.652   6.385  1.00 20.00    -0.251 F 
ENDBRANCH   1   4
TORSDOF 1
ENDMDL
MODEL 2
REMARK VINA RESULT:      -3.6      1.966      2.364
REMARK  1 active torsions:
REMARK  status: ('A' for Active; 'I' for Inactive)
REMARK    1  A    between atoms: C1_1  and  C2_2 
ROOT
HETATM    1  C2  UNL     1     -34.427   5.063   5.660  1.00 20.00     0.294 C 
HETATM    2  F4  UNL     1     -35.507   4.499   6.263  1.00 20.00    -0.230 F 
HETATM    3 CL5  UNL     1     -34.029   6.583   6.482  1.00 20.00    -0.087 Cl
ENDROOT
BRANCH   1   4
HETATM    4  C1  UNL     1     -34.752   5.297   4.202  1.00 20.00     0.275 C 
HETATM    5  F3  UNL     1     -36.101   5.281   4.033  1.00 20.00    -0.251 F 
ENDBRANCH   1   4
TORSDOF 1
ENDMDL
MODEL 3
REMARK VINA RESULT:      -3.5      1.886      1.903
REMARK  1 active torsions:
REMARK  status: ('A' for Active; 'I' for Inactive)
REMARK    1  A    between atoms: C1_1  and  C2_2 
ROOT
HETATM    1  C2  UNL     1     -34.831   5.004   4.426  1.00 20.00     0.294 C 
HETATM    2  F4  UNL     1     -36.032   5.394   3.922  1.00 20.00    -0.230 F 
HETATM    3 CL5  UNL     1     -35.090   4.174   5.972  1.00 20.00    -0.087 Cl
ENDROOT
BRANCH   1   4
HETATM    4  C1  UNL     1     -33.957   6.226   4.600  1.00 20.00     0.275 C 
HETATM    5  F3  UNL     1     -34.043   6.661   5.886  1.00 20.00    -0.251 F 
ENDBRANCH   1   4
TORSDOF 1
ENDMDL
MODEL 4
REMARK VINA RESULT:      -3.5      0.685      2.368
REMARK  1 active torsions:
REMARK  status: ('A' for Active; 'I' for Inactive)
REMARK    1  A    between atoms: C1_1  and  C2_2 
ROOT
HETATM    1  C2  UNL     1     -34.128   5.603   5.680  1.00 20.00     0.294 C 
HETATM    2  F4  UNL     1     -34.388   6.605   6.561  1.00 20.00    -0.230 F 
HETATM    3 CL5  UNL     1     -34.348   6.208   4.027  1.00 20.00    -0.087 Cl
ENDROOT
BRANCH   1   4
HETATM    4  C1  UNL     1     -35.058   4.447   5.969  1.00 20.00     0.275 C 
HETATM    5  F3  UNL     1     -35.131   3.643   4.874  1.00 20.00    -0.251 F 
ENDBRANCH   1   4
TORSDOF 1
ENDMDL
MODEL 5
REMARK VINA RESULT:      -3.5      2.433      2.583
REMARK  1 active torsions:
REMARK  status: ('A' for Active; 'I' for Inactive)
REMARK    1  A    between atoms: C1_1  and  C2_2 
ROOT
HETATM    1  C2  UNL     1     -34.920   5.034   4.274  1.00 20.00     0.294 C 
HETATM    2  F4  UNL     1     -36.123   5.461   3.805  1.00 20.00    -0.230 F 
HETATM    3 CL5  UNL     1     -35.072   4.647   5.999  1.00 20.00    -0.087 Cl
ENDROOT
BRANCH   1   4
HETATM    4  C1  UNL     1     -33.895   6.120   4.045  1.00 20.00     0.275 C 
HETATM    5  F3  UNL     1     -33.103   5.778   2.993  1.00 20.00    -0.251 F 
ENDBRANCH   1   4
TORSDOF 1
ENDMDL
MODEL 6
REMARK VINA RESULT:      -3.4      1.926      2.740
REMARK  1 active torsions:
REMARK  status: ('A' for Active; 'I' for Inactive)
REMARK    1  A    between atoms: C1_1  and  C2_2 
ROOT
HETATM    1  C2  UNL     1     -34.587   5.746   5.549  1.00 20.00     0.294 C 
HETATM    2  F4  UNL     1     -33.894   6.254   6.604  1.00 20.00    -0.230 F 
HETATM    3 CL5  UNL     1     -34.885   4.020   5.827  1.00 20.00    -0.087 Cl
ENDROOT
BRANCH   1   4
HETATM    4  C1  UNL     1     -33.783   5.967   4.288  1.00 20.00     0.275 C 
HETATM    5  F3  UNL     1     -34.371   5.302   3.258  1.00 20.00    -0.251 F 
ENDBRANCH   1   4
TORSDOF 1
ENDMDL
MODEL 7
REMARK VINA RESULT:      -3.4      2.020      2.382
REMARK  1 active torsions:
REMARK  status: ('A' for Active; 'I' for Inactive)
REMARK    1  A    between atoms: C1_1  and  C2_2 
ROOT
HETATM    1  C2  UNL     1     -34.328   5.931   4.836  1.00 20.00     0.294 C 
HETATM    2  F4  UNL     1     -33.170   5.730   4.151  1.00 20.00    -0.230 F 
HETATM    3 CL5  UNL     1     -33.948   6.584   6.441  1.00 20.00    -0.087 Cl
ENDROOT
BRANCH   1   4
HETATM    4  C1  UNL     1     -35.066   4.615   4.940  1.00 20.00     0.275 C 
HETATM    5  F3  UNL     1     -35.373   4.374   6.243  1.00 20.00    -0.251 F 
ENDBRANCH   1   4
TORSDOF 1
ENDMDL
MODEL 8
REMARK VINA RESULT:      -3.3      1.790      1.790
REMARK  1 active torsions:
REMARK  status: ('A' for Active; 'I' for Inactive)
REMARK    1  A    between atoms: C1_1  and  C2_2 
ROOT
HETATM    1  C2  UNL     1     -34.076   5.536   4.842  1.00 20.00     0.294 C 
HETATM    2  F4  UNL     1     -33.322   6.616   4.502  1.00 20.00    -0.230 F 
HETATM    3 CL5  UNL     1     -35.486   5.450   3.769  1.00 20.00    -0.087 Cl
ENDROOT
BRANCH   1   4
HETATM    4  C1  UNL     1     -34.496   5.672   6.288  1.00 20.00     0.275 C 
HETATM    5  F3  UNL     1     -34.144   6.904   6.745  1.00 20.00    -0.251 F 
ENDBRANCH   1   4
TORSDOF 1
ENDMDL
MODEL 9
REMARK VINA RESULT:      -3.3      1.549      1.549
REMARK  1 active torsions:
REMARK  status: ('A' for Active; 'I' for Inactive)
REMARK    1  A    between atoms: C1_1  and  C2_2 
ROOT
HETATM    1  C2  UNL     1     -34.359   6.075   4.125  1.00 20.00     0.294 C 
HETATM    2  F4  UNL     1     -35.145   5.400   3.245  1.00 20.00    -0.230 F 
HETATM    3 CL5  UNL     1     -32.701   6.136   3.498  1.00 20.00    -0.087 Cl
ENDROOT
BRANCH   1   4
HETATM    4  C1  UNL     1     -34.413   5.373   5.463  1.00 20.00     0.275 C 
HETATM    5  F3  UNL     1     -34.432   6.300   6.458  1.00 20.00    -0.251 F 
ENDBRANCH   1   4
TORSDOF 1
ENDMDL
