MODEL 1
REMARK VINA RESULT:      -3.7      0.000      0.000
REMARK  1 active torsions:
REMARK  status: ('A' for Active; 'I' for Inactive)
REMARK    1  A    between atoms: C2_2  and  C3_3 
ROOT
HETATM    1  C1  UNL     1     -34.850   3.853   5.071  1.00 20.00     0.071 C 
HETATM    2  C3  UNL     1     -34.793   5.248   4.466  1.00 20.00     0.187 C 
HETATM    3  F4  UNL     1     -36.060   5.624   4.134  1.00 20.00    -0.225 F 
HETATM    4 CL6  UNL     1     -34.193   6.393   5.706  1.00 20.00    -0.082 Cl
ENDROOT
BRANCH   2   5
HETATM    5  C2  UNL     1     -33.908   5.359   3.228  1.00 20.00     0.174 C 
HETATM    6 CL5  UNL     1     -32.519   6.447   3.488  1.00 20.00    -0.126 Cl
ENDBRANCH   2   5
TORSDOF 1
ENDMDL
MODEL 2
REMARK VINA RESULT:      -3.6      1.726      2.628
REMARK  1 active torsions:
REMARK  status: ('A' for Active; 'I' for Inactive)
REMARK    1  A    between atoms: C2_2  and  C3_3 
ROOT
HETATM    1  C1  UNL     1     -33.780   6.506   5.881  1.00 20.00     0.071 C 
HETATM    2  C3  UNL     1     -34.053   6.229   4.409  1.00 20.00     0.187 C 
HETATM    3  F4  UNL     1     -34.714   7.300   3.887  1.00 20.00    -0.225 F 
HETATM    4 CL6  UNL     1     -32.490   6.080   3.547  1.00 20.00    -0.082 Cl
ENDROOT
BRANCH   2   5
HETATM    5  C2  UNL     1     -34.877   4.971   4.150  1.00 20.00     0.174 C 
HETATM    6 CL5  UNL     1     -34.969   3.919   5.586  1.00 20.00    -0.126 Cl
ENDBRANCH   2   5
TORSDOF 1
ENDMDL
MODEL 3
REMARK VINA RESULT:      -3.6      1.719      2.304
REMARK  1 active torsions:
REMARK  status: ('A' for Active; 'I' for Inactive)
REMARK    1  A    between atoms: C2_2  and  C3_3 
ROOT
HETATM    1  C1  UNL     1     -34.145   5.013   2.619  1.00 20.00     0.071 C 
HETATM    2  C3  UNL     1     -34.845   5.367   3.924  1.00 20.00     0.187 C 
HETATM    3  F4  UNL     1     -36.095   5.821   3.630  1.00 20.00    -0.225 F 
HETATM    4 CL6  UNL     1     -35.023   3.880   4.908  1.00 20.00    -0.082 Cl
ENDROOT
BRANCH   2   5
HETATM    5  C2  UNL     1     -34.123   6.422   4.757  1.00 20.00     0.174 C 
HETATM    6 CL5  UNL     1     -34.258   6.108   6.507  1.00 20.00    -0.126 Cl
ENDBRANCH   2   5
TORSDOF 1
ENDMDL
MODEL 4
REMARK VINA RESULT:      -3.6      1.390      1.484
REMARK  1 active torsions:
REMARK  status: ('A' for Active; 'I' for Inactive)
REMARK    1  A    between atoms: C2_2  and  C3_3 
ROOT
HETATM    1  C1  UNL     1     -34.964   5.023   4.073  1.00 20.00     0.071 C 
HETATM    2  C3  UNL     1     -34.050   6.219   4.295  1.00 20.00     0.187 C 
HETATM    3  F4  UNL     1     -34.657   7.325   3.779  1.00 20.00    -0.225 F 
HETATM    4 CL6  UNL     1     -33.854   6.478   6.057  1.00 20.00    -0.082 Cl
ENDROOT
BRANCH   2   5
HETATM    5  C2  UNL     1     -32.668   6.079   3.664  1.00 20.00     0.174 C 
HETATM    6 CL5  UNL     1     -32.233   7.495   2.672  1.00 20.00    -0.126 Cl
ENDBRANCH   2   5
TORSDOF 1
ENDMDL
MODEL 5
REMARK VINA RESULT:      -3.5      1.427      2.459
REMARK  1 active torsions:
REMARK  status: ('A' for Active; 'I' for Inactive)
REMARK    1  A    between atoms: C2_2  and  C3_3 
ROOT
HETATM    1  C1  UNL     1     -35.977   5.665   3.838  1.00 20.00     0.071 C 
HETATM    2  C3  UNL     1     -34.815   5.016   4.578  1.00 20.00     0.187 C 
HETATM    3  F4  UNL     1     -34.865   3.672   4.360  1.00 20.00    -0.225 F 
HETATM    4 CL6  UNL     1     -33.278   5.624   3.887  1.00 20.00    -0.082 Cl
ENDROOT
BRANCH   2   5
HETATM    5  C2  UNL     1     -34.811   5.270   6.082  1.00 20.00     0.174 C 
HETATM    6 CL5  UNL     1     -33.898   6.739   6.515  1.00 20.00    -0.126 Cl
ENDBRANCH   2   5
TORSDOF 1
ENDMDL
MODEL 6
REMARK VINA RESULT:      -3.4      1.783      2.219
REMARK  1 active torsions:
REMARK  status: ('A' for Active; 'I' for Inactive)
REMARK    1  A    between atoms: C2_2  and  C3_3 
ROOT
HETATM    1  C1  UNL     1     -35.015   4.096   5.008  1.00 20.00     0.071 C 
HETATM    2  C3  UNL     1     -34.723   5.243   4.051  1.00 20.00     0.187 C 
HETATM    3  F4  UNL     1     -34.093   4.738   2.955  1.00 20.00    -0.225 F 
HETATM    4 CL6  UNL     1     -36.276   5.953   3.508  1.00 20.00    -0.082 Cl
ENDROOT
BRANCH   2   5
HETATM    5  C2  UNL     1     -33.860   6.352   4.646  1.00 20.00     0.174 C 
HETATM    6 CL5  UNL     1     -34.035   6.466   6.417  1.00 20.00    -0.126 Cl
ENDBRANCH   2   5
TORSDOF 1
ENDMDL
MODEL 7
REMARK VINA RESULT:      -3.3      1.943      1.994
REMARK  1 active torsions:
REMARK  status: ('A' for Active; 'I' for Inactive)
REMARK    1  A    between atoms: C2_2  and  C3_3 
ROOT
HETATM    1  C1  UNL     1     -34.643   5.674   6.381  1.00 20.00     0.071 C 
HETATM    2  C3  UNL     1     -34.270   5.485   4.917  1.00 20.00     0.187 C 
HETATM    3  F4  UNL     1     -33.617   4.296   4.791  1.00 20.00    -0.225 F 
HETATM    4 CL6  UNL     1     -35.771   5.389   3.944  1.00 20.00    -0.082 Cl
ENDROOT
BRANCH   2   5
HETATM    5  C2  UNL     1     -33.387   6.592   4.347  1.00 20.00     0.174 C 
HETATM    6 CL5  UNL     1     -32.290   5.992   3.077  1.00 20.00    -0.126 Cl
ENDBRANCH   2   5
TORSDOF 1
ENDMDL
MODEL 8
REMARK VINA RESULT:      -3.2      2.486      3.230
REMARK  1 active torsions:
REMARK  status: ('A' for Active; 'I' for Inactive)
REMARK    1  A    between atoms: C2_2  and  C3_3 
ROOT
HETATM    1  C1  UNL     1     -32.445   7.602   2.655  1.00 20.00     0.071 C 
HETATM    2  C3  UNL     1     -32.791   6.310   3.381  1.00 20.00     0.187 C 
HETATM    3  F4  UNL     1     -31.690   5.508   3.376  1.00 20.00    -0.225 F 
HETATM    4 CL6  UNL     1     -33.181   6.690   5.087  1.00 20.00    -0.082 Cl
ENDROOT
BRANCH   2   5
HETATM    5  C2  UNL     1     -33.960   5.541   2.771  1.00 20.00     0.174 C 
HETATM    6 CL5  UNL     1     -35.307   5.339   3.921  1.00 20.00    -0.126 Cl
ENDBRANCH   2   5
TORSDOF 1
ENDMDL
MODEL 9
REMARK VINA RESULT:      -3.1      2.462      3.234
REMARK  1 active torsions:
REMARK  status: ('A' for Active; 'I' for Inactive)
REMARK    1  A    between atoms: C2_2  and  C3_3 
ROOT
HETATM    1  C1  UNL     1     -33.967   5.491   2.648  1.00 20.00     0.071 C 
HETATM    2  C3  UNL     1     -32.877   6.255   3.388  1.00 20.00     0.187 C 
HETATM    3  F4  UNL     1     -31.756   5.482   3.418  1.00 20.00    -0.225 F 
HETATM    4 CL6  UNL     1     -32.489   7.744   2.470  1.00 20.00    -0.082 Cl
ENDROOT
BRANCH   2   5
HETATM    5  C2  UNL     1     -33.244   6.642   4.817  1.00 20.00     0.174 C 
HETATM    6 CL5  UNL     1     -34.422   5.516   5.540  1.00 20.00    -0.126 Cl
ENDBRANCH   2   5
TORSDOF 1
ENDMDL
