MODEL 1
REMARK VINA RESULT:      -4.3      0.000      0.000
REMARK  0 active torsions:
REMARK  status: ('A' for Active; 'I' for Inactive)
ROOT
HETATM    1  C1  UNL     1     -33.456  16.285  -3.224  1.00 20.00    -0.011 C 
HETATM    2  C2  UNL     1     -34.581  16.191  -2.500  1.00 20.00    -0.015 C 
HETATM    3  C3  UNL     1     -33.348  15.808  -4.645  1.00 20.00     0.036 C 
HETATM    4  C4  UNL     1     -35.860  15.616  -3.042  1.00 20.00     0.047 C 
HETATM    5  C5  UNL     1     -35.838  15.427  -4.565  1.00 20.00     0.014 C 
HETATM    6  C6  UNL     1     -34.497  14.868  -5.087  1.00 20.00    -0.044 C 
HETATM    7  C7  UNL     1     -34.535  14.801  -6.624  1.00 20.00     0.015 C 
HETATM    8  C8  UNL     1     -34.258  13.440  -4.553  1.00 20.00     0.015 C 
HETATM    9 BR9  UNL     1     -34.666  16.782  -0.729  1.00 20.00    -0.056 Br
ENDROOT
TORSDOF 0
ENDMDL
MODEL 2
REMARK VINA RESULT:      -4.0      1.658      2.062
REMARK  0 active torsions:
REMARK  status: ('A' for Active; 'I' for Inactive)
ROOT
HETATM    1  C1  UNL     1     -33.620  17.229  -4.483  1.00 20.00    -0.011 C 
HETATM    2  C2  UNL     1     -33.792  17.533  -3.188  1.00 20.00    -0.015 C 
HETATM    3  C3  UNL     1     -33.822  15.847  -5.039  1.00 20.00     0.036 C 
HETATM    4  C4  UNL     1     -34.224  16.527  -2.159  1.00 20.00     0.047 C 
HETATM    5  C5  UNL     1     -34.728  15.214  -2.773  1.00 20.00     0.014 C 
HETATM    6  C6  UNL     1     -33.870  14.733  -3.964  1.00 20.00    -0.044 C 
HETATM    7  C7  UNL     1     -34.503  13.469  -4.571  1.00 20.00     0.015 C 
HETATM    8  C8  UNL     1     -32.444  14.376  -3.496  1.00 20.00     0.015 C 
HETATM    9 BR9  UNL     1     -33.515  19.263  -2.537  1.00 20.00    -0.056 Br
ENDROOT
TORSDOF 0
ENDMDL
MODEL 3
REMARK VINA RESULT:      -4.0      2.722      3.910
REMARK  0 active torsions:
REMARK  status: ('A' for Active; 'I' for Inactive)
ROOT
HETATM    1  C1  UNL     1     -35.595  14.552  -5.039  1.00 20.00    -0.011 C 
HETATM    2  C2  UNL     1     -35.005  15.084  -6.120  1.00 20.00    -0.015 C 
HETATM    3  C3  UNL     1     -35.235  14.934  -3.631  1.00 20.00     0.036 C 
HETATM    4  C4  UNL     1     -33.932  16.134  -6.036  1.00 20.00     0.047 C 
HETATM    5  C5  UNL     1     -33.792  16.742  -4.634  1.00 20.00     0.014 C 
HETATM    6  C6  UNL     1     -33.890  15.693  -3.505  1.00 20.00    -0.044 C 
HETATM    7  C7  UNL     1     -33.834  16.403  -2.142  1.00 20.00     0.015 C 
HETATM    8  C8  UNL     1     -32.707  14.705  -3.578  1.00 20.00     0.015 C 
HETATM    9 BR9  UNL     1     -35.473  14.567  -7.854  1.00 20.00    -0.056 Br
ENDROOT
TORSDOF 0
ENDMDL
MODEL 4
REMARK VINA RESULT:      -4.0      0.986      2.125
REMARK  0 active torsions:
REMARK  status: ('A' for Active; 'I' for Inactive)
ROOT
HETATM    1  C1  UNL     1     -35.161  15.047  -3.332  1.00 20.00    -0.011 C 
HETATM    2  C2  UNL     1     -34.505  16.137  -2.906  1.00 20.00    -0.015 C 
HETATM    3  C3  UNL     1     -35.172  14.600  -4.767  1.00 20.00     0.036 C 
HETATM    4  C4  UNL     1     -33.695  17.016  -3.818  1.00 20.00     0.047 C 
HETATM    5  C5  UNL     1     -33.451  16.391  -5.198  1.00 20.00     0.014 C 
HETATM    6  C6  UNL     1     -34.697  15.680  -5.771  1.00 20.00    -0.044 C 
HETATM    7  C7  UNL     1     -34.332  15.008  -7.105  1.00 20.00     0.015 C 
HETATM    8  C8  UNL     1     -35.826  16.697  -6.041  1.00 20.00     0.015 C 
HETATM    9 BR9  UNL     1     -34.531  16.666  -1.114  1.00 20.00    -0.056 Br
ENDROOT
TORSDOF 0
ENDMDL
MODEL 5
REMARK VINA RESULT:      -3.9      0.829      2.037
REMARK  0 active torsions:
REMARK  status: ('A' for Active; 'I' for Inactive)
ROOT
HETATM    1  C1  UNL     1     -35.972  15.992  -3.066  1.00 20.00    -0.011 C 
HETATM    2  C2  UNL     1     -34.786  16.062  -2.443  1.00 20.00    -0.015 C 
HETATM    3  C3  UNL     1     -36.152  15.387  -4.429  1.00 20.00     0.036 C 
HETATM    4  C4  UNL     1     -33.514  15.524  -3.036  1.00 20.00     0.047 C 
HETATM    5  C5  UNL     1     -33.751  14.637  -4.267  1.00 20.00     0.014 C 
HETATM    6  C6  UNL     1     -34.833  15.196  -5.217  1.00 20.00    -0.044 C 
HETATM    7  C7  UNL     1     -35.067  14.199  -6.366  1.00 20.00     0.015 C 
HETATM    8  C8  UNL     1     -34.376  16.535  -5.833  1.00 20.00     0.015 C 
HETATM    9 BR9  UNL     1     -34.604  16.839  -0.753  1.00 20.00    -0.056 Br
ENDROOT
TORSDOF 0
ENDMDL
MODEL 6
REMARK VINA RESULT:      -3.9     12.337     13.497
REMARK  0 active torsions:
REMARK  status: ('A' for Active; 'I' for Inactive)
ROOT
HETATM    1  C1  UNL     1     -43.025   4.759  -3.017  1.00 20.00    -0.011 C 
HETATM    2  C2  UNL     1     -42.048   3.950  -2.583  1.00 20.00    -0.015 C 
HETATM    3  C3  UNL     1     -43.256   6.140  -2.471  1.00 20.00     0.036 C 
HETATM    4  C4  UNL     1     -41.066   4.348  -1.516  1.00 20.00     0.047 C 
HETATM    5  C5  UNL     1     -41.104   5.847  -1.190  1.00 20.00     0.014 C 
HETATM    6  C6  UNL     1     -42.538   6.418  -1.126  1.00 20.00    -0.044 C 
HETATM    7  C7  UNL     1     -42.473   7.936  -0.889  1.00 20.00     0.015 C 
HETATM    8  C8  UNL     1     -43.322   5.785   0.042  1.00 20.00     0.015 C 
HETATM    9 BR9  UNL     1     -41.807   2.233  -3.280  1.00 20.00    -0.056 Br
ENDROOT
TORSDOF 0
ENDMDL
MODEL 7
REMARK VINA RESULT:      -3.8      2.447      3.785
REMARK  0 active torsions:
REMARK  status: ('A' for Active; 'I' for Inactive)
ROOT
HETATM    1  C1  UNL     1     -33.813  16.716  -4.924  1.00 20.00    -0.011 C 
HETATM    2  C2  UNL     1     -34.429  15.596  -5.330  1.00 20.00    -0.015 C 
HETATM    3  C3  UNL     1     -33.775  17.163  -3.490  1.00 20.00     0.036 C 
HETATM    4  C4  UNL     1     -35.130  14.658  -4.388  1.00 20.00     0.047 C 
HETATM    5  C5  UNL     1     -34.824  14.945  -2.912  1.00 20.00     0.014 C 
HETATM    6  C6  UNL     1     -34.807  16.453  -2.578  1.00 20.00    -0.044 C 
HETATM    7  C7  UNL     1     -34.400  16.645  -1.107  1.00 20.00     0.015 C 
HETATM    8  C8  UNL     1     -36.208  17.068  -2.771  1.00 20.00     0.015 C 
HETATM    9 BR9  UNL     1     -34.464  15.086  -7.128  1.00 20.00    -0.056 Br
ENDROOT
TORSDOF 0
ENDMDL
MODEL 8
REMARK VINA RESULT:      -3.8     11.782     12.895
REMARK  0 active torsions:
REMARK  status: ('A' for Active; 'I' for Inactive)
ROOT
HETATM    1  C1  UNL     1     -43.094   5.828  -3.062  1.00 20.00    -0.011 C 
HETATM    2  C2  UNL     1     -42.537   7.036  -2.886  1.00 20.00    -0.015 C 
HETATM    3  C3  UNL     1     -43.164   4.787  -1.981  1.00 20.00     0.036 C 
HETATM    4  C4  UNL     1     -41.941   7.482  -1.580  1.00 20.00     0.047 C 
HETATM    5  C5  UNL     1     -42.291   6.554  -0.409  1.00 20.00     0.014 C 
HETATM    6  C6  UNL     1     -42.223   5.057  -0.780  1.00 20.00    -0.044 C 
HETATM    7  C7  UNL     1     -42.679   4.212   0.422  1.00 20.00     0.015 C 
HETATM    8  C8  UNL     1     -40.776   4.650  -1.128  1.00 20.00     0.015 C 
HETATM    9 BR9  UNL     1     -42.457   8.296  -4.264  1.00 20.00    -0.056 Br
ENDROOT
TORSDOF 0
ENDMDL
MODEL 9
REMARK VINA RESULT:      -3.7      2.396      3.263
REMARK  0 active torsions:
REMARK  status: ('A' for Active; 'I' for Inactive)
ROOT
HETATM    1  C1  UNL     1     -35.270  15.974  -5.662  1.00 20.00    -0.011 C 
HETATM    2  C2  UNL     1     -36.326  15.259  -5.244  1.00 20.00    -0.015 C 
HETATM    3  C3  UNL     1     -33.885  15.801  -5.104  1.00 20.00     0.036 C 
HETATM    4  C4  UNL     1     -36.230  14.197  -4.185  1.00 20.00     0.047 C 
HETATM    5  C5  UNL     1     -34.784  13.808  -3.849  1.00 20.00     0.014 C 
HETATM    6  C6  UNL     1     -33.834  15.023  -3.766  1.00 20.00    -0.044 C 
HETATM    7  C7  UNL     1     -32.397  14.531  -3.519  1.00 20.00     0.015 C 
HETATM    8  C8  UNL     1     -34.231  15.944  -2.593  1.00 20.00     0.015 C 
HETATM    9 BR9  UNL     1     -38.035  15.518  -5.955  1.00 20.00    -0.056 Br
ENDROOT
TORSDOF 0
ENDMDL
