MODEL 1
REMARK VINA RESULT:      -4.5      0.000      0.000
REMARK  0 active torsions:
REMARK  status: ('A' for Active; 'I' for Inactive)
ROOT
HETATM    1  C1  UNL     1     -33.756  17.418  -3.568  1.00 20.00     0.101 C 
HETATM    2  C2  UNL     1     -33.885  15.980  -5.343  1.00 20.00     0.055 C 
HETATM    3  C3  UNL     1     -35.356  15.479  -3.506  1.00 20.00     0.145 C 
HETATM    4  C4  UNL     1     -33.977  15.975  -6.683  1.00 20.00     0.112 C 
HETATM    5  C5  UNL     1     -34.884  16.745  -2.825  1.00 20.00     0.092 C 
HETATM    6  C6  UNL     1     -34.358  14.841  -4.459  1.00 20.00     0.105 C 
HETATM    7  C7  UNL     1     -34.433  16.424  -1.406  1.00 20.00     0.023 C 
HETATM    8  C8  UNL     1     -34.962  13.622  -5.158  1.00 20.00     0.025 C 
HETATM    9  N9  UNL     1     -33.297  17.064  -4.728  1.00 20.00    -0.267 NA
HETATM   10  O10 UNL     1     -36.446  14.977  -3.234  1.00 20.00    -0.296 OA
HETATM   11 CL11 UNL     1     -34.641  14.672  -7.562  1.00 20.00    -0.095 Cl
ENDROOT
TORSDOF 0
ENDMDL
MODEL 2
REMARK VINA RESULT:      -4.4      2.738      3.944
REMARK  0 active torsions:
REMARK  status: ('A' for Active; 'I' for Inactive)
ROOT
HETATM    1  C1  UNL     1     -33.549  14.268  -3.809  1.00 20.00     0.101 C 
HETATM    2  C2  UNL     1     -34.404  16.021  -2.612  1.00 20.00     0.055 C 
HETATM    3  C3  UNL     1     -36.033  14.652  -3.735  1.00 20.00     0.145 C 
HETATM    4  C4  UNL     1     -34.306  16.617  -1.412  1.00 20.00     0.112 C 
HETATM    5  C5  UNL     1     -34.913  13.734  -4.173  1.00 20.00     0.092 C 
HETATM    6  C6  UNL     1     -35.634  16.100  -3.497  1.00 20.00     0.105 C 
HETATM    7  C7  UNL     1     -34.985  13.521  -5.680  1.00 20.00     0.023 C 
HETATM    8  C8  UNL     1     -36.815  16.921  -2.977  1.00 20.00     0.025 C 
HETATM    9  N9  UNL     1     -33.317  15.322  -3.090  1.00 20.00    -0.267 NA
HETATM   10  O10 UNL     1     -37.193  14.251  -3.659  1.00 20.00    -0.296 OA
HETATM   11 CL11 UNL     1     -35.565  17.547  -0.734  1.00 20.00    -0.095 Cl
ENDROOT
TORSDOF 0
ENDMDL
MODEL 3
REMARK VINA RESULT:      -4.4      2.158      2.650
REMARK  0 active torsions:
REMARK  status: ('A' for Active; 'I' for Inactive)
ROOT
HETATM    1  C1  UNL     1     -34.449  15.591  -3.220  1.00 20.00     0.101 C 
HETATM    2  C2  UNL     1     -35.658  15.870  -5.142  1.00 20.00     0.055 C 
HETATM    3  C3  UNL     1     -34.671  13.694  -4.856  1.00 20.00     0.145 C 
HETATM    4  C4  UNL     1     -36.836  16.346  -5.580  1.00 20.00     0.112 C 
HETATM    5  C5  UNL     1     -34.184  14.130  -3.492  1.00 20.00     0.092 C 
HETATM    6  C6  UNL     1     -34.852  14.812  -5.872  1.00 20.00     0.105 C 
HETATM    7  C7  UNL     1     -32.690  13.857  -3.371  1.00 20.00     0.023 C 
HETATM    8  C8  UNL     1     -35.427  14.279  -7.184  1.00 20.00     0.025 C 
HETATM    9  N9  UNL     1     -35.128  16.391  -3.982  1.00 20.00    -0.267 NA
HETATM   10  O10 UNL     1     -34.830  12.505  -5.126  1.00 20.00    -0.296 OA
HETATM   11 CL11 UNL     1     -37.572  15.815  -7.024  1.00 20.00    -0.095 Cl
ENDROOT
TORSDOF 0
ENDMDL
MODEL 4
REMARK VINA RESULT:      -4.4      2.952      4.140
REMARK  0 active torsions:
REMARK  status: ('A' for Active; 'I' for Inactive)
ROOT
HETATM    1  C1  UNL     1     -33.491  18.052  -5.303  1.00 20.00     0.101 C 
HETATM    2  C2  UNL     1     -33.819  18.232  -3.046  1.00 20.00     0.055 C 
HETATM    3  C3  UNL     1     -33.507  15.991  -3.864  1.00 20.00     0.145 C 
HETATM    4  C4  UNL     1     -33.406  18.937  -1.979  1.00 20.00     0.112 C 
HETATM    5  C5  UNL     1     -33.257  16.563  -5.242  1.00 20.00     0.092 C 
HETATM    6  C6  UNL     1     -34.396  16.831  -2.960  1.00 20.00     0.105 C 
HETATM    7  C7  UNL     1     -34.159  15.869  -6.255  1.00 20.00     0.023 C 
HETATM    8  C8  UNL     1     -34.514  16.210  -1.568  1.00 20.00     0.025 C 
HETATM    9  N9  UNL     1     -33.750  18.820  -4.291  1.00 20.00    -0.267 NA
HETATM   10  O10 UNL     1     -33.074  14.884  -3.545  1.00 20.00    -0.296 OA
HETATM   11 CL11 UNL     1     -33.484  18.337  -0.384  1.00 20.00    -0.095 Cl
ENDROOT
TORSDOF 0
ENDMDL
MODEL 5
REMARK VINA RESULT:      -4.3      2.316      3.725
REMARK  0 active torsions:
REMARK  status: ('A' for Active; 'I' for Inactive)
ROOT
HETATM    1  C1  UNL     1     -34.371  16.241  -7.095  1.00 20.00     0.101 C 
HETATM    2  C2  UNL     1     -34.364  16.485  -4.820  1.00 20.00     0.055 C 
HETATM    3  C3  UNL     1     -34.943  14.289  -5.617  1.00 20.00     0.145 C 
HETATM    4  C4  UNL     1     -33.617  16.984  -3.821  1.00 20.00     0.112 C 
HETATM    5  C5  UNL     1     -34.665  14.763  -7.026  1.00 20.00     0.092 C 
HETATM    6  C6  UNL     1     -35.379  15.371  -4.640  1.00 20.00     0.105 C 
HETATM    7  C7  UNL     1     -35.858  14.443  -7.918  1.00 20.00     0.023 C 
HETATM    8  C8  UNL     1     -35.551  14.806  -3.230  1.00 20.00     0.025 C 
HETATM    9  N9  UNL     1     -34.234  17.033  -6.077  1.00 20.00    -0.267 NA
HETATM   10  O10 UNL     1     -34.890  13.096  -5.322  1.00 20.00    -0.296 OA
HETATM   11 CL11 UNL     1     -33.722  16.421  -2.214  1.00 20.00    -0.095 Cl
ENDROOT
TORSDOF 0
ENDMDL
MODEL 6
REMARK VINA RESULT:      -4.2      2.046      2.603
REMARK  0 active torsions:
REMARK  status: ('A' for Active; 'I' for Inactive)
ROOT
HETATM    1  C1  UNL     1     -34.514  14.622  -3.037  1.00 20.00     0.101 C 
HETATM    2  C2  UNL     1     -35.136  14.774  -5.234  1.00 20.00     0.055 C 
HETATM    3  C3  UNL     1     -33.812  16.607  -4.412  1.00 20.00     0.145 C 
HETATM    4  C4  UNL     1     -35.184  14.046  -6.362  1.00 20.00     0.112 C 
HETATM    5  C5  UNL     1     -33.678  15.877  -3.094  1.00 20.00     0.092 C 
HETATM    6  C6  UNL     1     -35.069  16.290  -5.208  1.00 20.00     0.105 C 
HETATM    7  C7  UNL     1     -34.080  16.803  -1.953  1.00 20.00     0.023 C 
HETATM    8  C8  UNL     1     -35.066  17.010  -6.556  1.00 20.00     0.025 C 
HETATM    9  N9  UNL     1     -35.186  14.116  -4.024  1.00 20.00    -0.267 NA
HETATM   10  O10 UNL     1     -32.989  17.452  -4.760  1.00 20.00    -0.296 OA
HETATM   11 CL11 UNL     1     -35.176  14.747  -7.918  1.00 20.00    -0.095 Cl
ENDROOT
TORSDOF 0
ENDMDL
MODEL 7
REMARK VINA RESULT:      -4.1      3.026      4.217
REMARK  0 active torsions:
REMARK  status: ('A' for Active; 'I' for Inactive)
ROOT
HETATM    1  C1  UNL     1     -36.199  14.580  -4.314  1.00 20.00     0.101 C 
HETATM    2  C2  UNL     1     -35.983  16.294  -2.815  1.00 20.00     0.055 C 
HETATM    3  C3  UNL     1     -33.935  15.573  -3.853  1.00 20.00     0.145 C 
HETATM    4  C4  UNL     1     -36.534  17.474  -2.484  1.00 20.00     0.112 C 
HETATM    5  C5  UNL     1     -34.742  14.618  -4.704  1.00 20.00     0.092 C 
HETATM    6  C6  UNL     1     -34.546  15.917  -2.503  1.00 20.00     0.105 C 
HETATM    7  C7  UNL     1     -34.154  13.216  -4.597  1.00 20.00     0.023 C 
HETATM    8  C8  UNL     1     -33.699  16.951  -1.761  1.00 20.00     0.025 C 
HETATM    9  N9  UNL     1     -36.769  15.353  -3.443  1.00 20.00    -0.267 NA
HETATM   10  O10 UNL     1     -32.828  15.970  -4.213  1.00 20.00    -0.296 OA
HETATM   11 CL11 UNL     1     -35.678  18.701  -1.665  1.00 20.00    -0.095 Cl
ENDROOT
TORSDOF 0
ENDMDL
MODEL 8
REMARK VINA RESULT:      -4.1      1.787      2.167
REMARK  0 active torsions:
REMARK  status: ('A' for Active; 'I' for Inactive)
ROOT
HETATM    1  C1  UNL     1     -33.019  16.004  -4.108  1.00 20.00     0.101 C 
HETATM    2  C2  UNL     1     -34.116  16.431  -6.069  1.00 20.00     0.055 C 
HETATM    3  C3  UNL     1     -34.810  14.437  -4.917  1.00 20.00     0.145 C 
HETATM    4  C4  UNL     1     -34.728  17.427  -6.733  1.00 20.00     0.112 C 
HETATM    5  C5  UNL     1     -33.870  14.799  -3.789  1.00 20.00     0.092 C 
HETATM    6  C6  UNL     1     -34.416  14.960  -6.289  1.00 20.00     0.105 C 
HETATM    7  C7  UNL     1     -32.968  13.613  -3.474  1.00 20.00     0.023 C 
HETATM    8  C8  UNL     1     -35.472  14.613  -7.338  1.00 20.00     0.025 C 
HETATM    9  N9  UNL     1     -33.133  16.754  -5.159  1.00 20.00    -0.267 NA
HETATM   10  O10 UNL     1     -35.780  13.703  -4.728  1.00 20.00    -0.296 OA
HETATM   11 CL11 UNL     1     -35.927  17.153  -7.915  1.00 20.00    -0.095 Cl
ENDROOT
TORSDOF 0
ENDMDL
MODEL 9
REMARK VINA RESULT:      -4.1      2.928      4.070
REMARK  0 active torsions:
REMARK  status: ('A' for Active; 'I' for Inactive)
ROOT
HETATM    1  C1  UNL     1     -35.507  13.609  -4.327  1.00 20.00     0.101 C 
HETATM    2  C2  UNL     1     -36.647  15.344  -3.366  1.00 20.00     0.055 C 
HETATM    3  C3  UNL     1     -34.276  15.679  -3.603  1.00 20.00     0.145 C 
HETATM    4  C4  UNL     1     -37.750  16.094  -3.531  1.00 20.00     0.112 C 
HETATM    5  C5  UNL     1     -34.194  14.354  -4.329  1.00 20.00     0.092 C 
HETATM    6  C6  UNL     1     -35.417  15.807  -2.606  1.00 20.00     0.105 C 
HETATM    7  C7  UNL     1     -33.121  13.485  -3.687  1.00 20.00     0.023 C 
HETATM    8  C8  UNL     1     -35.462  17.207  -1.993  1.00 20.00     0.025 C 
HETATM    9  N9  UNL     1     -36.636  14.067  -3.883  1.00 20.00    -0.267 NA
HETATM   10  O10 UNL     1     -33.422  16.549  -3.766  1.00 20.00    -0.296 OA
HETATM   11 CL11 UNL     1     -37.902  17.671  -2.899  1.00 20.00    -0.095 Cl
ENDROOT
TORSDOF 0
ENDMDL
