MODEL 1
REMARK VINA RESULT:      -5.7      0.000      0.000
REMARK  0 active torsions:
REMARK  status: ('A' for Active; 'I' for Inactive)
ROOT
HETATM    1  C1  UNL     1     -35.957  14.001  -3.996  1.00 20.00     0.009 C 
HETATM    2  C2  UNL     1     -33.461  13.721  -3.934  1.00 20.00     0.009 C 
HETATM    3  C3  UNL     1     -34.575  14.606  -5.997  1.00 20.00     0.013 C 
HETATM    4  C4  UNL     1     -35.674  16.404  -4.631  1.00 20.00     0.014 C 
HETATM    5  C5  UNL     1     -33.172  16.121  -4.568  1.00 20.00     0.014 C 
HETATM    6  C6  UNL     1     -34.714  13.626  -4.821  1.00 20.00    -0.013 C 
HETATM    7  C7  UNL     1     -35.814  15.433  -3.442  1.00 20.00    -0.009 C 
HETATM    8  C8  UNL     1     -33.310  15.150  -3.380  1.00 20.00    -0.009 C 
HETATM    9  C9  UNL     1     -34.562  15.485  -2.533  1.00 20.00    -0.010 C 
HETATM   10  C10 UNL     1     -34.425  16.054  -5.473  1.00 20.00    -0.043 C 
HETATM   11  C11 UNL     1     -34.432  16.810  -1.779  1.00 20.00     0.010 C 
HETATM   12  C12 UNL     1     -34.285  17.029  -6.646  1.00 20.00     0.015 C 
ENDROOT
TORSDOF 0
ENDMDL
MODEL 2
REMARK VINA RESULT:      -5.3      0.752      3.353
REMARK  0 active torsions:
REMARK  status: ('A' for Active; 'I' for Inactive)
ROOT
HETATM    1  C1  UNL     1     -33.168  16.041  -4.526  1.00 20.00     0.009 C 
HETATM    2  C2  UNL     1     -33.850  13.745  -3.769  1.00 20.00     0.009 C 
HETATM    3  C3  UNL     1     -34.899  15.772  -2.735  1.00 20.00     0.013 C 
HETATM    4  C4  UNL     1     -35.558  16.594  -5.015  1.00 20.00     0.014 C 
HETATM    5  C5  UNL     1     -36.241  14.291  -4.255  1.00 20.00     0.014 C 
HETATM    6  C6  UNL     1     -33.600  15.194  -3.317  1.00 20.00    -0.013 C 
HETATM    7  C7  UNL     1     -34.261  16.013  -5.612  1.00 20.00    -0.009 C 
HETATM    8  C8  UNL     1     -34.945  13.709  -4.852  1.00 20.00    -0.009 C 
HETATM    9  C9  UNL     1     -34.466  14.546  -6.063  1.00 20.00    -0.010 C 
HETATM   10  C10 UNL     1     -36.020  15.754  -3.801  1.00 20.00    -0.043 C 
HETATM   11  C11 UNL     1     -35.395  14.423  -7.273  1.00 20.00     0.010 C 
HETATM   12  C12 UNL     1     -37.314  16.329  -3.219  1.00 20.00     0.015 C 
ENDROOT
TORSDOF 0
ENDMDL
MODEL 3
REMARK VINA RESULT:      -5.1      0.724      2.409
REMARK  0 active torsions:
REMARK  status: ('A' for Active; 'I' for Inactive)
ROOT
HETATM    1  C1  UNL     1     -33.887  13.831  -3.785  1.00 20.00     0.009 C 
HETATM    2  C2  UNL     1     -34.342  15.936  -2.492  1.00 20.00     0.009 C 
HETATM    3  C3  UNL     1     -33.152  16.047  -4.694  1.00 20.00     0.013 C 
HETATM    4  C4  UNL     1     -35.044  14.802  -5.779  1.00 20.00     0.014 C 
HETATM    5  C5  UNL     1     -35.500  16.912  -4.481  1.00 20.00     0.014 C 
HETATM    6  C6  UNL     1     -33.340  15.219  -3.413  1.00 20.00    -0.013 C 
HETATM    7  C7  UNL     1     -35.247  13.970  -4.498  1.00 20.00    -0.009 C 
HETATM    8  C8  UNL     1     -35.703  16.081  -3.199  1.00 20.00    -0.009 C 
HETATM    9  C9  UNL     1     -36.237  14.667  -3.533  1.00 20.00    -0.010 C 
HETATM   10  C10 UNL     1     -34.502  16.209  -5.432  1.00 20.00    -0.043 C 
HETATM   11  C11 UNL     1     -37.671  14.686  -4.069  1.00 20.00     0.010 C 
HETATM   12  C12 UNL     1     -34.313  17.034  -6.707  1.00 20.00     0.015 C 
ENDROOT
TORSDOF 0
ENDMDL
MODEL 4
REMARK VINA RESULT:      -5.0      1.057      3.331
REMARK  0 active torsions:
REMARK  status: ('A' for Active; 'I' for Inactive)
ROOT
HETATM    1  C1  UNL     1     -35.879  16.877  -5.224  1.00 20.00     0.009 C 
HETATM    2  C2  UNL     1     -33.368  16.940  -5.182  1.00 20.00     0.009 C 
HETATM    3  C3  UNL     1     -34.678  17.781  -3.219  1.00 20.00     0.013 C 
HETATM    4  C4  UNL     1     -35.885  15.582  -3.084  1.00 20.00     0.014 C 
HETATM    5  C5  UNL     1     -33.368  15.646  -3.043  1.00 20.00     0.014 C 
HETATM    6  C6  UNL     1     -34.651  17.673  -4.752  1.00 20.00    -0.013 C 
HETATM    7  C7  UNL     1     -35.858  15.459  -4.620  1.00 20.00    -0.009 C 
HETATM    8  C8  UNL     1     -33.338  15.523  -4.579  1.00 20.00    -0.009 C 
HETATM    9  C9  UNL     1     -34.571  14.742  -5.096  1.00 20.00    -0.010 C 
HETATM   10  C10 UNL     1     -34.654  16.371  -2.581  1.00 20.00    -0.043 C 
HETATM   11  C11 UNL     1     -34.540  13.262  -4.710  1.00 20.00     0.010 C 
HETATM   12  C12 UNL     1     -34.681  16.481  -1.054  1.00 20.00     0.015 C 
ENDROOT
TORSDOF 0
ENDMDL
MODEL 5
REMARK VINA RESULT:      -5.0      0.944      2.984
REMARK  0 active torsions:
REMARK  status: ('A' for Active; 'I' for Inactive)
ROOT
HETATM    1  C1  UNL     1     -33.514  17.169  -4.880  1.00 20.00     0.009 C 
HETATM    2  C2  UNL     1     -36.023  17.176  -4.773  1.00 20.00     0.009 C 
HETATM    3  C3  UNL     1     -34.817  15.250  -5.829  1.00 20.00     0.013 C 
HETATM    4  C4  UNL     1     -33.467  14.947  -3.733  1.00 20.00     0.014 C 
HETATM    5  C5  UNL     1     -35.984  14.955  -3.626  1.00 20.00     0.014 C 
HETATM    6  C6  UNL     1     -34.803  16.773  -5.619  1.00 20.00    -0.013 C 
HETATM    7  C7  UNL     1     -33.452  16.471  -3.507  1.00 20.00    -0.009 C 
HETATM    8  C8  UNL     1     -35.970  16.479  -3.400  1.00 20.00    -0.009 C 
HETATM    9  C9  UNL     1     -34.677  16.921  -2.673  1.00 20.00    -0.010 C 
HETATM   10  C10 UNL     1     -34.760  14.519  -4.467  1.00 20.00    -0.043 C 
HETATM   11  C11 UNL     1     -34.615  16.436  -1.223  1.00 20.00     0.010 C 
HETATM   12  C12 UNL     1     -34.774  13.003  -4.679  1.00 20.00     0.015 C 
ENDROOT
TORSDOF 0
ENDMDL
MODEL 6
REMARK VINA RESULT:      -4.9      0.883      2.716
REMARK  0 active torsions:
REMARK  status: ('A' for Active; 'I' for Inactive)
ROOT
HETATM    1  C1  UNL     1     -33.444  14.095  -3.820  1.00 20.00     0.009 C 
HETATM    2  C2  UNL     1     -34.315  14.576  -6.126  1.00 20.00     0.009 C 
HETATM    3  C3  UNL     1     -35.872  13.756  -4.341  1.00 20.00     0.013 C 
HETATM    4  C4  UNL     1     -35.151  15.643  -2.848  1.00 20.00     0.014 C 
HETATM    5  C5  UNL     1     -36.024  16.125  -5.161  1.00 20.00     0.014 C 
HETATM    6  C6  UNL     1     -34.444  13.653  -4.902  1.00 20.00    -0.013 C 
HETATM    7  C7  UNL     1     -33.718  15.554  -3.407  1.00 20.00    -0.009 C 
HETATM    8  C8  UNL     1     -34.592  16.036  -5.722  1.00 20.00    -0.009 C 
HETATM    9  C9  UNL     1     -33.551  16.456  -4.655  1.00 20.00    -0.010 C 
HETATM   10  C10 UNL     1     -36.180  15.213  -3.921  1.00 20.00    -0.043 C 
HETATM   11  C11 UNL     1     -33.615  17.948  -4.320  1.00 20.00     0.010 C 
HETATM   12  C12 UNL     1     -37.602  15.314  -3.363  1.00 20.00     0.015 C 
ENDROOT
TORSDOF 0
ENDMDL
MODEL 7
REMARK VINA RESULT:      -4.9      1.045      2.077
REMARK  0 active torsions:
REMARK  status: ('A' for Active; 'I' for Inactive)
ROOT
HETATM    1  C1  UNL     1     -34.098  14.081  -4.264  1.00 20.00     0.009 C 
HETATM    2  C2  UNL     1     -33.317  16.344  -5.022  1.00 20.00     0.009 C 
HETATM    3  C3  UNL     1     -35.523  15.450  -5.804  1.00 20.00     0.013 C 
HETATM    4  C4  UNL     1     -36.223  15.094  -3.418  1.00 20.00     0.014 C 
HETATM    5  C5  UNL     1     -35.438  17.363  -4.180  1.00 20.00     0.014 C 
HETATM    6  C6  UNL     1     -34.079  15.074  -5.438  1.00 20.00    -0.013 C 
HETATM    7  C7  UNL     1     -34.777  14.721  -3.037  1.00 20.00    -0.009 C 
HETATM    8  C8  UNL     1     -33.992  16.992  -3.799  1.00 20.00    -0.009 C 
HETATM    9  C9  UNL     1     -33.969  15.978  -2.630  1.00 20.00    -0.010 C 
HETATM   10  C10 UNL     1     -36.232  16.101  -4.592  1.00 20.00    -0.043 C 
HETATM   11  C11 UNL     1     -34.445  16.585  -1.308  1.00 20.00     0.010 C 
HETATM   12  C12 UNL     1     -37.671  16.475  -4.959  1.00 20.00     0.015 C 
ENDROOT
TORSDOF 0
ENDMDL
MODEL 8
REMARK VINA RESULT:      -4.9      1.153      2.548
REMARK  0 active torsions:
REMARK  status: ('A' for Active; 'I' for Inactive)
ROOT
HETATM    1  C1  UNL     1     -35.403  17.014  -4.039  1.00 20.00     0.009 C 
HETATM    2  C2  UNL     1     -36.377  14.734  -3.639  1.00 20.00     0.009 C 
HETATM    3  C3  UNL     1     -36.401  15.724  -5.941  1.00 20.00     0.013 C 
HETATM    4  C4  UNL     1     -33.917  16.071  -5.816  1.00 20.00     0.014 C 
HETATM    5  C5  UNL     1     -34.894  13.785  -5.415  1.00 20.00     0.014 C 
HETATM    6  C6  UNL     1     -36.521  16.038  -4.441  1.00 20.00    -0.013 C 
HETATM    7  C7  UNL     1     -34.023  16.382  -4.311  1.00 20.00    -0.009 C 
HETATM    8  C8  UNL     1     -35.002  14.094  -3.909  1.00 20.00    -0.009 C 
HETATM    9  C9  UNL     1     -33.901  15.090  -3.467  1.00 20.00    -0.010 C 
HETATM   10  C10 UNL     1     -35.026  15.083  -6.246  1.00 20.00    -0.043 C 
HETATM   11  C11 UNL     1     -32.498  14.482  -3.515  1.00 20.00     0.010 C 
HETATM   12  C12 UNL     1     -34.908  14.770  -7.741  1.00 20.00     0.015 C 
ENDROOT
TORSDOF 0
ENDMDL
MODEL 9
REMARK VINA RESULT:      -4.9      1.127      1.929
REMARK  0 active torsions:
REMARK  status: ('A' for Active; 'I' for Inactive)
ROOT
HETATM    1  C1  UNL     1     -35.400  15.131  -3.037  1.00 20.00     0.009 C 
HETATM    2  C2  UNL     1     -33.004  15.112  -3.791  1.00 20.00     0.009 C 
HETATM    3  C3  UNL     1     -34.713  13.736  -5.002  1.00 20.00     0.013 C 
HETATM    4  C4  UNL     1     -36.124  15.786  -5.340  1.00 20.00     0.014 C 
HETATM    5  C5  UNL     1     -33.721  15.767  -6.095  1.00 20.00     0.014 C 
HETATM    6  C6  UNL     1     -34.276  14.262  -3.626  1.00 20.00    -0.013 C 
HETATM    7  C7  UNL     1     -35.687  16.328  -3.964  1.00 20.00    -0.009 C 
HETATM    8  C8  UNL     1     -33.283  16.309  -4.721  1.00 20.00    -0.009 C 
HETATM    9  C9  UNL     1     -34.397  17.176  -4.085  1.00 20.00    -0.010 C 
HETATM   10  C10 UNL     1     -35.006  14.916  -5.960  1.00 20.00    -0.043 C 
HETATM   11  C11 UNL     1     -34.622  18.493  -4.831  1.00 20.00     0.010 C 
HETATM   12  C12 UNL     1     -35.441  14.390  -7.330  1.00 20.00     0.015 C 
ENDROOT
TORSDOF 0
ENDMDL
