MODEL 1
REMARK VINA RESULT:      -4.3      0.000      0.000
REMARK  1 active torsions:
REMARK  status: ('A' for Active; 'I' for Inactive)
REMARK    1  A    between atoms: C5_5  and  N7_7 
ROOT
HETATM    1  C1  UNL     1     -32.898   6.356   2.957  1.00 20.00     0.160 C 
HETATM    2  N7  UNL     1     -33.499   5.369   3.150  1.00 20.00    -0.237 NA
HETATM    3  S9  UNL     1     -32.060   7.680   2.670  1.00 20.00    -0.055 SA
ENDROOT
BRANCH   2   4
HETATM    4  C5  UNL     1     -34.538   5.478   4.182  1.00 20.00     0.152 C 
HETATM    5  C3  UNL     1     -34.655   4.135   4.904  1.00 20.00     0.065 C 
HETATM    6  C2  UNL     1     -35.088   4.529   6.294  1.00 20.00     0.031 C 
HETATM    7  C4  UNL     1     -34.341   5.826   6.491  1.00 20.00     0.171 C 
HETATM    8  O8  UNL     1     -34.297   6.465   5.210  1.00 20.00    -0.359 OA
HETATM    9  C6  UNL     1     -35.843   5.870   3.487  1.00 20.00     0.073 C 
ENDBRANCH   2   4
TORSDOF 1
ENDMDL
MODEL 2
REMARK VINA RESULT:      -3.7     12.219     12.959
REMARK  1 active torsions:
REMARK  status: ('A' for Active; 'I' for Inactive)
REMARK    1  A    between atoms: C5_5  and  N7_7 
ROOT
HETATM    1  C1  UNL     1     -33.996  16.637  -2.456  1.00 20.00     0.160 C 
HETATM    2  N7  UNL     1     -33.562  16.580  -3.543  1.00 20.00    -0.237 NA
HETATM    3  S9  UNL     1     -34.560  16.740  -0.971  1.00 20.00    -0.055 SA
ENDROOT
BRANCH   2   4
HETATM    4  C5  UNL     1     -34.223  15.600  -4.415  1.00 20.00     0.152 C 
HETATM    5  C3  UNL     1     -33.775  14.197  -4.003  1.00 20.00     0.065 C 
HETATM    6  C2  UNL     1     -34.968  13.341  -4.348  1.00 20.00     0.031 C 
HETATM    7  C4  UNL     1     -36.114  14.271  -4.029  1.00 20.00     0.171 C 
HETATM    8  O8  UNL     1     -35.667  15.591  -4.363  1.00 20.00    -0.359 OA
HETATM    9  C6  UNL     1     -33.832  15.925  -5.858  1.00 20.00     0.073 C 
ENDBRANCH   2   4
TORSDOF 1
ENDMDL
MODEL 3
REMARK VINA RESULT:      -3.7     12.779     13.472
REMARK  1 active torsions:
REMARK  status: ('A' for Active; 'I' for Inactive)
REMARK    1  A    between atoms: C5_5  and  N7_7 
ROOT
HETATM    1  C1  UNL     1     -33.363  17.344  -5.165  1.00 20.00     0.160 C 
HETATM    2  N7  UNL     1     -32.973  16.281  -4.865  1.00 20.00    -0.237 NA
HETATM    3  S9  UNL     1     -33.865  18.793  -5.596  1.00 20.00    -0.055 SA
ENDROOT
BRANCH   2   4
HETATM    4  C5  UNL     1     -33.759  15.613  -3.820  1.00 20.00     0.152 C 
HETATM    5  C3  UNL     1     -33.564  16.366  -2.502  1.00 20.00     0.065 C 
HETATM    6  C2  UNL     1     -34.872  16.145  -1.784  1.00 20.00     0.031 C 
HETATM    7  C4  UNL     1     -35.856  16.162  -2.928  1.00 20.00     0.171 C 
HETATM    8  O8  UNL     1     -35.186  15.567  -4.046  1.00 20.00    -0.359 OA
HETATM    9  C6  UNL     1     -33.276  14.165  -3.729  1.00 20.00     0.073 C 
ENDBRANCH   2   4
TORSDOF 1
ENDMDL
MODEL 4
REMARK VINA RESULT:      -3.7     12.122     13.315
REMARK  1 active torsions:
REMARK  status: ('A' for Active; 'I' for Inactive)
REMARK    1  A    between atoms: C5_5  and  N7_7 
ROOT
HETATM    1  C1  UNL     1     -35.047  15.798  -2.414  1.00 20.00     0.160 C 
HETATM    2  N7  UNL     1     -35.480  15.102  -3.250  1.00 20.00    -0.237 NA
HETATM    3  S9  UNL     1     -34.489  16.742  -1.259  1.00 20.00    -0.055 SA
ENDROOT
BRANCH   2   4
HETATM    4  C5  UNL     1     -34.553  14.819  -4.353  1.00 20.00     0.152 C 
HETATM    5  C3  UNL     1     -35.360  14.356  -5.567  1.00 20.00     0.065 C 
HETATM    6  C2  UNL     1     -34.526  14.825  -6.733  1.00 20.00     0.031 C 
HETATM    7  C4  UNL     1     -33.972  16.128  -6.209  1.00 20.00     0.171 C 
HETATM    8  O8  UNL     1     -33.760  15.939  -4.805  1.00 20.00    -0.359 OA
HETATM    9  C6  UNL     1     -33.574  13.746  -3.873  1.00 20.00     0.073 C 
ENDBRANCH   2   4
TORSDOF 1
ENDMDL
MODEL 5
REMARK VINA RESULT:      -3.7     12.527     13.431
REMARK  1 active torsions:
REMARK  status: ('A' for Active; 'I' for Inactive)
REMARK    1  A    between atoms: C5_5  and  N7_7 
ROOT
HETATM    1  C1  UNL     1     -33.402  17.438  -5.088  1.00 20.00     0.160 C 
HETATM    2  N7  UNL     1     -32.981  16.359  -4.910  1.00 20.00    -0.237 NA
HETATM    3  S9  UNL     1     -33.945  18.912  -5.349  1.00 20.00    -0.055 SA
ENDROOT
BRANCH   2   4
HETATM    4  C5  UNL     1     -33.824  15.504  -4.065  1.00 20.00     0.152 C 
HETATM    5  C3  UNL     1     -35.236  15.473  -4.654  1.00 20.00     0.065 C 
HETATM    6  C2  UNL     1     -35.742  14.108  -4.259  1.00 20.00     0.031 C 
HETATM    7  C4  UNL     1     -34.486  13.275  -4.359  1.00 20.00     0.171 C 
HETATM    8  O8  UNL     1     -33.406  14.126  -3.956  1.00 20.00    -0.359 OA
HETATM    9  C6  UNL     1     -33.807  16.088  -2.651  1.00 20.00     0.073 C 
ENDBRANCH   2   4
TORSDOF 1
ENDMDL
MODEL 6
REMARK VINA RESULT:      -3.6     11.817     12.687
REMARK  1 active torsions:
REMARK  status: ('A' for Active; 'I' for Inactive)
REMARK    1  A    between atoms: C5_5  and  N7_7 
ROOT
HETATM    1  C1  UNL     1     -37.624  14.974  -3.809  1.00 20.00     0.160 C 
HETATM    2  N7  UNL     1     -36.984  13.993  -3.841  1.00 20.00    -0.237 NA
HETATM    3  S9  UNL     1     -38.522  16.288  -3.750  1.00 20.00    -0.055 SA
ENDROOT
BRANCH   2   4
HETATM    4  C5  UNL     1     -35.647  14.154  -4.425  1.00 20.00     0.152 C 
HETATM    5  C3  UNL     1     -34.883  15.206  -3.619  1.00 20.00     0.065 C 
HETATM    6  C2  UNL     1     -33.447  14.764  -3.752  1.00 20.00     0.031 C 
HETATM    7  C4  UNL     1     -33.588  13.261  -3.749  1.00 20.00     0.171 C 
HETATM    8  O8  UNL     1     -34.818  12.970  -4.424  1.00 20.00    -0.359 OA
HETATM    9  C6  UNL     1     -35.825  14.570  -5.886  1.00 20.00     0.073 C 
ENDBRANCH   2   4
TORSDOF 1
ENDMDL
MODEL 7
REMARK VINA RESULT:      -3.6     12.354     13.109
REMARK  1 active torsions:
REMARK  status: ('A' for Active; 'I' for Inactive)
REMARK    1  A    between atoms: C5_5  and  N7_7 
ROOT
HETATM    1  C1  UNL     1     -34.472  15.125  -6.177  1.00 20.00     0.160 C 
HETATM    2  N7  UNL     1     -33.854  15.513  -5.260  1.00 20.00    -0.237 NA
HETATM    3  S9  UNL     1     -35.287  14.613  -7.446  1.00 20.00    -0.055 SA
ENDROOT
BRANCH   2   4
HETATM    4  C5  UNL     1     -34.460  15.234  -3.952  1.00 20.00     0.152 C 
HETATM    5  C3  UNL     1     -33.619  15.910  -2.868  1.00 20.00     0.065 C 
HETATM    6  C2  UNL     1     -34.632  16.227  -1.796  1.00 20.00     0.031 C 
HETATM    7  C4  UNL     1     -35.851  16.568  -2.619  1.00 20.00     0.171 C 
HETATM    8  O8  UNL     1     -35.809  15.719  -3.772  1.00 20.00    -0.359 OA
HETATM    9  C6  UNL     1     -34.507  13.715  -3.777  1.00 20.00     0.073 C 
ENDBRANCH   2   4
TORSDOF 1
ENDMDL
MODEL 8
REMARK VINA RESULT:      -3.6     12.716     13.743
REMARK  1 active torsions:
REMARK  status: ('A' for Active; 'I' for Inactive)
REMARK    1  A    between atoms: C5_5  and  N7_7 
ROOT
HETATM    1  C1  UNL     1     -33.505  17.397  -5.282  1.00 20.00     0.160 C 
HETATM    2  N7  UNL     1     -33.277  16.334  -4.844  1.00 20.00    -0.237 NA
HETATM    3  S9  UNL     1     -33.785  18.854  -5.861  1.00 20.00    -0.055 SA
ENDROOT
BRANCH   2   4
HETATM    4  C5  UNL     1     -34.273  15.308  -5.178  1.00 20.00     0.152 C 
HETATM    5  C3  UNL     1     -33.912  14.016  -4.442  1.00 20.00     0.065 C 
HETATM    6  C2  UNL     1     -35.253  13.365  -4.214  1.00 20.00     0.031 C 
HETATM    7  C4  UNL     1     -36.137  14.564  -3.968  1.00 20.00     0.171 C 
HETATM    8  O8  UNL     1     -35.635  15.613  -4.804  1.00 20.00    -0.359 OA
HETATM    9  C6  UNL     1     -34.259  15.125  -6.697  1.00 20.00     0.073 C 
ENDBRANCH   2   4
TORSDOF 1
ENDMDL
MODEL 9
REMARK VINA RESULT:      -3.6      9.528     10.355
REMARK  1 active torsions:
REMARK  status: ('A' for Active; 'I' for Inactive)
REMARK    1  A    between atoms: C5_5  and  N7_7 
ROOT
HETATM    1  C1  UNL     1     -41.529   3.086  -2.677  1.00 20.00     0.160 C 
HETATM    2  N7  UNL     1     -40.947   3.817  -1.971  1.00 20.00    -0.237 NA
HETATM    3  S9  UNL     1     -42.289   2.070  -3.640  1.00 20.00    -0.055 SA
ENDROOT
BRANCH   2   4
HETATM    4  C5  UNL     1     -41.724   4.979  -1.519  1.00 20.00     0.152 C 
HETATM    5  C3  UNL     1     -40.805   5.903  -0.719  1.00 20.00     0.065 C 
HETATM    6  C2  UNL     1     -41.388   7.271  -0.972  1.00 20.00     0.031 C 
HETATM    7  C4  UNL     1     -41.851   7.145  -2.404  1.00 20.00     0.171 C 
HETATM    8  O8  UNL     1     -42.296   5.793  -2.567  1.00 20.00    -0.359 OA
HETATM    9  C6  UNL     1     -42.889   4.458  -0.675  1.00 20.00     0.073 C 
ENDBRANCH   2   4
TORSDOF 1
ENDMDL
