MODEL 1
REMARK VINA RESULT:      -3.5      0.000      0.000
REMARK  1 active torsions:
REMARK  status: ('A' for Active; 'I' for Inactive)
REMARK    1  A    between atoms: C3_3  and  C4_4 
ROOT
HETATM    1  C1  UNL     1     -34.860   5.397   3.552  1.00 20.00     0.175 C 
HETATM    2  C2  UNL     1     -33.007   6.264   3.808  1.00 20.00     0.175 C 
HETATM    3  C3  UNL     1     -34.304   6.345   4.621  1.00 20.00     0.047 C 
HETATM    4  O5  UNL     1     -33.683   5.576   2.727  1.00 20.00    -0.390 OA
ENDROOT
BRANCH   3   5
HETATM    5  C4  UNL     1     -34.252   5.815   6.038  1.00 20.00     0.123 C 
HETATM    6 CL6  UNL     1     -35.018   4.214   6.134  1.00 20.00    -0.130 Cl
ENDBRANCH   3   5
TORSDOF 1
ENDMDL
MODEL 2
REMARK VINA RESULT:      -3.5      2.299      2.697
REMARK  1 active torsions:
REMARK  status: ('A' for Active; 'I' for Inactive)
REMARK    1  A    between atoms: C3_3  and  C4_4 
ROOT
HETATM    1  C1  UNL     1     -34.434   4.027   6.017  1.00 20.00     0.175 C 
HETATM    2  C2  UNL     1     -35.360   4.920   4.407  1.00 20.00     0.175 C 
HETATM    3  C3  UNL     1     -34.828   5.481   5.730  1.00 20.00     0.047 C 
HETATM    4  O5  UNL     1     -35.177   3.559   4.865  1.00 20.00    -0.390 OA
ENDROOT
BRANCH   3   5
HETATM    5  C4  UNL     1     -33.699   6.485   5.639  1.00 20.00     0.123 C 
HETATM    6 CL6  UNL     1     -33.003   6.494   4.004  1.00 20.00    -0.130 Cl
ENDBRANCH   3   5
TORSDOF 1
ENDMDL
MODEL 3
REMARK VINA RESULT:      -3.5      2.566      3.137
REMARK  1 active torsions:
REMARK  status: ('A' for Active; 'I' for Inactive)
REMARK    1  A    between atoms: C3_3  and  C4_4 
ROOT
HETATM    1  C1  UNL     1     -34.053   6.217   5.643  1.00 20.00     0.175 C 
HETATM    2  C2  UNL     1     -35.157   4.770   4.676  1.00 20.00     0.175 C 
HETATM    3  C3  UNL     1     -34.477   6.050   4.179  1.00 20.00     0.047 C 
HETATM    4  O5  UNL     1     -34.923   5.136   6.058  1.00 20.00    -0.390 OA
ENDROOT
BRANCH   3   5
HETATM    5  C4  UNL     1     -33.365   5.880   3.166  1.00 20.00     0.123 C 
HETATM    6 CL6  UNL     1     -32.030   7.001   3.511  1.00 20.00    -0.130 Cl
ENDBRANCH   3   5
TORSDOF 1
ENDMDL
MODEL 4
REMARK VINA RESULT:      -3.5      2.689      3.062
REMARK  1 active torsions:
REMARK  status: ('A' for Active; 'I' for Inactive)
REMARK    1  A    between atoms: C3_3  and  C4_4 
ROOT
HETATM    1  C1  UNL     1     -35.128   4.480   4.880  1.00 20.00     0.175 C 
HETATM    2  C2  UNL     1     -34.405   5.787   6.301  1.00 20.00     0.175 C 
HETATM    3  C3  UNL     1     -33.910   5.410   4.900  1.00 20.00     0.047 C 
HETATM    4  O5  UNL     1     -35.376   4.713   6.288  1.00 20.00    -0.390 OA
ENDROOT
BRANCH   3   5
HETATM    5  C4  UNL     1     -33.882   6.517   3.868  1.00 20.00     0.123 C 
HETATM    6 CL6  UNL     1     -32.287   6.603   3.088  1.00 20.00    -0.130 Cl
ENDBRANCH   3   5
TORSDOF 1
ENDMDL
MODEL 5
REMARK VINA RESULT:      -3.4      1.640      2.046
REMARK  1 active torsions:
REMARK  status: ('A' for Active; 'I' for Inactive)
REMARK    1  A    between atoms: C3_3  and  C4_4 
ROOT
HETATM    1  C1  UNL     1     -33.659   5.953   4.079  1.00 20.00     0.175 C 
HETATM    2  C2  UNL     1     -35.408   4.877   4.262  1.00 20.00     0.175 C 
HETATM    3  C3  UNL     1     -34.228   5.095   5.216  1.00 20.00     0.047 C 
HETATM    4  O5  UNL     1     -34.687   5.495   3.168  1.00 20.00    -0.390 OA
ENDROOT
BRANCH   3   5
HETATM    5  C4  UNL     1     -34.528   5.806   6.518  1.00 20.00     0.123 C 
HETATM    6 CL6  UNL     1     -33.455   7.207   6.725  1.00 20.00    -0.130 Cl
ENDBRANCH   3   5
TORSDOF 1
ENDMDL
MODEL 6
REMARK VINA RESULT:      -3.4      1.145      1.497
REMARK  1 active torsions:
REMARK  status: ('A' for Active; 'I' for Inactive)
REMARK    1  A    between atoms: C3_3  and  C4_4 
ROOT
HETATM    1  C1  UNL     1     -33.456   5.806   3.009  1.00 20.00     0.175 C 
HETATM    2  C2  UNL     1     -33.593   6.519   4.938  1.00 20.00     0.175 C 
HETATM    3  C3  UNL     1     -34.631   5.912   3.987  1.00 20.00     0.047 C 
HETATM    4  O5  UNL     1     -32.614   6.605   3.875  1.00 20.00    -0.390 OA
ENDROOT
BRANCH   3   5
HETATM    5  C4  UNL     1     -35.273   4.611   4.421  1.00 20.00     0.123 C 
HETATM    6 CL6  UNL     1     -34.993   4.325   6.153  1.00 20.00    -0.130 Cl
ENDBRANCH   3   5
TORSDOF 1
ENDMDL
MODEL 7
REMARK VINA RESULT:      -3.1     11.878     12.214
REMARK  1 active torsions:
REMARK  status: ('A' for Active; 'I' for Inactive)
REMARK    1  A    between atoms: C3_3  and  C4_4 
ROOT
HETATM    1  C1  UNL     1     -33.585  13.487  -3.964  1.00 20.00     0.175 C 
HETATM    2  C2  UNL     1     -35.608  13.760  -4.255  1.00 20.00     0.175 C 
HETATM    3  C3  UNL     1     -34.612  14.397  -3.279  1.00 20.00     0.047 C 
HETATM    4  O5  UNL     1     -34.631  12.774  -4.668  1.00 20.00    -0.390 OA
ENDROOT
BRANCH   3   5
HETATM    5  C4  UNL     1     -34.392  15.889  -3.410  1.00 20.00     0.123 C 
HETATM    6 CL6  UNL     1     -33.917  16.588  -1.846  1.00 20.00    -0.130 Cl
ENDBRANCH   3   5
TORSDOF 1
ENDMDL
MODEL 8
REMARK VINA RESULT:      -3.0     12.245     12.640
REMARK  1 active torsions:
REMARK  status: ('A' for Active; 'I' for Inactive)
REMARK    1  A    between atoms: C3_3  and  C4_4 
ROOT
HETATM    1  C1  UNL     1     -33.599  13.594  -3.942  1.00 20.00     0.175 C 
HETATM    2  C2  UNL     1     -35.633  13.802  -4.204  1.00 20.00     0.175 C 
HETATM    3  C3  UNL     1     -34.616  14.590  -3.372  1.00 20.00     0.047 C 
HETATM    4  O5  UNL     1     -34.657  12.772  -4.492  1.00 20.00    -0.390 OA
ENDROOT
BRANCH   3   5
HETATM    5  C4  UNL     1     -34.419  16.046  -3.738  1.00 20.00     0.123 C 
HETATM    6 CL6  UNL     1     -33.036  16.230  -4.839  1.00 20.00    -0.130 Cl
ENDBRANCH   3   5
TORSDOF 1
ENDMDL
MODEL 9
REMARK VINA RESULT:      -3.0     11.759     12.182
REMARK  1 active torsions:
REMARK  status: ('A' for Active; 'I' for Inactive)
REMARK    1  A    between atoms: C3_3  and  C4_4 
ROOT
HETATM    1  C1  UNL     1     -35.542  14.244  -3.975  1.00 20.00     0.175 C 
HETATM    2  C2  UNL     1     -33.646  13.439  -4.067  1.00 20.00     0.175 C 
HETATM    3  C3  UNL     1     -34.166  14.872  -4.229  1.00 20.00     0.047 C 
HETATM    4  O5  UNL     1     -34.994  12.908  -4.082  1.00 20.00    -0.390 OA
ENDROOT
BRANCH   3   5
HETATM    5  C4  UNL     1     -33.685  15.888  -3.215  1.00 20.00     0.123 C 
HETATM    6 CL6  UNL     1     -34.782  15.940  -1.817  1.00 20.00    -0.130 Cl
ENDBRANCH   3   5
TORSDOF 1
ENDMDL
