MODEL 1
REMARK VINA RESULT:      -4.4      0.000      0.000
REMARK  2 active torsions:
REMARK  status: ('A' for Active; 'I' for Inactive)
REMARK    1  A    between atoms: C1_1  and  C5_5 
REMARK    2  A    between atoms: C5_5  and  C7_7 
ROOT
HETATM    1  C2  UNL     1     -33.859  16.635  -2.815  1.00 20.00     0.002 C 
HETATM    2  C3  UNL     1     -34.858  15.474  -2.684  1.00 20.00     0.020 C 
HETATM    3  C4  UNL     1     -33.036  15.754  -3.771  1.00 20.00     0.020 C 
HETATM    4  C5  UNL     1     -34.318  14.902  -4.033  1.00 20.00     0.048 C 
ENDROOT
BRANCH   4   5
HETATM    5  C1  UNL     1     -34.097  13.364  -4.060  1.00 20.00     0.181 C 
HETATM    6  O8  UNL     1     -32.923  12.984  -3.796  1.00 20.00    -0.647 OA
HETATM    7  O9  UNL     1     -35.124  12.687  -4.344  1.00 20.00    -0.647 OA
ENDBRANCH   4   5
BRANCH   4   8
HETATM    8  C7  UNL     1     -35.117  15.363  -5.254  1.00 20.00     0.016 C 
HETATM    9  C6  UNL     1     -34.466  14.945  -6.532  1.00 20.00     0.006 C 
ENDBRANCH   4   8
TORSDOF 2
ENDMDL
MODEL 2
REMARK VINA RESULT:      -4.4      0.044      1.079
REMARK  2 active torsions:
REMARK  status: ('A' for Active; 'I' for Inactive)
REMARK    1  A    between atoms: C1_1  and  C5_5 
REMARK    2  A    between atoms: C5_5  and  C7_7 
ROOT
HETATM    1  C2  UNL     1     -33.811  16.651  -2.808  1.00 20.00     0.002 C 
HETATM    2  C3  UNL     1     -34.821  15.500  -2.661  1.00 20.00     0.020 C 
HETATM    3  C4  UNL     1     -33.009  15.758  -3.770  1.00 20.00     0.020 C 
HETATM    4  C5  UNL     1     -34.303  14.919  -4.014  1.00 20.00     0.048 C 
ENDROOT
BRANCH   4   5
HETATM    5  C1  UNL     1     -34.099  13.379  -4.040  1.00 20.00     0.181 C 
HETATM    6  O8  UNL     1     -35.127  12.704  -4.317  1.00 20.00    -0.647 OA
HETATM    7  O9  UNL     1     -32.923  12.997  -3.781  1.00 20.00    -0.647 OA
ENDBRANCH   4   5
BRANCH   4   8
HETATM    8  C7  UNL     1     -35.112  15.385  -5.227  1.00 20.00     0.016 C 
HETATM    9  C6  UNL     1     -34.439  15.026  -6.513  1.00 20.00     0.006 C 
ENDBRANCH   4   8
TORSDOF 2
ENDMDL
MODEL 3
REMARK VINA RESULT:      -4.2      0.873      1.608
REMARK  2 active torsions:
REMARK  status: ('A' for Active; 'I' for Inactive)
REMARK    1  A    between atoms: C1_1  and  C5_5 
REMARK    2  A    between atoms: C5_5  and  C7_7 
ROOT
HETATM    1  C2  UNL     1     -35.972  16.289  -2.843  1.00 20.00     0.002 C 
HETATM    2  C3  UNL     1     -36.276  15.140  -3.820  1.00 20.00     0.020 C 
HETATM    3  C4  UNL     1     -34.569  15.689  -2.650  1.00 20.00     0.020 C 
HETATM    4  C5  UNL     1     -34.738  14.946  -4.012  1.00 20.00     0.048 C 
ENDROOT
BRANCH   4   5
HETATM    5  C1  UNL     1     -34.253  13.469  -4.026  1.00 20.00     0.181 C 
HETATM    6  O8  UNL     1     -35.133  12.616  -4.326  1.00 20.00    -0.647 OA
HETATM    7  O9  UNL     1     -33.035  13.310  -3.735  1.00 20.00    -0.647 OA
ENDBRANCH   4   5
BRANCH   4   8
HETATM    8  C7  UNL     1     -34.170  15.720  -5.204  1.00 20.00     0.016 C 
HETATM    9  C6  UNL     1     -34.415  15.009  -6.495  1.00 20.00     0.006 C 
ENDBRANCH   4   8
TORSDOF 2
ENDMDL
MODEL 4
REMARK VINA RESULT:      -4.2      0.862      2.266
REMARK  2 active torsions:
REMARK  status: ('A' for Active; 'I' for Inactive)
REMARK    1  A    between atoms: C1_1  and  C5_5 
REMARK    2  A    between atoms: C5_5  and  C7_7 
ROOT
HETATM    1  C2  UNL     1     -33.577  16.566  -5.680  1.00 20.00     0.002 C 
HETATM    2  C3  UNL     1     -33.007  15.863  -4.436  1.00 20.00     0.020 C 
HETATM    3  C4  UNL     1     -34.513  15.360  -5.873  1.00 20.00     0.020 C 
HETATM    4  C5  UNL     1     -34.312  15.009  -4.364  1.00 20.00     0.048 C 
ENDROOT
BRANCH   4   5
HETATM    5  C1  UNL     1     -34.101  13.500  -4.058  1.00 20.00     0.181 C 
HETATM    6  O8  UNL     1     -32.960  13.195  -3.616  1.00 20.00    -0.647 OA
HETATM    7  O9  UNL     1     -35.104  12.768  -4.290  1.00 20.00    -0.647 OA
ENDBRANCH   4   5
BRANCH   4   8
HETATM    8  C7  UNL     1     -35.384  15.609  -3.451  1.00 20.00     0.016 C 
HETATM    9  C6  UNL     1     -34.875  15.819  -2.062  1.00 20.00     0.006 C 
ENDBRANCH   4   8
TORSDOF 2
ENDMDL
MODEL 5
REMARK VINA RESULT:      -4.2      0.860      2.521
REMARK  2 active torsions:
REMARK  status: ('A' for Active; 'I' for Inactive)
REMARK    1  A    between atoms: C1_1  and  C5_5 
REMARK    2  A    between atoms: C5_5  and  C7_7 
ROOT
HETATM    1  C2  UNL     1     -33.657  16.587  -5.709  1.00 20.00     0.002 C 
HETATM    2  C3  UNL     1     -33.049  15.899  -4.475  1.00 20.00     0.020 C 
HETATM    3  C4  UNL     1     -34.583  15.369  -5.872  1.00 20.00     0.020 C 
HETATM    4  C5  UNL     1     -34.343  15.030  -4.367  1.00 20.00     0.048 C 
ENDROOT
BRANCH   4   5
HETATM    5  C1  UNL     1     -34.108  13.526  -4.056  1.00 20.00     0.181 C 
HETATM    6  O8  UNL     1     -35.093  12.770  -4.277  1.00 20.00    -0.647 OA
HETATM    7  O9  UNL     1     -32.955  13.250  -3.621  1.00 20.00    -0.647 OA
ENDBRANCH   4   5
BRANCH   4   8
HETATM    8  C7  UNL     1     -35.399  15.624  -3.432  1.00 20.00     0.016 C 
HETATM    9  C6  UNL     1     -34.865  15.831  -2.052  1.00 20.00     0.006 C 
ENDBRANCH   4   8
TORSDOF 2
ENDMDL
MODEL 6
REMARK VINA RESULT:      -4.1      0.722      2.831
REMARK  2 active torsions:
REMARK  status: ('A' for Active; 'I' for Inactive)
REMARK    1  A    between atoms: C1_1  and  C5_5 
REMARK    2  A    between atoms: C5_5  and  C7_7 
ROOT
HETATM    1  C2  UNL     1     -35.546  15.988  -6.233  1.00 20.00     0.002 C 
HETATM    2  C3  UNL     1     -34.234  15.193  -6.122  1.00 20.00     0.020 C 
HETATM    3  C4  UNL     1     -36.071  15.195  -5.024  1.00 20.00     0.020 C 
HETATM    4  C5  UNL     1     -34.593  14.875  -4.636  1.00 20.00     0.048 C 
ENDROOT
BRANCH   4   5
HETATM    5  C1  UNL     1     -34.328  13.411  -4.188  1.00 20.00     0.181 C 
HETATM    6  O8  UNL     1     -35.312  12.629  -4.292  1.00 20.00    -0.647 OA
HETATM    7  O9  UNL     1     -33.155  13.189  -3.775  1.00 20.00    -0.647 OA
ENDBRANCH   4   5
BRANCH   4   8
HETATM    8  C7  UNL     1     -33.996  15.871  -3.638  1.00 20.00     0.016 C 
HETATM    9  C6  UNL     1     -34.666  15.788  -2.304  1.00 20.00     0.006 C 
ENDBRANCH   4   8
TORSDOF 2
ENDMDL
MODEL 7
REMARK VINA RESULT:      -4.1      1.293      2.466
REMARK  2 active torsions:
REMARK  status: ('A' for Active; 'I' for Inactive)
REMARK    1  A    between atoms: C1_1  and  C5_5 
REMARK    2  A    between atoms: C5_5  and  C7_7 
ROOT
HETATM    1  C2  UNL     1     -34.132  16.223  -6.777  1.00 20.00     0.002 C 
HETATM    2  C3  UNL     1     -33.759  16.026  -5.298  1.00 20.00     0.020 C 
HETATM    3  C4  UNL     1     -34.601  14.759  -6.804  1.00 20.00     0.020 C 
HETATM    4  C5  UNL     1     -34.740  14.812  -5.249  1.00 20.00     0.048 C 
ENDROOT
BRANCH   4   5
HETATM    5  C1  UNL     1     -34.211  13.562  -4.493  1.00 20.00     0.181 C 
HETATM    6  O8  UNL     1     -33.165  13.747  -3.813  1.00 20.00    -0.647 OA
HETATM    7  O9  UNL     1     -34.899  12.515  -4.656  1.00 20.00    -0.647 OA
ENDBRANCH   4   5
BRANCH   4   8
HETATM    8  C7  UNL     1     -36.147  15.184  -4.776  1.00 20.00     0.016 C 
HETATM    9  C6  UNL     1     -36.227  15.266  -3.286  1.00 20.00     0.006 C 
ENDBRANCH   4   8
TORSDOF 2
ENDMDL
MODEL 8
REMARK VINA RESULT:      -3.9      2.211      3.550
REMARK  2 active torsions:
REMARK  status: ('A' for Active; 'I' for Inactive)
REMARK    1  A    between atoms: C1_1  and  C5_5 
REMARK    2  A    between atoms: C5_5  and  C7_7 
ROOT
HETATM    1  C2  UNL     1     -35.002  13.266  -4.177  1.00 20.00     0.002 C 
HETATM    2  C3  UNL     1     -35.605  14.572  -4.722  1.00 20.00     0.020 C 
HETATM    3  C4  UNL     1     -33.735  14.060  -3.814  1.00 20.00     0.020 C 
HETATM    4  C5  UNL     1     -34.590  15.367  -3.841  1.00 20.00     0.048 C 
ENDROOT
BRANCH   4   5
HETATM    5  C1  UNL     1     -33.918  16.583  -4.537  1.00 20.00     0.181 C 
HETATM    6  O8  UNL     1     -34.653  17.599  -4.674  1.00 20.00    -0.647 OA
HETATM    7  O9  UNL     1     -32.716  16.399  -4.879  1.00 20.00    -0.647 OA
ENDBRANCH   4   5
BRANCH   4   8
HETATM    8  C7  UNL     1     -35.148  15.759  -2.471  1.00 20.00     0.016 C 
HETATM    9  C6  UNL     1     -34.157  16.543  -1.673  1.00 20.00     0.006 C 
ENDBRANCH   4   8
TORSDOF 2
ENDMDL
MODEL 9
REMARK VINA RESULT:      -3.9      0.983      1.712
REMARK  2 active torsions:
REMARK  status: ('A' for Active; 'I' for Inactive)
REMARK    1  A    between atoms: C1_1  and  C5_5 
REMARK    2  A    between atoms: C5_5  and  C7_7 
ROOT
HETATM    1  C2  UNL     1     -33.800  16.827  -3.351  1.00 20.00     0.002 C 
HETATM    2  C3  UNL     1     -34.371  15.567  -2.679  1.00 20.00     0.020 C 
HETATM    3  C4  UNL     1     -33.429  15.953  -4.562  1.00 20.00     0.020 C 
HETATM    4  C5  UNL     1     -34.493  14.912  -4.092  1.00 20.00     0.048 C 
ENDROOT
BRANCH   4   5
HETATM    5  C1  UNL     1     -34.047  13.426  -4.175  1.00 20.00     0.181 C 
HETATM    6  O8  UNL     1     -34.808  12.671  -4.840  1.00 20.00    -0.647 OA
HETATM    7  O9  UNL     1     -32.973  13.161  -3.564  1.00 20.00    -0.647 OA
ENDBRANCH   4   5
BRANCH   4   8
HETATM    8  C7  UNL     1     -35.866  15.108  -4.739  1.00 20.00     0.016 C 
HETATM    9  C6  UNL     1     -36.976  14.792  -3.790  1.00 20.00     0.006 C 
ENDBRANCH   4   8
TORSDOF 2
ENDMDL
