MODEL 1
REMARK VINA RESULT:      -5.1      0.000      0.000
REMARK  2 active torsions:
REMARK  status: ('A' for Active; 'I' for Inactive)
REMARK    1  A    between atoms: C1_1  and  C3_3 
REMARK    2  A    between atoms: C4_4  and  O10_10 
ROOT
HETATM    1  C3  UNL     1     -33.374   5.841   4.349  1.00 20.00     0.048 A 
HETATM    2  C4  UNL     1     -34.249   6.490   5.392  1.00 20.00     0.135 A 
HETATM    3  C5  UNL     1     -34.767   5.295   4.615  1.00 20.00    -0.012 A 
HETATM    4  C8  UNL     1     -34.860   3.954   5.300  1.00 20.00     0.018 C 
HETATM    5  C9  UNL     1     -35.887   5.546   3.635  1.00 20.00     0.018 C 
ENDROOT
BRANCH   1   6
HETATM    6  C1  UNL     1     -33.076   6.570   3.125  1.00 20.00    -0.017 C 
HETATM    7  C2  UNL     1     -32.100   7.475   2.921  1.00 20.00    -0.091 C 
HETATM    8  C6  UNL     1     -31.926   8.144   1.584  1.00 20.00     0.042 C 
HETATM    9  C7  UNL     1     -31.116   7.895   3.975  1.00 20.00     0.042 C 
ENDBRANCH   1   6
BRANCH   2  10
HETATM   10  O10 UNL     1     -33.863   6.269   6.759  1.00 20.00    -0.394 OA
HETATM   11  H26 UNL     1     -34.326   6.942   7.276  1.00 20.00     0.210 HD
ENDBRANCH   2  10
TORSDOF 2
ENDMDL
MODEL 2
REMARK VINA RESULT:      -4.8     11.619     12.422
REMARK  2 active torsions:
REMARK  status: ('A' for Active; 'I' for Inactive)
REMARK    1  A    between atoms: C1_1  and  C3_3 
REMARK    2  A    between atoms: C4_4  and  O10_10 
ROOT
HETATM    1  C3  UNL     1     -33.767  16.200  -3.038  1.00 20.00     0.048 A 
HETATM    2  C4  UNL     1     -33.041  14.915  -3.349  1.00 20.00     0.135 A 
HETATM    3  C5  UNL     1     -34.302  15.268  -4.113  1.00 20.00    -0.012 A 
HETATM    4  C8  UNL     1     -34.191  15.736  -5.544  1.00 20.00     0.018 C 
HETATM    5  C9  UNL     1     -35.523  14.421  -3.854  1.00 20.00     0.018 C 
ENDROOT
BRANCH   1   6
HETATM    6  C1  UNL     1     -34.448  16.333  -1.758  1.00 20.00    -0.017 C 
HETATM    7  C2  UNL     1     -34.229  17.256  -0.800  1.00 20.00    -0.091 C 
HETATM    8  C6  UNL     1     -35.025  17.255   0.476  1.00 20.00     0.042 C 
HETATM    9  C7  UNL     1     -33.199  18.344  -0.908  1.00 20.00     0.042 C 
ENDBRANCH   1   6
BRANCH   2  10
HETATM   10  O10 UNL     1     -31.789  15.055  -4.043  1.00 20.00    -0.394 OA
HETATM   11  H26 UNL     1     -31.337  14.207  -3.945  1.00 20.00     0.210 HD
ENDBRANCH   2  10
TORSDOF 2
ENDMDL
MODEL 3
REMARK VINA RESULT:      -4.8     11.183     12.236
REMARK  2 active torsions:
REMARK  status: ('A' for Active; 'I' for Inactive)
REMARK    1  A    between atoms: C1_1  and  C3_3 
REMARK    2  A    between atoms: C4_4  and  O10_10 
ROOT
HETATM    1  C3  UNL     1     -34.549  15.798  -2.092  1.00 20.00     0.048 A 
HETATM    2  C4  UNL     1     -35.611  16.057  -3.131  1.00 20.00     0.135 A 
HETATM    3  C5  UNL     1     -34.375  15.261  -3.503  1.00 20.00    -0.012 A 
HETATM    4  C8  UNL     1     -34.487  13.768  -3.688  1.00 20.00     0.018 C 
HETATM    5  C9  UNL     1     -33.400  15.911  -4.454  1.00 20.00     0.018 C 
ENDROOT
BRANCH   1   6
HETATM    6  C1  UNL     1     -33.746  16.913  -1.610  1.00 20.00    -0.017 C 
HETATM    7  C2  UNL     1     -33.921  17.629  -0.483  1.00 20.00    -0.091 C 
HETATM    8  C6  UNL     1     -32.995  18.759  -0.128  1.00 20.00     0.042 C 
HETATM    9  C7  UNL     1     -35.026  17.378   0.503  1.00 20.00     0.042 C 
ENDBRANCH   1   6
BRANCH   2  10
HETATM   10  O10 UNL     1     -36.839  15.327  -2.966  1.00 20.00    -0.394 OA
HETATM   11  H26 UNL     1     -37.155  15.139  -3.860  1.00 20.00     0.210 HD
ENDBRANCH   2  10
TORSDOF 2
ENDMDL
MODEL 4
REMARK VINA RESULT:      -4.7     10.964     12.098
REMARK  2 active torsions:
REMARK  status: ('A' for Active; 'I' for Inactive)
REMARK    1  A    between atoms: C1_1  and  C3_3 
REMARK    2  A    between atoms: C4_4  and  O10_10 
ROOT
HETATM    1  C3  UNL     1     -34.183  15.179  -3.266  1.00 20.00     0.048 A 
HETATM    2  C4  UNL     1     -34.276  13.700  -3.542  1.00 20.00     0.135 A 
HETATM    3  C5  UNL     1     -35.177  14.661  -4.291  1.00 20.00    -0.012 A 
HETATM    4  C8  UNL     1     -34.890  14.965  -5.741  1.00 20.00     0.018 C 
HETATM    5  C9  UNL     1     -36.652  14.613  -3.971  1.00 20.00     0.018 C 
ENDROOT
BRANCH   1   6
HETATM    6  C1  UNL     1     -34.632  15.686  -1.977  1.00 20.00    -0.017 C 
HETATM    7  C2  UNL     1     -34.411  16.906  -1.448  1.00 20.00    -0.091 C 
HETATM    8  C6  UNL     1     -34.948  17.274  -0.093  1.00 20.00     0.042 C 
HETATM    9  C7  UNL     1     -33.631  17.987  -2.139  1.00 20.00     0.042 C 
ENDBRANCH   1   6
BRANCH   2  10
HETATM   10  O10 UNL     1     -33.175  13.128  -4.269  1.00 20.00    -0.394 OA
HETATM   11  H26 UNL     1     -32.437  13.096  -3.647  1.00 20.00     0.210 HD
ENDBRANCH   2  10
TORSDOF 2
ENDMDL
MODEL 5
REMARK VINA RESULT:      -4.5     10.960     12.168
REMARK  2 active torsions:
REMARK  status: ('A' for Active; 'I' for Inactive)
REMARK    1  A    between atoms: C1_1  and  C3_3 
REMARK    2  A    between atoms: C4_4  and  O10_10 
ROOT
HETATM    1  C3  UNL     1     -34.952  14.856  -2.952  1.00 20.00     0.048 A 
HETATM    2  C4  UNL     1     -35.089  14.124  -4.264  1.00 20.00     0.135 A 
HETATM    3  C5  UNL     1     -33.756  14.737  -3.883  1.00 20.00    -0.012 A 
HETATM    4  C8  UNL     1     -32.629  13.835  -3.441  1.00 20.00     0.018 C 
HETATM    5  C9  UNL     1     -33.291  15.927  -4.687  1.00 20.00     0.018 C 
ENDROOT
BRANCH   1   6
HETATM    6  C1  UNL     1     -35.641  16.126  -2.777  1.00 20.00    -0.017 C 
HETATM    7  C2  UNL     1     -35.479  17.022  -1.784  1.00 20.00    -0.091 C 
HETATM    8  C6  UNL     1     -36.276  18.297  -1.749  1.00 20.00     0.042 C 
HETATM    9  C7  UNL     1     -34.515  16.842  -0.646  1.00 20.00     0.042 C 
ENDBRANCH   1   6
BRANCH   2  10
HETATM   10  O10 UNL     1     -35.206  12.694  -4.174  1.00 20.00    -0.394 OA
HETATM   11  H26 UNL     1     -35.906  12.448  -4.793  1.00 20.00     0.210 HD
ENDBRANCH   2  10
TORSDOF 2
ENDMDL
MODEL 6
REMARK VINA RESULT:      -4.1     11.472     12.737
REMARK  2 active torsions:
REMARK  status: ('A' for Active; 'I' for Inactive)
REMARK    1  A    between atoms: C1_1  and  C3_3 
REMARK    2  A    between atoms: C4_4  and  O10_10 
ROOT
HETATM    1  C3  UNL     1     -35.038  14.439  -3.850  1.00 20.00     0.048 A 
HETATM    2  C4  UNL     1     -34.066  13.538  -4.570  1.00 20.00     0.135 A 
HETATM    3  C5  UNL     1     -34.165  15.000  -4.960  1.00 20.00    -0.012 A 
HETATM    4  C8  UNL     1     -33.064  15.949  -4.554  1.00 20.00     0.018 C 
HETATM    5  C9  UNL     1     -34.755  15.311  -6.314  1.00 20.00     0.018 C 
ENDROOT
BRANCH   1   6
HETATM    6  C1  UNL     1     -36.466  14.238  -4.050  1.00 20.00    -0.017 C 
HETATM    7  C2  UNL     1     -37.462  15.116  -3.823  1.00 20.00    -0.091 C 
HETATM    8  C6  UNL     1     -38.897  14.749  -4.083  1.00 20.00     0.042 C 
HETATM    9  C7  UNL     1     -37.246  16.508  -3.303  1.00 20.00     0.042 C 
ENDBRANCH   1   6
BRANCH   2  10
HETATM   10  O10 UNL     1     -32.910  13.136  -3.815  1.00 20.00    -0.394 OA
HETATM   11  H26 UNL     1     -32.535  13.949  -3.454  1.00 20.00     0.210 HD
ENDBRANCH   2  10
TORSDOF 2
ENDMDL
MODEL 7
REMARK VINA RESULT:      -4.1      9.092     10.938
REMARK  2 active torsions:
REMARK  status: ('A' for Active; 'I' for Inactive)
REMARK    1  A    between atoms: C1_1  and  C3_3 
REMARK    2  A    between atoms: C4_4  and  O10_10 
ROOT
HETATM    1  C3  UNL     1     -41.660   4.506  -1.180  1.00 20.00     0.048 A 
HETATM    2  C4  UNL     1     -40.866   5.744  -0.848  1.00 20.00     0.135 A 
HETATM    3  C5  UNL     1     -42.265   5.880  -1.414  1.00 20.00    -0.012 A 
HETATM    4  C8  UNL     1     -43.392   6.298  -0.502  1.00 20.00     0.018 C 
HETATM    5  C9  UNL     1     -42.390   6.433  -2.813  1.00 20.00     0.018 C 
ENDROOT
BRANCH   1   6
HETATM    6  C1  UNL     1     -41.237   3.674  -2.298  1.00 20.00    -0.017 C 
HETATM    7  C2  UNL     1     -41.909   2.655  -2.868  1.00 20.00    -0.091 C 
HETATM    8  C6  UNL     1     -41.326   1.891  -4.025  1.00 20.00     0.042 C 
HETATM    9  C7  UNL     1     -43.266   2.194  -2.419  1.00 20.00     0.042 C 
ENDBRANCH   1   6
BRANCH   2  10
HETATM   10  O10 UNL     1     -40.692   6.019   0.553  1.00 20.00    -0.394 OA
HETATM   11  H26 UNL     1     -41.306   6.736   0.758  1.00 20.00     0.210 HD
ENDBRANCH   2  10
TORSDOF 2
ENDMDL
MODEL 8
REMARK VINA RESULT:      -4.1     11.286     13.063
REMARK  2 active torsions:
REMARK  status: ('A' for Active; 'I' for Inactive)
REMARK    1  A    between atoms: C1_1  and  C3_3 
REMARK    2  A    between atoms: C4_4  and  O10_10 
ROOT
HETATM    1  C3  UNL     1     -33.732  15.260  -4.781  1.00 20.00     0.048 A 
HETATM    2  C4  UNL     1     -33.247  14.500  -3.571  1.00 20.00     0.135 A 
HETATM    3  C5  UNL     1     -34.733  14.727  -3.768  1.00 20.00    -0.012 A 
HETATM    4  C8  UNL     1     -35.604  13.575  -4.204  1.00 20.00     0.018 C 
HETATM    5  C9  UNL     1     -35.418  15.664  -2.804  1.00 20.00     0.018 C 
ENDROOT
BRANCH   1   6
HETATM    6  C1  UNL     1     -33.452  16.685  -4.878  1.00 20.00    -0.017 C 
HETATM    7  C2  UNL     1     -33.876  17.546  -5.824  1.00 20.00    -0.091 C 
HETATM    8  C6  UNL     1     -33.493  19.000  -5.779  1.00 20.00     0.042 C 
HETATM    9  C7  UNL     1     -34.745  17.152  -6.983  1.00 20.00     0.042 C 
ENDBRANCH   1   6
BRANCH   2  10
HETATM   10  O10 UNL     1     -32.744  13.177  -3.824  1.00 20.00    -0.394 OA
HETATM   11  H26 UNL     1     -33.458  12.705  -4.273  1.00 20.00     0.210 HD
ENDBRANCH   2  10
TORSDOF 2
ENDMDL
MODEL 9
REMARK VINA RESULT:      -4.0     11.416     12.487
REMARK  2 active torsions:
REMARK  status: ('A' for Active; 'I' for Inactive)
REMARK    1  A    between atoms: C1_1  and  C3_3 
REMARK    2  A    between atoms: C4_4  and  O10_10 
ROOT
HETATM    1  C3  UNL     1     -35.056  16.093  -2.087  1.00 20.00     0.048 A 
HETATM    2  C4  UNL     1     -34.153  16.843  -1.140  1.00 20.00     0.135 A 
HETATM    3  C5  UNL     1     -34.783  17.571  -2.310  1.00 20.00    -0.012 A 
HETATM    4  C8  UNL     1     -35.924  18.525  -2.058  1.00 20.00     0.018 C 
HETATM    5  C9  UNL     1     -33.861  18.020  -3.418  1.00 20.00     0.018 C 
ENDROOT
BRANCH   1   6
HETATM    6  C1  UNL     1     -34.477  15.084  -2.964  1.00 20.00    -0.017 C 
HETATM    7  C2  UNL     1     -35.115  14.311  -3.864  1.00 20.00    -0.091 C 
HETATM    8  C6  UNL     1     -34.364  13.308  -4.697  1.00 20.00     0.042 C 
HETATM    9  C7  UNL     1     -36.594  14.370  -4.117  1.00 20.00     0.042 C 
ENDBRANCH   1   6
BRANCH   2  10
HETATM   10  O10 UNL     1     -34.694  17.103   0.166  1.00 20.00    -0.394 OA
HETATM   11  H26 UNL     1     -35.210  16.320   0.399  1.00 20.00     0.210 HD
ENDBRANCH   2  10
TORSDOF 2
ENDMDL
