MODEL 1
REMARK VINA RESULT:      -4.7      0.000      0.000
REMARK  0 active torsions:
REMARK  status: ('A' for Active; 'I' for Inactive)
ROOT
HETATM    1  C1  UNL     1     -34.249   5.670   5.169  1.00 20.00    -0.054 C 
HETATM    2  C2  UNL     1     -33.845   5.842   3.895  1.00 20.00     0.091 C 
HETATM    3  C3  UNL     1     -35.192   4.559   5.549  1.00 20.00     0.046 C 
HETATM    4  C4  UNL     1     -33.834   6.546   6.320  1.00 20.00     0.046 C 
HETATM    5  C5  UNL     1     -32.887   6.878   3.404  1.00 20.00     0.082 C 
HETATM    6  F6  UNL     1     -34.322   4.984   2.959  1.00 20.00    -0.211 F 
ENDROOT
TORSDOF 0
ENDMDL
MODEL 2
REMARK VINA RESULT:      -4.4      1.228      2.026
REMARK  0 active torsions:
REMARK  status: ('A' for Active; 'I' for Inactive)
ROOT
HETATM    1  C1  UNL     1     -34.282   5.715   5.349  1.00 20.00    -0.054 C 
HETATM    2  C2  UNL     1     -33.945   5.984   4.073  1.00 20.00     0.091 C 
HETATM    3  C3  UNL     1     -33.883   6.633   6.475  1.00 20.00     0.046 C 
HETATM    4  C4  UNL     1     -35.056   4.503   5.790  1.00 20.00     0.046 C 
HETATM    5  C5  UNL     1     -34.314   5.174   2.873  1.00 20.00     0.082 C 
HETATM    6  F6  UNL     1     -33.224   7.107   3.832  1.00 20.00    -0.211 F 
ENDROOT
TORSDOF 0
ENDMDL
MODEL 3
REMARK VINA RESULT:      -4.4      1.829      2.638
REMARK  0 active torsions:
REMARK  status: ('A' for Active; 'I' for Inactive)
ROOT
HETATM    1  C1  UNL     1     -34.175   5.887   4.763  1.00 20.00    -0.054 C 
HETATM    2  C2  UNL     1     -34.193   6.237   6.064  1.00 20.00     0.091 C 
HETATM    3  C3  UNL     1     -35.143   4.873   4.211  1.00 20.00     0.046 C 
HETATM    4  C4  UNL     1     -33.211   6.434   3.746  1.00 20.00     0.046 C 
HETATM    5  C5  UNL     1     -33.314   7.253   6.718  1.00 20.00     0.082 C 
HETATM    6  F6  UNL     1     -35.109   5.640   6.867  1.00 20.00    -0.211 F 
ENDROOT
TORSDOF 0
ENDMDL
MODEL 4
REMARK VINA RESULT:      -4.3      1.801      3.237
REMARK  0 active torsions:
REMARK  status: ('A' for Active; 'I' for Inactive)
ROOT
HETATM    1  C1  UNL     1     -33.745   6.089   4.209  1.00 20.00    -0.054 C 
HETATM    2  C2  UNL     1     -33.904   6.119   5.546  1.00 20.00     0.091 C 
HETATM    3  C3  UNL     1     -32.692   6.922   3.526  1.00 20.00     0.046 C 
HETATM    4  C4  UNL     1     -34.580   5.262   3.269  1.00 20.00     0.046 C 
HETATM    5  C5  UNL     1     -34.882   5.312   6.338  1.00 20.00     0.082 C 
HETATM    6  F6  UNL     1     -33.089   6.932   6.263  1.00 20.00    -0.211 F 
ENDROOT
TORSDOF 0
ENDMDL
MODEL 5
REMARK VINA RESULT:      -4.2      1.804      2.914
REMARK  0 active torsions:
REMARK  status: ('A' for Active; 'I' for Inactive)
ROOT
HETATM    1  C1  UNL     1     -33.956   6.161   5.443  1.00 20.00    -0.054 C 
HETATM    2  C2  UNL     1     -34.805   5.133   5.640  1.00 20.00     0.091 C 
HETATM    3  C3  UNL     1     -33.619   7.122   6.552  1.00 20.00     0.046 C 
HETATM    4  C4  UNL     1     -33.281   6.470   4.135  1.00 20.00     0.046 C 
HETATM    5  C5  UNL     1     -35.186   4.096   4.634  1.00 20.00     0.082 C 
HETATM    6  F6  UNL     1     -35.355   4.994   6.872  1.00 20.00    -0.211 F 
ENDROOT
TORSDOF 0
ENDMDL
MODEL 6
REMARK VINA RESULT:      -4.1      0.773      2.421
REMARK  0 active torsions:
REMARK  status: ('A' for Active; 'I' for Inactive)
ROOT
HETATM    1  C1  UNL     1     -33.945   6.140   5.049  1.00 20.00    -0.054 C 
HETATM    2  C2  UNL     1     -34.636   4.988   4.955  1.00 20.00     0.091 C 
HETATM    3  C3  UNL     1     -33.402   6.830   3.825  1.00 20.00     0.046 C 
HETATM    4  C4  UNL     1     -33.630   6.842   6.342  1.00 20.00     0.046 C 
HETATM    5  C5  UNL     1     -35.255   4.234   6.087  1.00 20.00     0.082 C 
HETATM    6  F6  UNL     1     -34.823   4.460   3.719  1.00 20.00    -0.211 F 
ENDROOT
TORSDOF 0
ENDMDL
MODEL 7
REMARK VINA RESULT:      -3.9      1.598      2.635
REMARK  0 active torsions:
REMARK  status: ('A' for Active; 'I' for Inactive)
ROOT
HETATM    1  C1  UNL     1     -34.296   5.551   4.178  1.00 20.00    -0.054 C 
HETATM    2  C2  UNL     1     -33.612   6.380   4.989  1.00 20.00     0.091 C 
HETATM    3  C3  UNL     1     -33.906   5.368   2.735  1.00 20.00     0.046 C 
HETATM    4  C4  UNL     1     -35.498   4.748   4.597  1.00 20.00     0.046 C 
HETATM    5  C5  UNL     1     -33.877   6.614   6.441  1.00 20.00     0.082 C 
HETATM    6  F6  UNL     1     -32.560   7.056   4.462  1.00 20.00    -0.211 F 
ENDROOT
TORSDOF 0
ENDMDL
MODEL 8
REMARK VINA RESULT:      -3.2     11.976     12.238
REMARK  0 active torsions:
REMARK  status: ('A' for Active; 'I' for Inactive)
ROOT
HETATM    1  C1  UNL     1     -34.613  15.151  -3.169  1.00 20.00    -0.054 C 
HETATM    2  C2  UNL     1     -33.896  14.200  -3.799  1.00 20.00     0.091 C 
HETATM    3  C3  UNL     1     -33.952  16.164  -2.271  1.00 20.00     0.046 C 
HETATM    4  C4  UNL     1     -36.106  15.300  -3.269  1.00 20.00     0.046 C 
HETATM    5  C5  UNL     1     -34.430  13.170  -4.740  1.00 20.00     0.082 C 
HETATM    6  F6  UNL     1     -32.556  14.178  -3.594  1.00 20.00    -0.211 F 
ENDROOT
TORSDOF 0
ENDMDL
MODEL 9
REMARK VINA RESULT:      -3.2      9.592     10.191
REMARK  0 active torsions:
REMARK  status: ('A' for Active; 'I' for Inactive)
ROOT
HETATM    1  C1  UNL     1     -41.701   5.787  -1.927  1.00 20.00    -0.054 C 
HETATM    2  C2  UNL     1     -41.278   4.513  -1.813  1.00 20.00     0.091 C 
HETATM    3  C3  UNL     1     -41.098   6.889  -1.094  1.00 20.00     0.046 C 
HETATM    4  C4  UNL     1     -42.795   6.244  -2.852  1.00 20.00     0.046 C 
HETATM    5  C5  UNL     1     -41.769   3.346  -2.607  1.00 20.00     0.082 C 
HETATM    6  F6  UNL     1     -40.295   4.249  -0.917  1.00 20.00    -0.211 F 
ENDROOT
TORSDOF 0
ENDMDL
