MODEL 1
REMARK VINA RESULT:      -5.6      0.000      0.000
REMARK  1 active torsions:
REMARK  status: ('A' for Active; 'I' for Inactive)
REMARK    1  A    between atoms: C1_1  and  C3_3 
ROOT
HETATM    1  C1  UNL     1     -34.661   5.008   4.690  1.00 20.00     0.249 C 
HETATM    2  C2  UNL     1     -34.709   5.340   5.986  1.00 20.00     0.229 C 
HETATM    3  F4  UNL     1     -35.302   3.886   4.285  1.00 20.00    -0.197 F 
HETATM    4  F5  UNL     1     -35.385   4.563   6.859  1.00 20.00    -0.189 F 
HETATM    5 CL9  UNL     1     -33.920   6.751   6.586  1.00 20.00    -0.049 Cl
ENDROOT
BRANCH   1   6
HETATM    6  C3  UNL     1     -33.947   5.788   3.641  1.00 20.00     0.448 C 
HETATM    7  F6  UNL     1     -34.371   7.077   3.613  1.00 20.00    -0.164 F 
HETATM    8  F7  UNL     1     -32.601   5.823   3.807  1.00 20.00    -0.164 F 
HETATM    9  F8  UNL     1     -34.176   5.275   2.406  1.00 20.00    -0.164 F 
ENDBRANCH   1   6
TORSDOF 1
ENDMDL
MODEL 2
REMARK VINA RESULT:      -5.5      1.597      2.396
REMARK  1 active torsions:
REMARK  status: ('A' for Active; 'I' for Inactive)
REMARK    1  A    between atoms: C1_1  and  C3_3 
ROOT
HETATM    1  C1  UNL     1     -33.979   6.127   4.510  1.00 20.00     0.249 C 
HETATM    2  C2  UNL     1     -34.066   6.139   5.846  1.00 20.00     0.229 C 
HETATM    3  F4  UNL     1     -33.099   6.964   3.911  1.00 20.00    -0.197 F 
HETATM    4  F5  UNL     1     -33.287   6.973   6.567  1.00 20.00    -0.189 F 
HETATM    5 CL9  UNL     1     -35.161   5.107   6.688  1.00 20.00    -0.049 Cl
ENDROOT
BRANCH   1   6
HETATM    6  C3  UNL     1     -34.787   5.252   3.616  1.00 20.00     0.448 C 
HETATM    7  F6  UNL     1     -34.231   5.164   2.381  1.00 20.00    -0.164 F 
HETATM    8  F7  UNL     1     -34.926   3.982   4.074  1.00 20.00    -0.164 F 
HETATM    9  F8  UNL     1     -36.040   5.745   3.446  1.00 20.00    -0.164 F 
ENDBRANCH   1   6
TORSDOF 1
ENDMDL
MODEL 3
REMARK VINA RESULT:      -5.4      1.993      3.478
REMARK  1 active torsions:
REMARK  status: ('A' for Active; 'I' for Inactive)
REMARK    1  A    between atoms: C1_1  and  C3_3 
ROOT
HETATM    1  C1  UNL     1     -33.950   5.942   5.126  1.00 20.00     0.249 C 
HETATM    2  C2  UNL     1     -33.376   6.165   3.937  1.00 20.00     0.229 C 
HETATM    3  F4  UNL     1     -33.549   6.679   6.188  1.00 20.00    -0.197 F 
HETATM    4  F5  UNL     1     -32.417   7.110   3.816  1.00 20.00    -0.189 F 
HETATM    5 CL9  UNL     1     -33.827   5.271   2.534  1.00 20.00    -0.049 Cl
ENDROOT
BRANCH   1   6
HETATM    6  C3  UNL     1     -35.013   4.929   5.376  1.00 20.00     0.448 C 
HETATM    7  F6  UNL     1     -36.036   5.063   4.494  1.00 20.00    -0.164 F 
HETATM    8  F7  UNL     1     -34.580   3.647   5.281  1.00 20.00    -0.164 F 
HETATM    9  F8  UNL     1     -35.545   5.072   6.617  1.00 20.00    -0.164 F 
ENDBRANCH   1   6
TORSDOF 1
ENDMDL
MODEL 4
REMARK VINA RESULT:      -5.2      1.740      2.479
REMARK  1 active torsions:
REMARK  status: ('A' for Active; 'I' for Inactive)
REMARK    1  A    between atoms: C1_1  and  C3_3 
ROOT
HETATM    1  C1  UNL     1     -34.496   5.660   5.449  1.00 20.00     0.249 C 
HETATM    2  C2  UNL     1     -33.459   6.505   5.378  1.00 20.00     0.229 C 
HETATM    3  F4  UNL     1     -35.086   5.458   6.651  1.00 20.00    -0.197 F 
HETATM    4  F5  UNL     1     -33.023   7.134   6.491  1.00 20.00    -0.189 F 
HETATM    5 CL9  UNL     1     -32.651   6.819   3.888  1.00 20.00    -0.049 Cl
ENDROOT
BRANCH   1   6
HETATM    6  C3  UNL     1     -35.060   4.913   4.291  1.00 20.00     0.448 C 
HETATM    7  F6  UNL     1     -36.274   5.404   3.934  1.00 20.00    -0.164 F 
HETATM    8  F7  UNL     1     -34.280   4.953   3.181  1.00 20.00    -0.164 F 
HETATM    9  F8  UNL     1     -35.243   3.602   4.593  1.00 20.00    -0.164 F 
ENDBRANCH   1   6
TORSDOF 1
ENDMDL
MODEL 5
REMARK VINA RESULT:      -5.2      1.482      3.178
REMARK  1 active torsions:
REMARK  status: ('A' for Active; 'I' for Inactive)
REMARK    1  A    between atoms: C1_1  and  C3_3 
ROOT
HETATM    1  C1  UNL     1     -34.802   5.216   4.639  1.00 20.00     0.249 C 
HETATM    2  C2  UNL     1     -34.018   5.660   3.648  1.00 20.00     0.229 C 
HETATM    3  F4  UNL     1     -35.907   4.501   4.319  1.00 20.00    -0.197 F 
HETATM    4  F5  UNL     1     -34.336   5.394   2.363  1.00 20.00    -0.189 F 
HETATM    5 CL9  UNL     1     -32.593   6.577   3.968  1.00 20.00    -0.049 Cl
ENDROOT
BRANCH   1   6
HETATM    6  C3  UNL     1     -34.551   5.448   6.088  1.00 20.00     0.448 C 
HETATM    7  F6  UNL     1     -33.543   4.661   6.544  1.00 20.00    -0.164 F 
HETATM    8  F7  UNL     1     -34.213   6.728   6.385  1.00 20.00    -0.164 F 
HETATM    9  F8  UNL     1     -35.647   5.150   6.831  1.00 20.00    -0.164 F 
ENDBRANCH   1   6
TORSDOF 1
ENDMDL
MODEL 6
REMARK VINA RESULT:      -5.1      1.338      1.955
REMARK  1 active torsions:
REMARK  status: ('A' for Active; 'I' for Inactive)
REMARK    1  A    between atoms: C1_1  and  C3_3 
ROOT
HETATM    1  C1  UNL     1     -33.935   5.724   3.484  1.00 20.00     0.249 C 
HETATM    2  C2  UNL     1     -34.661   5.522   4.591  1.00 20.00     0.229 C 
HETATM    3  F4  UNL     1     -34.400   5.241   2.307  1.00 20.00    -0.197 F 
HETATM    4  F5  UNL     1     -35.831   4.850   4.519  1.00 20.00    -0.189 F 
HETATM    5 CL9  UNL     1     -34.142   6.103   6.129  1.00 20.00    -0.049 Cl
ENDROOT
BRANCH   1   6
HETATM    6  C3  UNL     1     -32.635   6.448   3.444  1.00 20.00     0.448 C 
HETATM    7  F6  UNL     1     -32.583   7.307   2.394  1.00 20.00    -0.164 F 
HETATM    8  F7  UNL     1     -32.381   7.178   4.560  1.00 20.00    -0.164 F 
HETATM    9  F8  UNL     1     -31.596   5.587   3.296  1.00 20.00    -0.164 F 
ENDBRANCH   1   6
TORSDOF 1
ENDMDL
MODEL 7
REMARK VINA RESULT:      -5.0      1.713      2.465
REMARK  1 active torsions:
REMARK  status: ('A' for Active; 'I' for Inactive)
REMARK    1  A    between atoms: C1_1  and  C3_3 
ROOT
HETATM    1  C1  UNL     1     -33.512   6.276   4.897  1.00 20.00     0.249 C 
HETATM    2  C2  UNL     1     -34.437   5.487   5.456  1.00 20.00     0.229 C 
HETATM    3  F4  UNL     1     -32.901   7.206   5.669  1.00 20.00    -0.197 F 
HETATM    4  F5  UNL     1     -34.744   5.626   6.764  1.00 20.00    -0.189 F 
HETATM    5 CL9  UNL     1     -35.263   4.279   4.545  1.00 20.00    -0.049 Cl
ENDROOT
BRANCH   1   6
HETATM    6  C3  UNL     1     -33.095   6.212   3.468  1.00 20.00     0.448 C 
HETATM    7  F6  UNL     1     -31.883   5.615   3.337  1.00 20.00    -0.164 F 
HETATM    8  F7  UNL     1     -33.957   5.525   2.677  1.00 20.00    -0.164 F 
HETATM    9  F8  UNL     1     -32.979   7.455   2.934  1.00 20.00    -0.164 F 
ENDBRANCH   1   6
TORSDOF 1
ENDMDL
MODEL 8
REMARK VINA RESULT:      -5.0      1.069      3.007
REMARK  1 active torsions:
REMARK  status: ('A' for Active; 'I' for Inactive)
REMARK    1  A    between atoms: C1_1  and  C3_3 
ROOT
HETATM    1  C1  UNL     1     -34.308   5.330   4.495  1.00 20.00     0.249 C 
HETATM    2  C2  UNL     1     -33.724   6.501   4.782  1.00 20.00     0.229 C 
HETATM    3  F4  UNL     1     -34.500   5.004   3.195  1.00 20.00    -0.197 F 
HETATM    4  F5  UNL     1     -33.341   7.328   3.785  1.00 20.00    -0.189 F 
HETATM    5 CL9  UNL     1     -33.442   6.994   6.410  1.00 20.00    -0.049 Cl
ENDROOT
BRANCH   1   6
HETATM    6  C3  UNL     1     -34.769   4.343   5.510  1.00 20.00     0.448 C 
HETATM    7  F6  UNL     1     -33.731   3.874   6.247  1.00 20.00    -0.164 F 
HETATM    8  F7  UNL     1     -35.677   4.843   6.386  1.00 20.00    -0.164 F 
HETATM    9  F8  UNL     1     -35.347   3.266   4.920  1.00 20.00    -0.164 F 
ENDBRANCH   1   6
TORSDOF 1
ENDMDL
MODEL 9
REMARK VINA RESULT:      -4.5      2.019      3.440
REMARK  1 active torsions:
REMARK  status: ('A' for Active; 'I' for Inactive)
REMARK    1  A    between atoms: C1_1  and  C3_3 
ROOT
HETATM    1  C1  UNL     1     -33.877   6.106   4.800  1.00 20.00     0.249 C 
HETATM    2  C2  UNL     1     -34.526   5.193   4.066  1.00 20.00     0.229 C 
HETATM    3  F4  UNL     1     -33.202   7.090   4.161  1.00 20.00    -0.197 F 
HETATM    4  F5  UNL     1     -34.498   5.266   2.717  1.00 20.00    -0.189 F 
HETATM    5 CL9  UNL     1     -35.409   3.907   4.799  1.00 20.00    -0.049 Cl
ENDROOT
BRANCH   1   6
HETATM    6  C3  UNL     1     -33.839   6.124   6.288  1.00 20.00     0.448 C 
HETATM    7  F6  UNL     1     -33.024   7.108   6.747  1.00 20.00    -0.164 F 
HETATM    8  F7  UNL     1     -35.052   6.320   6.864  1.00 20.00    -0.164 F 
HETATM    9  F8  UNL     1     -33.356   4.955   6.782  1.00 20.00    -0.164 F 
ENDBRANCH   1   6
TORSDOF 1
ENDMDL
