MODEL 1
REMARK VINA RESULT:      -3.9      0.000      0.000
REMARK  0 active torsions:
REMARK  status: ('A' for Active; 'I' for Inactive)
ROOT
HETATM    1  C1  UNL     1     -34.950   4.444   5.948  1.00 20.00     0.238 C 
HETATM    2  C2  UNL     1     -34.430   5.644   5.700  1.00 20.00     0.189 C 
HETATM    3  F3  UNL     1     -35.088   3.522   4.977  1.00 20.00    -0.216 F 
HETATM    4  F4  UNL     1     -34.318   6.524   6.720  1.00 20.00    -0.196 F 
HETATM    5 BR5  UNL     1     -33.848   6.165   4.013  1.00 20.00    -0.015 Br
ENDROOT
TORSDOF 0
ENDMDL
MODEL 2
REMARK VINA RESULT:      -3.8      0.613      2.360
REMARK  0 active torsions:
REMARK  status: ('A' for Active; 'I' for Inactive)
ROOT
HETATM    1  C1  UNL     1     -34.665   5.411   6.399  1.00 20.00     0.238 C 
HETATM    2  C2  UNL     1     -34.708   4.880   5.179  1.00 20.00     0.189 C 
HETATM    3  F3  UNL     1     -34.258   6.678   6.602  1.00 20.00    -0.216 F 
HETATM    4  F4  UNL     1     -35.127   3.602   5.044  1.00 20.00    -0.196 F 
HETATM    5 BR5  UNL     1     -34.217   5.818   3.650  1.00 20.00    -0.015 Br
ENDROOT
TORSDOF 0
ENDMDL
MODEL 3
REMARK VINA RESULT:      -3.7      2.012      2.236
REMARK  0 active torsions:
REMARK  status: ('A' for Active; 'I' for Inactive)
ROOT
HETATM    1  C1  UNL     1     -33.701   6.365   4.348  1.00 20.00     0.238 C 
HETATM    2  C2  UNL     1     -34.189   5.953   5.516  1.00 20.00     0.189 C 
HETATM    3  F3  UNL     1     -33.722   5.576   3.258  1.00 20.00    -0.216 F 
HETATM    4  F4  UNL     1     -34.138   6.795   6.573  1.00 20.00    -0.196 F 
HETATM    5 BR5  UNL     1     -34.941   4.270   5.760  1.00 20.00    -0.015 Br
ENDROOT
TORSDOF 0
ENDMDL
MODEL 4
REMARK VINA RESULT:      -3.7      1.958      2.245
REMARK  0 active torsions:
REMARK  status: ('A' for Active; 'I' for Inactive)
ROOT
HETATM    1  C1  UNL     1     -35.242   4.905   4.245  1.00 20.00     0.238 C 
HETATM    2  C2  UNL     1     -34.946   4.964   5.542  1.00 20.00     0.189 C 
HETATM    3  F3  UNL     1     -34.876   5.881   3.394  1.00 20.00    -0.216 F 
HETATM    4  F4  UNL     1     -35.343   3.950   6.343  1.00 20.00    -0.196 F 
HETATM    5 BR5  UNL     1     -34.010   6.379   6.302  1.00 20.00    -0.015 Br
ENDROOT
TORSDOF 0
ENDMDL
MODEL 5
REMARK VINA RESULT:      -3.6      1.565      1.975
REMARK  0 active torsions:
REMARK  status: ('A' for Active; 'I' for Inactive)
ROOT
HETATM    1  C1  UNL     1     -35.086   4.503   5.563  1.00 20.00     0.238 C 
HETATM    2  C2  UNL     1     -35.008   5.276   4.482  1.00 20.00     0.189 C 
HETATM    3  F3  UNL     1     -34.029   4.321   6.377  1.00 20.00    -0.216 F 
HETATM    4  F4  UNL     1     -36.107   5.418   3.707  1.00 20.00    -0.196 F 
HETATM    5 BR5  UNL     1     -33.454   6.171   3.989  1.00 20.00    -0.015 Br
ENDROOT
TORSDOF 0
ENDMDL
MODEL 6
REMARK VINA RESULT:      -3.6      2.579      3.021
REMARK  0 active torsions:
REMARK  status: ('A' for Active; 'I' for Inactive)
ROOT
HETATM    1  C1  UNL     1     -33.884   5.931   3.445  1.00 20.00     0.238 C 
HETATM    2  C2  UNL     1     -34.926   5.424   4.100  1.00 20.00     0.189 C 
HETATM    3  F3  UNL     1     -32.630   5.823   3.924  1.00 20.00    -0.216 F 
HETATM    4  F4  UNL     1     -36.159   5.566   3.564  1.00 20.00    -0.196 F 
HETATM    5 BR5  UNL     1     -34.763   4.527   5.721  1.00 20.00    -0.015 Br
ENDROOT
TORSDOF 0
ENDMDL
MODEL 7
REMARK VINA RESULT:      -3.5      1.869      2.244
REMARK  0 active torsions:
REMARK  status: ('A' for Active; 'I' for Inactive)
ROOT
HETATM    1  C1  UNL     1     -33.957   6.343   6.221  1.00 20.00     0.238 C 
HETATM    2  C2  UNL     1     -33.803   6.234   4.903  1.00 20.00     0.189 C 
HETATM    3  F3  UNL     1     -35.010   5.795   6.855  1.00 20.00    -0.216 F 
HETATM    4  F4  UNL     1     -32.722   6.807   4.328  1.00 20.00    -0.196 F 
HETATM    5 BR5  UNL     1     -35.009   5.327   3.816  1.00 20.00    -0.015 Br
ENDROOT
TORSDOF 0
ENDMDL
MODEL 8
REMARK VINA RESULT:      -3.5      2.340      2.347
REMARK  0 active torsions:
REMARK  status: ('A' for Active; 'I' for Inactive)
ROOT
HETATM    1  C1  UNL     1     -34.747   5.443   3.706  1.00 20.00     0.238 C 
HETATM    2  C2  UNL     1     -33.821   6.013   4.475  1.00 20.00     0.189 C 
HETATM    3  F3  UNL     1     -35.917   5.014   4.213  1.00 20.00    -0.216 F 
HETATM    4  F4  UNL     1     -32.667   6.423   3.903  1.00 20.00    -0.196 F 
HETATM    5 BR5  UNL     1     -34.044   6.269   6.303  1.00 20.00    -0.015 Br
ENDROOT
TORSDOF 0
ENDMDL
MODEL 9
REMARK VINA RESULT:      -3.4      2.114      2.114
REMARK  0 active torsions:
REMARK  status: ('A' for Active; 'I' for Inactive)
ROOT
HETATM    1  C1  UNL     1     -34.716   5.469   3.747  1.00 20.00     0.238 C 
HETATM    2  C2  UNL     1     -33.773   6.224   4.306  1.00 20.00     0.189 C 
HETATM    3  F3  UNL     1     -34.637   5.081   2.461  1.00 20.00    -0.216 F 
HETATM    4  F4  UNL     1     -33.912   6.579   5.603  1.00 20.00    -0.196 F 
HETATM    5 BR5  UNL     1     -32.270   6.813   3.383  1.00 20.00    -0.015 Br
ENDROOT
TORSDOF 0
ENDMDL
