MODEL 1
REMARK VINA RESULT:      -4.8      0.000      0.000
REMARK  1 active torsions:
REMARK  status: ('A' for Active; 'I' for Inactive)
REMARK    1  A    between atoms: C2_2  and  C3_3 
ROOT
HETATM    1  C3  UNL     1     -34.957   5.059   4.368  1.00 20.00     0.351 C 
HETATM    2  F5  UNL     1     -36.137   5.505   3.862  1.00 20.00    -0.185 F 
HETATM    3  F6  UNL     1     -34.906   3.727   4.102  1.00 20.00    -0.185 F 
HETATM    4 BR7  UNL     1     -33.489   5.955   3.458  1.00 20.00    -0.003 Br
ENDROOT
BRANCH   1   5
HETATM    5  C2  UNL     1     -34.826   5.310   5.831  1.00 20.00     0.167 C 
HETATM    6  C1  UNL     1     -34.123   6.315   6.365  1.00 20.00     0.059 C 
HETATM    7  F4  UNL     1     -35.488   4.489   6.680  1.00 20.00    -0.204 F 
ENDBRANCH   1   5
TORSDOF 1
ENDMDL
MODEL 2
REMARK VINA RESULT:      -4.8      1.825      2.809
REMARK  1 active torsions:
REMARK  status: ('A' for Active; 'I' for Inactive)
REMARK    1  A    between atoms: C2_2  and  C3_3 
ROOT
HETATM    1  C3  UNL     1     -35.006   4.975   4.448  1.00 20.00     0.351 C 
HETATM    2  F5  UNL     1     -35.022   3.616   4.460  1.00 20.00    -0.185 F 
HETATM    3  F6  UNL     1     -36.272   5.371   4.152  1.00 20.00    -0.185 F 
HETATM    4 BR7  UNL     1     -34.524   5.626   6.218  1.00 20.00    -0.003 Br
ENDROOT
BRANCH   1   5
HETATM    5  C2  UNL     1     -34.035   5.531   3.463  1.00 20.00     0.167 C 
HETATM    6  C1  UNL     1     -33.058   6.392   3.769  1.00 20.00     0.059 C 
HETATM    7  F4  UNL     1     -34.122   5.113   2.178  1.00 20.00    -0.204 F 
ENDBRANCH   1   5
TORSDOF 1
ENDMDL
MODEL 3
REMARK VINA RESULT:      -4.5      2.242      2.583
REMARK  1 active torsions:
REMARK  status: ('A' for Active; 'I' for Inactive)
REMARK    1  A    between atoms: C2_2  and  C3_3 
ROOT
HETATM    1  C3  UNL     1     -34.693   5.340   3.931  1.00 20.00     0.351 C 
HETATM    2  F5  UNL     1     -34.411   4.612   2.818  1.00 20.00    -0.185 F 
HETATM    3  F6  UNL     1     -35.843   6.014   3.667  1.00 20.00    -0.185 F 
HETATM    4 BR7  UNL     1     -34.982   4.134   5.431  1.00 20.00    -0.003 Br
ENDROOT
BRANCH   1   5
HETATM    5  C2  UNL     1     -33.599   6.285   4.293  1.00 20.00     0.167 C 
HETATM    6  C1  UNL     1     -32.674   6.733   3.439  1.00 20.00     0.059 C 
HETATM    7  F4  UNL     1     -33.556   6.751   5.564  1.00 20.00    -0.204 F 
ENDBRANCH   1   5
TORSDOF 1
ENDMDL
MODEL 4
REMARK VINA RESULT:      -4.4      1.533      2.714
REMARK  1 active torsions:
REMARK  status: ('A' for Active; 'I' for Inactive)
REMARK    1  A    between atoms: C2_2  and  C3_3 
ROOT
HETATM    1  C3  UNL     1     -34.603   5.030   5.722  1.00 20.00     0.351 C 
HETATM    2  F5  UNL     1     -33.736   3.995   5.873  1.00 20.00    -0.185 F 
HETATM    3  F6  UNL     1     -35.710   4.710   6.442  1.00 20.00    -0.185 F 
HETATM    4 BR7  UNL     1     -33.805   6.649   6.451  1.00 20.00    -0.003 Br
ENDROOT
BRANCH   1   5
HETATM    5  C2  UNL     1     -34.956   5.283   4.296  1.00 20.00     0.167 C 
HETATM    6  C1  UNL     1     -34.065   5.515   3.327  1.00 20.00     0.059 C 
HETATM    7  F4  UNL     1     -36.264   5.241   3.948  1.00 20.00    -0.204 F 
ENDBRANCH   1   5
TORSDOF 1
ENDMDL
MODEL 5
REMARK VINA RESULT:      -4.4      1.986      2.460
REMARK  1 active torsions:
REMARK  status: ('A' for Active; 'I' for Inactive)
REMARK    1  A    between atoms: C2_2  and  C3_3 
ROOT
HETATM    1  C3  UNL     1     -33.991   6.150   4.600  1.00 20.00     0.351 C 
HETATM    2  F5  UNL     1     -34.358   7.178   3.790  1.00 20.00    -0.185 F 
HETATM    3  F6  UNL     1     -32.830   5.658   4.093  1.00 20.00    -0.185 F 
HETATM    4 BR7  UNL     1     -33.672   6.831   6.396  1.00 20.00    -0.003 Br
ENDROOT
BRANCH   1   5
HETATM    5  C2  UNL     1     -35.027   5.082   4.681  1.00 20.00     0.167 C 
HETATM    6  C1  UNL     1     -34.958   4.023   5.494  1.00 20.00     0.059 C 
HETATM    7  F4  UNL     1     -36.131   5.206   3.906  1.00 20.00    -0.204 F 
ENDBRANCH   1   5
TORSDOF 1
ENDMDL
MODEL 6
REMARK VINA RESULT:      -4.1      2.139      2.993
REMARK  1 active torsions:
REMARK  status: ('A' for Active; 'I' for Inactive)
REMARK    1  A    between atoms: C2_2  and  C3_3 
ROOT
HETATM    1  C3  UNL     1     -34.787   5.680   4.267  1.00 20.00     0.351 C 
HETATM    2  F5  UNL     1     -36.039   5.798   3.752  1.00 20.00    -0.185 F 
HETATM    3  F6  UNL     1     -34.594   6.768   5.058  1.00 20.00    -0.185 F 
HETATM    4 BR7  UNL     1     -34.689   4.068   5.354  1.00 20.00    -0.003 Br
ENDROOT
BRANCH   1   5
HETATM    5  C2  UNL     1     -33.736   5.600   3.215  1.00 20.00     0.167 C 
HETATM    6  C1  UNL     1     -32.531   6.174   3.305  1.00 20.00     0.059 C 
HETATM    7  F4  UNL     1     -34.000   4.870   2.105  1.00 20.00    -0.204 F 
ENDBRANCH   1   5
TORSDOF 1
ENDMDL
MODEL 7
REMARK VINA RESULT:      -4.1      1.778      2.525
REMARK  1 active torsions:
REMARK  status: ('A' for Active; 'I' for Inactive)
REMARK    1  A    between atoms: C2_2  and  C3_3 
ROOT
HETATM    1  C3  UNL     1     -33.855   6.353   4.588  1.00 20.00     0.351 C 
HETATM    2  F5  UNL     1     -33.338   6.843   5.745  1.00 20.00    -0.185 F 
HETATM    3  F6  UNL     1     -34.718   7.297   4.125  1.00 20.00    -0.185 F 
HETATM    4 BR7  UNL     1     -32.419   6.104   3.298  1.00 20.00    -0.003 Br
ENDROOT
BRANCH   1   5
HETATM    5  C2  UNL     1     -34.551   5.049   4.774  1.00 20.00     0.167 C 
HETATM    6  C1  UNL     1     -34.808   4.492   5.962  1.00 20.00     0.059 C 
HETATM    7  F4  UNL     1     -34.984   4.395   3.670  1.00 20.00    -0.204 F 
ENDBRANCH   1   5
TORSDOF 1
ENDMDL
MODEL 8
REMARK VINA RESULT:      -4.0      2.009      2.548
REMARK  1 active torsions:
REMARK  status: ('A' for Active; 'I' for Inactive)
REMARK    1  A    between atoms: C2_2  and  C3_3 
ROOT
HETATM    1  C3  UNL     1     -34.519   5.213   6.035  1.00 20.00     0.351 C 
HETATM    2  F5  UNL     1     -35.466   5.490   6.971  1.00 20.00    -0.185 F 
HETATM    3  F6  UNL     1     -33.801   4.164   6.517  1.00 20.00    -0.185 F 
HETATM    4 BR7  UNL     1     -35.390   4.691   4.375  1.00 20.00    -0.003 Br
ENDROOT
BRANCH   1   5
HETATM    5  C2  UNL     1     -33.630   6.375   5.754  1.00 20.00     0.167 C 
HETATM    6  C1  UNL     1     -33.218   6.732   4.533  1.00 20.00     0.059 C 
HETATM    7  F4  UNL     1     -33.239   7.146   6.797  1.00 20.00    -0.204 F 
ENDBRANCH   1   5
TORSDOF 1
ENDMDL
MODEL 9
REMARK VINA RESULT:      -3.9      2.348      2.674
REMARK  1 active torsions:
REMARK  status: ('A' for Active; 'I' for Inactive)
REMARK    1  A    between atoms: C2_2  and  C3_3 
ROOT
HETATM    1  C3  UNL     1     -33.797   6.277   4.334  1.00 20.00     0.351 C 
HETATM    2  F5  UNL     1     -32.603   5.824   3.870  1.00 20.00    -0.185 F 
HETATM    3  F6  UNL     1     -33.926   7.551   3.879  1.00 20.00    -0.185 F 
HETATM    4 BR7  UNL     1     -35.229   5.182   3.600  1.00 20.00    -0.003 Br
ENDROOT
BRANCH   1   5
HETATM    5  C2  UNL     1     -33.891   6.236   5.821  1.00 20.00     0.167 C 
HETATM    6  C1  UNL     1     -34.623   5.352   6.508  1.00 20.00     0.059 C 
HETATM    7  F4  UNL     1     -33.162   7.131   6.530  1.00 20.00    -0.204 F 
ENDBRANCH   1   5
TORSDOF 1
ENDMDL
