MODEL 1
REMARK VINA RESULT:      -5.9      0.000      0.000
REMARK  1 active torsions:
REMARK  status: ('A' for Active; 'I' for Inactive)
REMARK    1  A    between atoms: C2_2  and  C4_4 
ROOT
HETATM    1  C1  UNL     1     -33.363   6.026   3.635  1.00 20.00     0.116 C 
HETATM    2  C2  UNL     1     -34.030   5.815   4.782  1.00 20.00     0.151 C 
HETATM    3  C3  UNL     1     -32.216   6.962   3.418  1.00 20.00     0.084 C 
HETATM    4  F5  UNL     1     -33.756   5.326   2.542  1.00 20.00    -0.209 F 
HETATM    5 CL9  UNL     1     -33.624   6.649   6.249  1.00 20.00    -0.076 Cl
ENDROOT
BRANCH   2   6
HETATM    6  C4  UNL     1     -35.172   4.863   4.938  1.00 20.00     0.430 C 
HETATM    7  F6  UNL     1     -36.233   5.221   4.169  1.00 20.00    -0.165 F 
HETATM    8  F7  UNL     1     -34.864   3.586   4.593  1.00 20.00    -0.165 F 
HETATM    9  F8  UNL     1     -35.616   4.816   6.220  1.00 20.00    -0.165 F 
ENDBRANCH   2   6
TORSDOF 1
ENDMDL
MODEL 2
REMARK VINA RESULT:      -5.6      1.448      2.561
REMARK  1 active torsions:
REMARK  status: ('A' for Active; 'I' for Inactive)
REMARK    1  A    between atoms: C2_2  and  C4_4 
ROOT
HETATM    1  C1  UNL     1     -34.152   6.279   5.965  1.00 20.00     0.116 C 
HETATM    2  C2  UNL     1     -34.026   6.023   4.652  1.00 20.00     0.151 C 
HETATM    3  C3  UNL     1     -33.308   7.202   6.788  1.00 20.00     0.084 C 
HETATM    4  F5  UNL     1     -35.144   5.644   6.637  1.00 20.00    -0.209 F 
HETATM    5 CL9  UNL     1     -32.797   6.771   3.681  1.00 20.00    -0.076 Cl
ENDROOT
BRANCH   2   6
HETATM    6  C4  UNL     1     -34.903   5.089   3.882  1.00 20.00     0.430 C 
HETATM    7  F6  UNL     1     -34.428   4.870   2.628  1.00 20.00    -0.165 F 
HETATM    8  F7  UNL     1     -35.032   3.866   4.460  1.00 20.00    -0.165 F 
HETATM    9  F8  UNL     1     -36.162   5.580   3.743  1.00 20.00    -0.165 F 
ENDBRANCH   2   6
TORSDOF 1
ENDMDL
MODEL 3
REMARK VINA RESULT:      -5.1      1.839      3.499
REMARK  1 active torsions:
REMARK  status: ('A' for Active; 'I' for Inactive)
REMARK    1  A    between atoms: C2_2  and  C4_4 
ROOT
HETATM    1  C1  UNL     1     -34.411   5.435   3.835  1.00 20.00     0.116 C 
HETATM    2  C2  UNL     1     -33.477   6.287   4.291  1.00 20.00     0.151 C 
HETATM    3  C3  UNL     1     -35.518   4.808   4.622  1.00 20.00     0.084 C 
HETATM    4  F5  UNL     1     -34.364   5.094   2.524  1.00 20.00    -0.209 F 
HETATM    5 CL9  UNL     1     -33.430   6.802   5.948  1.00 20.00    -0.076 Cl
ENDROOT
BRANCH   2   6
HETATM    6  C4  UNL     1     -32.393   6.885   3.454  1.00 20.00     0.430 C 
HETATM    7  F6  UNL     1     -32.884   7.774   2.552  1.00 20.00    -0.165 F 
HETATM    8  F7  UNL     1     -31.455   7.552   4.176  1.00 20.00    -0.165 F 
HETATM    9  F8  UNL     1     -31.726   5.938   2.744  1.00 20.00    -0.165 F 
ENDBRANCH   2   6
TORSDOF 1
ENDMDL
MODEL 4
REMARK VINA RESULT:      -5.0      1.851      3.522
REMARK  1 active torsions:
REMARK  status: ('A' for Active; 'I' for Inactive)
REMARK    1  A    between atoms: C2_2  and  C4_4 
ROOT
HETATM    1  C1  UNL     1     -34.411   5.444   3.814  1.00 20.00     0.116 C 
HETATM    2  C2  UNL     1     -33.474   6.292   4.271  1.00 20.00     0.151 C 
HETATM    3  C3  UNL     1     -35.524   4.823   4.599  1.00 20.00     0.084 C 
HETATM    4  F5  UNL     1     -34.363   5.102   2.503  1.00 20.00    -0.209 F 
HETATM    5 CL9  UNL     1     -33.428   6.808   5.928  1.00 20.00    -0.076 Cl
ENDROOT
BRANCH   2   6
HETATM    6  C4  UNL     1     -32.384   6.883   3.436  1.00 20.00     0.430 C 
HETATM    7  F6  UNL     1     -31.705   5.929   2.747  1.00 20.00    -0.165 F 
HETATM    8  F7  UNL     1     -32.830   7.775   2.514  1.00 20.00    -0.165 F 
HETATM    9  F8  UNL     1     -31.471   7.542   4.195  1.00 20.00    -0.165 F 
ENDBRANCH   2   6
TORSDOF 1
ENDMDL
MODEL 5
REMARK VINA RESULT:      -4.8      2.757      3.905
REMARK  1 active torsions:
REMARK  status: ('A' for Active; 'I' for Inactive)
REMARK    1  A    between atoms: C2_2  and  C4_4 
ROOT
HETATM    1  C1  UNL     1     -33.802   6.202   5.566  1.00 20.00     0.116 C 
HETATM    2  C2  UNL     1     -33.623   6.117   4.237  1.00 20.00     0.151 C 
HETATM    3  C3  UNL     1     -34.857   5.520   6.379  1.00 20.00     0.084 C 
HETATM    4  F5  UNL     1     -32.945   6.986   6.266  1.00 20.00    -0.209 F 
HETATM    5 CL9  UNL     1     -34.652   5.148   3.230  1.00 20.00    -0.076 Cl
ENDROOT
BRANCH   2   6
HETATM    6  C4  UNL     1     -32.546   6.823   3.479  1.00 20.00     0.430 C 
HETATM    7  F6  UNL     1     -33.050   7.799   2.679  1.00 20.00    -0.165 F 
HETATM    8  F7  UNL     1     -31.624   7.423   4.277  1.00 20.00    -0.165 F 
HETATM    9  F8  UNL     1     -31.858   5.974   2.672  1.00 20.00    -0.165 F 
ENDBRANCH   2   6
TORSDOF 1
ENDMDL
MODEL 6
REMARK VINA RESULT:      -4.7      2.057      2.402
REMARK  1 active torsions:
REMARK  status: ('A' for Active; 'I' for Inactive)
REMARK    1  A    between atoms: C2_2  and  C4_4 
ROOT
HETATM    1  C1  UNL     1     -32.882   6.713   4.174  1.00 20.00     0.116 C 
HETATM    2  C2  UNL     1     -33.866   5.800   4.132  1.00 20.00     0.151 C 
HETATM    3  C3  UNL     1     -32.140   7.292   3.010  1.00 20.00     0.084 C 
HETATM    4  F5  UNL     1     -32.503   7.174   5.392  1.00 20.00    -0.209 F 
HETATM    5 CL9  UNL     1     -34.441   5.133   2.636  1.00 20.00    -0.076 Cl
ENDROOT
BRANCH   2   6
HETATM    6  C4  UNL     1     -34.573   5.258   5.333  1.00 20.00     0.430 C 
HETATM    7  F6  UNL     1     -33.926   4.184   5.856  1.00 20.00    -0.165 F 
HETATM    8  F7  UNL     1     -34.695   6.159   6.343  1.00 20.00    -0.165 F 
HETATM    9  F8  UNL     1     -35.832   4.847   5.033  1.00 20.00    -0.165 F 
ENDBRANCH   2   6
TORSDOF 1
ENDMDL
MODEL 7
REMARK VINA RESULT:      -4.7      2.065      2.065
REMARK  1 active torsions:
REMARK  status: ('A' for Active; 'I' for Inactive)
REMARK    1  A    between atoms: C2_2  and  C4_4 
ROOT
HETATM    1  C1  UNL     1     -32.879   6.715   4.180  1.00 20.00     0.116 C 
HETATM    2  C2  UNL     1     -33.860   5.798   4.144  1.00 20.00     0.151 C 
HETATM    3  C3  UNL     1     -32.146   7.297   3.013  1.00 20.00     0.084 C 
HETATM    4  F5  UNL     1     -32.496   7.176   5.397  1.00 20.00    -0.209 F 
HETATM    5 CL9  UNL     1     -34.441   5.129   2.650  1.00 20.00    -0.076 Cl
ENDROOT
BRANCH   2   6
HETATM    6  C4  UNL     1     -34.558   5.252   5.348  1.00 20.00     0.430 C 
HETATM    7  F6  UNL     1     -35.815   4.829   5.053  1.00 20.00    -0.165 F 
HETATM    8  F7  UNL     1     -33.921   4.193   5.911  1.00 20.00    -0.165 F 
HETATM    9  F8  UNL     1     -34.680   6.188   6.325  1.00 20.00    -0.165 F 
ENDBRANCH   2   6
TORSDOF 1
ENDMDL
MODEL 8
REMARK VINA RESULT:      -4.7      2.067      2.252
REMARK  1 active torsions:
REMARK  status: ('A' for Active; 'I' for Inactive)
REMARK    1  A    between atoms: C2_2  and  C4_4 
ROOT
HETATM    1  C1  UNL     1     -32.883   6.712   4.183  1.00 20.00     0.116 C 
HETATM    2  C2  UNL     1     -33.865   5.797   4.148  1.00 20.00     0.151 C 
HETATM    3  C3  UNL     1     -32.151   7.294   3.014  1.00 20.00     0.084 C 
HETATM    4  F5  UNL     1     -32.496   7.173   5.398  1.00 20.00    -0.209 F 
HETATM    5 CL9  UNL     1     -34.450   5.129   2.657  1.00 20.00    -0.076 Cl
ENDROOT
BRANCH   2   6
HETATM    6  C4  UNL     1     -34.561   5.253   5.354  1.00 20.00     0.430 C 
HETATM    7  F6  UNL     1     -34.675   6.187   6.334  1.00 20.00    -0.165 F 
HETATM    8  F7  UNL     1     -35.821   4.811   5.100  1.00 20.00    -0.165 F 
HETATM    9  F8  UNL     1     -33.889   4.202   5.892  1.00 20.00    -0.165 F 
ENDBRANCH   2   6
TORSDOF 1
ENDMDL
MODEL 9
REMARK VINA RESULT:      -4.4      1.680      2.147
REMARK  1 active torsions:
REMARK  status: ('A' for Active; 'I' for Inactive)
REMARK    1  A    between atoms: C2_2  and  C4_4 
ROOT
HETATM    1  C1  UNL     1     -33.768   6.582   5.448  1.00 20.00     0.116 C 
HETATM    2  C2  UNL     1     -34.568   5.507   5.352  1.00 20.00     0.151 C 
HETATM    3  C3  UNL     1     -33.259   7.217   6.704  1.00 20.00     0.084 C 
HETATM    4  F5  UNL     1     -33.364   7.169   4.294  1.00 20.00    -0.209 F 
HETATM    5 CL9  UNL     1     -35.153   4.666   6.754  1.00 20.00    -0.076 Cl
ENDROOT
BRANCH   2   6
HETATM    6  C4  UNL     1     -35.044   4.915   4.065  1.00 20.00     0.430 C 
HETATM    7  F6  UNL     1     -36.200   5.490   3.643  1.00 20.00    -0.165 F 
HETATM    8  F7  UNL     1     -34.156   5.049   3.045  1.00 20.00    -0.165 F 
HETATM    9  F8  UNL     1     -35.290   3.584   4.184  1.00 20.00    -0.165 F 
ENDBRANCH   2   6
TORSDOF 1
ENDMDL
