MODEL 1
REMARK VINA RESULT:      -5.4      0.000      0.000
REMARK  0 active torsions:
REMARK  status: ('A' for Active; 'I' for Inactive)
ROOT
HETATM    1  C1  UNL     1     -32.997   6.544   4.157  1.00 20.00     0.145 C 
HETATM    2  C2  UNL     1     -34.029   6.178   4.907  1.00 20.00    -0.034 C 
HETATM    3  C3  UNL     1     -34.255   5.956   6.350  1.00 20.00     0.038 C 
HETATM    4  C4  UNL     1     -35.116   4.679   6.308  1.00 20.00     0.007 C 
HETATM    5  C5  UNL     1     -35.029   4.134   4.866  1.00 20.00     0.034 C 
HETATM    6  C6  UNL     1     -34.917   5.393   4.032  1.00 20.00     0.161 C 
HETATM    7  N7  UNL     1     -33.107   6.051   2.879  1.00 20.00    -0.167 NA
HETATM    8  N8  UNL     1     -34.126   5.293   2.790  1.00 20.00    -0.183 NA
ENDROOT
TORSDOF 0
ENDMDL
MODEL 2
REMARK VINA RESULT:      -4.6      1.970      3.291
REMARK  0 active torsions:
REMARK  status: ('A' for Active; 'I' for Inactive)
ROOT
HETATM    1  C1  UNL     1     -35.168   4.322   4.879  1.00 20.00     0.145 C 
HETATM    2  C2  UNL     1     -34.724   5.301   4.099  1.00 20.00    -0.034 C 
HETATM    3  C3  UNL     1     -34.167   5.388   2.734  1.00 20.00     0.038 C 
HETATM    4  C4  UNL     1     -33.032   6.406   2.957  1.00 20.00     0.007 C 
HETATM    5  C5  UNL     1     -32.864   6.553   4.485  1.00 20.00     0.034 C 
HETATM    6  C6  UNL     1     -34.276   6.376   5.002  1.00 20.00     0.161 C 
HETATM    7  N7  UNL     1     -35.026   4.638   6.208  1.00 20.00    -0.167 NA
HETATM    8  N8  UNL     1     -34.417   5.749   6.330  1.00 20.00    -0.183 NA
ENDROOT
TORSDOF 0
ENDMDL
MODEL 3
REMARK VINA RESULT:      -4.3     12.287     13.312
REMARK  0 active torsions:
REMARK  status: ('A' for Active; 'I' for Inactive)
ROOT
HETATM    1  C1  UNL     1     -35.012  13.605  -5.606  1.00 20.00     0.145 C 
HETATM    2  C2  UNL     1     -34.718  14.845  -5.232  1.00 20.00    -0.034 C 
HETATM    3  C3  UNL     1     -34.255  16.068  -5.918  1.00 20.00     0.038 C 
HETATM    4  C4  UNL     1     -33.218  16.586  -4.903  1.00 20.00     0.007 C 
HETATM    5  C5  UNL     1     -32.975  15.441  -3.895  1.00 20.00     0.034 C 
HETATM    6  C6  UNL     1     -34.329  14.767  -3.813  1.00 20.00     0.161 C 
HETATM    7  N7  UNL     1     -34.825  12.715  -4.576  1.00 20.00    -0.167 NA
HETATM    8  N8  UNL     1     -34.326  13.311  -3.568  1.00 20.00    -0.183 NA
ENDROOT
TORSDOF 0
ENDMDL
MODEL 4
REMARK VINA RESULT:      -4.3      0.859      1.869
REMARK  0 active torsions:
REMARK  status: ('A' for Active; 'I' for Inactive)
ROOT
HETATM    1  C1  UNL     1     -34.203   5.572   2.938  1.00 20.00     0.145 C 
HETATM    2  C2  UNL     1     -34.248   5.091   4.175  1.00 20.00    -0.034 C 
HETATM    3  C3  UNL     1     -35.275   4.437   5.012  1.00 20.00     0.038 C 
HETATM    4  C4  UNL     1     -35.021   5.133   6.364  1.00 20.00     0.007 C 
HETATM    5  C5  UNL     1     -34.088   6.330   6.077  1.00 20.00     0.034 C 
HETATM    6  C6  UNL     1     -33.225   5.824   4.940  1.00 20.00     0.161 C 
HETATM    7  N7  UNL     1     -33.268   6.572   2.824  1.00 20.00    -0.167 NA
HETATM    8  N8  UNL     1     -32.765   6.831   3.965  1.00 20.00    -0.183 NA
ENDROOT
TORSDOF 0
ENDMDL
MODEL 5
REMARK VINA RESULT:      -4.2      2.076      2.839
REMARK  0 active torsions:
REMARK  status: ('A' for Active; 'I' for Inactive)
ROOT
HETATM    1  C1  UNL     1     -33.793   6.544   6.230  1.00 20.00     0.145 C 
HETATM    2  C2  UNL     1     -33.500   6.048   5.034  1.00 20.00    -0.034 C 
HETATM    3  C3  UNL     1     -32.965   6.595   3.770  1.00 20.00     0.038 C 
HETATM    4  C4  UNL     1     -33.855   5.861   2.747  1.00 20.00     0.007 C 
HETATM    5  C5  UNL     1     -35.007   5.213   3.547  1.00 20.00     0.034 C 
HETATM    6  C6  UNL     1     -34.348   4.856   4.863  1.00 20.00     0.161 C 
HETATM    7  N7  UNL     1     -34.775   5.810   6.849  1.00 20.00    -0.167 NA
HETATM    8  N8  UNL     1     -35.205   4.906   6.063  1.00 20.00    -0.183 NA
ENDROOT
TORSDOF 0
ENDMDL
MODEL 6
REMARK VINA RESULT:      -4.1     11.944     12.480
REMARK  0 active torsions:
REMARK  status: ('A' for Active; 'I' for Inactive)
ROOT
HETATM    1  C1  UNL     1     -34.056  13.215  -4.508  1.00 20.00     0.145 C 
HETATM    2  C2  UNL     1     -33.962  14.503  -4.198  1.00 20.00    -0.034 C 
HETATM    3  C3  UNL     1     -32.918  15.370  -3.614  1.00 20.00     0.038 C 
HETATM    4  C4  UNL     1     -33.769  16.234  -2.663  1.00 20.00     0.007 C 
HETATM    5  C5  UNL     1     -35.155  15.559  -2.574  1.00 20.00     0.034 C 
HETATM    6  C6  UNL     1     -35.337  14.971  -3.958  1.00 20.00     0.161 C 
HETATM    7  N7  UNL     1     -35.360  12.785  -4.465  1.00 20.00    -0.167 NA
HETATM    8  N8  UNL     1     -36.115  13.720  -4.044  1.00 20.00    -0.183 NA
ENDROOT
TORSDOF 0
ENDMDL
MODEL 7
REMARK VINA RESULT:      -4.0      9.664     10.545
REMARK  0 active torsions:
REMARK  status: ('A' for Active; 'I' for Inactive)
ROOT
HETATM    1  C1  UNL     1     -42.300   7.273  -2.906  1.00 20.00     0.145 C 
HETATM    2  C2  UNL     1     -42.027   6.465  -1.889  1.00 20.00    -0.034 C 
HETATM    3  C3  UNL     1     -40.911   6.319  -0.932  1.00 20.00     0.038 C 
HETATM    4  C4  UNL     1     -40.781   4.784  -0.884  1.00 20.00     0.007 C 
HETATM    5  C5  UNL     1     -41.626   4.231  -2.052  1.00 20.00     0.034 C 
HETATM    6  C6  UNL     1     -42.770   5.218  -2.142  1.00 20.00     0.161 C 
HETATM    7  N7  UNL     1     -43.129   6.667  -3.818  1.00 20.00    -0.167 NA
HETATM    8  N8  UNL     1     -43.332   5.455  -3.486  1.00 20.00    -0.183 NA
ENDROOT
TORSDOF 0
ENDMDL
MODEL 8
REMARK VINA RESULT:      -4.0     12.192     13.326
REMARK  0 active torsions:
REMARK  status: ('A' for Active; 'I' for Inactive)
ROOT
HETATM    1  C1  UNL     1     -33.515  14.308  -3.795  1.00 20.00     0.145 C 
HETATM    2  C2  UNL     1     -33.903  14.801  -4.965  1.00 20.00    -0.034 C 
HETATM    3  C3  UNL     1     -34.001  16.150  -5.558  1.00 20.00     0.038 C 
HETATM    4  C4  UNL     1     -35.353  16.040  -6.289  1.00 20.00     0.007 C 
HETATM    5  C5  UNL     1     -36.028  14.748  -5.779  1.00 20.00     0.034 C 
HETATM    6  C6  UNL     1     -34.853  13.826  -5.528  1.00 20.00     0.161 C 
HETATM    7  N7  UNL     1     -34.142  13.117  -3.521  1.00 20.00    -0.167 NA
HETATM    8  N8  UNL     1     -35.000  12.857  -4.425  1.00 20.00    -0.183 NA
ENDROOT
TORSDOF 0
ENDMDL
MODEL 9
REMARK VINA RESULT:      -3.9     16.920     17.186
REMARK  0 active torsions:
REMARK  status: ('A' for Active; 'I' for Inactive)
ROOT
HETATM    1  C1  UNL     1     -21.293   9.116  -5.665  1.00 20.00     0.145 C 
HETATM    2  C2  UNL     1     -21.770  10.009  -6.523  1.00 20.00    -0.034 C 
HETATM    3  C3  UNL     1     -22.440  11.321  -6.413  1.00 20.00     0.038 C 
HETATM    4  C4  UNL     1     -23.518  11.180  -7.506  1.00 20.00     0.007 C 
HETATM    5  C5  UNL     1     -23.547   9.689  -7.908  1.00 20.00     0.034 C 
HETATM    6  C6  UNL     1     -22.102   9.265  -7.751  1.00 20.00     0.161 C 
HETATM    7  N7  UNL     1     -21.307   7.851  -6.200  1.00 20.00    -0.167 NA
HETATM    8  N8  UNL     1     -21.866   7.867  -7.343  1.00 20.00    -0.183 NA
ENDROOT
TORSDOF 0
ENDMDL
