MODEL 1
REMARK VINA RESULT:      -4.8      0.000      0.000
REMARK  0 active torsions:
REMARK  status: ('A' for Active; 'I' for Inactive)
ROOT
HETATM    1  C1  UNL     1     -34.507   5.371   3.433  1.00 20.00     0.009 C 
HETATM    2  C2  UNL     1     -33.364   6.184   4.046  1.00 20.00     0.035 C 
HETATM    3  C3  UNL     1     -35.329   4.541   4.438  1.00 20.00     0.082 C 
HETATM    4  C4  UNL     1     -33.809   6.859   5.304  1.00 20.00     0.157 A 
HETATM    5  C5  UNL     1     -34.567   6.017   6.289  1.00 20.00     0.223 A 
HETATM    6  C6  UNL     1     -34.824   4.611   5.873  1.00 20.00     0.271 C 
HETATM    7  O7  UNL     1     -33.200   6.374   6.506  1.00 20.00    -0.369 OA
HETATM    8  F8  UNL     1     -35.736   4.045   6.703  1.00 20.00    -0.203 F 
HETATM    9  F9  UNL     1     -33.690   3.871   5.988  1.00 20.00    -0.203 F 
ENDROOT
TORSDOF 0
ENDMDL
MODEL 2
REMARK VINA RESULT:      -4.8      1.961      2.760
REMARK  0 active torsions:
REMARK  status: ('A' for Active; 'I' for Inactive)
ROOT
HETATM    1  C1  UNL     1     -34.914   4.301   6.002  1.00 20.00     0.009 C 
HETATM    2  C2  UNL     1     -34.634   5.764   6.361  1.00 20.00     0.035 C 
HETATM    3  C3  UNL     1     -34.917   3.990   4.493  1.00 20.00     0.082 C 
HETATM    4  C4  UNL     1     -33.508   6.305   5.539  1.00 20.00     0.157 A 
HETATM    5  C5  UNL     1     -33.559   6.028   4.064  1.00 20.00     0.223 A 
HETATM    6  C6  UNL     1     -34.709   5.206   3.600  1.00 20.00     0.271 C 
HETATM    7  O7  UNL     1     -33.874   7.317   4.595  1.00 20.00    -0.369 OA
HETATM    8  F8  UNL     1     -34.498   4.800   2.322  1.00 20.00    -0.203 F 
HETATM    9  F9  UNL     1     -35.845   5.952   3.582  1.00 20.00    -0.203 F 
ENDROOT
TORSDOF 0
ENDMDL
MODEL 3
REMARK VINA RESULT:      -4.5      2.265      3.404
REMARK  0 active torsions:
REMARK  status: ('A' for Active; 'I' for Inactive)
ROOT
HETATM    1  C1  UNL     1     -34.338   5.704   6.435  1.00 20.00     0.009 C 
HETATM    2  C2  UNL     1     -34.802   4.484   5.634  1.00 20.00     0.035 C 
HETATM    3  C3  UNL     1     -33.626   6.793   5.609  1.00 20.00     0.082 C 
HETATM    4  C4  UNL     1     -35.436   4.905   4.347  1.00 20.00     0.157 A 
HETATM    5  C5  UNL     1     -34.699   5.932   3.538  1.00 20.00     0.223 A 
HETATM    6  C6  UNL     1     -33.438   6.444   4.139  1.00 20.00     0.271 C 
HETATM    7  O7  UNL     1     -34.709   4.552   3.165  1.00 20.00    -0.369 OA
HETATM    8  F8  UNL     1     -33.019   7.543   3.462  1.00 20.00    -0.203 F 
HETATM    9  F9  UNL     1     -32.448   5.520   4.018  1.00 20.00    -0.203 F 
ENDROOT
TORSDOF 0
ENDMDL
MODEL 4
REMARK VINA RESULT:      -4.4     12.860     13.676
REMARK  0 active torsions:
REMARK  status: ('A' for Active; 'I' for Inactive)
ROOT
HETATM    1  C1  UNL     1     -34.725  16.126  -5.365  1.00 20.00     0.009 C 
HETATM    2  C2  UNL     1     -35.768  15.011  -5.241  1.00 20.00     0.035 C 
HETATM    3  C3  UNL     1     -33.407  15.872  -4.609  1.00 20.00     0.082 C 
HETATM    4  C4  UNL     1     -35.128  13.668  -5.393  1.00 20.00     0.157 A 
HETATM    5  C5  UNL     1     -33.870  13.429  -4.610  1.00 20.00     0.223 A 
HETATM    6  C6  UNL     1     -33.384  14.580  -3.802  1.00 20.00     0.271 C 
HETATM    7  O7  UNL     1     -35.120  12.859  -4.212  1.00 20.00    -0.369 OA
HETATM    8  F8  UNL     1     -32.120  14.338  -3.370  1.00 20.00    -0.203 F 
HETATM    9  F9  UNL     1     -34.147  14.731  -2.687  1.00 20.00    -0.203 F 
ENDROOT
TORSDOF 0
ENDMDL
MODEL 5
REMARK VINA RESULT:      -4.3      1.906      2.680
REMARK  0 active torsions:
REMARK  status: ('A' for Active; 'I' for Inactive)
ROOT
HETATM    1  C1  UNL     1     -34.138   5.742   3.471  1.00 20.00     0.009 C 
HETATM    2  C2  UNL     1     -35.314   4.977   4.083  1.00 20.00     0.035 C 
HETATM    3  C3  UNL     1     -33.260   6.505   4.481  1.00 20.00     0.082 C 
HETATM    4  C4  UNL     1     -34.889   4.252   5.320  1.00 20.00     0.157 A 
HETATM    5  C5  UNL     1     -34.075   5.032   6.311  1.00 20.00     0.223 A 
HETATM    6  C6  UNL     1     -33.750   6.431   5.921  1.00 20.00     0.271 C 
HETATM    7  O7  UNL     1     -35.456   4.742   6.539  1.00 20.00    -0.369 OA
HETATM    8  F8  UNL     1     -32.799   6.930   6.751  1.00 20.00    -0.203 F 
HETATM    9  F9  UNL     1     -34.842   7.227   6.068  1.00 20.00    -0.203 F 
ENDROOT
TORSDOF 0
ENDMDL
MODEL 6
REMARK VINA RESULT:      -4.2      2.061      2.856
REMARK  0 active torsions:
REMARK  status: ('A' for Active; 'I' for Inactive)
ROOT
HETATM    1  C1  UNL     1     -35.108   4.188   4.548  1.00 20.00     0.009 C 
HETATM    2  C2  UNL     1     -35.265   4.826   5.931  1.00 20.00     0.035 C 
HETATM    3  C3  UNL     1     -34.357   5.050   3.515  1.00 20.00     0.082 C 
HETATM    4  C4  UNL     1     -33.989   5.475   6.364  1.00 20.00     0.157 A 
HETATM    5  C5  UNL     1     -33.301   6.347   5.355  1.00 20.00     0.223 A 
HETATM    6  C6  UNL     1     -33.954   6.429   4.020  1.00 20.00     0.271 C 
HETATM    7  O7  UNL     1     -34.030   6.903   6.452  1.00 20.00    -0.369 OA
HETATM    8  F8  UNL     1     -33.111   7.011   3.130  1.00 20.00    -0.203 F 
HETATM    9  F9  UNL     1     -35.055   7.226   4.081  1.00 20.00    -0.203 F 
ENDROOT
TORSDOF 0
ENDMDL
MODEL 7
REMARK VINA RESULT:      -4.2     12.865     13.577
REMARK  0 active torsions:
REMARK  status: ('A' for Active; 'I' for Inactive)
ROOT
HETATM    1  C1  UNL     1     -34.341  15.628  -5.818  1.00 20.00     0.009 C 
HETATM    2  C2  UNL     1     -34.964  14.252  -6.069  1.00 20.00     0.035 C 
HETATM    3  C3  UNL     1     -34.242  16.038  -4.336  1.00 20.00     0.082 C 
HETATM    4  C4  UNL     1     -34.429  13.243  -5.104  1.00 20.00     0.157 A 
HETATM    5  C5  UNL     1     -34.386  13.650  -3.659  1.00 20.00     0.223 A 
HETATM    6  C6  UNL     1     -34.846  15.034  -3.364  1.00 20.00     0.271 C 
HETATM    7  O7  UNL     1     -35.377  12.745  -4.154  1.00 20.00    -0.369 OA
HETATM    8  F8  UNL     1     -34.507  15.370  -2.094  1.00 20.00    -0.203 F 
HETATM    9  F9  UNL     1     -36.203  15.104  -3.429  1.00 20.00    -0.203 F 
ENDROOT
TORSDOF 0
ENDMDL
MODEL 8
REMARK VINA RESULT:      -4.2     13.414     14.134
REMARK  0 active torsions:
REMARK  status: ('A' for Active; 'I' for Inactive)
ROOT
HETATM    1  C1  UNL     1     -33.235  15.785  -4.056  1.00 20.00     0.009 C 
HETATM    2  C2  UNL     1     -33.084  14.289  -3.766  1.00 20.00     0.035 C 
HETATM    3  C3  UNL     1     -34.349  16.145  -5.058  1.00 20.00     0.082 C 
HETATM    4  C4  UNL     1     -34.422  13.648  -3.577  1.00 20.00     0.157 A 
HETATM    5  C5  UNL     1     -35.476  13.978  -4.593  1.00 20.00     0.223 A 
HETATM    6  C6  UNL     1     -35.074  14.944  -5.651  1.00 20.00     0.271 C 
HETATM    7  O7  UNL     1     -34.802  12.718  -4.596  1.00 20.00    -0.369 OA
HETATM    8  F8  UNL     1     -36.170  15.366  -6.331  1.00 20.00    -0.203 F 
HETATM    9  F9  UNL     1     -34.268  14.337  -6.563  1.00 20.00    -0.203 F 
ENDROOT
TORSDOF 0
ENDMDL
MODEL 9
REMARK VINA RESULT:      -4.1      9.324     10.192
REMARK  0 active torsions:
REMARK  status: ('A' for Active; 'I' for Inactive)
ROOT
HETATM    1  C1  UNL     1     -42.082   7.139  -2.559  1.00 20.00     0.009 C 
HETATM    2  C2  UNL     1     -42.817   5.799  -2.658  1.00 20.00     0.035 C 
HETATM    3  C3  UNL     1     -41.182   7.298  -1.318  1.00 20.00     0.082 C 
HETATM    4  C4  UNL     1     -41.904   4.667  -2.314  1.00 20.00     0.157 A 
HETATM    5  C5  UNL     1     -41.072   4.826  -1.074  1.00 20.00     0.223 A 
HETATM    6  C6  UNL     1     -41.226   6.119  -0.355  1.00 20.00     0.271 C 
HETATM    7  O7  UNL     1     -42.220   3.975  -1.101  1.00 20.00    -0.369 OA
HETATM    8  F8  UNL     1     -40.241   6.252   0.569  1.00 20.00    -0.203 F 
HETATM    9  F9  UNL     1     -42.400   6.141   0.331  1.00 20.00    -0.203 F 
ENDROOT
TORSDOF 0
ENDMDL
