MODEL 1
REMARK VINA RESULT:      -4.5      0.000      0.000
REMARK  1 active torsions:
REMARK  status: ('A' for Active; 'I' for Inactive)
REMARK    1  A    between atoms: C6_6  and  C8_8 
ROOT
HETATM    1  C1  UNL     1     -34.423   4.864   6.798  1.00 20.00     0.000 C 
HETATM    2  C2  UNL     1     -35.186   3.968   5.830  1.00 20.00     0.001 C 
HETATM    3  C3  UNL     1     -34.348   6.303   6.301  1.00 20.00     0.001 C 
HETATM    4  C4  UNL     1     -34.611   4.043   4.416  1.00 20.00     0.010 C 
HETATM    5  C5  UNL     1     -33.770   6.383   4.888  1.00 20.00     0.010 C 
HETATM    6  C6  UNL     1     -34.511   5.485   3.870  1.00 20.00    -0.032 C 
HETATM    7  C7  UNL     1     -35.913   6.049   3.571  1.00 20.00     0.016 C 
ENDROOT
BRANCH   6   8
HETATM    8  C8  UNL     1     -33.718   5.466   2.550  1.00 20.00     0.123 C 
HETATM    9 CL9  UNL     1     -32.262   6.455   2.715  1.00 20.00    -0.130 Cl
ENDBRANCH   6   8
TORSDOF 1
ENDMDL
MODEL 2
REMARK VINA RESULT:      -4.3      1.189      2.287
REMARK  1 active torsions:
REMARK  status: ('A' for Active; 'I' for Inactive)
REMARK    1  A    between atoms: C6_6  and  C8_8 
ROOT
HETATM    1  C1  UNL     1     -35.159   4.649   5.978  1.00 20.00     0.000 C 
HETATM    2  C2  UNL     1     -33.926   5.457   6.368  1.00 20.00     0.001 C 
HETATM    3  C3  UNL     1     -35.134   4.251   4.506  1.00 20.00     0.001 C 
HETATM    4  C4  UNL     1     -33.735   6.672   5.461  1.00 20.00     0.010 C 
HETATM    5  C5  UNL     1     -34.946   5.465   3.596  1.00 20.00     0.010 C 
HETATM    6  C6  UNL     1     -33.708   6.318   3.957  1.00 20.00    -0.032 C 
HETATM    7  C7  UNL     1     -32.411   5.567   3.602  1.00 20.00     0.016 C 
ENDROOT
BRANCH   6   8
HETATM    8  C8  UNL     1     -33.742   7.621   3.136  1.00 20.00     0.123 C 
HETATM    9 CL9  UNL     1     -32.176   7.873   2.355  1.00 20.00    -0.130 Cl
ENDBRANCH   6   8
TORSDOF 1
ENDMDL
MODEL 3
REMARK VINA RESULT:      -4.2     12.307     13.348
REMARK  1 active torsions:
REMARK  status: ('A' for Active; 'I' for Inactive)
REMARK    1  A    between atoms: C6_6  and  C8_8 
ROOT
HETATM    1  C1  UNL     1     -34.600  13.350  -4.503  1.00 20.00     0.000 C 
HETATM    2  C2  UNL     1     -35.803  14.218  -4.152  1.00 20.00     0.001 C 
HETATM    3  C3  UNL     1     -33.378  13.705  -3.663  1.00 20.00     0.001 C 
HETATM    4  C4  UNL     1     -35.473  15.707  -4.245  1.00 20.00     0.010 C 
HETATM    5  C5  UNL     1     -33.044  15.194  -3.755  1.00 20.00     0.010 C 
HETATM    6  C6  UNL     1     -34.237  16.115  -3.411  1.00 20.00    -0.032 C 
HETATM    7  C7  UNL     1     -34.555  16.049  -1.905  1.00 20.00     0.016 C 
ENDROOT
BRANCH   6   8
HETATM    8  C8  UNL     1     -33.861  17.569  -3.753  1.00 20.00     0.123 C 
HETATM    9 CL9  UNL     1     -33.463  17.694  -5.470  1.00 20.00    -0.130 Cl
ENDBRANCH   6   8
TORSDOF 1
ENDMDL
MODEL 4
REMARK VINA RESULT:      -4.1     12.032     13.019
REMARK  1 active torsions:
REMARK  status: ('A' for Active; 'I' for Inactive)
REMARK    1  A    between atoms: C6_6  and  C8_8 
ROOT
HETATM    1  C1  UNL     1     -35.273  13.371  -4.142  1.00 20.00     0.000 C 
HETATM    2  C2  UNL     1     -33.848  13.799  -4.475  1.00 20.00     0.001 C 
HETATM    3  C3  UNL     1     -36.207  14.567  -3.996  1.00 20.00     0.001 C 
HETATM    4  C4  UNL     1     -33.311  14.811  -3.463  1.00 20.00     0.010 C 
HETATM    5  C5  UNL     1     -35.673  15.579  -2.983  1.00 20.00     0.010 C 
HETATM    6  C6  UNL     1     -34.227  16.041  -3.278  1.00 20.00    -0.032 C 
HETATM    7  C7  UNL     1     -34.190  16.936  -4.531  1.00 20.00     0.016 C 
ENDROOT
BRANCH   6   8
HETATM    8  C8  UNL     1     -33.714  16.872  -2.087  1.00 20.00     0.123 C 
HETATM    9 CL9  UNL     1     -34.702  16.540  -0.659  1.00 20.00    -0.130 Cl
ENDBRANCH   6   8
TORSDOF 1
ENDMDL
MODEL 5
REMARK VINA RESULT:      -4.1     12.350     13.468
REMARK  1 active torsions:
REMARK  status: ('A' for Active; 'I' for Inactive)
REMARK    1  A    between atoms: C6_6  and  C8_8 
ROOT
HETATM    1  C1  UNL     1     -35.368  14.219  -5.914  1.00 20.00     0.000 C 
HETATM    2  C2  UNL     1     -35.204  13.584  -4.538  1.00 20.00     0.001 C 
HETATM    3  C3  UNL     1     -34.194  15.125  -6.266  1.00 20.00     0.001 C 
HETATM    4  C4  UNL     1     -34.962  14.635  -3.456  1.00 20.00     0.010 C 
HETATM    5  C5  UNL     1     -33.952  16.180  -5.186  1.00 20.00     0.010 C 
HETATM    6  C6  UNL     1     -33.782  15.582  -3.770  1.00 20.00    -0.032 C 
HETATM    7  C7  UNL     1     -32.442  14.831  -3.657  1.00 20.00     0.016 C 
ENDROOT
BRANCH   6   8
HETATM    8  C8  UNL     1     -33.772  16.727  -2.741  1.00 20.00     0.123 C 
HETATM    9 CL9  UNL     1     -34.689  16.248  -1.307  1.00 20.00    -0.130 Cl
ENDBRANCH   6   8
TORSDOF 1
ENDMDL
MODEL 6
REMARK VINA RESULT:      -4.1      8.847     10.274
REMARK  1 active torsions:
REMARK  status: ('A' for Active; 'I' for Inactive)
REMARK    1  A    between atoms: C6_6  and  C8_8 
ROOT
HETATM    1  C1  UNL     1     -41.151   7.148  -1.015  1.00 20.00     0.000 C 
HETATM    2  C2  UNL     1     -40.744   5.937  -0.183  1.00 20.00     0.001 C 
HETATM    3  C3  UNL     1     -42.473   6.921  -1.740  1.00 20.00     0.001 C 
HETATM    4  C4  UNL     1     -40.712   4.659  -1.020  1.00 20.00     0.010 C 
HETATM    5  C5  UNL     1     -42.443   5.645  -2.581  1.00 20.00     0.010 C 
HETATM    6  C6  UNL     1     -42.031   4.388  -1.779  1.00 20.00    -0.032 C 
HETATM    7  C7  UNL     1     -43.147   3.984  -0.796  1.00 20.00     0.016 C 
ENDROOT
BRANCH   6   8
HETATM    8  C8  UNL     1     -41.815   3.219  -2.757  1.00 20.00     0.123 C 
HETATM    9 CL9  UNL     1     -43.179   3.119  -3.877  1.00 20.00    -0.130 Cl
ENDBRANCH   6   8
TORSDOF 1
ENDMDL
MODEL 7
REMARK VINA RESULT:      -4.0     12.096     13.359
REMARK  1 active torsions:
REMARK  status: ('A' for Active; 'I' for Inactive)
REMARK    1  A    between atoms: C6_6  and  C8_8 
ROOT
HETATM    1  C1  UNL     1     -33.682  17.481  -3.614  1.00 20.00     0.000 C 
HETATM    2  C2  UNL     1     -33.314  16.695  -4.867  1.00 20.00     0.001 C 
HETATM    3  C3  UNL     1     -33.819  16.576  -2.395  1.00 20.00     0.001 C 
HETATM    4  C4  UNL     1     -34.294  15.551  -5.125  1.00 20.00     0.010 C 
HETATM    5  C5  UNL     1     -34.801  15.433  -2.649  1.00 20.00     0.010 C 
HETATM    6  C6  UNL     1     -34.470  14.607  -3.914  1.00 20.00    -0.032 C 
HETATM    7  C7  UNL     1     -33.198  13.767  -3.694  1.00 20.00     0.016 C 
ENDROOT
BRANCH   6   8
HETATM    8  C8  UNL     1     -35.634  13.640  -4.199  1.00 20.00     0.123 C 
HETATM    9 CL9  UNL     1     -37.174  14.484  -4.000  1.00 20.00    -0.130 Cl
ENDBRANCH   6   8
TORSDOF 1
ENDMDL
MODEL 8
REMARK VINA RESULT:      -3.9     12.204     13.614
REMARK  1 active torsions:
REMARK  status: ('A' for Active; 'I' for Inactive)
REMARK    1  A    between atoms: C6_6  and  C8_8 
ROOT
HETATM    1  C1  UNL     1     -32.983  15.024  -3.562  1.00 20.00     0.000 C 
HETATM    2  C2  UNL     1     -33.233  16.093  -4.621  1.00 20.00     0.001 C 
HETATM    3  C3  UNL     1     -33.626  13.693  -3.936  1.00 20.00     0.001 C 
HETATM    4  C4  UNL     1     -34.722  16.254  -4.922  1.00 20.00     0.010 C 
HETATM    5  C5  UNL     1     -35.117  13.851  -4.235  1.00 20.00     0.010 C 
HETATM    6  C6  UNL     1     -35.419  14.929  -5.302  1.00 20.00    -0.032 C 
HETATM    7  C7  UNL     1     -34.959  14.456  -6.694  1.00 20.00     0.016 C 
ENDROOT
BRANCH   6   8
HETATM    8  C8  UNL     1     -36.941  15.162  -5.360  1.00 20.00     0.123 C 
HETATM    9 CL9  UNL     1     -37.670  14.726  -3.810  1.00 20.00    -0.130 Cl
ENDBRANCH   6   8
TORSDOF 1
ENDMDL
MODEL 9
REMARK VINA RESULT:      -3.9     12.202     13.439
REMARK  1 active torsions:
REMARK  status: ('A' for Active; 'I' for Inactive)
REMARK    1  A    between atoms: C6_6  and  C8_8 
ROOT
HETATM    1  C1  UNL     1     -32.647  14.820  -3.674  1.00 20.00     0.000 C 
HETATM    2  C2  UNL     1     -33.503  13.558  -3.709  1.00 20.00     0.001 C 
HETATM    3  C3  UNL     1     -33.495  16.084  -3.767  1.00 20.00     0.001 C 
HETATM    4  C4  UNL     1     -34.419  13.530  -4.931  1.00 20.00     0.010 C 
HETATM    5  C5  UNL     1     -34.411  16.059  -4.991  1.00 20.00     0.010 C 
HETATM    6  C6  UNL     1     -35.297  14.794  -5.071  1.00 20.00    -0.032 C 
HETATM    7  C7  UNL     1     -36.382  14.823  -3.978  1.00 20.00     0.016 C 
ENDROOT
BRANCH   6   8
HETATM    8  C8  UNL     1     -36.004  14.763  -6.439  1.00 20.00     0.123 C 
HETATM    9 CL9  UNL     1     -34.807  14.906  -7.731  1.00 20.00    -0.130 Cl
ENDBRANCH   6   8
TORSDOF 1
ENDMDL
