MODEL 1
REMARK VINA RESULT:      -4.4      0.000      0.000
REMARK  0 active torsions:
REMARK  status: ('A' for Active; 'I' for Inactive)
ROOT
HETATM    1  C1  UNL     1     -33.761   6.096   4.167  1.00 20.00     0.164 C 
HETATM    2  C2  UNL     1     -33.904   6.644   5.565  1.00 20.00     0.107 C 
HETATM    3  C3  UNL     1     -34.209   5.505   6.522  1.00 20.00     0.175 C 
HETATM    4  C4  UNL     1     -35.108   4.111   4.838  1.00 20.00     0.212 C 
HETATM    5  C5  UNL     1     -34.820   5.112   3.731  1.00 20.00     0.263 C 
HETATM    6  O6  UNL     1     -32.904   6.512   3.391  1.00 20.00    -0.295 OA
HETATM    7  O7  UNL     1     -35.355   4.775   6.080  1.00 20.00    -0.388 OA
HETATM    8  F8  UNL     1     -35.975   5.771   3.433  1.00 20.00    -0.239 F 
ENDROOT
TORSDOF 0
ENDMDL
MODEL 2
REMARK VINA RESULT:      -4.1      1.924      2.613
REMARK  0 active torsions:
REMARK  status: ('A' for Active; 'I' for Inactive)
ROOT
HETATM    1  C1  UNL     1     -33.954   6.283   5.745  1.00 20.00     0.164 C 
HETATM    2  C2  UNL     1     -33.057   6.489   4.549  1.00 20.00     0.107 C 
HETATM    3  C3  UNL     1     -33.862   6.290   3.277  1.00 20.00     0.175 C 
HETATM    4  C4  UNL     1     -35.491   4.934   4.323  1.00 20.00     0.212 C 
HETATM    5  C5  UNL     1     -34.853   5.071   5.696  1.00 20.00     0.263 C 
HETATM    6  O6  UNL     1     -33.875   6.992   6.746  1.00 20.00    -0.295 OA
HETATM    7  O7  UNL     1     -34.507   5.015   3.289  1.00 20.00    -0.388 OA
HETATM    8  F8  UNL     1     -34.132   3.944   5.953  1.00 20.00    -0.239 F 
ENDROOT
TORSDOF 0
ENDMDL
MODEL 3
REMARK VINA RESULT:      -4.0     12.346     13.384
REMARK  0 active torsions:
REMARK  status: ('A' for Active; 'I' for Inactive)
ROOT
HETATM    1  C1  UNL     1     -34.508  13.670  -4.573  1.00 20.00     0.164 C 
HETATM    2  C2  UNL     1     -33.240  13.979  -3.817  1.00 20.00     0.107 C 
HETATM    3  C3  UNL     1     -33.234  15.446  -3.424  1.00 20.00     0.175 C 
HETATM    4  C4  UNL     1     -34.720  16.084  -5.149  1.00 20.00     0.212 C 
HETATM    5  C5  UNL     1     -34.896  14.658  -5.646  1.00 20.00     0.263 C 
HETATM    6  O6  UNL     1     -35.124  12.619  -4.405  1.00 20.00    -0.295 OA
HETATM    7  O7  UNL     1     -33.424  16.271  -4.576  1.00 20.00    -0.388 OA
HETATM    8  F8  UNL     1     -34.113  14.483  -6.747  1.00 20.00    -0.239 F 
ENDROOT
TORSDOF 0
ENDMDL
MODEL 4
REMARK VINA RESULT:      -4.0      1.765      2.395
REMARK  0 active torsions:
REMARK  status: ('A' for Active; 'I' for Inactive)
ROOT
HETATM    1  C1  UNL     1     -35.013   5.462   4.037  1.00 20.00     0.164 C 
HETATM    2  C2  UNL     1     -35.130   4.148   4.769  1.00 20.00     0.107 C 
HETATM    3  C3  UNL     1     -35.082   4.401   6.266  1.00 20.00     0.175 C 
HETATM    4  C4  UNL     1     -33.928   6.453   6.049  1.00 20.00     0.212 C 
HETATM    5  C5  UNL     1     -33.936   6.399   4.530  1.00 20.00     0.263 C 
HETATM    6  O6  UNL     1     -35.673   5.705   3.030  1.00 20.00    -0.295 OA
HETATM    7  O7  UNL     1     -33.906   5.138   6.609  1.00 20.00    -0.388 OA
HETATM    8  F8  UNL     1     -32.714   5.971   4.105  1.00 20.00    -0.239 F 
ENDROOT
TORSDOF 0
ENDMDL
MODEL 5
REMARK VINA RESULT:      -3.8     11.992     13.109
REMARK  0 active torsions:
REMARK  status: ('A' for Active; 'I' for Inactive)
ROOT
HETATM    1  C1  UNL     1     -33.550  13.846  -3.869  1.00 20.00     0.164 C 
HETATM    2  C2  UNL     1     -35.018  13.654  -4.161  1.00 20.00     0.107 C 
HETATM    3  C3  UNL     1     -35.437  14.599  -5.273  1.00 20.00     0.175 C 
HETATM    4  C4  UNL     1     -33.682  16.128  -4.860  1.00 20.00     0.212 C 
HETATM    5  C5  UNL     1     -33.082  15.277  -3.752  1.00 20.00     0.263 C 
HETATM    6  O6  UNL     1     -32.807  12.898  -3.626  1.00 20.00    -0.295 OA
HETATM    7  O7  UNL     1     -35.098  15.946  -4.936  1.00 20.00    -0.388 OA
HETATM    8  F8  UNL     1     -33.463  15.796  -2.552  1.00 20.00    -0.239 F 
ENDROOT
TORSDOF 0
ENDMDL
MODEL 6
REMARK VINA RESULT:      -3.8     12.222     13.421
REMARK  0 active torsions:
REMARK  status: ('A' for Active; 'I' for Inactive)
ROOT
HETATM    1  C1  UNL     1     -34.576  13.738  -4.764  1.00 20.00     0.164 C 
HETATM    2  C2  UNL     1     -35.101  14.682  -5.817  1.00 20.00     0.107 C 
HETATM    3  C3  UNL     1     -34.045  15.729  -6.125  1.00 20.00     0.175 C 
HETATM    4  C4  UNL     1     -32.965  15.493  -4.035  1.00 20.00     0.212 C 
HETATM    5  C5  UNL     1     -33.897  14.381  -3.579  1.00 20.00     0.263 C 
HETATM    6  O6  UNL     1     -34.791  12.529  -4.811  1.00 20.00    -0.295 OA
HETATM    7  O7  UNL     1     -33.633  16.390  -4.926  1.00 20.00    -0.388 OA
HETATM    8  F8  UNL     1     -34.828  14.914  -2.740  1.00 20.00    -0.239 F 
ENDROOT
TORSDOF 0
ENDMDL
MODEL 7
REMARK VINA RESULT:      -3.7      1.510      3.224
REMARK  0 active torsions:
REMARK  status: ('A' for Active; 'I' for Inactive)
ROOT
HETATM    1  C1  UNL     1     -34.799   4.883   5.477  1.00 20.00     0.164 C 
HETATM    2  C2  UNL     1     -35.536   5.117   4.181  1.00 20.00     0.107 C 
HETATM    3  C3  UNL     1     -34.549   5.561   3.116  1.00 20.00     0.175 C 
HETATM    4  C4  UNL     1     -32.976   6.381   4.679  1.00 20.00     0.212 C 
HETATM    5  C5  UNL     1     -33.807   5.949   5.876  1.00 20.00     0.263 C 
HETATM    6  O6  UNL     1     -35.074   3.942   6.219  1.00 20.00    -0.295 OA
HETATM    7  O7  UNL     1     -33.811   6.701   3.563  1.00 20.00    -0.388 OA
HETATM    8  F8  UNL     1     -34.464   7.039   6.363  1.00 20.00    -0.239 F 
ENDROOT
TORSDOF 0
ENDMDL
MODEL 8
REMARK VINA RESULT:      -3.7      8.584      9.497
REMARK  0 active torsions:
REMARK  status: ('A' for Active; 'I' for Inactive)
ROOT
HETATM    1  C1  UNL     1     -41.724   4.901  -0.196  1.00 20.00     0.164 C 
HETATM    2  C2  UNL     1     -40.802   6.076   0.018  1.00 20.00     0.107 C 
HETATM    3  C3  UNL     1     -41.189   7.197  -0.930  1.00 20.00     0.175 C 
HETATM    4  C4  UNL     1     -42.226   5.749  -2.484  1.00 20.00     0.212 C 
HETATM    5  C5  UNL     1     -41.978   4.513  -1.633  1.00 20.00     0.263 C 
HETATM    6  O6  UNL     1     -42.148   4.229   0.741  1.00 20.00    -0.295 OA
HETATM    7  O7  UNL     1     -41.203   6.726  -2.280  1.00 20.00    -0.388 OA
HETATM    8  F8  UNL     1     -40.900   3.851  -2.136  1.00 20.00    -0.239 F 
ENDROOT
TORSDOF 0
ENDMDL
MODEL 9
REMARK VINA RESULT:      -3.7      1.569      2.089
REMARK  0 active torsions:
REMARK  status: ('A' for Active; 'I' for Inactive)
ROOT
HETATM    1  C1  UNL     1     -33.882   6.310   5.884  1.00 20.00     0.164 C 
HETATM    2  C2  UNL     1     -34.921   5.356   6.420  1.00 20.00     0.107 C 
HETATM    3  C3  UNL     1     -34.905   4.081   5.596  1.00 20.00     0.175 C 
HETATM    4  C4  UNL     1     -33.966   5.125   3.694  1.00 20.00     0.212 C 
HETATM    5  C5  UNL     1     -33.848   6.475   4.383  1.00 20.00     0.263 C 
HETATM    6  O6  UNL     1     -33.185   6.997   6.628  1.00 20.00    -0.295 OA
HETATM    7  O7  UNL     1     -35.074   4.381   4.209  1.00 20.00    -0.388 OA
HETATM    8  F8  UNL     1     -34.883   7.261   3.976  1.00 20.00    -0.239 F 
ENDROOT
TORSDOF 0
ENDMDL
