MODEL 1
REMARK VINA RESULT:      -3.7      0.000      0.000
REMARK  1 active torsions:
REMARK  status: ('A' for Active; 'I' for Inactive)
REMARK    1  A    between atoms: C5_5  and  C6_6 
ROOT
HETATM    1  C1  UNL     1     -33.878  13.796  -4.107  1.00 20.00     0.015 C 
HETATM    2  C2  UNL     1     -33.351  16.263  -4.452  1.00 20.00     0.015 C 
HETATM    3  C3  UNL     1     -34.898  13.745  -5.239  1.00 20.00     0.074 C 
HETATM    4  C4  UNL     1     -34.327  16.419  -5.611  1.00 20.00     0.074 C 
HETATM    5  C5  UNL     1     -33.727  15.170  -3.438  1.00 20.00    -0.003 C 
HETATM    6  S7  UNL     1     -34.481  14.892  -6.580  1.00 20.00    -0.169 SA
ENDROOT
BRANCH   5   7
HETATM    7  C6  UNL     1     -34.968  15.549  -2.627  1.00 20.00     0.089 C 
HETATM    8 BR8  UNL     1     -34.456  16.734  -1.182  1.00 20.00    -0.096 Br
ENDBRANCH   5   7
TORSDOF 1
ENDMDL
MODEL 2
REMARK VINA RESULT:      -3.6     12.480     13.277
REMARK  1 active torsions:
REMARK  status: ('A' for Active; 'I' for Inactive)
REMARK    1  A    between atoms: C5_5  and  C6_6 
ROOT
HETATM    1  C1  UNL     1     -35.191   5.480   3.694  1.00 20.00     0.015 C 
HETATM    2  C2  UNL     1     -34.052   6.776   5.566  1.00 20.00     0.015 C 
HETATM    3  C3  UNL     1     -35.024   4.129   4.382  1.00 20.00     0.074 C 
HETATM    4  C4  UNL     1     -33.789   5.535   6.411  1.00 20.00     0.074 C 
HETATM    5  C5  UNL     1     -34.120   6.521   4.052  1.00 20.00    -0.003 C 
HETATM    6  S7  UNL     1     -35.078   4.277   6.189  1.00 20.00    -0.169 SA
ENDROOT
BRANCH   5   7
HETATM    7  C6  UNL     1     -32.751   6.153   3.475  1.00 20.00     0.089 C 
HETATM    8 BR8  UNL     1     -32.023   7.676   2.526  1.00 20.00    -0.096 Br
ENDBRANCH   5   7
TORSDOF 1
ENDMDL
MODEL 3
REMARK VINA RESULT:      -3.4      2.809      3.476
REMARK  1 active torsions:
REMARK  status: ('A' for Active; 'I' for Inactive)
REMARK    1  A    between atoms: C5_5  and  C6_6 
ROOT
HETATM    1  C1  UNL     1     -33.253  15.977  -3.660  1.00 20.00     0.015 C 
HETATM    2  C2  UNL     1     -34.695  16.358  -1.597  1.00 20.00     0.015 C 
HETATM    3  C3  UNL     1     -33.669  17.285  -4.324  1.00 20.00     0.074 C 
HETATM    4  C4  UNL     1     -35.232  17.697  -2.087  1.00 20.00     0.074 C 
HETATM    5  C5  UNL     1     -34.301  15.376  -2.711  1.00 20.00    -0.003 C 
HETATM    6  S7  UNL     1     -34.019  18.583  -3.106  1.00 20.00    -0.169 SA
ENDROOT
BRANCH   5   7
HETATM    7  C6  UNL     1     -35.524  14.854  -3.469  1.00 20.00     0.089 C 
HETATM    8 BR8  UNL     1     -34.994  13.383  -4.613  1.00 20.00    -0.096 Br
ENDBRANCH   5   7
TORSDOF 1
ENDMDL
MODEL 4
REMARK VINA RESULT:      -3.4      1.209      1.549
REMARK  1 active torsions:
REMARK  status: ('A' for Active; 'I' for Inactive)
REMARK    1  A    between atoms: C5_5  and  C6_6 
ROOT
HETATM    1  C1  UNL     1     -33.051  14.965  -3.548  1.00 20.00     0.015 C 
HETATM    2  C2  UNL     1     -33.804  16.130  -5.683  1.00 20.00     0.015 C 
HETATM    3  C3  UNL     1     -34.201  13.963  -3.562  1.00 20.00     0.074 C 
HETATM    4  C4  UNL     1     -35.016  15.227  -5.875  1.00 20.00     0.074 C 
HETATM    5  C5  UNL     1     -33.361  16.309  -4.222  1.00 20.00    -0.003 C 
HETATM    6  S7  UNL     1     -34.720  13.549  -5.250  1.00 20.00    -0.169 SA
ENDROOT
BRANCH   5   7
HETATM    7  C6  UNL     1     -34.372  17.130  -3.418  1.00 20.00     0.089 C 
HETATM    8 BR8  UNL     1     -33.875  17.108  -1.546  1.00 20.00    -0.096 Br
ENDBRANCH   5   7
TORSDOF 1
ENDMDL
MODEL 5
REMARK VINA RESULT:      -3.4      1.448      2.044
REMARK  1 active torsions:
REMARK  status: ('A' for Active; 'I' for Inactive)
REMARK    1  A    between atoms: C5_5  and  C6_6 
ROOT
HETATM    1  C1  UNL     1     -36.331  14.972  -3.499  1.00 20.00     0.015 C 
HETATM    2  C2  UNL     1     -34.439  13.744  -4.682  1.00 20.00     0.015 C 
HETATM    3  C3  UNL     1     -36.613  15.896  -4.679  1.00 20.00     0.074 C 
HETATM    4  C4  UNL     1     -34.563  14.565  -5.960  1.00 20.00     0.074 C 
HETATM    5  C5  UNL     1     -34.881  14.475  -3.404  1.00 20.00    -0.003 C 
HETATM    6  S7  UNL     1     -36.272  15.090  -6.268  1.00 20.00    -0.169 SA
ENDROOT
BRANCH   5   7
HETATM    7  C6  UNL     1     -33.915  15.602  -3.031  1.00 20.00     0.089 C 
HETATM    8 BR8  UNL     1     -34.560  16.502  -1.441  1.00 20.00    -0.096 Br
ENDBRANCH   5   7
TORSDOF 1
ENDMDL
MODEL 6
REMARK VINA RESULT:      -3.3      1.080      2.268
REMARK  1 active torsions:
REMARK  status: ('A' for Active; 'I' for Inactive)
REMARK    1  A    between atoms: C5_5  and  C6_6 
ROOT
HETATM    1  C1  UNL     1     -36.025  16.122  -4.516  1.00 20.00     0.015 C 
HETATM    2  C2  UNL     1     -35.512  13.672  -4.048  1.00 20.00     0.015 C 
HETATM    3  C3  UNL     1     -35.168  16.172  -5.776  1.00 20.00     0.074 C 
HETATM    4  C4  UNL     1     -34.613  13.517  -5.268  1.00 20.00     0.074 C 
HETATM    5  C5  UNL     1     -35.570  15.094  -3.469  1.00 20.00    -0.003 C 
HETATM    6  S7  UNL     1     -35.141  14.578  -6.642  1.00 20.00    -0.169 SA
ENDROOT
BRANCH   5   7
HETATM    7  C6  UNL     1     -34.246  15.496  -2.814  1.00 20.00     0.089 C 
HETATM    8 BR8  UNL     1     -34.605  16.596  -1.260  1.00 20.00    -0.096 Br
ENDBRANCH   5   7
TORSDOF 1
ENDMDL
MODEL 7
REMARK VINA RESULT:      -3.2      3.104      3.767
REMARK  1 active torsions:
REMARK  status: ('A' for Active; 'I' for Inactive)
REMARK    1  A    between atoms: C5_5  and  C6_6 
ROOT
HETATM    1  C1  UNL     1     -33.869  13.744  -4.192  1.00 20.00     0.015 C 
HETATM    2  C2  UNL     1     -36.228  14.609  -4.602  1.00 20.00     0.015 C 
HETATM    3  C3  UNL     1     -33.416  15.008  -3.468  1.00 20.00     0.074 C 
HETATM    4  C4  UNL     1     -35.973  15.944  -3.914  1.00 20.00     0.074 C 
HETATM    5  C5  UNL     1     -34.983  13.960  -5.226  1.00 20.00    -0.003 C 
HETATM    6  S7  UNL     1     -34.775  15.793  -2.559  1.00 20.00    -0.169 SA
ENDROOT
BRANCH   5   7
HETATM    7  C6  UNL     1     -34.486  14.740  -6.446  1.00 20.00     0.089 C 
HETATM    8 BR8  UNL     1     -35.799  14.621  -7.865  1.00 20.00    -0.096 Br
ENDBRANCH   5   7
TORSDOF 1
ENDMDL
MODEL 8
REMARK VINA RESULT:      -3.2      2.994      3.907
REMARK  1 active torsions:
REMARK  status: ('A' for Active; 'I' for Inactive)
REMARK    1  A    between atoms: C5_5  and  C6_6 
ROOT
HETATM    1  C1  UNL     1     -34.017  15.514  -6.335  1.00 20.00     0.015 C 
HETATM    2  C2  UNL     1     -34.754  13.418  -5.091  1.00 20.00     0.015 C 
HETATM    3  C3  UNL     1     -33.691  16.286  -5.060  1.00 20.00     0.074 C 
HETATM    4  C4  UNL     1     -34.492  14.014  -3.713  1.00 20.00     0.074 C 
HETATM    5  C5  UNL     1     -35.108  14.445  -6.178  1.00 20.00    -0.003 C 
HETATM    6  S7  UNL     1     -33.112  15.193  -3.734  1.00 20.00    -0.169 SA
ENDROOT
BRANCH   5   7
HETATM    7  C6  UNL     1     -36.487  15.068  -5.946  1.00 20.00     0.089 C 
HETATM    8 BR8  UNL     1     -37.423  15.207  -7.636  1.00 20.00    -0.096 Br
ENDBRANCH   5   7
TORSDOF 1
ENDMDL
MODEL 9
REMARK VINA RESULT:      -3.1      3.017      3.808
REMARK  1 active torsions:
REMARK  status: ('A' for Active; 'I' for Inactive)
REMARK    1  A    between atoms: C5_5  and  C6_6 
ROOT
HETATM    1  C1  UNL     1     -33.178  16.293  -4.959  1.00 20.00     0.015 C 
HETATM    2  C2  UNL     1     -34.290  14.698  -3.315  1.00 20.00     0.015 C 
HETATM    3  C3  UNL     1     -33.765  17.542  -4.310  1.00 20.00     0.074 C 
HETATM    4  C4  UNL     1     -34.970  15.812  -2.529  1.00 20.00     0.074 C 
HETATM    5  C5  UNL     1     -34.026  15.023  -4.793  1.00 20.00    -0.003 C 
HETATM    6  S7  UNL     1     -33.985  17.337  -2.522  1.00 20.00    -0.169 SA
ENDROOT
BRANCH   5   7
HETATM    7  C6  UNL     1     -35.325  15.095  -5.600  1.00 20.00     0.089 C 
HETATM    8 BR8  UNL     1     -34.922  14.903  -7.485  1.00 20.00    -0.096 Br
ENDBRANCH   5   7
TORSDOF 1
ENDMDL
