MODEL 1
REMARK VINA RESULT:      -5.4      0.000      0.000
REMARK  1 active torsions:
REMARK  status: ('A' for Active; 'I' for Inactive)
REMARK    1  A    between atoms: C1_1  and  C3_3 
ROOT
HETATM    1  C1  UNL     1     -34.119   6.124   4.661  1.00 20.00     0.143 C 
HETATM    2  C2  UNL     1     -34.216   6.216   5.992  1.00 20.00     0.190 C 
HETATM    3  F4  UNL     1     -35.089   5.436   6.666  1.00 20.00    -0.193 F 
HETATM    4 CL8  UNL     1     -33.239   7.322   6.882  1.00 20.00    -0.051 Cl
ENDROOT
BRANCH   1   5
HETATM    5  C3  UNL     1     -34.917   5.203   3.806  1.00 20.00     0.411 C 
HETATM    6  F5  UNL     1     -35.058   3.958   4.330  1.00 20.00    -0.167 F 
HETATM    7  F6  UNL     1     -34.350   5.050   2.583  1.00 20.00    -0.167 F 
HETATM    8  F7  UNL     1     -36.170   5.683   3.599  1.00 20.00    -0.167 F 
ENDBRANCH   1   5
TORSDOF 1
ENDMDL
MODEL 2
REMARK VINA RESULT:      -5.4      1.776      3.043
REMARK  1 active torsions:
REMARK  status: ('A' for Active; 'I' for Inactive)
REMARK    1  A    between atoms: C1_1  and  C3_3 
ROOT
HETATM    1  C1  UNL     1     -33.757   6.056   4.756  1.00 20.00     0.143 C 
HETATM    2  C2  UNL     1     -33.424   6.080   3.461  1.00 20.00     0.190 C 
HETATM    3  F4  UNL     1     -34.017   5.235   2.590  1.00 20.00    -0.193 F 
HETATM    4 CL8  UNL     1     -32.237   7.180   2.867  1.00 20.00    -0.051 Cl
ENDROOT
BRANCH   1   5
HETATM    5  C3  UNL     1     -34.767   5.146   5.364  1.00 20.00     0.411 C 
HETATM    6  F5  UNL     1     -35.911   5.043   4.641  1.00 20.00    -0.167 F 
HETATM    7  F6  UNL     1     -35.124   5.564   6.604  1.00 20.00    -0.167 F 
HETATM    8  F7  UNL     1     -34.277   3.888   5.502  1.00 20.00    -0.167 F 
ENDBRANCH   1   5
TORSDOF 1
ENDMDL
MODEL 3
REMARK VINA RESULT:      -5.4      1.723      2.776
REMARK  1 active torsions:
REMARK  status: ('A' for Active; 'I' for Inactive)
REMARK    1  A    between atoms: C1_1  and  C3_3 
ROOT
HETATM    1  C1  UNL     1     -33.795   5.965   4.774  1.00 20.00     0.143 C 
HETATM    2  C2  UNL     1     -33.444   6.042   3.485  1.00 20.00     0.190 C 
HETATM    3  F4  UNL     1     -34.050   5.259   2.567  1.00 20.00    -0.193 F 
HETATM    4 CL8  UNL     1     -32.218   7.134   2.960  1.00 20.00    -0.051 Cl
ENDROOT
BRANCH   1   5
HETATM    5  C3  UNL     1     -34.839   5.057   5.324  1.00 20.00     0.411 C 
HETATM    6  F5  UNL     1     -34.443   3.762   5.414  1.00 20.00    -0.167 F 
HETATM    7  F6  UNL     1     -35.958   5.071   4.556  1.00 20.00    -0.167 F 
HETATM    8  F7  UNL     1     -35.216   5.438   6.571  1.00 20.00    -0.167 F 
ENDBRANCH   1   5
TORSDOF 1
ENDMDL
MODEL 4
REMARK VINA RESULT:      -4.9      2.459      3.338
REMARK  1 active torsions:
REMARK  status: ('A' for Active; 'I' for Inactive)
REMARK    1  A    between atoms: C1_1  and  C3_3 
ROOT
HETATM    1  C1  UNL     1     -33.242   6.299   4.527  1.00 20.00     0.143 C 
HETATM    2  C2  UNL     1     -34.296   5.483   4.410  1.00 20.00     0.190 C 
HETATM    3  F4  UNL     1     -34.674   5.028   3.196  1.00 20.00    -0.193 F 
HETATM    4 CL8  UNL     1     -35.199   4.991   5.794  1.00 20.00    -0.051 Cl
ENDROOT
BRANCH   1   5
HETATM    5  C3  UNL     1     -32.402   6.778   3.395  1.00 20.00     0.411 C 
HETATM    6  F5  UNL     1     -33.070   7.569   2.517  1.00 20.00    -0.167 F 
HETATM    7  F6  UNL     1     -31.898   5.741   2.681  1.00 20.00    -0.167 F 
HETATM    8  F7  UNL     1     -31.341   7.499   3.840  1.00 20.00    -0.167 F 
ENDBRANCH   1   5
TORSDOF 1
ENDMDL
MODEL 5
REMARK VINA RESULT:      -4.9      1.858      2.161
REMARK  1 active torsions:
REMARK  status: ('A' for Active; 'I' for Inactive)
REMARK    1  A    between atoms: C1_1  and  C3_3 
ROOT
HETATM    1  C1  UNL     1     -34.088   5.575   3.800  1.00 20.00     0.143 C 
HETATM    2  C2  UNL     1     -33.212   6.451   4.305  1.00 20.00     0.190 C 
HETATM    3  F4  UNL     1     -33.299   6.833   5.598  1.00 20.00    -0.193 F 
HETATM    4 CL8  UNL     1     -31.954   7.114   3.331  1.00 20.00    -0.051 Cl
ENDROOT
BRANCH   1   5
HETATM    5  C3  UNL     1     -35.205   4.948   4.560  1.00 20.00     0.411 C 
HETATM    6  F5  UNL     1     -35.241   5.303   5.869  1.00 20.00    -0.167 F 
HETATM    7  F6  UNL     1     -35.127   3.594   4.524  1.00 20.00    -0.167 F 
HETATM    8  F7  UNL     1     -36.410   5.284   4.031  1.00 20.00    -0.167 F 
ENDBRANCH   1   5
TORSDOF 1
ENDMDL
MODEL 6
REMARK VINA RESULT:      -4.9      2.453      3.335
REMARK  1 active torsions:
REMARK  status: ('A' for Active; 'I' for Inactive)
REMARK    1  A    between atoms: C1_1  and  C3_3 
ROOT
HETATM    1  C1  UNL     1     -33.240   6.282   4.552  1.00 20.00     0.143 C 
HETATM    2  C2  UNL     1     -34.297   5.471   4.429  1.00 20.00     0.190 C 
HETATM    3  F4  UNL     1     -34.680   5.032   3.210  1.00 20.00    -0.193 F 
HETATM    4 CL8  UNL     1     -35.196   4.965   5.809  1.00 20.00    -0.051 Cl
ENDROOT
BRANCH   1   5
HETATM    5  C3  UNL     1     -32.402   6.773   3.423  1.00 20.00     0.411 C 
HETATM    6  F5  UNL     1     -31.326   7.499   3.819  1.00 20.00    -0.167 F 
HETATM    7  F6  UNL     1     -33.119   7.563   2.584  1.00 20.00    -0.167 F 
HETATM    8  F7  UNL     1     -31.926   5.743   2.678  1.00 20.00    -0.167 F 
ENDBRANCH   1   5
TORSDOF 1
ENDMDL
MODEL 7
REMARK VINA RESULT:      -4.7      2.210      3.409
REMARK  1 active torsions:
REMARK  status: ('A' for Active; 'I' for Inactive)
REMARK    1  A    between atoms: C1_1  and  C3_3 
ROOT
HETATM    1  C1  UNL     1     -34.051   5.159   4.855  1.00 20.00     0.143 C 
HETATM    2  C2  UNL     1     -34.838   5.305   3.783  1.00 20.00     0.190 C 
HETATM    3  F4  UNL     1     -36.176   5.409   3.930  1.00 20.00    -0.193 F 
HETATM    4 CL8  UNL     1     -34.174   5.363   2.193  1.00 20.00    -0.051 Cl
ENDROOT
BRANCH   1   5
HETATM    5  C3  UNL     1     -34.527   5.099   6.264  1.00 20.00     0.411 C 
HETATM    6  F5  UNL     1     -35.703   4.437   6.414  1.00 20.00    -0.167 F 
HETATM    7  F6  UNL     1     -34.710   6.341   6.777  1.00 20.00    -0.167 F 
HETATM    8  F7  UNL     1     -33.624   4.476   7.063  1.00 20.00    -0.167 F 
ENDBRANCH   1   5
TORSDOF 1
ENDMDL
MODEL 8
REMARK VINA RESULT:      -4.7      2.524      2.965
REMARK  1 active torsions:
REMARK  status: ('A' for Active; 'I' for Inactive)
REMARK    1  A    between atoms: C1_1  and  C3_3 
ROOT
HETATM    1  C1  UNL     1     -33.694   5.702   4.212  1.00 20.00     0.143 C 
HETATM    2  C2  UNL     1     -34.123   5.845   5.471  1.00 20.00     0.190 C 
HETATM    3  F4  UNL     1     -33.672   6.866   6.232  1.00 20.00    -0.193 F 
HETATM    4 CL8  UNL     1     -35.254   4.741   6.157  1.00 20.00    -0.051 Cl
ENDROOT
BRANCH   1   5
HETATM    5  C3  UNL     1     -32.721   6.602   3.532  1.00 20.00     0.411 C 
HETATM    6  F5  UNL     1     -31.868   7.225   4.384  1.00 20.00    -0.167 F 
HETATM    7  F6  UNL     1     -33.356   7.575   2.832  1.00 20.00    -0.167 F 
HETATM    8  F7  UNL     1     -31.955   5.918   2.644  1.00 20.00    -0.167 F 
ENDBRANCH   1   5
TORSDOF 1
ENDMDL
MODEL 9
REMARK VINA RESULT:      -4.7      2.360      2.844
REMARK  1 active torsions:
REMARK  status: ('A' for Active; 'I' for Inactive)
REMARK    1  A    between atoms: C1_1  and  C3_3 
ROOT
HETATM    1  C1  UNL     1     -34.175   5.310   4.672  1.00 20.00     0.143 C 
HETATM    2  C2  UNL     1     -33.368   6.367   4.526  1.00 20.00     0.190 C 
HETATM    3  F4  UNL     1     -32.902   7.021   5.611  1.00 20.00    -0.193 F 
HETATM    4 CL8  UNL     1     -32.902   6.922   2.962  1.00 20.00    -0.051 Cl
ENDROOT
BRANCH   1   5
HETATM    5  C3  UNL     1     -34.632   4.755   5.976  1.00 20.00     0.411 C 
HETATM    6  F5  UNL     1     -33.644   4.161   6.691  1.00 20.00    -0.167 F 
HETATM    7  F6  UNL     1     -35.604   3.825   5.802  1.00 20.00    -0.167 F 
HETATM    8  F7  UNL     1     -35.157   5.726   6.767  1.00 20.00    -0.167 F 
ENDBRANCH   1   5
TORSDOF 1
ENDMDL
