MODEL 1
REMARK VINA RESULT:      -4.6      0.000      0.000
REMARK  1 active torsions:
REMARK  status: ('A' for Active; 'I' for Inactive)
REMARK    1  A    between atoms: C6_6  and  C7_7 
ROOT
HETATM    1  C1  UNL     1     -34.552   5.854   6.526  1.00 20.00     0.005 C 
HETATM    2  C2  UNL     1     -33.715   6.445   5.386  1.00 20.00     0.011 C 
HETATM    3  C3  UNL     1     -35.643   5.285   4.410  1.00 20.00     0.015 C 
HETATM    4  C4  UNL     1     -34.038   4.054   4.951  1.00 20.00     0.015 C 
HETATM    5  C5  UNL     1     -35.197   4.688   5.782  1.00 20.00    -0.013 C 
HETATM    6  C6  UNL     1     -34.094   5.463   4.270  1.00 20.00    -0.031 C 
ENDROOT
BRANCH   6   7
HETATM    7  C7  UNL     1     -33.465   5.692   2.927  1.00 20.00     0.094 C 
HETATM    8 BR8  UNL     1     -32.158   7.134   3.034  1.00 20.00    -0.096 Br
ENDBRANCH   6   7
TORSDOF 1
ENDMDL
MODEL 2
REMARK VINA RESULT:      -3.9     12.076     12.830
REMARK  1 active torsions:
REMARK  status: ('A' for Active; 'I' for Inactive)
REMARK    1  A    between atoms: C6_6  and  C7_7 
ROOT
HETATM    1  C1  UNL     1     -35.768  13.693  -4.334  1.00 20.00     0.005 C 
HETATM    2  C2  UNL     1     -35.642  14.869  -3.361  1.00 20.00     0.011 C 
HETATM    3  C3  UNL     1     -34.066  15.220  -5.207  1.00 20.00     0.015 C 
HETATM    4  C4  UNL     1     -33.413  13.911  -3.709  1.00 20.00     0.015 C 
HETATM    5  C5  UNL     1     -34.363  13.712  -4.931  1.00 20.00    -0.013 C 
HETATM    6  C6  UNL     1     -34.189  15.269  -3.647  1.00 20.00    -0.031 C 
ENDROOT
BRANCH   6   7
HETATM    7  C7  UNL     1     -33.642  16.431  -2.869  1.00 20.00     0.094 C 
HETATM    8 BR8  UNL     1     -34.604  16.623  -1.185  1.00 20.00    -0.096 Br
ENDBRANCH   6   7
TORSDOF 1
ENDMDL
MODEL 3
REMARK VINA RESULT:      -3.8      9.052     10.050
REMARK  1 active torsions:
REMARK  status: ('A' for Active; 'I' for Inactive)
REMARK    1  A    between atoms: C6_6  and  C7_7 
ROOT
HETATM    1  C1  UNL     1     -40.657   6.150  -0.048  1.00 20.00     0.005 C 
HETATM    2  C2  UNL     1     -41.202   6.815  -1.315  1.00 20.00     0.011 C 
HETATM    3  C3  UNL     1     -42.851   5.178  -0.532  1.00 20.00     0.015 C 
HETATM    4  C4  UNL     1     -41.256   4.386  -1.634  1.00 20.00     0.015 C 
HETATM    5  C5  UNL     1     -41.386   4.811  -0.137  1.00 20.00    -0.013 C 
HETATM    6  C6  UNL     1     -42.111   5.685  -1.815  1.00 20.00    -0.031 C 
ENDROOT
BRANCH   6   7
HETATM    7  C7  UNL     1     -42.865   5.936  -3.088  1.00 20.00     0.094 C 
HETATM    8 BR8  UNL     1     -42.649   7.792  -3.641  1.00 20.00    -0.096 Br
ENDBRANCH   6   7
TORSDOF 1
ENDMDL
MODEL 4
REMARK VINA RESULT:      -3.7      9.238     10.338
REMARK  1 active torsions:
REMARK  status: ('A' for Active; 'I' for Inactive)
REMARK    1  A    between atoms: C6_6  and  C7_7 
ROOT
HETATM    1  C1  UNL     1     -40.603   5.818  -0.273  1.00 20.00     0.005 C 
HETATM    2  C2  UNL     1     -40.995   4.679  -1.220  1.00 20.00     0.011 C 
HETATM    3  C3  UNL     1     -41.673   6.803  -2.242  1.00 20.00     0.015 C 
HETATM    4  C4  UNL     1     -42.982   6.049  -0.792  1.00 20.00     0.015 C 
HETATM    5  C5  UNL     1     -41.649   6.852  -0.681  1.00 20.00    -0.013 C 
HETATM    6  C6  UNL     1     -42.173   5.351  -1.937  1.00 20.00    -0.031 C 
ENDROOT
BRANCH   6   7
HETATM    7  C7  UNL     1     -42.873   4.543  -2.990  1.00 20.00     0.094 C 
HETATM    8 BR8  UNL     1     -42.128   2.744  -3.061  1.00 20.00    -0.096 Br
ENDBRANCH   6   7
TORSDOF 1
ENDMDL
MODEL 5
REMARK VINA RESULT:      -3.6      9.131     10.281
REMARK  1 active torsions:
REMARK  status: ('A' for Active; 'I' for Inactive)
REMARK    1  A    between atoms: C6_6  and  C7_7 
ROOT
HETATM    1  C1  UNL     1     -41.015   4.661  -1.255  1.00 20.00     0.005 C 
HETATM    2  C2  UNL     1     -41.943   5.395  -2.228  1.00 20.00     0.011 C 
HETATM    3  C3  UNL     1     -40.911   7.052  -0.744  1.00 20.00     0.015 C 
HETATM    4  C4  UNL     1     -42.556   6.035   0.058  1.00 20.00     0.015 C 
HETATM    5  C5  UNL     1     -41.052   5.643  -0.087  1.00 20.00    -0.013 C 
HETATM    6  C6  UNL     1     -42.280   6.620  -1.368  1.00 20.00    -0.031 C 
ENDROOT
BRANCH   6   7
HETATM    7  C7  UNL     1     -43.203   7.637  -1.973  1.00 20.00     0.094 C 
HETATM    8 BR8  UNL     1     -42.947   7.713  -3.903  1.00 20.00    -0.096 Br
ENDBRANCH   6   7
TORSDOF 1
ENDMDL
MODEL 6
REMARK VINA RESULT:      -3.6     12.271     13.506
REMARK  1 active torsions:
REMARK  status: ('A' for Active; 'I' for Inactive)
REMARK    1  A    between atoms: C6_6  and  C7_7 
ROOT
HETATM    1  C1  UNL     1     -34.835  13.292  -4.871  1.00 20.00     0.005 C 
HETATM    2  C2  UNL     1     -34.468  14.531  -5.695  1.00 20.00     0.011 C 
HETATM    3  C3  UNL     1     -32.974  14.422  -3.754  1.00 20.00     0.015 C 
HETATM    4  C4  UNL     1     -34.869  15.232  -3.380  1.00 20.00     0.015 C 
HETATM    5  C5  UNL     1     -34.364  13.759  -3.496  1.00 20.00    -0.013 C 
HETATM    6  C6  UNL     1     -33.875  15.400  -4.579  1.00 20.00    -0.031 C 
ENDROOT
BRANCH   6   7
HETATM    7  C7  UNL     1     -33.373  16.758  -4.975  1.00 20.00     0.094 C 
HETATM    8 BR8  UNL     1     -34.338  17.400  -6.541  1.00 20.00    -0.096 Br
ENDBRANCH   6   7
TORSDOF 1
ENDMDL
MODEL 7
REMARK VINA RESULT:      -3.6     12.350     13.408
REMARK  1 active torsions:
REMARK  status: ('A' for Active; 'I' for Inactive)
REMARK    1  A    between atoms: C6_6  and  C7_7 
ROOT
HETATM    1  C1  UNL     1     -33.448  13.721  -3.749  1.00 20.00     0.005 C 
HETATM    2  C2  UNL     1     -33.433  15.221  -4.058  1.00 20.00     0.011 C 
HETATM    3  C3  UNL     1     -35.767  14.491  -3.881  1.00 20.00     0.015 C 
HETATM    4  C4  UNL     1     -34.845  14.102  -5.720  1.00 20.00     0.015 C 
HETATM    5  C5  UNL     1     -34.803  13.356  -4.350  1.00 20.00    -0.013 C 
HETATM    6  C6  UNL     1     -34.791  15.340  -4.762  1.00 20.00    -0.031 C 
ENDROOT
BRANCH   6   7
HETATM    7  C7  UNL     1     -35.183  16.704  -5.248  1.00 20.00     0.094 C 
HETATM    8 BR8  UNL     1     -33.658  17.915  -5.154  1.00 20.00    -0.096 Br
ENDBRANCH   6   7
TORSDOF 1
ENDMDL
MODEL 8
REMARK VINA RESULT:      -3.6     12.211     13.108
REMARK  1 active torsions:
REMARK  status: ('A' for Active; 'I' for Inactive)
REMARK    1  A    between atoms: C6_6  and  C7_7 
ROOT
HETATM    1  C1  UNL     1     -34.445  14.640  -5.991  1.00 20.00     0.005 C 
HETATM    2  C2  UNL     1     -34.441  15.778  -4.966  1.00 20.00     0.011 C 
HETATM    3  C3  UNL     1     -33.625  13.744  -3.866  1.00 20.00     0.015 C 
HETATM    4  C4  UNL     1     -35.707  13.899  -4.030  1.00 20.00     0.015 C 
HETATM    5  C5  UNL     1     -34.607  13.453  -5.045  1.00 20.00    -0.013 C 
HETATM    6  C6  UNL     1     -34.602  14.953  -3.683  1.00 20.00    -0.031 C 
ENDROOT
BRANCH   6   7
HETATM    7  C7  UNL     1     -34.647  15.715  -2.391  1.00 20.00     0.094 C 
HETATM    8 BR8  UNL     1     -33.954  17.518  -2.650  1.00 20.00    -0.096 Br
ENDBRANCH   6   7
TORSDOF 1
ENDMDL
MODEL 9
REMARK VINA RESULT:      -3.6     12.131     13.128
REMARK  1 active torsions:
REMARK  status: ('A' for Active; 'I' for Inactive)
REMARK    1  A    between atoms: C6_6  and  C7_7 
ROOT
HETATM    1  C1  UNL     1     -33.398  13.726  -3.766  1.00 20.00     0.005 C 
HETATM    2  C2  UNL     1     -34.912  13.955  -3.768  1.00 20.00     0.011 C 
HETATM    3  C3  UNL     1     -33.831  15.934  -4.729  1.00 20.00     0.015 C 
HETATM    4  C4  UNL     1     -33.845  15.849  -2.637  1.00 20.00     0.015 C 
HETATM    5  C5  UNL     1     -32.927  15.177  -3.705  1.00 20.00    -0.013 C 
HETATM    6  C6  UNL     1     -34.929  15.487  -3.708  1.00 20.00    -0.031 C 
ENDROOT
BRANCH   6   7
HETATM    7  C7  UNL     1     -36.276  16.148  -3.690  1.00 20.00     0.094 C 
HETATM    8 BR8  UNL     1     -37.672  14.837  -4.047  1.00 20.00    -0.096 Br
ENDBRANCH   6   7
TORSDOF 1
ENDMDL
