MODEL 1
REMARK VINA RESULT:      -4.0      0.000      0.000
REMARK  2 active torsions:
REMARK  status: ('A' for Active; 'I' for Inactive)
REMARK    1  A    between atoms: C1_1  and  C3_3 
REMARK    2  A    between atoms: C3_3  and  C4_4 
ROOT
HETATM    1  C1  UNL     1     -34.293   5.703   5.232  1.00 20.00     0.078 C 
HETATM    2  S5  UNL     1     -34.931   4.235   5.686  1.00 20.00    -0.072 SA
HETATM    3 CL6  UNL     1     -33.818   6.793   6.464  1.00 20.00    -0.076 Cl
ENDROOT
BRANCH   1   4
HETATM    4  C3  UNL     1     -34.078   6.134   3.806  1.00 20.00     0.063 C 
BRANCH   4   5
HETATM    5  C4  UNL     1     -32.588   6.200   3.471  1.00 20.00     0.002 C 
HETATM    6  C2  UNL     1     -32.243   7.476   2.720  1.00 20.00     0.005 C 
ENDBRANCH   4   5
ENDBRANCH   1   4
TORSDOF 2
ENDMDL
MODEL 2
REMARK VINA RESULT:      -3.8      2.548      3.575
REMARK  2 active torsions:
REMARK  status: ('A' for Active; 'I' for Inactive)
REMARK    1  A    between atoms: C1_1  and  C3_3 
REMARK    2  A    between atoms: C3_3  and  C4_4 
ROOT
HETATM    1  C1  UNL     1     -33.863   6.175   4.186  1.00 20.00     0.078 C 
HETATM    2  S5  UNL     1     -32.506   6.419   3.255  1.00 20.00    -0.072 SA
HETATM    3 CL6  UNL     1     -35.297   5.662   3.406  1.00 20.00    -0.076 Cl
ENDROOT
BRANCH   1   4
HETATM    4  C3  UNL     1     -33.912   6.351   5.681  1.00 20.00     0.063 C 
BRANCH   4   5
HETATM    5  C4  UNL     1     -34.858   5.336   6.322  1.00 20.00     0.002 C 
HETATM    6  C2  UNL     1     -34.476   3.911   5.955  1.00 20.00     0.005 C 
ENDBRANCH   4   5
ENDBRANCH   1   4
TORSDOF 2
ENDMDL
MODEL 3
REMARK VINA RESULT:      -3.8      1.708      1.708
REMARK  2 active torsions:
REMARK  status: ('A' for Active; 'I' for Inactive)
REMARK    1  A    between atoms: C1_1  and  C3_3 
REMARK    2  A    between atoms: C3_3  and  C4_4 
ROOT
HETATM    1  C1  UNL     1     -34.319   5.508   4.929  1.00 20.00     0.078 C 
HETATM    2  S5  UNL     1     -34.015   6.424   6.284  1.00 20.00    -0.072 SA
HETATM    3 CL6  UNL     1     -35.035   3.967   5.140  1.00 20.00    -0.076 Cl
ENDROOT
BRANCH   1   4
HETATM    4  C3  UNL     1     -34.031   5.951   3.519  1.00 20.00     0.063 C 
BRANCH   4   5
HETATM    5  C4  UNL     1     -32.532   6.154   3.304  1.00 20.00     0.002 C 
HETATM    6  C2  UNL     1     -32.239   7.506   2.673  1.00 20.00     0.005 C 
ENDBRANCH   4   5
ENDBRANCH   1   4
TORSDOF 2
ENDMDL
MODEL 4
REMARK VINA RESULT:      -3.7      2.219      3.235
REMARK  2 active torsions:
REMARK  status: ('A' for Active; 'I' for Inactive)
REMARK    1  A    between atoms: C1_1  and  C3_3 
REMARK    2  A    between atoms: C3_3  and  C4_4 
ROOT
HETATM    1  C1  UNL     1     -33.501   6.327   4.191  1.00 20.00     0.078 C 
HETATM    2  S5  UNL     1     -32.187   6.869   3.326  1.00 20.00    -0.072 SA
HETATM    3 CL6  UNL     1     -33.650   6.816   5.825  1.00 20.00    -0.076 Cl
ENDROOT
BRANCH   1   4
HETATM    4  C3  UNL     1     -34.589   5.451   3.629  1.00 20.00     0.063 C 
BRANCH   4   5
HETATM    5  C4  UNL     1     -35.481   4.901   4.741  1.00 20.00     0.002 C 
HETATM    6  C2  UNL     1     -34.781   3.802   5.523  1.00 20.00     0.005 C 
ENDBRANCH   4   5
ENDBRANCH   1   4
TORSDOF 2
ENDMDL
MODEL 5
REMARK VINA RESULT:      -3.4      1.205      1.324
REMARK  2 active torsions:
REMARK  status: ('A' for Active; 'I' for Inactive)
REMARK    1  A    between atoms: C1_1  and  C3_3 
REMARK    2  A    between atoms: C3_3  and  C4_4 
ROOT
HETATM    1  C1  UNL     1     -33.892   6.136   4.758  1.00 20.00     0.078 C 
HETATM    2  S5  UNL     1     -34.941   5.381   3.708  1.00 20.00    -0.072 SA
HETATM    3 CL6  UNL     1     -34.290   6.154   6.423  1.00 20.00    -0.076 Cl
ENDROOT
BRANCH   1   4
HETATM    4  C3  UNL     1     -32.597   6.785   4.347  1.00 20.00     0.063 C 
BRANCH   4   5
HETATM    5  C4  UNL     1     -32.351   6.618   2.848  1.00 20.00     0.002 C 
HETATM    6  C2  UNL     1     -32.088   7.956   2.176  1.00 20.00     0.005 C 
ENDBRANCH   4   5
ENDBRANCH   1   4
TORSDOF 2
ENDMDL
MODEL 6
REMARK VINA RESULT:      -3.1     11.913     12.123
REMARK  2 active torsions:
REMARK  status: ('A' for Active; 'I' for Inactive)
REMARK    1  A    between atoms: C1_1  and  C3_3 
REMARK    2  A    between atoms: C3_3  and  C4_4 
ROOT
HETATM    1  C1  UNL     1     -34.238  14.596  -3.526  1.00 20.00     0.078 C 
HETATM    2  S5  UNL     1     -34.910  13.413  -4.484  1.00 20.00    -0.072 SA
HETATM    3 CL6  UNL     1     -32.540  14.809  -3.578  1.00 20.00    -0.076 Cl
ENDROOT
BRANCH   1   4
HETATM    4  C3  UNL     1     -35.024  15.515  -2.630  1.00 20.00     0.063 C 
BRANCH   4   5
HETATM    5  C4  UNL     1     -34.104  16.501  -1.912  1.00 20.00     0.002 C 
HETATM    6  C2  UNL     1     -34.628  16.843  -0.526  1.00 20.00     0.005 C 
ENDBRANCH   4   5
ENDBRANCH   1   4
TORSDOF 2
ENDMDL
MODEL 7
REMARK VINA RESULT:      -3.1      3.126      3.831
REMARK  2 active torsions:
REMARK  status: ('A' for Active; 'I' for Inactive)
REMARK    1  A    between atoms: C1_1  and  C3_3 
REMARK    2  A    between atoms: C3_3  and  C4_4 
ROOT
HETATM    1  C1  UNL     1     -32.075   7.441   2.896  1.00 20.00     0.078 C 
HETATM    2  S5  UNL     1     -32.080   8.488   1.602  1.00 20.00    -0.072 SA
HETATM    3 CL6  UNL     1     -31.084   7.820   4.239  1.00 20.00    -0.076 Cl
ENDROOT
BRANCH   1   4
HETATM    4  C3  UNL     1     -32.906   6.188   2.979  1.00 20.00     0.063 C 
BRANCH   4   5
HETATM    5  C4  UNL     1     -33.855   6.237   4.176  1.00 20.00     0.002 C 
HETATM    6  C2  UNL     1     -35.051   5.320   3.977  1.00 20.00     0.005 C 
ENDBRANCH   4   5
ENDBRANCH   1   4
TORSDOF 2
ENDMDL
MODEL 8
REMARK VINA RESULT:      -3.1     12.461     12.658
REMARK  2 active torsions:
REMARK  status: ('A' for Active; 'I' for Inactive)
REMARK    1  A    between atoms: C1_1  and  C3_3 
REMARK    2  A    between atoms: C3_3  and  C4_4 
ROOT
HETATM    1  C1  UNL     1     -33.811  15.322  -3.643  1.00 20.00     0.078 C 
HETATM    2  S5  UNL     1     -33.340  16.398  -4.822  1.00 20.00    -0.072 SA
HETATM    3 CL6  UNL     1     -33.274  13.702  -3.766  1.00 20.00    -0.076 Cl
ENDROOT
BRANCH   1   4
HETATM    4  C3  UNL     1     -34.661  15.682  -2.453  1.00 20.00     0.063 C 
BRANCH   4   5
HETATM    5  C4  UNL     1     -34.001  16.780  -1.619  1.00 20.00     0.002 C 
HETATM    6  C2  UNL     1     -34.728  16.989  -0.300  1.00 20.00     0.005 C 
ENDBRANCH   4   5
ENDBRANCH   1   4
TORSDOF 2
ENDMDL
MODEL 9
REMARK VINA RESULT:      -2.9      0.908      1.221
REMARK  2 active torsions:
REMARK  status: ('A' for Active; 'I' for Inactive)
REMARK    1  A    between atoms: C1_1  and  C3_3 
REMARK    2  A    between atoms: C3_3  and  C4_4 
ROOT
HETATM    1  C1  UNL     1     -34.317   5.907   5.476  1.00 20.00     0.078 C 
HETATM    2  S5  UNL     1     -34.796   4.347   5.803  1.00 20.00    -0.072 SA
HETATM    3 CL6  UNL     1     -33.736   6.863   6.773  1.00 20.00    -0.076 Cl
ENDROOT
BRANCH   1   4
HETATM    4  C3  UNL     1     -34.336   6.534   4.108  1.00 20.00     0.063 C 
BRANCH   4   5
HETATM    5  C4  UNL     1     -33.166   6.037   3.260  1.00 20.00     0.002 C 
HETATM    6  C2  UNL     1     -33.631   5.078   2.176  1.00 20.00     0.005 C 
ENDBRANCH   4   5
ENDBRANCH   1   4
TORSDOF 2
ENDMDL
