MODEL 1
REMARK VINA RESULT:      -4.4      0.000      0.000
REMARK  1 active torsions:
REMARK  status: ('A' for Active; 'I' for Inactive)
REMARK    1  A    between atoms: C2_2  and  C5_5 
ROOT
HETATM    1  C1  UNL     1     -33.787   6.612   6.340  1.00 20.00     0.077 C 
HETATM    2  C3  UNL     1     -33.991   4.118   6.032  1.00 20.00     0.034 A 
HETATM    3  C4  UNL     1     -35.378   4.665   6.159  1.00 20.00     0.034 A 
HETATM    4  C5  UNL     1     -34.290   5.521   5.549  1.00 20.00     0.109 A 
HETATM    5  N7  UNL     1     -33.382   7.492   6.979  1.00 20.00    -0.196 NA
ENDROOT
BRANCH   4   6
HETATM    6  C2  UNL     1     -34.334   5.748   4.092  1.00 20.00     0.145 C 
HETATM    7  C6  UNL     1     -33.081   6.281   3.452  1.00 20.00     0.093 C 
HETATM    8  O8  UNL     1     -35.345   5.512   3.433  1.00 20.00    -0.296 OA
ENDBRANCH   4   6
TORSDOF 1
ENDMDL
MODEL 2
REMARK VINA RESULT:      -4.3      2.008      3.018
REMARK  1 active torsions:
REMARK  status: ('A' for Active; 'I' for Inactive)
REMARK    1  A    between atoms: C2_2  and  C5_5 
ROOT
HETATM    1  C1  UNL     1     -33.016   6.451   3.833  1.00 20.00     0.077 C 
HETATM    2  C3  UNL     1     -35.460   5.879   3.591  1.00 20.00     0.034 A 
HETATM    3  C4  UNL     1     -34.708   4.588   3.680  1.00 20.00     0.034 A 
HETATM    4  C5  UNL     1     -34.177   5.813   4.392  1.00 20.00     0.109 A 
HETATM    5  N7  UNL     1     -32.080   6.966   3.379  1.00 20.00    -0.196 NA
ENDROOT
BRANCH   4   6
HETATM    6  C2  UNL     1     -34.288   5.851   5.863  1.00 20.00     0.145 C 
HETATM    7  C6  UNL     1     -34.869   4.633   6.529  1.00 20.00     0.093 C 
HETATM    8  O8  UNL     1     -33.921   6.828   6.512  1.00 20.00    -0.296 OA
ENDBRANCH   4   6
TORSDOF 1
ENDMDL
MODEL 3
REMARK VINA RESULT:      -3.9     12.394     13.402
REMARK  1 active torsions:
REMARK  status: ('A' for Active; 'I' for Inactive)
REMARK    1  A    between atoms: C2_2  and  C5_5 
ROOT
HETATM    1  C1  UNL     1     -36.889  14.501  -4.121  1.00 20.00     0.077 C 
HETATM    2  C3  UNL     1     -35.453  15.479  -5.948  1.00 20.00     0.034 A 
HETATM    3  C4  UNL     1     -35.025  16.110  -4.661  1.00 20.00     0.034 A 
HETATM    4  C5  UNL     1     -35.569  14.698  -4.656  1.00 20.00     0.109 A 
HETATM    5  N7  UNL     1     -37.955  14.344  -3.690  1.00 20.00    -0.196 NA
ENDROOT
BRANCH   4   6
HETATM    6  C2  UNL     1     -34.612  13.597  -4.434  1.00 20.00     0.145 C 
HETATM    7  C6  UNL     1     -33.342  13.942  -3.706  1.00 20.00     0.093 C 
HETATM    8  O8  UNL     1     -34.843  12.454  -4.822  1.00 20.00    -0.296 OA
ENDBRANCH   4   6
TORSDOF 1
ENDMDL
MODEL 4
REMARK VINA RESULT:      -3.9     12.333     12.791
REMARK  1 active torsions:
REMARK  status: ('A' for Active; 'I' for Inactive)
REMARK    1  A    between atoms: C2_2  and  C5_5 
ROOT
HETATM    1  C1  UNL     1     -34.507  15.751  -2.256  1.00 20.00     0.077 C 
HETATM    2  C3  UNL     1     -33.381  15.746  -4.512  1.00 20.00     0.034 A 
HETATM    3  C4  UNL     1     -32.703  14.707  -3.675  1.00 20.00     0.034 A 
HETATM    4  C5  UNL     1     -34.167  15.015  -3.444  1.00 20.00     0.109 A 
HETATM    5  N7  UNL     1     -34.779  16.345  -1.298  1.00 20.00    -0.196 NA
ENDROOT
BRANCH   4   6
HETATM    6  C2  UNL     1     -35.155  14.014  -3.887  1.00 20.00     0.145 C 
HETATM    7  C6  UNL     1     -36.578  14.485  -4.029  1.00 20.00     0.093 C 
HETATM    8  O8  UNL     1     -34.833  12.853  -4.130  1.00 20.00    -0.296 OA
ENDBRANCH   4   6
TORSDOF 1
ENDMDL
MODEL 5
REMARK VINA RESULT:      -3.8     12.687     13.238
REMARK  1 active torsions:
REMARK  status: ('A' for Active; 'I' for Inactive)
REMARK    1  A    between atoms: C2_2  and  C5_5 
ROOT
HETATM    1  C1  UNL     1     -33.596  16.311  -4.440  1.00 20.00     0.077 C 
HETATM    2  C3  UNL     1     -34.361  15.846  -2.083  1.00 20.00     0.034 A 
HETATM    3  C4  UNL     1     -35.578  15.847  -2.953  1.00 20.00     0.034 A 
HETATM    4  C5  UNL     1     -34.248  15.411  -3.528  1.00 20.00     0.109 A 
HETATM    5  N7  UNL     1     -33.070  17.040  -5.175  1.00 20.00    -0.196 NA
ENDROOT
BRANCH   4   6
HETATM    6  C2  UNL     1     -34.058  13.972  -3.796  1.00 20.00     0.145 C 
HETATM    7  C6  UNL     1     -35.241  13.225  -4.351  1.00 20.00     0.093 C 
HETATM    8  O8  UNL     1     -32.986  13.412  -3.578  1.00 20.00    -0.296 OA
ENDBRANCH   4   6
TORSDOF 1
ENDMDL
MODEL 6
REMARK VINA RESULT:      -3.8     12.885     13.743
REMARK  1 active torsions:
REMARK  status: ('A' for Active; 'I' for Inactive)
REMARK    1  A    between atoms: C2_2  and  C5_5 
ROOT
HETATM    1  C1  UNL     1     -34.792  13.784  -4.241  1.00 20.00     0.077 C 
HETATM    2  C3  UNL     1     -35.589  15.974  -3.279  1.00 20.00     0.034 A 
HETATM    3  C4  UNL     1     -34.291  15.641  -2.612  1.00 20.00     0.034 A 
HETATM    4  C5  UNL     1     -34.540  15.184  -4.033  1.00 20.00     0.109 A 
HETATM    5  N7  UNL     1     -34.996  12.654  -4.408  1.00 20.00    -0.196 NA
ENDROOT
BRANCH   4   6
HETATM    6  C2  UNL     1     -33.808  15.875  -5.112  1.00 20.00     0.145 C 
HETATM    7  C6  UNL     1     -34.247  15.583  -6.521  1.00 20.00     0.093 C 
HETATM    8  O8  UNL     1     -32.887  16.653  -4.871  1.00 20.00    -0.296 OA
ENDBRANCH   4   6
TORSDOF 1
ENDMDL
MODEL 7
REMARK VINA RESULT:      -3.8     12.568     14.005
REMARK  1 active torsions:
REMARK  status: ('A' for Active; 'I' for Inactive)
REMARK    1  A    between atoms: C2_2  and  C5_5 
ROOT
HETATM    1  C1  UNL     1     -33.772  15.909  -5.340  1.00 20.00     0.077 C 
HETATM    2  C3  UNL     1     -36.054  15.026  -5.945  1.00 20.00     0.034 A 
HETATM    3  C4  UNL     1     -35.099  14.541  -6.990  1.00 20.00     0.034 A 
HETATM    4  C5  UNL     1     -34.610  14.765  -5.575  1.00 20.00     0.109 A 
HETATM    5  N7  UNL     1     -33.096  16.834  -5.151  1.00 20.00    -0.196 NA
ENDROOT
BRANCH   4   6
HETATM    6  C2  UNL     1     -34.318  13.573  -4.756  1.00 20.00     0.145 C 
HETATM    7  C6  UNL     1     -33.362  13.758  -3.609  1.00 20.00     0.093 C 
HETATM    8  O8  UNL     1     -34.832  12.483  -4.997  1.00 20.00    -0.296 OA
ENDBRANCH   4   6
TORSDOF 1
ENDMDL
MODEL 8
REMARK VINA RESULT:      -3.7     12.479     13.338
REMARK  1 active torsions:
REMARK  status: ('A' for Active; 'I' for Inactive)
REMARK    1  A    between atoms: C2_2  and  C5_5 
ROOT
HETATM    1  C1  UNL     1     -34.406  15.598  -2.651  1.00 20.00     0.077 C 
HETATM    2  C3  UNL     1     -33.304  13.582  -3.691  1.00 20.00     0.034 A 
HETATM    3  C4  UNL     1     -34.741  13.568  -4.109  1.00 20.00     0.034 A 
HETATM    4  C5  UNL     1     -34.050  14.890  -3.851  1.00 20.00     0.109 A 
HETATM    5  N7  UNL     1     -34.693  16.167  -1.682  1.00 20.00    -0.196 NA
ENDROOT
BRANCH   4   6
HETATM    6  C2  UNL     1     -33.718  15.728  -5.020  1.00 20.00     0.145 C 
HETATM    7  C6  UNL     1     -34.413  15.392  -6.311  1.00 20.00     0.093 C 
HETATM    8  O8  UNL     1     -32.916  16.655  -4.941  1.00 20.00    -0.296 OA
ENDBRANCH   4   6
TORSDOF 1
ENDMDL
MODEL 9
REMARK VINA RESULT:      -3.7     12.834     13.381
REMARK  1 active torsions:
REMARK  status: ('A' for Active; 'I' for Inactive)
REMARK    1  A    between atoms: C2_2  and  C5_5 
ROOT
HETATM    1  C1  UNL     1     -36.663  14.440  -4.009  1.00 20.00     0.077 C 
HETATM    2  C3  UNL     1     -34.519  13.249  -4.592  1.00 20.00     0.034 A 
HETATM    3  C4  UNL     1     -34.857  14.144  -5.742  1.00 20.00     0.034 A 
HETATM    4  C5  UNL     1     -35.268  14.540  -4.341  1.00 20.00     0.109 A 
HETATM    5  N7  UNL     1     -37.790  14.358  -3.742  1.00 20.00    -0.196 NA
ENDROOT
BRANCH   4   6
HETATM    6  C2  UNL     1     -34.530  15.644  -3.698  1.00 20.00     0.145 C 
HETATM    7  C6  UNL     1     -34.766  15.849  -2.226  1.00 20.00     0.093 C 
HETATM    8  O8  UNL     1     -33.759  16.361  -4.333  1.00 20.00    -0.296 OA
ENDBRANCH   4   6
TORSDOF 1
ENDMDL
