MODEL 1
REMARK VINA RESULT:      -3.4      0.000      0.000
REMARK  3 active torsions:
REMARK  status: ('A' for Active; 'I' for Inactive)
REMARK    1  A    between atoms: C3_3  and  C5_5 
REMARK    2  A    between atoms: C5_5  and  C6_6 
REMARK    3  A    between atoms: C6_6  and  S9_9 
ROOT
HETATM    1  C1  UNL     1     -34.419  14.773  -6.177  1.00 20.00     0.179 C 
HETATM    2  C2  UNL     1     -35.052  13.761  -5.240  1.00 20.00     0.103 C 
HETATM    3  C3  UNL     1     -33.378  15.484  -4.235  1.00 20.00     0.183 C 
HETATM    4  O7  UNL     1     -34.073  15.931  -5.408  1.00 20.00    -0.375 OA
HETATM    5  S8  UNL     1     -33.980  13.832  -3.795  1.00 20.00    -0.135 SA
ENDROOT
BRANCH   3   6
HETATM    6  C5  UNL     1     -33.622  16.479  -3.114  1.00 20.00     0.057 C 
BRANCH   6   7
HETATM    7  C6  UNL     1     -34.840  16.144  -2.241  1.00 20.00     0.043 C 
HETATM    8  C4  UNL     1     -34.634  16.637  -0.810  1.00 20.00     0.021 C 
BRANCH   7   9
HETATM    9  S9  UNL     1     -36.376  16.887  -2.900  1.00 20.00    -0.178 SA
HETATM   10  H21 UNL     1     -36.269  16.343  -4.119  1.00 20.00     0.102 HD
ENDBRANCH   7   9
ENDBRANCH   6   7
ENDBRANCH   3   6
TORSDOF 3
ENDMDL
MODEL 2
REMARK VINA RESULT:      -3.3      1.856      2.024
REMARK  3 active torsions:
REMARK  status: ('A' for Active; 'I' for Inactive)
REMARK    1  A    between atoms: C3_3  and  C5_5 
REMARK    2  A    between atoms: C5_5  and  C6_6 
REMARK    3  A    between atoms: C6_6  and  S9_9 
ROOT
HETATM    1  C1  UNL     1     -34.776  13.257  -4.705  1.00 20.00     0.179 C 
HETATM    2  C2  UNL     1     -34.661  14.345  -5.756  1.00 20.00     0.103 C 
HETATM    3  C3  UNL     1     -34.907  15.067  -3.267  1.00 20.00     0.183 C 
HETATM    4  O7  UNL     1     -34.290  13.788  -3.466  1.00 20.00    -0.375 OA
HETATM    5  S8  UNL     1     -35.256  15.805  -4.886  1.00 20.00    -0.135 SA
ENDROOT
BRANCH   3   6
HETATM    6  C5  UNL     1     -33.971  15.941  -2.451  1.00 20.00     0.057 C 
BRANCH   6   7
HETATM    7  C6  UNL     1     -34.654  17.162  -1.819  1.00 20.00     0.043 C 
HETATM    8  C4  UNL     1     -34.700  17.032  -0.298  1.00 20.00     0.021 C 
BRANCH   7   9
HETATM    9  S9  UNL     1     -33.796  18.719  -2.247  1.00 20.00    -0.178 SA
HETATM   10  H21 UNL     1     -34.214  19.396  -1.171  1.00 20.00     0.102 HD
ENDBRANCH   7   9
ENDBRANCH   6   7
ENDBRANCH   3   6
TORSDOF 3
ENDMDL
MODEL 3
REMARK VINA RESULT:      -3.2      1.569      1.661
REMARK  3 active torsions:
REMARK  status: ('A' for Active; 'I' for Inactive)
REMARK    1  A    between atoms: C3_3  and  C5_5 
REMARK    2  A    between atoms: C5_5  and  C6_6 
REMARK    3  A    between atoms: C6_6  and  S9_9 
ROOT
HETATM    1  C1  UNL     1     -35.091  14.087  -6.010  1.00 20.00     0.179 C 
HETATM    2  C2  UNL     1     -36.294  14.958  -5.698  1.00 20.00     0.103 C 
HETATM    3  C3  UNL     1     -34.717  14.295  -3.735  1.00 20.00     0.183 C 
HETATM    4  O7  UNL     1     -34.087  14.350  -5.022  1.00 20.00    -0.375 OA
HETATM    5  S8  UNL     1     -36.451  14.794  -3.912  1.00 20.00    -0.135 SA
ENDROOT
BRANCH   3   6
HETATM    6  C5  UNL     1     -33.971  15.215  -2.785  1.00 20.00     0.057 C 
BRANCH   6   7
HETATM    7  C6  UNL     1     -34.791  16.428  -2.323  1.00 20.00     0.043 C 
HETATM    8  C4  UNL     1     -34.649  16.638  -0.817  1.00 20.00     0.021 C 
BRANCH   7   9
HETATM    9  S9  UNL     1     -34.279  17.962  -3.178  1.00 20.00    -0.178 SA
HETATM   10  H21 UNL     1     -33.909  18.611  -2.067  1.00 20.00     0.102 HD
ENDBRANCH   7   9
ENDBRANCH   6   7
ENDBRANCH   3   6
TORSDOF 3
ENDMDL
MODEL 4
REMARK VINA RESULT:      -3.1      2.252      4.499
REMARK  3 active torsions:
REMARK  status: ('A' for Active; 'I' for Inactive)
REMARK    1  A    between atoms: C3_3  and  C5_5 
REMARK    2  A    between atoms: C5_5  and  C6_6 
REMARK    3  A    between atoms: C6_6  and  S9_9 
ROOT
HETATM    1  C1  UNL     1     -34.336  17.677   0.030  1.00 20.00     0.179 C 
HETATM    2  C2  UNL     1     -34.730  18.792  -0.921  1.00 20.00     0.103 C 
HETATM    3  C3  UNL     1     -34.091  16.482  -1.938  1.00 20.00     0.183 C 
HETATM    4  O7  UNL     1     -34.629  16.428  -0.609  1.00 20.00    -0.375 OA
HETATM    5  S8  UNL     1     -34.106  18.204  -2.504  1.00 20.00    -0.135 SA
ENDROOT
BRANCH   3   6
HETATM    6  C5  UNL     1     -34.929  15.595  -2.841  1.00 20.00     0.057 C 
BRANCH   6   7
HETATM    7  C6  UNL     1     -34.141  14.963  -3.997  1.00 20.00     0.043 C 
HETATM    8  C4  UNL     1     -32.688  14.719  -3.593  1.00 20.00     0.021 C 
BRANCH   7   9
HETATM    9  S9  UNL     1     -34.873  13.376  -4.534  1.00 20.00    -0.178 SA
HETATM   10  H21 UNL     1     -36.136  13.712  -4.243  1.00 20.00     0.102 HD
ENDBRANCH   7   9
ENDBRANCH   6   7
ENDBRANCH   3   6
TORSDOF 3
ENDMDL
MODEL 5
REMARK VINA RESULT:      -3.1      2.828      3.545
REMARK  3 active torsions:
REMARK  status: ('A' for Active; 'I' for Inactive)
REMARK    1  A    between atoms: C3_3  and  C5_5 
REMARK    2  A    between atoms: C5_5  and  C6_6 
REMARK    3  A    between atoms: C6_6  and  S9_9 
ROOT
HETATM    1  C1  UNL     1     -38.890  14.763  -4.267  1.00 20.00     0.179 C 
HETATM    2  C2  UNL     1     -38.480  15.326  -5.616  1.00 20.00     0.103 C 
HETATM    3  C3  UNL     1     -36.648  15.079  -3.781  1.00 20.00     0.183 C 
HETATM    4  O7  UNL     1     -37.738  14.152  -3.675  1.00 20.00    -0.375 OA
HETATM    5  S8  UNL     1     -36.895  16.101  -5.258  1.00 20.00    -0.135 SA
ENDROOT
BRANCH   3   6
HETATM    6  C5  UNL     1     -35.348  14.299  -3.859  1.00 20.00     0.057 C 
BRANCH   6   7
HETATM    7  C6  UNL     1     -34.182  14.959  -3.109  1.00 20.00     0.043 C 
HETATM    8  C4  UNL     1     -33.205  15.607  -4.087  1.00 20.00     0.021 C 
BRANCH   7   9
HETATM    9  S9  UNL     1     -34.762  16.231  -1.931  1.00 20.00    -0.178 SA
HETATM   10  H21 UNL     1     -33.571  16.822  -1.783  1.00 20.00     0.102 HD
ENDBRANCH   7   9
ENDBRANCH   6   7
ENDBRANCH   3   6
TORSDOF 3
ENDMDL
MODEL 6
REMARK VINA RESULT:      -3.1     11.757     12.599
REMARK  3 active torsions:
REMARK  status: ('A' for Active; 'I' for Inactive)
REMARK    1  A    between atoms: C3_3  and  C5_5 
REMARK    2  A    between atoms: C5_5  and  C6_6 
REMARK    3  A    between atoms: C6_6  and  S9_9 
ROOT
HETATM    1  C1  UNL     1     -34.485   5.784   6.434  1.00 20.00     0.179 C 
HETATM    2  C2  UNL     1     -34.865   4.462   5.792  1.00 20.00     0.103 C 
HETATM    3  C3  UNL     1     -34.162   6.425   4.232  1.00 20.00     0.183 C 
HETATM    4  O7  UNL     1     -33.589   6.463   5.546  1.00 20.00    -0.375 OA
HETATM    5  S8  UNL     1     -35.166   4.923   4.078  1.00 20.00    -0.135 SA
ENDROOT
BRANCH   3   6
HETATM    6  C5  UNL     1     -33.042   6.449   3.209  1.00 20.00     0.057 C 
BRANCH   6   7
HETATM    7  C6  UNL     1     -32.287   7.785   3.144  1.00 20.00     0.043 C 
HETATM    8  C4  UNL     1     -30.950   7.688   3.875  1.00 20.00     0.021 C 
BRANCH   7   9
HETATM    9  S9  UNL     1     -31.976   8.309   1.421  1.00 20.00    -0.178 SA
HETATM   10  H21 UNL     1     -32.356   7.153   0.864  1.00 20.00     0.102 HD
ENDBRANCH   7   9
ENDBRANCH   6   7
ENDBRANCH   3   6
TORSDOF 3
ENDMDL
MODEL 7
REMARK VINA RESULT:      -3.1      1.902      3.886
REMARK  3 active torsions:
REMARK  status: ('A' for Active; 'I' for Inactive)
REMARK    1  A    between atoms: C3_3  and  C5_5 
REMARK    2  A    between atoms: C5_5  and  C6_6 
REMARK    3  A    between atoms: C6_6  and  S9_9 
ROOT
HETATM    1  C1  UNL     1     -34.939  15.948  -2.132  1.00 20.00     0.179 C 
HETATM    2  C2  UNL     1     -33.724  16.531  -2.829  1.00 20.00     0.103 C 
HETATM    3  C3  UNL     1     -34.650  14.252  -3.682  1.00 20.00     0.183 C 
HETATM    4  O7  UNL     1     -35.624  15.108  -3.069  1.00 20.00    -0.375 OA
HETATM    5  S8  UNL     1     -33.056  15.114  -3.717  1.00 20.00    -0.135 SA
ENDROOT
BRANCH   3   6
HETATM    6  C5  UNL     1     -35.120  13.899  -5.082  1.00 20.00     0.057 C 
BRANCH   6   7
HETATM    7  C6  UNL     1     -35.310  15.117  -5.998  1.00 20.00     0.043 C 
HETATM    8  C4  UNL     1     -34.526  14.946  -7.297  1.00 20.00     0.021 C 
BRANCH   7   9
HETATM    9  S9  UNL     1     -37.071  15.391  -6.409  1.00 20.00    -0.178 SA
HETATM   10  H21 UNL     1     -37.411  15.867  -5.205  1.00 20.00     0.102 HD
ENDBRANCH   7   9
ENDBRANCH   6   7
ENDBRANCH   3   6
TORSDOF 3
ENDMDL
MODEL 8
REMARK VINA RESULT:      -3.1      1.419      3.995
REMARK  3 active torsions:
REMARK  status: ('A' for Active; 'I' for Inactive)
REMARK    1  A    between atoms: C3_3  and  C5_5 
REMARK    2  A    between atoms: C5_5  and  C6_6 
REMARK    3  A    between atoms: C6_6  and  S9_9 
ROOT
HETATM    1  C1  UNL     1     -34.417  16.617  -1.667  1.00 20.00     0.179 C 
HETATM    2  C2  UNL     1     -35.773  16.758  -2.334  1.00 20.00     0.103 C 
HETATM    3  C3  UNL     1     -33.650  16.867  -3.838  1.00 20.00     0.183 C 
HETATM    4  O7  UNL     1     -33.500  16.096  -2.637  1.00 20.00    -0.375 OA
HETATM    5  S8  UNL     1     -35.358  17.468  -3.936  1.00 20.00    -0.135 SA
ENDROOT
BRANCH   3   6
HETATM    6  C5  UNL     1     -33.303  15.991  -5.028  1.00 20.00     0.057 C 
BRANCH   6   7
HETATM    7  C6  UNL     1     -34.491  15.186  -5.575  1.00 20.00     0.043 C 
HETATM    8  C4  UNL     1     -34.404  15.055  -7.094  1.00 20.00     0.021 C 
BRANCH   7   9
HETATM    9  S9  UNL     1     -34.573  13.511  -4.846  1.00 20.00    -0.178 SA
HETATM   10  H21 UNL     1     -34.869  12.886  -5.992  1.00 20.00     0.102 HD
ENDBRANCH   7   9
ENDBRANCH   6   7
ENDBRANCH   3   6
TORSDOF 3
ENDMDL
MODEL 9
REMARK VINA RESULT:      -3.0      2.050      3.969
REMARK  3 active torsions:
REMARK  status: ('A' for Active; 'I' for Inactive)
REMARK    1  A    between atoms: C3_3  and  C5_5 
REMARK    2  A    between atoms: C5_5  and  C6_6 
REMARK    3  A    between atoms: C6_6  and  S9_9 
ROOT
HETATM    1  C1  UNL     1     -33.711  18.701  -2.400  1.00 20.00     0.179 C 
HETATM    2  C2  UNL     1     -33.379  18.246  -0.991  1.00 20.00     0.103 C 
HETATM    3  C3  UNL     1     -34.793  16.655  -2.493  1.00 20.00     0.183 C 
HETATM    4  O7  UNL     1     -33.910  17.533  -3.206  1.00 20.00    -0.375 OA
HETATM    5  S8  UNL     1     -34.561  16.916  -0.713  1.00 20.00    -0.135 SA
ENDROOT
BRANCH   3   6
HETATM    6  C5  UNL     1     -34.482  15.223  -2.887  1.00 20.00     0.057 C 
BRANCH   6   7
HETATM    7  C6  UNL     1     -35.296  14.719  -4.088  1.00 20.00     0.043 C 
HETATM    8  C4  UNL     1     -35.013  13.242  -4.353  1.00 20.00     0.021 C 
BRANCH   7   9
HETATM    9  S9  UNL     1     -37.093  14.933  -3.830  1.00 20.00    -0.178 SA
HETATM   10  H21 UNL     1     -37.106  16.245  -4.096  1.00 20.00     0.102 HD
ENDBRANCH   7   9
ENDBRANCH   6   7
ENDBRANCH   3   6
TORSDOF 3
ENDMDL
