MODEL 1
REMARK VINA RESULT:      -4.1      0.000      0.000
REMARK  2 active torsions:
REMARK  status: ('A' for Active; 'I' for Inactive)
REMARK    1  A    between atoms: C1_1  and  C4_4 
REMARK    2  A    between atoms: C4_4  and  C5_5 
ROOT
HETATM    1  C2  UNL     1     -34.883   4.373   4.451  1.00 20.00     0.020 A 
HETATM    2  C3  UNL     1     -35.615   5.564   3.911  1.00 20.00     0.020 A 
HETATM    3  C4  UNL     1     -34.224   5.737   4.485  1.00 20.00     0.039 A 
ENDROOT
BRANCH   3   4
HETATM    4  C1  UNL     1     -33.123   5.975   3.520  1.00 20.00     0.243 C 
HETATM    5  O6  UNL     1     -32.218   6.780   3.711  1.00 20.00    -0.306 OA
ENDBRANCH   3   4
BRANCH   3   6
HETATM    6  C5  UNL     1     -34.116   6.412   5.829  1.00 20.00     0.238 C 
HETATM    7  F7  UNL     1     -34.397   5.504   6.802  1.00 20.00    -0.254 F 
ENDBRANCH   3   6
TORSDOF 2
ENDMDL
MODEL 2
REMARK VINA RESULT:      -4.0      1.963      2.517
REMARK  2 active torsions:
REMARK  status: ('A' for Active; 'I' for Inactive)
REMARK    1  A    between atoms: C1_1  and  C4_4 
REMARK    2  A    between atoms: C4_4  and  C5_5 
ROOT
HETATM    1  C2  UNL     1     -35.618   5.404   4.207  1.00 20.00     0.020 A 
HETATM    2  C3  UNL     1     -34.858   4.212   4.703  1.00 20.00     0.020 A 
HETATM    3  C4  UNL     1     -34.280   5.600   4.890  1.00 20.00     0.039 A 
ENDROOT
BRANCH   3   4
HETATM    4  C1  UNL     1     -34.304   6.158   6.265  1.00 20.00     0.243 C 
HETATM    5  O6  UNL     1     -33.514   7.007   6.663  1.00 20.00    -0.306 OA
ENDBRANCH   3   4
BRANCH   3   6
HETATM    6  C5  UNL     1     -33.113   5.981   4.015  1.00 20.00     0.238 C 
HETATM    7  F7  UNL     1     -33.430   7.110   3.327  1.00 20.00    -0.254 F 
ENDBRANCH   3   6
TORSDOF 2
ENDMDL
MODEL 3
REMARK VINA RESULT:      -4.0      1.809      2.441
REMARK  2 active torsions:
REMARK  status: ('A' for Active; 'I' for Inactive)
REMARK    1  A    between atoms: C1_1  and  C4_4 
REMARK    2  A    between atoms: C4_4  and  C5_5 
ROOT
HETATM    1  C2  UNL     1     -34.173   6.871   3.630  1.00 20.00     0.020 A 
HETATM    2  C3  UNL     1     -33.046   5.886   3.709  1.00 20.00     0.020 A 
HETATM    3  C4  UNL     1     -34.183   5.805   4.706  1.00 20.00     0.039 A 
ENDROOT
BRANCH   3   4
HETATM    4  C1  UNL     1     -35.147   4.690   4.537  1.00 20.00     0.243 C 
HETATM    5  O6  UNL     1     -35.054   3.620   5.130  1.00 20.00    -0.306 OA
ENDBRANCH   3   4
BRANCH   3   6
HETATM    6  C5  UNL     1     -33.892   6.253   6.117  1.00 20.00     0.238 C 
HETATM    7  F7  UNL     1     -34.954   5.938   6.906  1.00 20.00    -0.254 F 
ENDBRANCH   3   6
TORSDOF 2
ENDMDL
MODEL 4
REMARK VINA RESULT:      -4.0      1.762      2.358
REMARK  2 active torsions:
REMARK  status: ('A' for Active; 'I' for Inactive)
REMARK    1  A    between atoms: C1_1  and  C4_4 
REMARK    2  A    between atoms: C4_4  and  C5_5 
ROOT
HETATM    1  C2  UNL     1     -34.633   5.853   6.397  1.00 20.00     0.020 A 
HETATM    2  C3  UNL     1     -33.854   4.597   6.148  1.00 20.00     0.020 A 
HETATM    3  C4  UNL     1     -34.355   5.413   4.974  1.00 20.00     0.039 A 
ENDROOT
BRANCH   3   4
HETATM    4  C1  UNL     1     -33.344   6.191   4.217  1.00 20.00     0.243 C 
HETATM    5  O6  UNL     1     -33.036   5.949   3.054  1.00 20.00    -0.306 OA
ENDBRANCH   3   4
BRANCH   3   6
HETATM    6  C5  UNL     1     -35.515   4.851   4.192  1.00 20.00     0.238 C 
HETATM    7  F7  UNL     1     -36.093   5.854   3.479  1.00 20.00    -0.254 F 
ENDBRANCH   3   6
TORSDOF 2
ENDMDL
MODEL 5
REMARK VINA RESULT:      -3.9      1.621      2.001
REMARK  2 active torsions:
REMARK  status: ('A' for Active; 'I' for Inactive)
REMARK    1  A    between atoms: C1_1  and  C4_4 
REMARK    2  A    between atoms: C4_4  and  C5_5 
ROOT
HETATM    1  C2  UNL     1     -34.302   5.185   3.209  1.00 20.00     0.020 A 
HETATM    2  C3  UNL     1     -35.635   5.671   3.689  1.00 20.00     0.020 A 
HETATM    3  C4  UNL     1     -34.560   5.316   4.696  1.00 20.00     0.039 A 
ENDROOT
BRANCH   3   4
HETATM    4  C1  UNL     1     -33.897   6.443   5.396  1.00 20.00     0.243 C 
HETATM    5  O6  UNL     1     -34.011   6.653   6.599  1.00 20.00    -0.306 OA
ENDBRANCH   3   4
BRANCH   3   6
HETATM    6  C5  UNL     1     -34.744   4.038   5.475  1.00 20.00     0.238 C 
HETATM    7  F7  UNL     1     -35.596   4.271   6.509  1.00 20.00    -0.254 F 
ENDBRANCH   3   6
TORSDOF 2
ENDMDL
MODEL 6
REMARK VINA RESULT:      -3.7      2.259      2.671
REMARK  2 active torsions:
REMARK  status: ('A' for Active; 'I' for Inactive)
REMARK    1  A    between atoms: C1_1  and  C4_4 
REMARK    2  A    between atoms: C4_4  and  C5_5 
ROOT
HETATM    1  C2  UNL     1     -34.045   4.370   5.991  1.00 20.00     0.020 A 
HETATM    2  C3  UNL     1     -34.758   5.604   6.456  1.00 20.00     0.020 A 
HETATM    3  C4  UNL     1     -34.436   5.433   4.985  1.00 20.00     0.039 A 
ENDROOT
BRANCH   3   4
HETATM    4  C1  UNL     1     -35.569   5.118   4.082  1.00 20.00     0.243 C 
HETATM    5  O6  UNL     1     -35.946   5.864   3.184  1.00 20.00    -0.306 OA
ENDBRANCH   3   4
BRANCH   3   6
HETATM    6  C5  UNL     1     -33.326   6.284   4.422  1.00 20.00     0.238 C 
HETATM    7  F7  UNL     1     -32.806   5.664   3.329  1.00 20.00    -0.254 F 
ENDBRANCH   3   6
TORSDOF 2
ENDMDL
MODEL 7
REMARK VINA RESULT:      -3.7      1.905      2.698
REMARK  2 active torsions:
REMARK  status: ('A' for Active; 'I' for Inactive)
REMARK    1  A    between atoms: C1_1  and  C4_4 
REMARK    2  A    between atoms: C4_4  and  C5_5 
ROOT
HETATM    1  C2  UNL     1     -32.617   5.794   3.498  1.00 20.00     0.020 A 
HETATM    2  C3  UNL     1     -33.319   7.101   3.284  1.00 20.00     0.020 A 
HETATM    3  C4  UNL     1     -33.900   6.088   4.249  1.00 20.00     0.039 A 
ENDROOT
BRANCH   3   4
HETATM    4  C1  UNL     1     -33.776   6.392   5.696  1.00 20.00     0.243 C 
HETATM    5  O6  UNL     1     -34.549   5.962   6.546  1.00 20.00    -0.306 OA
ENDBRANCH   3   4
BRANCH   3   6
HETATM    6  C5  UNL     1     -35.138   5.350   3.806  1.00 20.00     0.238 C 
HETATM    7  F7  UNL     1     -35.087   4.078   4.286  1.00 20.00    -0.254 F 
ENDBRANCH   3   6
TORSDOF 2
ENDMDL
MODEL 8
REMARK VINA RESULT:      -3.5      2.415      3.007
REMARK  2 active torsions:
REMARK  status: ('A' for Active; 'I' for Inactive)
REMARK    1  A    between atoms: C1_1  and  C4_4 
REMARK    2  A    between atoms: C4_4  and  C5_5 
ROOT
HETATM    1  C2  UNL     1     -33.552   5.210   6.380  1.00 20.00     0.020 A 
HETATM    2  C3  UNL     1     -34.359   6.471   6.317  1.00 20.00     0.020 A 
HETATM    3  C4  UNL     1     -34.153   5.650   5.060  1.00 20.00     0.039 A 
ENDROOT
BRANCH   3   4
HETATM    4  C1  UNL     1     -35.318   4.879   4.563  1.00 20.00     0.243 C 
HETATM    5  O6  UNL     1     -35.389   3.655   4.609  1.00 20.00    -0.306 OA
ENDBRANCH   3   4
BRANCH   3   6
HETATM    6  C5  UNL     1     -33.204   6.203   4.027  1.00 20.00     0.238 C 
HETATM    7  F7  UNL     1     -33.549   5.713   2.806  1.00 20.00    -0.254 F 
ENDBRANCH   3   6
TORSDOF 2
ENDMDL
MODEL 9
REMARK VINA RESULT:      -3.4     12.434     13.116
REMARK  2 active torsions:
REMARK  status: ('A' for Active; 'I' for Inactive)
REMARK    1  A    between atoms: C1_1  and  C4_4 
REMARK    2  A    between atoms: C4_4  and  C5_5 
ROOT
HETATM    1  C2  UNL     1     -32.819  14.743  -3.667  1.00 20.00     0.020 A 
HETATM    2  C3  UNL     1     -33.805  15.681  -3.039  1.00 20.00     0.020 A 
HETATM    3  C4  UNL     1     -34.202  14.890  -4.269  1.00 20.00     0.039 A 
ENDROOT
BRANCH   3   4
HETATM    4  C1  UNL     1     -35.145  13.763  -4.067  1.00 20.00     0.243 C 
HETATM    5  O6  UNL     1     -34.940  12.627  -4.482  1.00 20.00    -0.306 OA
ENDBRANCH   3   4
BRANCH   3   6
HETATM    6  C5  UNL     1     -34.306  15.648  -5.568  1.00 20.00     0.238 C 
HETATM    7  F7  UNL     1     -34.044  14.798  -6.596  1.00 20.00    -0.254 F 
ENDBRANCH   3   6
TORSDOF 2
ENDMDL
