MODEL 1
REMARK VINA RESULT:      -3.4      0.000      0.000
REMARK  1 active torsions:
REMARK  status: ('A' for Active; 'I' for Inactive)
REMARK    1  A    between atoms: C3_3  and  C4_4 
ROOT
HETATM    1  C1  UNL     1     -34.793  13.557  -4.835  1.00 20.00     0.149 A 
HETATM    2  C2  UNL     1     -34.847  14.456  -5.880  1.00 20.00     0.093 A 
HETATM    3  C3  UNL     1     -34.082  15.340  -3.773  1.00 20.00     0.089 A 
HETATM    4  N5  UNL     1     -34.355  14.062  -3.626  1.00 20.00    -0.255 NA
HETATM    5  S6  UNL     1     -34.331  15.999  -5.337  1.00 20.00    -0.060 SA
HETATM    6 CL7  UNL     1     -35.330  14.199  -7.497  1.00 20.00    -0.075 Cl
ENDROOT
BRANCH   3   7
HETATM    7  C4  UNL     1     -33.587  16.220  -2.692  1.00 20.00     0.181 C 
HETATM    8 CL8  UNL     1     -34.706  16.223  -1.305  1.00 20.00    -0.123 Cl
ENDBRANCH   3   7
TORSDOF 1
ENDMDL
MODEL 2
REMARK VINA RESULT:      -3.4      1.382      4.174
REMARK  1 active torsions:
REMARK  status: ('A' for Active; 'I' for Inactive)
REMARK    1  A    between atoms: C3_3  and  C4_4 
ROOT
HETATM    1  C1  UNL     1     -33.396  15.756  -3.197  1.00 20.00     0.149 A 
HETATM    2  C2  UNL     1     -34.532  15.902  -2.429  1.00 20.00     0.093 A 
HETATM    3  C3  UNL     1     -34.871  15.036  -4.651  1.00 20.00     0.089 A 
HETATM    4  N5  UNL     1     -33.589  15.260  -4.472  1.00 20.00    -0.255 NA
HETATM    5  S6  UNL     1     -35.903  15.401  -3.329  1.00 20.00    -0.060 SA
HETATM    6 CL7  UNL     1     -34.682  16.476  -0.828  1.00 20.00    -0.075 Cl
ENDROOT
BRANCH   3   7
HETATM    7  C4  UNL     1     -35.462  14.502  -5.898  1.00 20.00     0.181 C 
HETATM    8 CL8  UNL     1     -34.441  14.888  -7.307  1.00 20.00    -0.123 Cl
ENDBRANCH   3   7
TORSDOF 1
ENDMDL
MODEL 3
REMARK VINA RESULT:      -3.3      0.998      3.903
REMARK  1 active torsions:
REMARK  status: ('A' for Active; 'I' for Inactive)
REMARK    1  A    between atoms: C3_3  and  C4_4 
ROOT
HETATM    1  C1  UNL     1     -34.358  14.116  -3.516  1.00 20.00     0.149 A 
HETATM    2  C2  UNL     1     -34.508  15.433  -3.135  1.00 20.00     0.093 A 
HETATM    3  C3  UNL     1     -34.340  15.039  -5.506  1.00 20.00     0.089 A 
HETATM    4  N5  UNL     1     -34.262  13.888  -4.875  1.00 20.00    -0.255 NA
HETATM    5  S6  UNL     1     -34.529  16.435  -4.527  1.00 20.00    -0.060 SA
HETATM    6 CL7  UNL     1     -34.658  16.090  -1.566  1.00 20.00    -0.075 Cl
ENDROOT
BRANCH   3   7
HETATM    7  C4  UNL     1     -34.276  15.194  -6.976  1.00 20.00     0.181 C 
HETATM    8 CL8  UNL     1     -35.599  14.304  -7.773  1.00 20.00    -0.123 Cl
ENDBRANCH   3   7
TORSDOF 1
ENDMDL
MODEL 4
REMARK VINA RESULT:      -3.3     12.507     13.510
REMARK  1 active torsions:
REMARK  status: ('A' for Active; 'I' for Inactive)
REMARK    1  A    between atoms: C3_3  and  C4_4 
ROOT
HETATM    1  C1  UNL     1     -42.712   6.135  -2.850  1.00 20.00     0.149 A 
HETATM    2  C2  UNL     1     -41.782   6.080  -1.833  1.00 20.00     0.093 A 
HETATM    3  C3  UNL     1     -42.447   3.960  -2.765  1.00 20.00     0.089 A 
HETATM    4  N5  UNL     1     -43.094   4.920  -3.386  1.00 20.00    -0.255 NA
HETATM    5  S6  UNL     1     -41.364   4.445  -1.526  1.00 20.00    -0.060 SA
HETATM    6 CL7  UNL     1     -41.083   7.358  -0.943  1.00 20.00    -0.075 Cl
ENDROOT
BRANCH   3   7
HETATM    7  C4  UNL     1     -42.597   2.519  -3.066  1.00 20.00     0.181 C 
HETATM    8 CL8  UNL     1     -41.169   1.893  -3.930  1.00 20.00    -0.123 Cl
ENDBRANCH   3   7
TORSDOF 1
ENDMDL
MODEL 5
REMARK VINA RESULT:      -3.3     11.822     12.520
REMARK  1 active torsions:
REMARK  status: ('A' for Active; 'I' for Inactive)
REMARK    1  A    between atoms: C3_3  and  C4_4 
ROOT
HETATM    1  C1  UNL     1     -34.472   5.140   3.540  1.00 20.00     0.149 A 
HETATM    2  C2  UNL     1     -34.443   5.329   4.905  1.00 20.00     0.093 A 
HETATM    3  C3  UNL     1     -32.862   6.627   3.633  1.00 20.00     0.089 A 
HETATM    4  N5  UNL     1     -33.566   5.884   2.808  1.00 20.00    -0.255 NA
HETATM    5  S6  UNL     1     -33.236   6.481   5.301  1.00 20.00    -0.060 SA
HETATM    6 CL7  UNL     1     -35.401   4.595   6.114  1.00 20.00    -0.075 Cl
ENDROOT
BRANCH   3   7
HETATM    7  C4  UNL     1     -31.791   7.558   3.215  1.00 20.00     0.181 C 
HETATM    8 CL8  UNL     1     -32.225   8.396   1.703  1.00 20.00    -0.123 Cl
ENDBRANCH   3   7
TORSDOF 1
ENDMDL
MODEL 6
REMARK VINA RESULT:      -3.3     12.271     13.278
REMARK  1 active torsions:
REMARK  status: ('A' for Active; 'I' for Inactive)
REMARK    1  A    between atoms: C3_3  and  C4_4 
ROOT
HETATM    1  C1  UNL     1     -40.791   5.204  -0.970  1.00 20.00     0.149 A 
HETATM    2  C2  UNL     1     -41.601   6.216  -1.441  1.00 20.00     0.093 A 
HETATM    3  C3  UNL     1     -41.953   4.045  -2.425  1.00 20.00     0.089 A 
HETATM    4  N5  UNL     1     -40.991   3.958  -1.532  1.00 20.00    -0.255 NA
HETATM    5  S6  UNL     1     -42.660   5.594  -2.639  1.00 20.00    -0.060 SA
HETATM    6 CL7  UNL     1     -41.640   7.862  -0.989  1.00 20.00    -0.075 Cl
ENDROOT
BRANCH   3   7
HETATM    7  C4  UNL     1     -42.448   2.910  -3.235  1.00 20.00     0.181 C 
HETATM    8 CL8  UNL     1     -41.095   1.943  -3.876  1.00 20.00    -0.123 Cl
ENDBRANCH   3   7
TORSDOF 1
ENDMDL
MODEL 7
REMARK VINA RESULT:      -3.2      1.672      4.152
REMARK  1 active torsions:
REMARK  status: ('A' for Active; 'I' for Inactive)
REMARK    1  A    between atoms: C3_3  and  C4_4 
ROOT
HETATM    1  C1  UNL     1     -36.288  15.885  -3.143  1.00 20.00     0.149 A 
HETATM    2  C2  UNL     1     -35.057  15.819  -2.525  1.00 20.00     0.093 A 
HETATM    3  C3  UNL     1     -35.224  14.704  -4.654  1.00 20.00     0.089 A 
HETATM    4  N5  UNL     1     -36.386  15.246  -4.364  1.00 20.00    -0.255 NA
HETATM    5  S6  UNL     1     -33.970  14.922  -3.503  1.00 20.00    -0.060 SA
HETATM    6 CL7  UNL     1     -34.568  16.480  -1.028  1.00 20.00    -0.075 Cl
ENDROOT
BRANCH   3   7
HETATM    7  C4  UNL     1     -34.943  13.935  -5.886  1.00 20.00     0.181 C 
HETATM    8 CL8  UNL     1     -34.323  14.996  -7.177  1.00 20.00    -0.123 Cl
ENDBRANCH   3   7
TORSDOF 1
ENDMDL
MODEL 8
REMARK VINA RESULT:      -3.2      1.707      1.954
REMARK  1 active torsions:
REMARK  status: ('A' for Active; 'I' for Inactive)
REMARK    1  A    between atoms: C3_3  and  C4_4 
ROOT
HETATM    1  C1  UNL     1     -33.381  16.406  -5.028  1.00 20.00     0.149 A 
HETATM    2  C2  UNL     1     -34.290  15.445  -5.419  1.00 20.00     0.093 A 
HETATM    3  C3  UNL     1     -34.349  16.061  -3.091  1.00 20.00     0.089 A 
HETATM    4  N5  UNL     1     -33.413  16.761  -3.693  1.00 20.00    -0.255 NA
HETATM    5  S6  UNL     1     -35.228  14.959  -4.069  1.00 20.00    -0.060 SA
HETATM    6 CL7  UNL     1     -34.540  14.766  -6.966  1.00 20.00    -0.075 Cl
ENDROOT
BRANCH   3   7
HETATM    7  C4  UNL     1     -34.679  16.169  -1.653  1.00 20.00     0.181 C 
HETATM    8 CL8  UNL     1     -33.705  17.436  -0.865  1.00 20.00    -0.123 Cl
ENDBRANCH   3   7
TORSDOF 1
ENDMDL
MODEL 9
REMARK VINA RESULT:      -3.1      2.962      3.796
REMARK  1 active torsions:
REMARK  status: ('A' for Active; 'I' for Inactive)
REMARK    1  A    between atoms: C3_3  and  C4_4 
ROOT
HETATM    1  C1  UNL     1     -37.978  15.370  -3.575  1.00 20.00     0.149 A 
HETATM    2  C2  UNL     1     -37.136  16.453  -3.439  1.00 20.00     0.093 A 
HETATM    3  C3  UNL     1     -36.079  14.369  -4.024  1.00 20.00     0.089 A 
HETATM    4  N5  UNL     1     -37.374  14.174  -3.911  1.00 20.00    -0.255 NA
HETATM    5  S6  UNL     1     -35.519  15.966  -3.740  1.00 20.00    -0.060 SA
HETATM    6 CL7  UNL     1     -37.516  18.069  -3.039  1.00 20.00    -0.075 Cl
ENDROOT
BRANCH   3   7
HETATM    7  C4  UNL     1     -35.101  13.315  -4.373  1.00 20.00     0.181 C 
HETATM    8 CL8  UNL     1     -33.487  13.697  -3.720  1.00 20.00    -0.123 Cl
ENDBRANCH   3   7
TORSDOF 1
ENDMDL
