MODEL 1
REMARK VINA RESULT:      -4.4      0.000      0.000
REMARK  1 active torsions:
REMARK  status: ('A' for Active; 'I' for Inactive)
REMARK    1  A    between atoms: C2_2  and  C3_3 
ROOT
HETATM    1  C1  UNL     1     -33.143   6.296   4.145  1.00 20.00     0.018 C 
HETATM    2  C2  UNL     1     -34.257   5.553   4.152  1.00 20.00     0.188 C 
HETATM    3  C4  UNL     1     -32.613   6.997   2.938  1.00 20.00     0.039 C 
HETATM    4  F7  UNL     1     -34.962   5.414   3.005  1.00 20.00    -0.199 F 
ENDROOT
BRANCH   2   5
HETATM    5  C3  UNL     1     -34.772   4.844   5.415  1.00 20.00     0.238 C 
HETATM    6  O5  UNL     1     -34.792   5.576   6.447  1.00 20.00    -0.642 OA
HETATM    7  O6  UNL     1     -35.114   3.634   5.291  1.00 20.00    -0.642 OA
ENDBRANCH   2   5
TORSDOF 1
ENDMDL
MODEL 2
REMARK VINA RESULT:      -4.1      2.331      2.741
REMARK  1 active torsions:
REMARK  status: ('A' for Active; 'I' for Inactive)
REMARK    1  A    between atoms: C2_2  and  C3_3 
ROOT
HETATM    1  C1  UNL     1     -33.776   6.558   5.735  1.00 20.00     0.018 C 
HETATM    2  C2  UNL     1     -34.674   5.567   5.800  1.00 20.00     0.188 C 
HETATM    3  C4  UNL     1     -33.360   7.387   6.905  1.00 20.00     0.039 C 
HETATM    4  F7  UNL     1     -35.255   5.283   6.989  1.00 20.00    -0.199 F 
ENDROOT
BRANCH   2   5
HETATM    5  C3  UNL     1     -35.079   4.735   4.572  1.00 20.00     0.238 C 
HETATM    6  O5  UNL     1     -35.151   3.490   4.792  1.00 20.00    -0.642 OA
HETATM    7  O6  UNL     1     -35.292   5.366   3.499  1.00 20.00    -0.642 OA
ENDBRANCH   2   5
TORSDOF 1
ENDMDL
MODEL 3
REMARK VINA RESULT:      -4.0      2.612      3.633
REMARK  1 active torsions:
REMARK  status: ('A' for Active; 'I' for Inactive)
REMARK    1  A    between atoms: C2_2  and  C3_3 
ROOT
HETATM    1  C1  UNL     1     -34.535   4.939   5.078  1.00 20.00     0.018 C 
HETATM    2  C2  UNL     1     -33.719   5.992   4.944  1.00 20.00     0.188 C 
HETATM    3  C4  UNL     1     -35.226   4.573   6.350  1.00 20.00     0.039 C 
HETATM    4  F7  UNL     1     -33.492   6.788   6.015  1.00 20.00    -0.199 F 
ENDROOT
BRANCH   2   5
HETATM    5  C3  UNL     1     -33.024   6.338   3.617  1.00 20.00     0.238 C 
HETATM    6  O5  UNL     1     -33.538   5.781   2.603  1.00 20.00    -0.642 OA
HETATM    7  O6  UNL     1     -32.037   7.124   3.678  1.00 20.00    -0.642 OA
ENDBRANCH   2   5
TORSDOF 1
ENDMDL
MODEL 4
REMARK VINA RESULT:      -3.9      2.832      3.649
REMARK  1 active torsions:
REMARK  status: ('A' for Active; 'I' for Inactive)
REMARK    1  A    between atoms: C2_2  and  C3_3 
ROOT
HETATM    1  C1  UNL     1     -33.813   6.129   4.684  1.00 20.00     0.018 C 
HETATM    2  C2  UNL     1     -33.301   6.249   3.453  1.00 20.00     0.188 C 
HETATM    3  C4  UNL     1     -34.858   5.131   5.062  1.00 20.00     0.039 C 
HETATM    4  F7  UNL     1     -33.742   5.425   2.474  1.00 20.00    -0.199 F 
ENDROOT
BRANCH   2   5
HETATM    5  C3  UNL     1     -32.226   7.290   3.101  1.00 20.00     0.238 C 
HETATM    6  O5  UNL     1     -31.355   7.460   4.003  1.00 20.00    -0.642 OA
HETATM    7  O6  UNL     1     -32.323   7.852   1.974  1.00 20.00    -0.642 OA
ENDBRANCH   2   5
TORSDOF 1
ENDMDL
MODEL 5
REMARK VINA RESULT:      -3.9      2.454      3.391
REMARK  1 active torsions:
REMARK  status: ('A' for Active; 'I' for Inactive)
REMARK    1  A    between atoms: C2_2  and  C3_3 
ROOT
HETATM    1  C1  UNL     1     -34.031   5.519   5.277  1.00 20.00     0.018 C 
HETATM    2  C2  UNL     1     -34.057   5.802   3.969  1.00 20.00     0.188 C 
HETATM    3  C4  UNL     1     -35.154   4.866   6.014  1.00 20.00     0.039 C 
HETATM    4  F7  UNL     1     -35.159   5.486   3.249  1.00 20.00    -0.199 F 
ENDROOT
BRANCH   2   5
HETATM    5  C3  UNL     1     -32.881   6.477   3.244  1.00 20.00     0.238 C 
HETATM    6  O5  UNL     1     -31.865   5.735   3.105  1.00 20.00    -0.642 OA
HETATM    7  O6  UNL     1     -33.050   7.672   2.872  1.00 20.00    -0.642 OA
ENDBRANCH   2   5
TORSDOF 1
ENDMDL
MODEL 6
REMARK VINA RESULT:      -3.8     12.032     12.237
REMARK  1 active torsions:
REMARK  status: ('A' for Active; 'I' for Inactive)
REMARK    1  A    between atoms: C2_2  and  C3_3 
ROOT
HETATM    1  C1  UNL     1     -34.884  15.546  -2.636  1.00 20.00     0.018 C 
HETATM    2  C2  UNL     1     -34.405  14.557  -3.401  1.00 20.00     0.188 C 
HETATM    3  C4  UNL     1     -34.028  16.515  -1.889  1.00 20.00     0.039 C 
HETATM    4  F7  UNL     1     -33.066  14.407  -3.518  1.00 20.00    -0.199 F 
ENDROOT
BRANCH   2   5
HETATM    5  C3  UNL     1     -35.319  13.577  -4.156  1.00 20.00     0.238 C 
HETATM    6  O5  UNL     1     -36.550  13.864  -4.091  1.00 20.00    -0.642 OA
HETATM    7  O6  UNL     1     -34.757  12.614  -4.748  1.00 20.00    -0.642 OA
ENDBRANCH   2   5
TORSDOF 1
ENDMDL
MODEL 7
REMARK VINA RESULT:      -3.7     11.708     12.174
REMARK  1 active torsions:
REMARK  status: ('A' for Active; 'I' for Inactive)
REMARK    1  A    between atoms: C2_2  and  C3_3 
ROOT
HETATM    1  C1  UNL     1     -33.708  15.677  -2.821  1.00 20.00     0.018 C 
HETATM    2  C2  UNL     1     -34.586  14.744  -3.208  1.00 20.00     0.188 C 
HETATM    3  C4  UNL     1     -34.091  16.984  -2.208  1.00 20.00     0.039 C 
HETATM    4  F7  UNL     1     -35.909  14.977  -3.042  1.00 20.00    -0.199 F 
ENDROOT
BRANCH   2   5
HETATM    5  C3  UNL     1     -34.154  13.409  -3.837  1.00 20.00     0.238 C 
HETATM    6  O5  UNL     1     -35.102  12.750  -4.354  1.00 20.00    -0.642 OA
HETATM    7  O6  UNL     1     -32.925  13.121  -3.774  1.00 20.00    -0.642 OA
ENDBRANCH   2   5
TORSDOF 1
ENDMDL
MODEL 8
REMARK VINA RESULT:      -3.7      1.815      2.395
REMARK  1 active torsions:
REMARK  status: ('A' for Active; 'I' for Inactive)
REMARK    1  A    between atoms: C2_2  and  C3_3 
ROOT
HETATM    1  C1  UNL     1     -34.591   5.498   3.908  1.00 20.00     0.018 C 
HETATM    2  C2  UNL     1     -33.770   6.169   4.725  1.00 20.00     0.188 C 
HETATM    3  C4  UNL     1     -34.349   5.313   2.446  1.00 20.00     0.039 C 
HETATM    4  F7  UNL     1     -32.644   6.722   4.217  1.00 20.00    -0.199 F 
ENDROOT
BRANCH   2   5
HETATM    5  C3  UNL     1     -34.054   6.339   6.227  1.00 20.00     0.238 C 
HETATM    6  O5  UNL     1     -34.909   5.527   6.687  1.00 20.00    -0.642 OA
HETATM    7  O6  UNL     1     -33.417   7.249   6.828  1.00 20.00    -0.642 OA
ENDBRANCH   2   5
TORSDOF 1
ENDMDL
MODEL 9
REMARK VINA RESULT:      -3.6     12.461     13.357
REMARK  1 active torsions:
REMARK  status: ('A' for Active; 'I' for Inactive)
REMARK    1  A    between atoms: C2_2  and  C3_3 
ROOT
HETATM    1  C1  UNL     1     -35.085  14.393  -6.633  1.00 20.00     0.018 C 
HETATM    2  C2  UNL     1     -34.312  14.513  -5.546  1.00 20.00     0.188 C 
HETATM    3  C4  UNL     1     -35.208  15.440  -7.691  1.00 20.00     0.039 C 
HETATM    4  F7  UNL     1     -33.589  15.644  -5.374  1.00 20.00    -0.199 F 
ENDROOT
BRANCH   2   5
HETATM    5  C3  UNL     1     -34.211  13.413  -4.477  1.00 20.00     0.238 C 
HETATM    6  O5  UNL     1     -35.217  12.645  -4.428  1.00 20.00    -0.642 OA
HETATM    7  O6  UNL     1     -33.159  13.391  -3.778  1.00 20.00    -0.642 OA
ENDBRANCH   2   5
TORSDOF 1
ENDMDL
