MODEL 1
REMARK VINA RESULT:      -4.9      0.000      0.000
REMARK  0 active torsions:
REMARK  status: ('A' for Active; 'I' for Inactive)
ROOT
HETATM    1  C1  UNL     1     -34.594  15.571  -2.297  1.00 20.00     0.052 A 
HETATM    2  C2  UNL     1     -33.722  17.291  -4.225  1.00 20.00     0.126 A 
HETATM    3  C3  UNL     1     -34.595  15.147  -3.630  1.00 20.00    -0.047 A 
HETATM    4  C4  UNL     1     -34.166  16.034  -4.628  1.00 20.00    -0.034 A 
HETATM    5  C5  UNL     1     -34.140  16.849  -2.012  1.00 20.00     0.126 A 
HETATM    6  C6  UNL     1     -35.114  13.774  -3.971  1.00 20.00     0.039 C 
HETATM    7  C7  UNL     1     -34.116  15.641  -6.078  1.00 20.00     0.040 C 
HETATM    8  C8  UNL     1     -34.711  13.309  -5.369  1.00 20.00     0.005 C 
HETATM    9  C9  UNL     1     -34.966  14.411  -6.392  1.00 20.00     0.005 C 
HETATM   10  N10 UNL     1     -33.701  17.721  -2.943  1.00 20.00    -0.248 NA
HETATM   11 CL11 UNL     1     -34.107  17.437  -0.400  1.00 20.00    -0.062 Cl
ENDROOT
TORSDOF 0
ENDMDL
MODEL 2
REMARK VINA RESULT:      -4.8     12.722     14.179
REMARK  0 active torsions:
REMARK  status: ('A' for Active; 'I' for Inactive)
ROOT
HETATM    1  C1  UNL     1     -41.581   3.239  -2.358  1.00 20.00     0.052 A 
HETATM    2  C2  UNL     1     -43.357   5.115  -3.231  1.00 20.00     0.126 A 
HETATM    3  C3  UNL     1     -41.548   4.516  -1.789  1.00 20.00    -0.047 A 
HETATM    4  C4  UNL     1     -42.447   5.490  -2.246  1.00 20.00    -0.034 A 
HETATM    5  C5  UNL     1     -42.523   2.979  -3.340  1.00 20.00     0.126 A 
HETATM    6  C6  UNL     1     -40.511   4.834  -0.742  1.00 20.00     0.039 C 
HETATM    7  C7  UNL     1     -42.487   6.876  -1.664  1.00 20.00     0.040 C 
HETATM    8  C8  UNL     1     -40.826   6.103   0.049  1.00 20.00     0.005 C 
HETATM    9  C9  UNL     1     -41.218   7.236  -0.892  1.00 20.00     0.005 C 
HETATM   10  N10 UNL     1     -43.416   3.885  -3.790  1.00 20.00    -0.248 NA
HETATM   11 CL11 UNL     1     -42.625   1.436  -4.083  1.00 20.00    -0.062 Cl
ENDROOT
TORSDOF 0
ENDMDL
MODEL 3
REMARK VINA RESULT:      -4.8      2.424      4.229
REMARK  0 active torsions:
REMARK  status: ('A' for Active; 'I' for Inactive)
ROOT
HETATM    1  C1  UNL     1     -34.521  15.048  -2.912  1.00 20.00     0.052 A 
HETATM    2  C2  UNL     1     -33.552  17.029  -4.516  1.00 20.00     0.126 A 
HETATM    3  C3  UNL     1     -34.310  16.317  -2.364  1.00 20.00    -0.047 A 
HETATM    4  C4  UNL     1     -33.794  17.335  -3.179  1.00 20.00    -0.034 A 
HETATM    5  C5  UNL     1     -34.236  14.854  -4.254  1.00 20.00     0.126 A 
HETATM    6  C6  UNL     1     -34.582  16.546  -0.899  1.00 20.00     0.039 C 
HETATM    7  C7  UNL     1     -33.564  18.729  -2.667  1.00 20.00     0.040 C 
HETATM    8  C8  UNL     1     -34.676  18.026  -0.530  1.00 20.00     0.005 C 
HETATM    9  C9  UNL     1     -33.515  18.804  -1.141  1.00 20.00     0.005 C 
HETATM   10  N10 UNL     1     -33.758  15.814  -5.073  1.00 20.00    -0.248 NA
HETATM   11 CL11 UNL     1     -34.472  13.325  -4.997  1.00 20.00    -0.062 Cl
ENDROOT
TORSDOF 0
ENDMDL
MODEL 4
REMARK VINA RESULT:      -4.5      2.571      4.722
REMARK  0 active torsions:
REMARK  status: ('A' for Active; 'I' for Inactive)
ROOT
HETATM    1  C1  UNL     1     -33.778  17.196  -4.585  1.00 20.00     0.052 A 
HETATM    2  C2  UNL     1     -34.763  15.183  -3.033  1.00 20.00     0.126 A 
HETATM    3  C3  UNL     1     -33.897  17.403  -3.208  1.00 20.00    -0.047 A 
HETATM    4  C4  UNL     1     -34.420  16.379  -2.406  1.00 20.00    -0.034 A 
HETATM    5  C5  UNL     1     -34.160  15.968  -5.103  1.00 20.00     0.126 A 
HETATM    6  C6  UNL     1     -33.520  18.741  -2.625  1.00 20.00     0.039 C 
HETATM    7  C7  UNL     1     -34.555  16.519  -0.916  1.00 20.00     0.040 C 
HETATM    8  C8  UNL     1     -33.337  18.704  -1.108  1.00 20.00     0.005 C 
HETATM    9  C9  UNL     1     -34.500  17.973  -0.447  1.00 20.00     0.005 C 
HETATM   10  N10 UNL     1     -34.648  14.953  -4.360  1.00 20.00    -0.248 NA
HETATM   11 CL11 UNL     1     -34.040  15.640  -6.783  1.00 20.00    -0.062 Cl
ENDROOT
TORSDOF 0
ENDMDL
MODEL 5
REMARK VINA RESULT:      -4.5      2.867      3.447
REMARK  0 active torsions:
REMARK  status: ('A' for Active; 'I' for Inactive)
ROOT
HETATM    1  C1  UNL     1     -37.023  14.462  -4.061  1.00 20.00     0.052 A 
HETATM    2  C2  UNL     1     -36.122  16.728  -2.841  1.00 20.00     0.126 A 
HETATM    3  C3  UNL     1     -35.651  14.604  -3.829  1.00 20.00    -0.047 A 
HETATM    4  C4  UNL     1     -35.179  15.774  -3.219  1.00 20.00    -0.034 A 
HETATM    5  C5  UNL     1     -37.869  15.480  -3.652  1.00 20.00     0.126 A 
HETATM    6  C6  UNL     1     -34.706  13.525  -4.294  1.00 20.00     0.039 C 
HETATM    7  C7  UNL     1     -33.722  15.986  -2.915  1.00 20.00     0.040 C 
HETATM    8  C8  UNL     1     -33.322  13.622  -3.653  1.00 20.00     0.005 C 
HETATM    9  C9  UNL     1     -32.806  15.055  -3.709  1.00 20.00     0.005 C 
HETATM   10  N10 UNL     1     -37.453  16.611  -3.044  1.00 20.00    -0.248 NA
HETATM   11 CL11 UNL     1     -39.564  15.377  -3.901  1.00 20.00    -0.062 Cl
ENDROOT
TORSDOF 0
ENDMDL
MODEL 6
REMARK VINA RESULT:      -4.4     11.441     12.638
REMARK  0 active torsions:
REMARK  status: ('A' for Active; 'I' for Inactive)
ROOT
HETATM    1  C1  UNL     1     -33.182   6.604   2.496  1.00 20.00     0.052 A 
HETATM    2  C2  UNL     1     -32.286   7.528   4.899  1.00 20.00     0.126 A 
HETATM    3  C3  UNL     1     -33.727   6.072   3.669  1.00 20.00    -0.047 A 
HETATM    4  C4  UNL     1     -33.257   6.530   4.908  1.00 20.00    -0.034 A 
HETATM    5  C5  UNL     1     -32.212   7.587   2.607  1.00 20.00     0.126 A 
HETATM    6  C6  UNL     1     -34.759   4.978   3.577  1.00 20.00     0.039 C 
HETATM    7  C7  UNL     1     -33.812   6.023   6.210  1.00 20.00     0.040 C 
HETATM    8  C8  UNL     1     -35.528   4.766   4.881  1.00 20.00     0.005 C 
HETATM    9  C9  UNL     1     -34.568   4.703   6.063  1.00 20.00     0.005 C 
HETATM   10  N10 UNL     1     -31.751   8.067   3.780  1.00 20.00    -0.248 NA
HETATM   11 CL11 UNL     1     -31.500   8.289   1.211  1.00 20.00    -0.062 Cl
ENDROOT
TORSDOF 0
ENDMDL
MODEL 7
REMARK VINA RESULT:      -4.4      5.421      7.143
REMARK  0 active torsions:
REMARK  status: ('A' for Active; 'I' for Inactive)
ROOT
HETATM    1  C1  UNL     1     -31.568  19.117   2.801  1.00 20.00     0.052 A 
HETATM    2  C2  UNL     1     -34.096  18.213   3.272  1.00 20.00     0.126 A 
HETATM    3  C3  UNL     1     -32.397  18.833   1.711  1.00 20.00    -0.047 A 
HETATM    4  C4  UNL     1     -33.692  18.350   1.946  1.00 20.00    -0.034 A 
HETATM    5  C5  UNL     1     -32.072  18.933   4.078  1.00 20.00     0.126 A 
HETATM    6  C6  UNL     1     -31.861  18.993   0.311  1.00 20.00     0.039 C 
HETATM    7  C7  UNL     1     -34.648  18.047   0.826  1.00 20.00     0.040 C 
HETATM    8  C8  UNL     1     -32.958  19.020  -0.752  1.00 20.00     0.005 C 
HETATM    9  C9  UNL     1     -33.952  17.887  -0.525  1.00 20.00     0.005 C 
HETATM   10  N10 UNL     1     -33.319  18.491   4.343  1.00 20.00    -0.248 NA
HETATM   11 CL11 UNL     1     -31.115  19.263   5.464  1.00 20.00    -0.062 Cl
ENDROOT
TORSDOF 0
ENDMDL
MODEL 8
REMARK VINA RESULT:      -4.4      5.787      7.318
REMARK  0 active torsions:
REMARK  status: ('A' for Active; 'I' for Inactive)
ROOT
HETATM    1  C1  UNL     1     -33.653  18.447   3.737  1.00 20.00     0.052 A 
HETATM    2  C2  UNL     1     -31.159  19.198   2.931  1.00 20.00     0.126 A 
HETATM    3  C3  UNL     1     -33.378  18.513   2.367  1.00 20.00    -0.047 A 
HETATM    4  C4  UNL     1     -32.103  18.916   1.946  1.00 20.00    -0.034 A 
HETATM    5  C5  UNL     1     -32.640  18.759   4.628  1.00 20.00     0.126 A 
HETATM    6  C6  UNL     1     -34.472  18.209   1.376  1.00 20.00     0.039 C 
HETATM    7  C7  UNL     1     -31.726  18.987   0.493  1.00 20.00     0.040 C 
HETATM    8  C8  UNL     1     -33.948  17.949  -0.036  1.00 20.00     0.005 C 
HETATM    9  C9  UNL     1     -32.939  19.019  -0.437  1.00 20.00     0.005 C 
HETATM   10  N10 UNL     1     -31.396  19.132   4.261  1.00 20.00    -0.248 NA
HETATM   11 CL11 UNL     1     -32.902  18.699   6.323  1.00 20.00    -0.062 Cl
ENDROOT
TORSDOF 0
ENDMDL
MODEL 9
REMARK VINA RESULT:      -4.3      2.670      3.398
REMARK  0 active torsions:
REMARK  status: ('A' for Active; 'I' for Inactive)
ROOT
HETATM    1  C1  UNL     1     -36.159  16.798  -2.823  1.00 20.00     0.052 A 
HETATM    2  C2  UNL     1     -37.124  14.563  -4.049  1.00 20.00     0.126 A 
HETATM    3  C3  UNL     1     -35.259  15.803  -3.215  1.00 20.00    -0.047 A 
HETATM    4  C4  UNL     1     -35.751  14.643  -3.830  1.00 20.00    -0.034 A 
HETATM    5  C5  UNL     1     -37.507  16.609  -3.083  1.00 20.00     0.126 A 
HETATM    6  C6  UNL     1     -33.791  15.970  -2.915  1.00 20.00     0.039 C 
HETATM    7  C7  UNL     1     -34.842  13.541  -4.301  1.00 20.00     0.040 C 
HETATM    8  C8  UNL     1     -32.902  15.021  -3.716  1.00 20.00     0.005 C 
HETATM    9  C9  UNL     1     -33.454  13.600  -3.664  1.00 20.00     0.005 C 
HETATM   10  N10 UNL     1     -38.014  15.515  -3.690  1.00 20.00    -0.248 NA
HETATM   11 CL11 UNL     1     -38.670  17.788  -2.633  1.00 20.00    -0.062 Cl
ENDROOT
TORSDOF 0
ENDMDL
