MODEL 1
REMARK VINA RESULT:      -3.6      0.000      0.000
REMARK  2 active torsions:
REMARK  status: ('A' for Active; 'I' for Inactive)
REMARK    1  A    between atoms: C5_5  and  C6_6 
REMARK    2  A    between atoms: C6_6  and  C7_7 
ROOT
HETATM    1  C1  UNL     1     -36.705  14.789  -3.840  1.00 20.00     0.012 C 
HETATM    2  C6  UNL     1     -35.317  15.041  -3.221  1.00 20.00     0.002 C 
ENDROOT
BRANCH   2   3
HETATM    3  C5  UNL     1     -35.266  16.456  -2.603  1.00 20.00     0.119 C 
HETATM    4 CL8  UNL     1     -34.642  16.444  -0.929  1.00 20.00    -0.130 Cl
ENDBRANCH   2   3
BRANCH   2   5
HETATM    5  C7  UNL     1     -34.133  14.782  -4.231  1.00 20.00    -0.047 C 
HETATM    6  C2  UNL     1     -33.230  13.638  -3.716  1.00 20.00     0.015 C 
HETATM    7  C3  UNL     1     -33.240  16.037  -4.358  1.00 20.00     0.015 C 
HETATM    8  C4  UNL     1     -34.634  14.403  -5.638  1.00 20.00     0.015 C 
ENDBRANCH   2   5
TORSDOF 2
ENDMDL
MODEL 2
REMARK VINA RESULT:      -3.6      0.042      1.522
REMARK  2 active torsions:
REMARK  status: ('A' for Active; 'I' for Inactive)
REMARK    1  A    between atoms: C5_5  and  C6_6 
REMARK    2  A    between atoms: C6_6  and  C7_7 
ROOT
HETATM    1  C1  UNL     1     -36.676  14.753  -3.868  1.00 20.00     0.012 C 
HETATM    2  C6  UNL     1     -35.309  15.032  -3.214  1.00 20.00     0.002 C 
ENDROOT
BRANCH   2   3
HETATM    3  C5  UNL     1     -35.305  16.444  -2.586  1.00 20.00     0.119 C 
HETATM    4 CL8  UNL     1     -34.632  16.448  -0.931  1.00 20.00    -0.130 Cl
ENDBRANCH   2   3
BRANCH   2   5
HETATM    5  C7  UNL     1     -34.096  14.806  -4.197  1.00 20.00    -0.047 C 
HETATM    6  C2  UNL     1     -34.608  14.397  -5.596  1.00 20.00     0.015 C 
HETATM    7  C3  UNL     1     -33.195  13.656  -3.694  1.00 20.00     0.015 C 
HETATM    8  C4  UNL     1     -33.225  16.067  -4.353  1.00 20.00     0.015 C 
ENDBRANCH   2   5
TORSDOF 2
ENDMDL
MODEL 3
REMARK VINA RESULT:      -3.6      0.989      2.183
REMARK  2 active torsions:
REMARK  status: ('A' for Active; 'I' for Inactive)
REMARK    1  A    between atoms: C5_5  and  C6_6 
REMARK    2  A    between atoms: C6_6  and  C7_7 
ROOT
HETATM    1  C1  UNL     1     -33.469  16.872  -5.143  1.00 20.00     0.012 C 
HETATM    2  C6  UNL     1     -34.296  16.105  -4.093  1.00 20.00     0.002 C 
ENDROOT
BRANCH   2   3
HETATM    3  C5  UNL     1     -33.573  16.137  -2.728  1.00 20.00     0.119 C 
HETATM    4 CL8  UNL     1     -34.712  16.287  -1.360  1.00 20.00    -0.130 Cl
ENDBRANCH   2   3
BRANCH   2   5
HETATM    5  C7  UNL     1     -34.665  14.640  -4.545  1.00 20.00    -0.047 C 
HETATM    6  C2  UNL     1     -36.081  14.267  -4.051  1.00 20.00     0.015 C 
HETATM    7  C3  UNL     1     -33.688  13.616  -3.925  1.00 20.00     0.015 C 
HETATM    8  C4  UNL     1     -34.630  14.472  -6.076  1.00 20.00     0.015 C 
ENDBRANCH   2   5
TORSDOF 2
ENDMDL
MODEL 4
REMARK VINA RESULT:      -3.5      1.015      2.436
REMARK  2 active torsions:
REMARK  status: ('A' for Active; 'I' for Inactive)
REMARK    1  A    between atoms: C5_5  and  C6_6 
REMARK    2  A    between atoms: C6_6  and  C7_7 
ROOT
HETATM    1  C1  UNL     1     -33.483  16.845  -5.217  1.00 20.00     0.012 C 
HETATM    2  C6  UNL     1     -34.306  16.095  -4.152  1.00 20.00     0.002 C 
ENDROOT
BRANCH   2   3
HETATM    3  C5  UNL     1     -33.573  16.140  -2.793  1.00 20.00     0.119 C 
HETATM    4 CL8  UNL     1     -34.705  16.256  -1.415  1.00 20.00    -0.130 Cl
ENDBRANCH   2   3
BRANCH   2   5
HETATM    5  C7  UNL     1     -34.685  14.626  -4.585  1.00 20.00    -0.047 C 
HETATM    6  C2  UNL     1     -34.657  14.497  -6.125  1.00 20.00     0.015 C 
HETATM    7  C3  UNL     1     -36.121  14.277  -4.131  1.00 20.00     0.015 C 
HETATM    8  C4  UNL     1     -33.725  13.575  -3.996  1.00 20.00     0.015 C 
ENDBRANCH   2   5
TORSDOF 2
ENDMDL
MODEL 5
REMARK VINA RESULT:      -3.5     11.801     12.554
REMARK  2 active torsions:
REMARK  status: ('A' for Active; 'I' for Inactive)
REMARK    1  A    between atoms: C5_5  and  C6_6 
REMARK    2  A    between atoms: C6_6  and  C7_7 
ROOT
HETATM    1  C1  UNL     1     -32.656   6.731   4.084  1.00 20.00     0.012 C 
HETATM    2  C6  UNL     1     -34.064   6.505   4.667  1.00 20.00     0.002 C 
ENDROOT
BRANCH   2   3
HETATM    3  C5  UNL     1     -33.967   6.228   6.184  1.00 20.00     0.119 C 
HETATM    4 CL8  UNL     1     -33.236   7.592   7.077  1.00 20.00    -0.130 Cl
ENDBRANCH   2   3
BRANCH   2   5
HETATM    5  C7  UNL     1     -34.878   5.391   3.901  1.00 20.00    -0.047 C 
HETATM    6  C2  UNL     1     -35.035   4.136   4.789  1.00 20.00     0.015 C 
HETATM    7  C3  UNL     1     -34.128   4.949   2.625  1.00 20.00     0.015 C 
HETATM    8  C4  UNL     1     -36.284   5.870   3.492  1.00 20.00     0.015 C 
ENDBRANCH   2   5
TORSDOF 2
ENDMDL
MODEL 6
REMARK VINA RESULT:      -3.5      2.265      3.355
REMARK  2 active torsions:
REMARK  status: ('A' for Active; 'I' for Inactive)
REMARK    1  A    between atoms: C5_5  and  C6_6 
REMARK    2  A    between atoms: C6_6  and  C7_7 
ROOT
HETATM    1  C1  UNL     1     -33.095  14.055  -3.680  1.00 20.00     0.012 C 
HETATM    2  C6  UNL     1     -34.535  14.395  -3.249  1.00 20.00     0.002 C 
ENDROOT
BRANCH   2   3
HETATM    3  C5  UNL     1     -35.540  13.807  -4.264  1.00 20.00     0.119 C 
HETATM    4 CL8  UNL     1     -35.007  14.030  -5.955  1.00 20.00    -0.130 Cl
ENDBRANCH   2   3
BRANCH   2   5
HETATM    5  C7  UNL     1     -34.759  15.937  -3.003  1.00 20.00    -0.047 C 
HETATM    6  C2  UNL     1     -33.699  16.762  -3.768  1.00 20.00     0.015 C 
HETATM    7  C3  UNL     1     -34.599  16.279  -1.505  1.00 20.00     0.015 C 
HETATM    8  C4  UNL     1     -36.154  16.407  -3.457  1.00 20.00     0.015 C 
ENDBRANCH   2   5
TORSDOF 2
ENDMDL
MODEL 7
REMARK VINA RESULT:      -3.5     12.251     13.345
REMARK  2 active torsions:
REMARK  status: ('A' for Active; 'I' for Inactive)
REMARK    1  A    between atoms: C5_5  and  C6_6 
REMARK    2  A    between atoms: C6_6  and  C7_7 
ROOT
HETATM    1  C1  UNL     1     -33.690   7.020   6.490  1.00 20.00     0.012 C 
HETATM    2  C6  UNL     1     -33.543   5.991   5.353  1.00 20.00     0.002 C 
ENDROOT
BRANCH   2   3
HETATM    3  C5  UNL     1     -33.442   6.719   3.994  1.00 20.00     0.119 C 
HETATM    4 CL8  UNL     1     -32.158   6.040   2.954  1.00 20.00    -0.130 Cl
ENDBRANCH   2   3
BRANCH   2   5
HETATM    5  C7  UNL     1     -34.672   4.889   5.365  1.00 20.00    -0.047 C 
HETATM    6  C2  UNL     1     -35.683   5.145   4.224  1.00 20.00     0.015 C 
HETATM    7  C3  UNL     1     -35.467   4.939   6.689  1.00 20.00     0.015 C 
HETATM    8  C4  UNL     1     -34.106   3.467   5.197  1.00 20.00     0.015 C 
ENDBRANCH   2   5
TORSDOF 2
ENDMDL
MODEL 8
REMARK VINA RESULT:      -3.5     12.241     13.308
REMARK  2 active torsions:
REMARK  status: ('A' for Active; 'I' for Inactive)
REMARK    1  A    between atoms: C5_5  and  C6_6 
REMARK    2  A    between atoms: C6_6  and  C7_7 
ROOT
HETATM    1  C1  UNL     1     -33.680   7.014   6.487  1.00 20.00     0.012 C 
HETATM    2  C6  UNL     1     -33.548   5.991   5.342  1.00 20.00     0.002 C 
ENDROOT
BRANCH   2   3
HETATM    3  C5  UNL     1     -33.425   6.728   3.990  1.00 20.00     0.119 C 
HETATM    4 CL8  UNL     1     -32.143   6.038   2.955  1.00 20.00    -0.130 Cl
ENDBRANCH   2   3
BRANCH   2   5
HETATM    5  C7  UNL     1     -34.700   4.913   5.339  1.00 20.00    -0.047 C 
HETATM    6  C2  UNL     1     -35.464   4.942   6.682  1.00 20.00     0.015 C 
HETATM    7  C3  UNL     1     -34.115   3.491   5.185  1.00 20.00     0.015 C 
HETATM    8  C4  UNL     1     -35.714   5.142   4.202  1.00 20.00     0.015 C 
ENDBRANCH   2   5
TORSDOF 2
ENDMDL
MODEL 9
REMARK VINA RESULT:      -3.4     11.565     12.610
REMARK  2 active torsions:
REMARK  status: ('A' for Active; 'I' for Inactive)
REMARK    1  A    between atoms: C5_5  and  C6_6 
REMARK    2  A    between atoms: C6_6  and  C7_7 
ROOT
HETATM    1  C1  UNL     1     -34.921   3.999   5.179  1.00 20.00     0.012 C 
HETATM    2  C6  UNL     1     -33.989   5.224   5.227  1.00 20.00     0.002 C 
ENDROOT
BRANCH   2   3
HETATM    3  C5  UNL     1     -34.450   6.193   6.339  1.00 20.00     0.119 C 
HETATM    4 CL8  UNL     1     -33.148   7.302   6.856  1.00 20.00    -0.130 Cl
ENDBRANCH   2   3
BRANCH   2   5
HETATM    5  C7  UNL     1     -33.835   5.940   3.829  1.00 20.00    -0.047 C 
HETATM    6  C2  UNL     1     -34.656   7.250   3.805  1.00 20.00     0.015 C 
HETATM    7  C3  UNL     1     -34.384   5.045   2.696  1.00 20.00     0.015 C 
HETATM    8  C4  UNL     1     -32.369   6.284   3.504  1.00 20.00     0.015 C 
ENDBRANCH   2   5
TORSDOF 2
ENDMDL
