MODEL 1
REMARK VINA RESULT:      -6.3      0.000      0.000
REMARK  1 active torsions:
REMARK  status: ('A' for Active; 'I' for Inactive)
REMARK    1  A    between atoms: C3_3  and  C5_5 
ROOT
HETATM    1  C1  UNL     1     -34.726   5.303   3.594  1.00 20.00     0.055 A 
HETATM    2  C2  UNL     1     -35.122   4.573   4.634  1.00 20.00     0.085 A 
HETATM    3  C3  UNL     1     -33.807   6.377   4.053  1.00 20.00     0.273 A 
HETATM    4  C4  UNL     1     -34.498   5.098   5.866  1.00 20.00     0.378 A 
HETATM    5  O6  UNL     1     -33.652   6.189   5.473  1.00 20.00    -0.273 OA
HETATM    6  F7  UNL     1     -34.362   7.605   3.868  1.00 20.00    -0.202 F 
HETATM    7  F8  UNL     1     -35.406   5.563   6.758  1.00 20.00    -0.171 F 
HETATM    8  F9  UNL     1     -33.732   4.177   6.499  1.00 20.00    -0.171 F 
ENDROOT
BRANCH   3   9
HETATM    9  C5  UNL     1     -32.445   6.346   3.388  1.00 20.00     0.337 C 
HETATM   10  F10 UNL     1     -32.388   5.271   2.562  1.00 20.00    -0.226 F 
HETATM   11 CL11 UNL     1     -32.176   7.822   2.444  1.00 20.00    -0.083 Cl
ENDBRANCH   3   9
TORSDOF 1
ENDMDL
MODEL 2
REMARK VINA RESULT:      -5.3      1.710      3.710
REMARK  1 active torsions:
REMARK  status: ('A' for Active; 'I' for Inactive)
REMARK    1  A    between atoms: C3_3  and  C5_5 
ROOT
HETATM    1  C1  UNL     1     -34.971   5.275   3.824  1.00 20.00     0.055 A 
HETATM    2  C2  UNL     1     -34.341   5.693   2.729  1.00 20.00     0.085 A 
HETATM    3  C3  UNL     1     -34.068   5.393   4.999  1.00 20.00     0.273 A 
HETATM    4  C4  UNL     1     -32.975   6.127   3.085  1.00 20.00     0.378 A 
HETATM    5  O6  UNL     1     -32.845   5.972   4.505  1.00 20.00    -0.273 OA
HETATM    6  F7  UNL     1     -33.759   4.169   5.502  1.00 20.00    -0.202 F 
HETATM    7  F8  UNL     1     -32.014   5.381   2.486  1.00 20.00    -0.171 F 
HETATM    8  F9  UNL     1     -32.740   7.425   2.777  1.00 20.00    -0.171 F 
ENDROOT
BRANCH   3   9
HETATM    9  C5  UNL     1     -34.622   6.259   6.115  1.00 20.00     0.337 C 
HETATM   10  F10 UNL     1     -35.147   5.452   7.072  1.00 20.00    -0.226 F 
HETATM   11 CL11 UNL     1     -33.340   7.254   6.829  1.00 20.00    -0.083 Cl
ENDBRANCH   3   9
TORSDOF 1
ENDMDL
MODEL 3
REMARK VINA RESULT:      -5.0      2.502      3.634
REMARK  1 active torsions:
REMARK  status: ('A' for Active; 'I' for Inactive)
REMARK    1  A    between atoms: C3_3  and  C5_5 
ROOT
HETATM    1  C1  UNL     1     -34.203   6.633   4.956  1.00 20.00     0.055 A 
HETATM    2  C2  UNL     1     -33.021   6.954   4.435  1.00 20.00     0.085 A 
HETATM    3  C3  UNL     1     -34.870   5.616   4.103  1.00 20.00     0.273 A 
HETATM    4  C4  UNL     1     -32.804   6.175   3.198  1.00 20.00     0.378 A 
HETATM    5  O6  UNL     1     -33.946   5.320   3.038  1.00 20.00    -0.273 OA
HETATM    6  F7  UNL     1     -35.995   6.121   3.530  1.00 20.00    -0.202 F 
HETATM    7  F8  UNL     1     -32.700   6.957   2.096  1.00 20.00    -0.171 F 
HETATM    8  F9  UNL     1     -31.697   5.396   3.257  1.00 20.00    -0.171 F 
ENDROOT
BRANCH   3   9
HETATM    9  C5  UNL     1     -35.223   4.335   4.835  1.00 20.00     0.337 C 
HETATM   10  F10 UNL     1     -34.762   3.281   4.115  1.00 20.00    -0.226 F 
HETATM   11 CL11 UNL     1     -34.479   4.311   6.444  1.00 20.00    -0.083 Cl
ENDBRANCH   3   9
TORSDOF 1
ENDMDL
MODEL 4
REMARK VINA RESULT:      -4.9     12.012     12.563
REMARK  1 active torsions:
REMARK  status: ('A' for Active; 'I' for Inactive)
REMARK    1  A    between atoms: C3_3  and  C5_5 
ROOT
HETATM    1  C1  UNL     1     -33.263  15.726  -4.452  1.00 20.00     0.055 A 
HETATM    2  C2  UNL     1     -33.780  16.666  -3.665  1.00 20.00     0.085 A 
HETATM    3  C3  UNL     1     -33.632  14.381  -3.940  1.00 20.00     0.273 A 
HETATM    4  C4  UNL     1     -34.537  16.025  -2.571  1.00 20.00     0.378 A 
HETATM    5  O6  UNL     1     -34.467  14.608  -2.789  1.00 20.00    -0.273 OA
HETATM    6  F7  UNL     1     -32.533  13.704  -3.513  1.00 20.00    -0.202 F 
HETATM    7  F8  UNL     1     -34.021  16.293  -1.346  1.00 20.00    -0.171 F 
HETATM    8  F9  UNL     1     -35.843  16.386  -2.555  1.00 20.00    -0.171 F 
ENDROOT
BRANCH   3   9
HETATM    9  C5  UNL     1     -34.379  13.525  -4.945  1.00 20.00     0.337 C 
HETATM   10  F10 UNL     1     -35.514  13.062  -4.363  1.00 20.00    -0.226 F 
HETATM   11 CL11 UNL     1     -34.805  14.474  -6.380  1.00 20.00    -0.083 Cl
ENDBRANCH   3   9
TORSDOF 1
ENDMDL
MODEL 5
REMARK VINA RESULT:      -4.8      9.600     10.327
REMARK  1 active torsions:
REMARK  status: ('A' for Active; 'I' for Inactive)
REMARK    1  A    between atoms: C3_3  and  C5_5 
ROOT
HETATM    1  C1  UNL     1     -43.187   5.638  -1.158  1.00 20.00     0.055 A 
HETATM    2  C2  UNL     1     -42.645   6.386  -0.200  1.00 20.00     0.085 A 
HETATM    3  C3  UNL     1     -42.194   5.408  -2.240  1.00 20.00     0.273 A 
HETATM    4  C4  UNL     1     -41.250   6.710  -0.562  1.00 20.00     0.378 A 
HETATM    5  O6  UNL     1     -40.980   6.055  -1.811  1.00 20.00    -0.273 OA
HETATM    6  F7  UNL     1     -42.583   6.009  -3.395  1.00 20.00    -0.202 F 
HETATM    7  F8  UNL     1     -41.045   8.040  -0.727  1.00 20.00    -0.171 F 
HETATM    8  F9  UNL     1     -40.354   6.265   0.351  1.00 20.00    -0.171 F 
ENDROOT
BRANCH   3   9
HETATM    9  C5  UNL     1     -41.914   3.943  -2.516  1.00 20.00     0.337 C 
HETATM   10  F10 UNL     1     -40.710   3.621  -1.979  1.00 20.00    -0.226 F 
HETATM   11 CL11 UNL     1     -43.167   2.920  -1.791  1.00 20.00    -0.083 Cl
ENDBRANCH   3   9
TORSDOF 1
ENDMDL
MODEL 6
REMARK VINA RESULT:      -4.8     11.937     13.071
REMARK  1 active torsions:
REMARK  status: ('A' for Active; 'I' for Inactive)
REMARK    1  A    between atoms: C3_3  and  C5_5 
ROOT
HETATM    1  C1  UNL     1     -32.843  14.739  -3.603  1.00 20.00     0.055 A 
HETATM    2  C2  UNL     1     -33.551  13.646  -3.876  1.00 20.00     0.085 A 
HETATM    3  C3  UNL     1     -33.549  15.940  -4.122  1.00 20.00     0.273 A 
HETATM    4  C4  UNL     1     -34.785  14.029  -4.593  1.00 20.00     0.378 A 
HETATM    5  O6  UNL     1     -34.781  15.461  -4.694  1.00 20.00    -0.273 OA
HETATM    6  F7  UNL     1     -32.841  16.526  -5.124  1.00 20.00    -0.202 F 
HETATM    7  F8  UNL     1     -34.846  13.514  -5.845  1.00 20.00    -0.171 F 
HETATM    8  F9  UNL     1     -35.910  13.654  -3.938  1.00 20.00    -0.171 F 
ENDROOT
BRANCH   3   9
HETATM    9  C5  UNL     1     -33.855  16.979  -3.061  1.00 20.00     0.337 C 
HETATM   10  F10 UNL     1     -34.752  17.864  -3.565  1.00 20.00    -0.226 F 
HETATM   11 CL11 UNL     1     -34.541  16.214  -1.616  1.00 20.00    -0.083 Cl
ENDBRANCH   3   9
TORSDOF 1
ENDMDL
MODEL 7
REMARK VINA RESULT:      -4.7      1.993      2.408
REMARK  1 active torsions:
REMARK  status: ('A' for Active; 'I' for Inactive)
REMARK    1  A    between atoms: C3_3  and  C5_5 
ROOT
HETATM    1  C1  UNL     1     -33.777   6.848   5.296  1.00 20.00     0.055 A 
HETATM    2  C2  UNL     1     -34.181   6.329   6.453  1.00 20.00     0.085 A 
HETATM    3  C3  UNL     1     -33.653   5.773   4.278  1.00 20.00     0.273 A 
HETATM    4  C4  UNL     1     -34.363   4.871   6.298  1.00 20.00     0.378 A 
HETATM    5  O6  UNL     1     -34.071   4.558   4.929  1.00 20.00    -0.273 OA
HETATM    6  F7  UNL     1     -32.357   5.603   3.904  1.00 20.00    -0.202 F 
HETATM    7  F8  UNL     1     -33.528   4.151   7.087  1.00 20.00    -0.171 F 
HETATM    8  F9  UNL     1     -35.629   4.470   6.564  1.00 20.00    -0.171 F 
ENDROOT
BRANCH   3   9
HETATM    9  C5  UNL     1     -34.498   5.999   3.039  1.00 20.00     0.337 C 
HETATM   10  F10 UNL     1     -34.139   5.093   2.095  1.00 20.00    -0.226 F 
HETATM   11 CL11 UNL     1     -36.220   5.800   3.413  1.00 20.00    -0.083 Cl
ENDBRANCH   3   9
TORSDOF 1
ENDMDL
MODEL 8
REMARK VINA RESULT:      -4.7     12.335     12.839
REMARK  1 active torsions:
REMARK  status: ('A' for Active; 'I' for Inactive)
REMARK    1  A    between atoms: C3_3  and  C5_5 
ROOT
HETATM    1  C1  UNL     1     -34.410  15.206  -5.433  1.00 20.00     0.055 A 
HETATM    2  C2  UNL     1     -33.383  15.796  -4.826  1.00 20.00     0.085 A 
HETATM    3  C3  UNL     1     -34.935  14.107  -4.581  1.00 20.00     0.273 A 
HETATM    4  C4  UNL     1     -33.144  15.143  -3.523  1.00 20.00     0.378 A 
HETATM    5  O6  UNL     1     -34.147  14.128  -3.375  1.00 20.00    -0.273 OA
HETATM    6  F7  UNL     1     -34.738  12.898  -5.169  1.00 20.00    -0.202 F 
HETATM    7  F8  UNL     1     -31.926  14.552  -3.447  1.00 20.00    -0.171 F 
HETATM    8  F9  UNL     1     -33.252  16.000  -2.479  1.00 20.00    -0.171 F 
ENDROOT
BRANCH   3   9
HETATM    9  C5  UNL     1     -36.402  14.251  -4.227  1.00 20.00     0.337 C 
HETATM   10  F10 UNL     1     -36.502  14.897  -3.038  1.00 20.00    -0.226 F 
HETATM   11 CL11 UNL     1     -37.257  15.182  -5.471  1.00 20.00    -0.083 Cl
ENDBRANCH   3   9
TORSDOF 1
ENDMDL
MODEL 9
REMARK VINA RESULT:      -4.7      1.607      2.444
REMARK  1 active torsions:
REMARK  status: ('A' for Active; 'I' for Inactive)
REMARK    1  A    between atoms: C3_3  and  C5_5 
ROOT
HETATM    1  C1  UNL     1     -33.403   6.373   5.031  1.00 20.00     0.055 A 
HETATM    2  C2  UNL     1     -34.507   5.743   5.424  1.00 20.00     0.085 A 
HETATM    3  C3  UNL     1     -33.137   6.078   3.599  1.00 20.00     0.273 A 
HETATM    4  C4  UNL     1     -35.068   4.984   4.288  1.00 20.00     0.378 A 
HETATM    5  O6  UNL     1     -34.224   5.243   3.156  1.00 20.00    -0.273 OA
HETATM    6  F7  UNL     1     -31.993   5.359   3.454  1.00 20.00    -0.202 F 
HETATM    7  F8  UNL     1     -35.086   3.646   4.508  1.00 20.00    -0.171 F 
HETATM    8  F9  UNL     1     -36.329   5.366   3.972  1.00 20.00    -0.171 F 
ENDROOT
BRANCH   3   9
HETATM    9  C5  UNL     1     -33.059   7.312   2.722  1.00 20.00     0.337 C 
HETATM   10  F10 UNL     1     -34.013   8.191   3.120  1.00 20.00    -0.226 F 
HETATM   11 CL11 UNL     1     -31.466   8.078   2.861  1.00 20.00    -0.083 Cl
ENDBRANCH   3   9
TORSDOF 1
ENDMDL
