MODEL 1
REMARK VINA RESULT:      -4.3      0.000      0.000
REMARK  1 active torsions:
REMARK  status: ('A' for Active; 'I' for Inactive)
REMARK    1  A    between atoms: C4_4  and  C9_9 
ROOT
HETATM    1  C1  UNL     1     -34.197  17.749  -0.143  1.00 20.00     0.017 C 
HETATM    2  C2  UNL     1     -34.392  16.888  -0.957  1.00 20.00    -0.089 C 
HETATM    3  C3  UNL     1     -34.631  15.853  -1.905  1.00 20.00     0.066 C 
HETATM    4  C4  UNL     1     -34.309  15.923  -3.215  1.00 20.00    -0.068 C 
HETATM    5  C5  UNL     1     -33.653  17.160  -3.803  1.00 20.00     0.044 C 
ENDROOT
BRANCH   4   6
HETATM    6  C9  UNL     1     -34.580  14.761  -4.208  1.00 20.00    -0.028 C 
HETATM    7  C6  UNL     1     -36.039  14.270  -4.079  1.00 20.00     0.019 C 
HETATM    8  C7  UNL     1     -34.371  15.143  -5.695  1.00 20.00     0.019 C 
HETATM    9  C8  UNL     1     -33.627  13.585  -3.906  1.00 20.00     0.019 C 
ENDBRANCH   4   6
TORSDOF 1
ENDMDL
MODEL 2
REMARK VINA RESULT:      -4.3      0.069      1.444
REMARK  1 active torsions:
REMARK  status: ('A' for Active; 'I' for Inactive)
REMARK    1  A    between atoms: C4_4  and  C9_9 
ROOT
HETATM    1  C1  UNL     1     -34.249  17.756  -0.115  1.00 20.00     0.017 C 
HETATM    2  C2  UNL     1     -34.428  16.893  -0.931  1.00 20.00    -0.089 C 
HETATM    3  C3  UNL     1     -34.646  15.856  -1.882  1.00 20.00     0.066 C 
HETATM    4  C4  UNL     1     -34.310  15.930  -3.188  1.00 20.00    -0.068 C 
HETATM    5  C5  UNL     1     -33.659  17.173  -3.769  1.00 20.00     0.044 C 
ENDROOT
BRANCH   4   6
HETATM    6  C9  UNL     1     -34.559  14.766  -4.185  1.00 20.00    -0.028 C 
HETATM    7  C6  UNL     1     -33.592  13.595  -3.899  1.00 20.00     0.019 C 
HETATM    8  C7  UNL     1     -35.992  14.181  -4.124  1.00 20.00     0.019 C 
HETATM    9  C8  UNL     1     -34.334  15.260  -5.629  1.00 20.00     0.019 C 
ENDBRANCH   4   6
TORSDOF 1
ENDMDL
MODEL 3
REMARK VINA RESULT:      -4.3      0.078      1.441
REMARK  1 active torsions:
REMARK  status: ('A' for Active; 'I' for Inactive)
REMARK    1  A    between atoms: C4_4  and  C9_9 
ROOT
HETATM    1  C1  UNL     1     -34.304  17.729  -0.108  1.00 20.00     0.017 C 
HETATM    2  C2  UNL     1     -34.480  16.874  -0.931  1.00 20.00    -0.089 C 
HETATM    3  C3  UNL     1     -34.696  15.845  -1.892  1.00 20.00     0.066 C 
HETATM    4  C4  UNL     1     -34.331  15.918  -3.190  1.00 20.00    -0.068 C 
HETATM    5  C5  UNL     1     -33.645  17.152  -3.751  1.00 20.00     0.044 C 
ENDROOT
BRANCH   4   6
HETATM    6  C9  UNL     1     -34.578  14.763  -4.198  1.00 20.00    -0.028 C 
HETATM    7  C6  UNL     1     -34.331  15.247  -5.644  1.00 20.00     0.019 C 
HETATM    8  C7  UNL     1     -33.665  13.532  -3.980  1.00 20.00     0.019 C 
HETATM    9  C8  UNL     1     -36.036  14.271  -4.077  1.00 20.00     0.019 C 
ENDBRANCH   4   6
TORSDOF 1
ENDMDL
MODEL 4
REMARK VINA RESULT:      -4.2     11.419     13.725
REMARK  1 active torsions:
REMARK  status: ('A' for Active; 'I' for Inactive)
REMARK    1  A    between atoms: C4_4  and  C9_9 
ROOT
HETATM    1  C1  UNL     1     -41.563   2.039  -3.669  1.00 20.00     0.017 C 
HETATM    2  C2  UNL     1     -41.499   2.915  -2.851  1.00 20.00    -0.089 C 
HETATM    3  C3  UNL     1     -41.410   3.940  -1.866  1.00 20.00     0.066 C 
HETATM    4  C4  UNL     1     -42.079   5.112  -1.917  1.00 20.00    -0.068 C 
HETATM    5  C5  UNL     1     -43.004   5.446  -3.074  1.00 20.00     0.044 C 
ENDROOT
BRANCH   4   6
HETATM    6  C9  UNL     1     -41.958   6.195  -0.811  1.00 20.00    -0.028 C 
HETATM    7  C6  UNL     1     -43.135   6.083   0.184  1.00 20.00     0.019 C 
HETATM    8  C7  UNL     1     -40.659   6.097   0.026  1.00 20.00     0.019 C 
HETATM    9  C8  UNL     1     -41.976   7.598  -1.453  1.00 20.00     0.019 C 
ENDBRANCH   4   6
TORSDOF 1
ENDMDL
MODEL 5
REMARK VINA RESULT:      -4.1     11.352     12.656
REMARK  1 active torsions:
REMARK  status: ('A' for Active; 'I' for Inactive)
REMARK    1  A    between atoms: C4_4  and  C9_9 
ROOT
HETATM    1  C1  UNL     1     -31.804   8.009   1.843  1.00 20.00     0.017 C 
HETATM    2  C2  UNL     1     -32.245   7.466   2.819  1.00 20.00    -0.089 C 
HETATM    3  C3  UNL     1     -32.752   6.832   3.989  1.00 20.00     0.066 C 
HETATM    4  C4  UNL     1     -33.715   5.886   3.993  1.00 20.00    -0.068 C 
HETATM    5  C5  UNL     1     -34.366   5.413   2.704  1.00 20.00     0.044 C 
ENDROOT
BRANCH   4   6
HETATM    6  C9  UNL     1     -34.227   5.215   5.296  1.00 20.00    -0.028 C 
HETATM    7  C6  UNL     1     -35.623   4.594   5.070  1.00 20.00     0.019 C 
HETATM    8  C7  UNL     1     -33.315   4.077   5.818  1.00 20.00     0.019 C 
HETATM    9  C8  UNL     1     -34.323   6.267   6.420  1.00 20.00     0.019 C 
ENDBRANCH   4   6
TORSDOF 1
ENDMDL
MODEL 6
REMARK VINA RESULT:      -4.0     11.432     12.761
REMARK  1 active torsions:
REMARK  status: ('A' for Active; 'I' for Inactive)
REMARK    1  A    between atoms: C4_4  and  C9_9 
ROOT
HETATM    1  C1  UNL     1     -43.052   8.352  -4.741  1.00 20.00     0.017 C 
HETATM    2  C2  UNL     1     -42.580   7.844  -3.761  1.00 20.00    -0.089 C 
HETATM    3  C3  UNL     1     -42.008   7.261  -2.594  1.00 20.00     0.066 C 
HETATM    4  C4  UNL     1     -42.181   5.977  -2.215  1.00 20.00    -0.068 C 
HETATM    5  C5  UNL     1     -43.039   5.020  -3.025  1.00 20.00     0.044 C 
ENDROOT
BRANCH   4   6
HETATM    6  C9  UNL     1     -41.526   5.384  -0.938  1.00 20.00    -0.028 C 
HETATM    7  C6  UNL     1     -40.628   6.439  -0.254  1.00 20.00     0.019 C 
HETATM    8  C7  UNL     1     -42.543   4.909   0.128  1.00 20.00     0.019 C 
HETATM    9  C8  UNL     1     -40.663   4.161  -1.316  1.00 20.00     0.019 C 
ENDBRANCH   4   6
TORSDOF 1
ENDMDL
MODEL 7
REMARK VINA RESULT:      -3.9     11.499     12.798
REMARK  1 active torsions:
REMARK  status: ('A' for Active; 'I' for Inactive)
REMARK    1  A    between atoms: C4_4  and  C9_9 
ROOT
HETATM    1  C1  UNL     1     -43.077   8.356  -4.709  1.00 20.00     0.017 C 
HETATM    2  C2  UNL     1     -42.599   7.815  -3.750  1.00 20.00    -0.089 C 
HETATM    3  C3  UNL     1     -42.020   7.192  -2.607  1.00 20.00     0.066 C 
HETATM    4  C4  UNL     1     -42.219   5.904  -2.253  1.00 20.00    -0.068 C 
HETATM    5  C5  UNL     1     -43.116   4.988  -3.066  1.00 20.00     0.044 C 
ENDROOT
BRANCH   4   6
HETATM    6  C9  UNL     1     -41.554   5.267  -1.003  1.00 20.00    -0.028 C 
HETATM    7  C6  UNL     1     -42.632   4.737  -0.031  1.00 20.00     0.019 C 
HETATM    8  C7  UNL     1     -40.623   4.073  -1.326  1.00 20.00     0.019 C 
HETATM    9  C8  UNL     1     -40.697   6.323  -0.273  1.00 20.00     0.019 C 
ENDBRANCH   4   6
TORSDOF 1
ENDMDL
MODEL 8
REMARK VINA RESULT:      -3.9     12.666     14.504
REMARK  1 active torsions:
REMARK  status: ('A' for Active; 'I' for Inactive)
REMARK    1  A    between atoms: C4_4  and  C9_9 
ROOT
HETATM    1  C1  UNL     1     -40.744   6.070  -0.542  1.00 20.00     0.017 C 
HETATM    2  C2  UNL     1     -40.984   5.048  -1.125  1.00 20.00    -0.089 C 
HETATM    3  C3  UNL     1     -41.249   3.827  -1.809  1.00 20.00     0.066 C 
HETATM    4  C4  UNL     1     -42.249   3.648  -2.699  1.00 20.00    -0.068 C 
HETATM    5  C5  UNL     1     -43.211   4.771  -3.045  1.00 20.00     0.044 C 
ENDROOT
BRANCH   4   6
HETATM    6  C9  UNL     1     -42.490   2.299  -3.428  1.00 20.00    -0.028 C 
HETATM    7  C6  UNL     1     -43.190   1.294  -2.485  1.00 20.00     0.019 C 
HETATM    8  C7  UNL     1     -43.380   2.416  -4.690  1.00 20.00     0.019 C 
HETATM    9  C8  UNL     1     -41.141   1.703  -3.881  1.00 20.00     0.019 C 
ENDBRANCH   4   6
TORSDOF 1
ENDMDL
MODEL 9
REMARK VINA RESULT:      -3.9      1.144      2.004
REMARK  1 active torsions:
REMARK  status: ('A' for Active; 'I' for Inactive)
REMARK    1  A    between atoms: C4_4  and  C9_9 
ROOT
HETATM    1  C1  UNL     1     -34.725  18.026   1.144  1.00 20.00     0.017 C 
HETATM    2  C2  UNL     1     -34.732  17.333   0.164  1.00 20.00    -0.089 C 
HETATM    3  C3  UNL     1     -34.748  16.493  -0.986  1.00 20.00     0.066 C 
HETATM    4  C4  UNL     1     -34.312  16.860  -2.210  1.00 20.00    -0.068 C 
HETATM    5  C5  UNL     1     -33.761  18.251  -2.470  1.00 20.00     0.044 C 
ENDROOT
BRANCH   4   6
HETATM    6  C9  UNL     1     -34.339  15.902  -3.432  1.00 20.00    -0.028 C 
HETATM    7  C6  UNL     1     -34.022  16.676  -4.731  1.00 20.00     0.019 C 
HETATM    8  C7  UNL     1     -33.315  14.743  -3.345  1.00 20.00     0.019 C 
HETATM    9  C8  UNL     1     -35.737  15.261  -3.560  1.00 20.00     0.019 C 
ENDBRANCH   4   6
TORSDOF 1
ENDMDL
