MODEL 1
REMARK VINA RESULT:      -4.4      0.000      0.000
REMARK  2 active torsions:
REMARK  status: ('A' for Active; 'I' for Inactive)
REMARK    1  A    between atoms: C3_3  and  O10_10 
REMARK    2  A    between atoms: C8_8  and  O10_10 
ROOT
HETATM    1  C1  UNL     1     -33.376  13.890  -3.746  1.00 20.00     0.069 C 
HETATM    2  C2  UNL     1     -34.381  13.448  -4.834  1.00 20.00     0.173 C 
HETATM    3  C3  UNL     1     -34.176  15.197  -3.553  1.00 20.00     0.134 C 
HETATM    4  C4  UNL     1     -34.855  14.941  -4.941  1.00 20.00     0.008 C 
HETATM    5  C5  UNL     1     -36.351  15.267  -4.942  1.00 20.00     0.020 C 
HETATM    6  C6  UNL     1     -34.169  15.649  -6.121  1.00 20.00     0.020 C 
HETATM    7  O9  UNL     1     -35.343  12.547  -4.340  1.00 20.00    -0.234 OA
ENDROOT
BRANCH   3   8
HETATM    8  O10 UNL     1     -33.403  16.404  -3.426  1.00 20.00    -0.385 OA
BRANCH   8   9
HETATM    9  C8  UNL     1     -33.792  17.134  -2.279  1.00 20.00     0.163 C 
HETATM   10  C7  UNL     1     -34.780  16.309  -1.481  1.00 20.00     0.033 C 
ENDBRANCH   8   9
ENDBRANCH   3   8
TORSDOF 2
ENDMDL
MODEL 2
REMARK VINA RESULT:      -4.0      1.586      2.842
REMARK  2 active torsions:
REMARK  status: ('A' for Active; 'I' for Inactive)
REMARK    1  A    between atoms: C3_3  and  O10_10 
REMARK    2  A    between atoms: C8_8  and  O10_10 
ROOT
HETATM    1  C1  UNL     1     -35.907  14.714  -5.194  1.00 20.00     0.069 C 
HETATM    2  C2  UNL     1     -35.317  13.753  -4.137  1.00 20.00     0.173 C 
HETATM    3  C3  UNL     1     -34.628  15.575  -5.110  1.00 20.00     0.134 C 
HETATM    4  C4  UNL     1     -34.295  14.879  -3.747  1.00 20.00     0.008 C 
HETATM    5  C5  UNL     1     -32.810  14.542  -3.596  1.00 20.00     0.020 C 
HETATM    6  C6  UNL     1     -34.780  15.651  -2.508  1.00 20.00     0.020 C 
HETATM    7  O9  UNL     1     -34.749  12.603  -4.718  1.00 20.00    -0.234 OA
ENDROOT
BRANCH   3   8
HETATM    8  O10 UNL     1     -34.821  17.001  -5.076  1.00 20.00    -0.385 OA
BRANCH   8   9
HETATM    9  C8  UNL     1     -33.710  17.674  -5.636  1.00 20.00     0.163 C 
HETATM   10  C7  UNL     1     -33.465  18.953  -4.864  1.00 20.00     0.033 C 
ENDBRANCH   8   9
ENDBRANCH   3   8
TORSDOF 2
ENDMDL
MODEL 3
REMARK VINA RESULT:      -3.9      1.753      3.591
REMARK  2 active torsions:
REMARK  status: ('A' for Active; 'I' for Inactive)
REMARK    1  A    between atoms: C3_3  and  O10_10 
REMARK    2  A    between atoms: C8_8  and  O10_10 
ROOT
HETATM    1  C1  UNL     1     -36.908  16.262  -4.516  1.00 20.00     0.069 C 
HETATM    2  C2  UNL     1     -36.944  15.113  -3.481  1.00 20.00     0.173 C 
HETATM    3  C3  UNL     1     -35.693  15.595  -5.198  1.00 20.00     0.134 C 
HETATM    4  C4  UNL     1     -35.472  14.753  -3.897  1.00 20.00     0.008 C 
HETATM    5  C5  UNL     1     -35.097  13.297  -4.184  1.00 20.00     0.020 C 
HETATM    6  C6  UNL     1     -34.462  15.364  -2.912  1.00 20.00     0.020 C 
HETATM    7  O9  UNL     1     -37.911  14.140  -3.795  1.00 20.00    -0.234 OA
ENDROOT
BRANCH   3   8
HETATM    8  O10 UNL     1     -34.621  16.473  -5.588  1.00 20.00    -0.385 OA
BRANCH   8   9
HETATM    9  C8  UNL     1     -34.381  16.388  -6.980  1.00 20.00     0.163 C 
HETATM   10  C7  UNL     1     -34.650  14.971  -7.442  1.00 20.00     0.033 C 
ENDBRANCH   8   9
ENDBRANCH   3   8
TORSDOF 2
ENDMDL
MODEL 4
REMARK VINA RESULT:      -3.9      1.795      3.575
REMARK  2 active torsions:
REMARK  status: ('A' for Active; 'I' for Inactive)
REMARK    1  A    between atoms: C3_3  and  O10_10 
REMARK    2  A    between atoms: C8_8  and  O10_10 
ROOT
HETATM    1  C1  UNL     1     -35.263  13.271  -4.437  1.00 20.00     0.069 C 
HETATM    2  C2  UNL     1     -34.197  13.784  -3.443  1.00 20.00     0.173 C 
HETATM    3  C3  UNL     1     -35.071  14.546  -5.287  1.00 20.00     0.134 C 
HETATM    4  C4  UNL     1     -34.386  15.220  -4.049  1.00 20.00     0.008 C 
HETATM    5  C5  UNL     1     -33.160  16.056  -4.427  1.00 20.00     0.020 C 
HETATM    6  C6  UNL     1     -35.338  16.059  -3.179  1.00 20.00     0.020 C 
HETATM    7  O9  UNL     1     -32.934  13.202  -3.665  1.00 20.00    -0.234 OA
ENDROOT
BRANCH   3   8
HETATM    8  O10 UNL     1     -36.270  15.171  -5.780  1.00 20.00    -0.385 OA
BRANCH   8   9
HETATM    9  C8  UNL     1     -36.142  15.497  -7.150  1.00 20.00     0.163 C 
HETATM   10  C7  UNL     1     -34.888  14.849  -7.697  1.00 20.00     0.033 C 
ENDBRANCH   8   9
ENDBRANCH   3   8
TORSDOF 2
ENDMDL
MODEL 5
REMARK VINA RESULT:      -3.8      1.538      2.135
REMARK  2 active torsions:
REMARK  status: ('A' for Active; 'I' for Inactive)
REMARK    1  A    between atoms: C3_3  and  O10_10 
REMARK    2  A    between atoms: C8_8  and  O10_10 
ROOT
HETATM    1  C1  UNL     1     -35.523  13.942  -4.097  1.00 20.00     0.069 C 
HETATM    2  C2  UNL     1     -34.463  14.005  -5.221  1.00 20.00     0.173 C 
HETATM    3  C3  UNL     1     -35.052  15.322  -3.589  1.00 20.00     0.134 C 
HETATM    4  C4  UNL     1     -33.729  15.129  -4.405  1.00 20.00     0.008 C 
HETATM    5  C5  UNL     1     -33.270  16.407  -5.111  1.00 20.00     0.020 C 
HETATM    6  C6  UNL     1     -32.565  14.540  -3.590  1.00 20.00     0.020 C 
HETATM    7  O9  UNL     1     -35.011  14.418  -6.450  1.00 20.00    -0.234 OA
ENDROOT
BRANCH   3   8
HETATM    8  O10 UNL     1     -34.917  15.464  -2.163  1.00 20.00    -0.385 OA
BRANCH   8   9
HETATM    9  C8  UNL     1     -35.100  16.811  -1.771  1.00 20.00     0.163 C 
HETATM   10  C7  UNL     1     -33.826  17.315  -1.126  1.00 20.00     0.033 C 
ENDBRANCH   8   9
ENDBRANCH   3   8
TORSDOF 2
ENDMDL
MODEL 6
REMARK VINA RESULT:      -3.7      1.652      2.468
REMARK  2 active torsions:
REMARK  status: ('A' for Active; 'I' for Inactive)
REMARK    1  A    between atoms: C3_3  and  O10_10 
REMARK    2  A    between atoms: C8_8  and  O10_10 
ROOT
HETATM    1  C1  UNL     1     -34.244  15.299  -2.782  1.00 20.00     0.069 C 
HETATM    2  C2  UNL     1     -33.300  14.663  -3.828  1.00 20.00     0.173 C 
HETATM    3  C3  UNL     1     -35.333  15.443  -3.868  1.00 20.00     0.134 C 
HETATM    4  C4  UNL     1     -34.220  15.255  -4.955  1.00 20.00     0.008 C 
HETATM    5  C5  UNL     1     -34.666  14.367  -6.119  1.00 20.00     0.020 C 
HETATM    6  C6  UNL     1     -33.639  16.571  -5.498  1.00 20.00     0.020 C 
HETATM    7  O9  UNL     1     -33.280  13.258  -3.747  1.00 20.00    -0.234 OA
ENDROOT
BRANCH   3   8
HETATM    8  O10 UNL     1     -36.051  16.690  -3.889  1.00 20.00    -0.385 OA
BRANCH   8   9
HETATM    9  C8  UNL     1     -37.443  16.468  -4.002  1.00 20.00     0.163 C 
HETATM   10  C7  UNL     1     -37.725  14.993  -3.813  1.00 20.00     0.033 C 
ENDBRANCH   8   9
ENDBRANCH   3   8
TORSDOF 2
ENDMDL
MODEL 7
REMARK VINA RESULT:      -3.7      1.611      3.545
REMARK  2 active torsions:
REMARK  status: ('A' for Active; 'I' for Inactive)
REMARK    1  A    between atoms: C3_3  and  O10_10 
REMARK    2  A    between atoms: C8_8  and  O10_10 
ROOT
HETATM    1  C1  UNL     1     -34.207  14.288  -3.751  1.00 20.00     0.069 C 
HETATM    2  C2  UNL     1     -33.273  15.481  -3.441  1.00 20.00     0.173 C 
HETATM    3  C3  UNL     1     -35.411  15.254  -3.787  1.00 20.00     0.134 C 
HETATM    4  C4  UNL     1     -34.541  16.308  -3.021  1.00 20.00     0.008 C 
HETATM    5  C5  UNL     1     -34.728  17.733  -3.547  1.00 20.00     0.020 C 
HETATM    6  C6  UNL     1     -34.724  16.289  -1.495  1.00 20.00     0.020 C 
HETATM    7  O9  UNL     1     -32.604  15.949  -4.587  1.00 20.00    -0.234 OA
ENDROOT
BRANCH   3   8
HETATM    8  O10 UNL     1     -36.609  14.805  -3.127  1.00 20.00    -0.385 OA
BRANCH   8   9
HETATM    9  C8  UNL     1     -37.686  14.721  -4.040  1.00 20.00     0.163 C 
HETATM   10  C7  UNL     1     -37.397  15.614  -5.228  1.00 20.00     0.033 C 
ENDBRANCH   8   9
ENDBRANCH   3   8
TORSDOF 2
ENDMDL
MODEL 8
REMARK VINA RESULT:      -3.7      1.681      2.185
REMARK  2 active torsions:
REMARK  status: ('A' for Active; 'I' for Inactive)
REMARK    1  A    between atoms: C3_3  and  O10_10 
REMARK    2  A    between atoms: C8_8  and  O10_10 
ROOT
HETATM    1  C1  UNL     1     -34.607  14.489  -3.532  1.00 20.00     0.069 C 
HETATM    2  C2  UNL     1     -35.758  13.940  -4.406  1.00 20.00     0.173 C 
HETATM    3  C3  UNL     1     -34.694  15.836  -4.282  1.00 20.00     0.134 C 
HETATM    4  C4  UNL     1     -35.485  15.107  -5.421  1.00 20.00     0.008 C 
HETATM    5  C5  UNL     1     -36.654  15.936  -5.961  1.00 20.00     0.020 C 
HETATM    6  C6  UNL     1     -34.610  14.622  -6.588  1.00 20.00     0.020 C 
HETATM    7  O9  UNL     1     -37.002  13.994  -3.750  1.00 20.00    -0.234 OA
ENDROOT
BRANCH   3   8
HETATM    8  O10 UNL     1     -33.441  16.440  -4.652  1.00 20.00    -0.385 OA
BRANCH   8   9
HETATM    9  C8  UNL     1     -33.524  17.851  -4.590  1.00 20.00     0.163 C 
HETATM   10  C7  UNL     1     -33.672  18.399  -5.994  1.00 20.00     0.033 C 
ENDBRANCH   8   9
ENDBRANCH   3   8
TORSDOF 2
ENDMDL
MODEL 9
REMARK VINA RESULT:      -3.6      1.349      3.494
REMARK  2 active torsions:
REMARK  status: ('A' for Active; 'I' for Inactive)
REMARK    1  A    between atoms: C3_3  and  O10_10 
REMARK    2  A    between atoms: C8_8  and  O10_10 
ROOT
HETATM    1  C1  UNL     1     -34.592  15.758  -5.901  1.00 20.00     0.069 C 
HETATM    2  C2  UNL     1     -33.317  16.077  -5.089  1.00 20.00     0.173 C 
HETATM    3  C3  UNL     1     -35.357  15.507  -4.583  1.00 20.00     0.134 C 
HETATM    4  C4  UNL     1     -33.977  15.364  -3.855  1.00 20.00     0.008 C 
HETATM    5  C5  UNL     1     -33.954  16.041  -2.482  1.00 20.00     0.020 C 
HETATM    6  C6  UNL     1     -33.476  13.916  -3.728  1.00 20.00     0.020 C 
HETATM    7  O9  UNL     1     -33.109  17.462  -4.940  1.00 20.00    -0.234 OA
ENDROOT
BRANCH   3   8
HETATM    8  O10 UNL     1     -36.222  14.356  -4.557  1.00 20.00    -0.385 OA
BRANCH   8   9
HETATM    9  C8  UNL     1     -37.452  14.664  -3.931  1.00 20.00     0.163 C 
HETATM   10  C7  UNL     1     -37.557  16.165  -3.761  1.00 20.00     0.033 C 
ENDBRANCH   8   9
ENDBRANCH   3   8
TORSDOF 2
ENDMDL
