MODEL 1
REMARK VINA RESULT:      -5.0      0.000      0.000
REMARK  2 active torsions:
REMARK  status: ('A' for Active; 'I' for Inactive)
REMARK    1  A    between atoms: C3_3  and  C4_4 
REMARK    2  A    between atoms: C3_3  and  C5_5 
ROOT
HETATM    1  C3  UNL     1     -33.728   6.277   4.496  1.00 20.00     0.157 C 
ENDROOT
BRANCH   1   2
HETATM    2  C4  UNL     1     -32.947   6.168   3.190  1.00 20.00     0.245 C 
HETATM    3  C1  UNL     1     -32.465   7.512   2.684  1.00 20.00     0.090 C 
HETATM    4  F6  UNL     1     -33.722   5.595   2.236  1.00 20.00    -0.207 F 
HETATM    5  F7  UNL     1     -31.872   5.358   3.363  1.00 20.00    -0.207 F 
ENDBRANCH   1   2
BRANCH   1   6
HETATM    6  C5  UNL     1     -34.786   5.186   4.632  1.00 20.00     0.245 C 
HETATM    7  C2  UNL     1     -35.087   4.839   6.076  1.00 20.00     0.090 C 
HETATM    8  F8  UNL     1     -35.937   5.583   4.031  1.00 20.00    -0.207 F 
HETATM    9  F9  UNL     1     -34.375   4.063   3.991  1.00 20.00    -0.207 F 
ENDBRANCH   1   6
TORSDOF 2
ENDMDL
MODEL 2
REMARK VINA RESULT:      -5.0      0.024      3.490
REMARK  2 active torsions:
REMARK  status: ('A' for Active; 'I' for Inactive)
REMARK    1  A    between atoms: C3_3  and  C4_4 
REMARK    2  A    between atoms: C3_3  and  C5_5 
ROOT
HETATM    1  C3  UNL     1     -33.708   6.256   4.510  1.00 20.00     0.157 C 
ENDROOT
BRANCH   1   2
HETATM    2  C4  UNL     1     -34.776   5.175   4.642  1.00 20.00     0.245 C 
HETATM    3  C1  UNL     1     -35.102   4.846   6.084  1.00 20.00     0.090 C 
HETATM    4  F6  UNL     1     -34.366   4.042   4.018  1.00 20.00    -0.207 F 
HETATM    5  F7  UNL     1     -35.915   5.575   4.020  1.00 20.00    -0.207 F 
ENDBRANCH   1   2
BRANCH   1   6
HETATM    6  C5  UNL     1     -32.949   6.165   3.189  1.00 20.00     0.245 C 
HETATM    7  C2  UNL     1     -32.480   7.515   2.689  1.00 20.00     0.090 C 
HETATM    8  F8  UNL     1     -31.869   5.354   3.334  1.00 20.00    -0.207 F 
HETATM    9  F9  UNL     1     -33.740   5.600   2.242  1.00 20.00    -0.207 F 
ENDBRANCH   1   6
TORSDOF 2
ENDMDL
MODEL 3
REMARK VINA RESULT:      -5.0      1.074      3.516
REMARK  2 active torsions:
REMARK  status: ('A' for Active; 'I' for Inactive)
REMARK    1  A    between atoms: C3_3  and  C4_4 
REMARK    2  A    between atoms: C3_3  and  C5_5 
ROOT
HETATM    1  C3  UNL     1     -33.671   5.447   4.839  1.00 20.00     0.157 C 
ENDROOT
BRANCH   1   2
HETATM    2  C4  UNL     1     -34.964   4.664   5.053  1.00 20.00     0.245 C 
HETATM    3  C1  UNL     1     -35.315   4.505   6.518  1.00 20.00     0.090 C 
HETATM    4  F6  UNL     1     -34.856   3.433   4.495  1.00 20.00    -0.207 F 
HETATM    5  F7  UNL     1     -35.991   5.292   4.426  1.00 20.00    -0.207 F 
ENDBRANCH   1   2
BRANCH   1   6
HETATM    6  C5  UNL     1     -33.633   6.142   3.482  1.00 20.00     0.245 C 
HETATM    7  C2  UNL     1     -32.240   6.595   3.096  1.00 20.00     0.090 C 
HETATM    8  F8  UNL     1     -34.100   5.305   2.521  1.00 20.00    -0.207 F 
HETATM    9  F9  UNL     1     -34.454   7.223   3.494  1.00 20.00    -0.207 F 
ENDBRANCH   1   6
TORSDOF 2
ENDMDL
MODEL 4
REMARK VINA RESULT:      -5.0      1.073      1.284
REMARK  2 active torsions:
REMARK  status: ('A' for Active; 'I' for Inactive)
REMARK    1  A    between atoms: C3_3  and  C4_4 
REMARK    2  A    between atoms: C3_3  and  C5_5 
ROOT
HETATM    1  C3  UNL     1     -33.673   5.449   4.841  1.00 20.00     0.157 C 
ENDROOT
BRANCH   1   2
HETATM    2  C4  UNL     1     -33.632   6.144   3.484  1.00 20.00     0.245 C 
HETATM    3  C1  UNL     1     -32.239   6.593   3.098  1.00 20.00     0.090 C 
HETATM    4  F6  UNL     1     -34.452   7.225   3.494  1.00 20.00    -0.207 F 
HETATM    5  F7  UNL     1     -34.099   5.306   2.523  1.00 20.00    -0.207 F 
ENDBRANCH   1   2
BRANCH   1   6
HETATM    6  C5  UNL     1     -34.964   4.665   5.054  1.00 20.00     0.245 C 
HETATM    7  C2  UNL     1     -35.316   4.503   6.519  1.00 20.00     0.090 C 
HETATM    8  F8  UNL     1     -35.992   5.292   4.426  1.00 20.00    -0.207 F 
HETATM    9  F9  UNL     1     -34.854   3.434   4.494  1.00 20.00    -0.207 F 
ENDBRANCH   1   6
TORSDOF 2
ENDMDL
MODEL 5
REMARK VINA RESULT:      -4.8      1.363      1.743
REMARK  2 active torsions:
REMARK  status: ('A' for Active; 'I' for Inactive)
REMARK    1  A    between atoms: C3_3  and  C4_4 
REMARK    2  A    between atoms: C3_3  and  C5_5 
ROOT
HETATM    1  C3  UNL     1     -33.734   5.052   3.927  1.00 20.00     0.157 C 
ENDROOT
BRANCH   1   2
HETATM    2  C4  UNL     1     -33.371   6.533   3.979  1.00 20.00     0.245 C 
HETATM    3  C1  UNL     1     -32.324   6.916   2.955  1.00 20.00     0.090 C 
HETATM    4  F6  UNL     1     -32.910   6.852   5.214  1.00 20.00    -0.207 F 
HETATM    5  F7  UNL     1     -34.481   7.286   3.768  1.00 20.00    -0.207 F 
ENDBRANCH   1   2
BRANCH   1   6
HETATM    6  C5  UNL     1     -34.962   4.725   4.770  1.00 20.00     0.245 C 
HETATM    7  C2  UNL     1     -34.840   5.216   6.197  1.00 20.00     0.090 C 
HETATM    8  F8  UNL     1     -36.067   5.282   4.210  1.00 20.00    -0.207 F 
HETATM    9  F9  UNL     1     -35.165   3.383   4.787  1.00 20.00    -0.207 F 
ENDBRANCH   1   6
TORSDOF 2
ENDMDL
MODEL 6
REMARK VINA RESULT:      -4.6      1.127      3.441
REMARK  2 active torsions:
REMARK  status: ('A' for Active; 'I' for Inactive)
REMARK    1  A    between atoms: C3_3  and  C4_4 
REMARK    2  A    between atoms: C3_3  and  C5_5 
ROOT
HETATM    1  C3  UNL     1     -33.496   6.615   4.640  1.00 20.00     0.157 C 
ENDROOT
BRANCH   1   2
HETATM    2  C4  UNL     1     -34.393   5.480   5.124  1.00 20.00     0.245 C 
HETATM    3  C1  UNL     1     -35.566   5.227   4.199  1.00 20.00     0.090 C 
HETATM    4  F6  UNL     1     -34.868   5.763   6.362  1.00 20.00    -0.207 F 
HETATM    5  F7  UNL     1     -33.671   4.336   5.232  1.00 20.00    -0.207 F 
ENDBRANCH   1   2
BRANCH   1   6
HETATM    6  C5  UNL     1     -32.805   6.286   3.320  1.00 20.00     0.245 C 
HETATM    7  C2  UNL     1     -32.344   7.523   2.577  1.00 20.00     0.090 C 
HETATM    8  F8  UNL     1     -31.729   5.489   3.549  1.00 20.00    -0.207 F 
HETATM    9  F9  UNL     1     -33.648   5.587   2.520  1.00 20.00    -0.207 F 
ENDBRANCH   1   6
TORSDOF 2
ENDMDL
MODEL 7
REMARK VINA RESULT:      -4.6      1.105      1.542
REMARK  2 active torsions:
REMARK  status: ('A' for Active; 'I' for Inactive)
REMARK    1  A    between atoms: C3_3  and  C4_4 
REMARK    2  A    between atoms: C3_3  and  C5_5 
ROOT
HETATM    1  C3  UNL     1     -33.483   6.591   4.640  1.00 20.00     0.157 C 
ENDROOT
BRANCH   1   2
HETATM    2  C4  UNL     1     -32.798   6.272   3.315  1.00 20.00     0.245 C 
HETATM    3  C1  UNL     1     -32.341   7.514   2.578  1.00 20.00     0.090 C 
HETATM    4  F6  UNL     1     -33.644   5.577   2.513  1.00 20.00    -0.207 F 
HETATM    5  F7  UNL     1     -31.721   5.476   3.533  1.00 20.00    -0.207 F 
ENDBRANCH   1   2
BRANCH   1   6
HETATM    6  C5  UNL     1     -34.417   5.473   5.095  1.00 20.00     0.245 C 
HETATM    7  C2  UNL     1     -35.588   5.270   4.156  1.00 20.00     0.090 C 
HETATM    8  F8  UNL     1     -33.727   4.307   5.189  1.00 20.00    -0.207 F 
HETATM    9  F9  UNL     1     -34.895   5.747   6.335  1.00 20.00    -0.207 F 
ENDBRANCH   1   6
TORSDOF 2
ENDMDL
MODEL 8
REMARK VINA RESULT:      -4.5      1.742      3.466
REMARK  2 active torsions:
REMARK  status: ('A' for Active; 'I' for Inactive)
REMARK    1  A    between atoms: C3_3  and  C4_4 
REMARK    2  A    between atoms: C3_3  and  C5_5 
ROOT
HETATM    1  C3  UNL     1     -35.201   4.980   4.536  1.00 20.00     0.157 C 
ENDROOT
BRANCH   1   2
HETATM    2  C4  UNL     1     -34.739   4.828   5.983  1.00 20.00     0.245 C 
HETATM    3  C1  UNL     1     -34.269   6.134   6.588  1.00 20.00     0.090 C 
HETATM    4  F6  UNL     1     -33.728   3.926   6.051  1.00 20.00    -0.207 F 
HETATM    5  F7  UNL     1     -35.754   4.338   6.740  1.00 20.00    -0.207 F 
ENDBRANCH   1   2
BRANCH   1   6
HETATM    6  C5  UNL     1     -34.192   5.744   3.683  1.00 20.00     0.245 C 
HETATM    7  C2  UNL     1     -34.195   5.298   2.235  1.00 20.00     0.090 C 
HETATM    8  F8  UNL     1     -34.462   7.074   3.730  1.00 20.00    -0.207 F 
HETATM    9  F9  UNL     1     -32.943   5.578   4.187  1.00 20.00    -0.207 F 
ENDBRANCH   1   6
TORSDOF 2
ENDMDL
MODEL 9
REMARK VINA RESULT:      -4.4      1.410      1.791
REMARK  2 active torsions:
REMARK  status: ('A' for Active; 'I' for Inactive)
REMARK    1  A    between atoms: C3_3  and  C4_4 
REMARK    2  A    between atoms: C3_3  and  C5_5 
ROOT
HETATM    1  C3  UNL     1     -33.633   6.992   3.900  1.00 20.00     0.157 C 
ENDROOT
BRANCH   1   2
HETATM    2  C4  UNL     1     -32.207   7.062   3.362  1.00 20.00     0.245 C 
HETATM    3  C1  UNL     1     -32.102   7.870   2.086  1.00 20.00     0.090 C 
HETATM    4  F6  UNL     1     -31.742   5.810   3.124  1.00 20.00    -0.207 F 
HETATM    5  F7  UNL     1     -31.390   7.614   4.295  1.00 20.00    -0.207 F 
ENDBRANCH   1   2
BRANCH   1   6
HETATM    6  C5  UNL     1     -34.257   5.612   3.713  1.00 20.00     0.245 C 
HETATM    7  C2  UNL     1     -35.764   5.625   3.870  1.00 20.00     0.090 C 
HETATM    8  F8  UNL     1     -33.951   5.132   2.481  1.00 20.00    -0.207 F 
HETATM    9  F9  UNL     1     -33.733   4.743   4.614  1.00 20.00    -0.207 F 
ENDBRANCH   1   6
TORSDOF 2
ENDMDL
