MODEL 1
REMARK VINA RESULT:      -5.1      0.000      0.000
REMARK  0 active torsions:
REMARK  status: ('A' for Active; 'I' for Inactive)
ROOT
HETATM    1  C1  UNL     1     -33.230  15.037  -3.491  1.00 20.00     0.001 C 
HETATM    2  C2  UNL     1     -33.728  13.817  -3.796  1.00 20.00     0.001 C 
HETATM    3  C3  UNL     1     -34.576  16.675  -7.582  1.00 20.00     0.001 C 
HETATM    4  C4  UNL     1     -35.116  15.344  -7.915  1.00 20.00     0.001 C 
HETATM    5  C5  UNL     1     -34.245  17.207  -6.382  1.00 20.00     0.009 C 
HETATM    6  C6  UNL     1     -35.426  14.303  -7.108  1.00 20.00     0.009 C 
HETATM    7  C7  UNL     1     -33.312  16.210  -4.362  1.00 20.00     0.009 C 
HETATM    8  C8  UNL     1     -34.421  13.487  -5.042  1.00 20.00     0.009 C 
HETATM    9  C9  UNL     1     -34.395  16.491  -5.119  1.00 20.00    -0.039 C 
HETATM   10  C10 UNL     1     -35.272  14.338  -5.657  1.00 20.00    -0.039 C 
HETATM   11  C11 UNL     1     -35.651  15.671  -5.078  1.00 20.00     0.123 C 
HETATM   12 BR12 UNL     1     -36.520  15.591  -3.341  1.00 20.00    -0.081 Br
ENDROOT
TORSDOF 0
ENDMDL
MODEL 2
REMARK VINA RESULT:      -5.1      0.707      3.785
REMARK  0 active torsions:
REMARK  status: ('A' for Active; 'I' for Inactive)
ROOT
HETATM    1  C1  UNL     1     -35.319  15.224  -7.830  1.00 20.00     0.001 C 
HETATM    2  C2  UNL     1     -34.847  16.472  -7.610  1.00 20.00     0.001 C 
HETATM    3  C3  UNL     1     -33.499  13.770  -3.854  1.00 20.00     0.001 C 
HETATM    4  C4  UNL     1     -32.982  15.131  -3.617  1.00 20.00     0.001 C 
HETATM    5  C5  UNL     1     -34.469  13.340  -4.695  1.00 20.00     0.009 C 
HETATM    6  C6  UNL     1     -33.342  16.309  -4.175  1.00 20.00     0.009 C 
HETATM    7  C7  UNL     1     -35.158  14.099  -6.908  1.00 20.00     0.009 C 
HETATM    8  C8  UNL     1     -34.104  16.884  -6.418  1.00 20.00     0.009 C 
HETATM    9  C9  UNL     1     -35.229  14.232  -5.564  1.00 20.00    -0.039 C 
HETATM   10  C10 UNL     1     -34.395  16.434  -5.177  1.00 20.00    -0.039 C 
HETATM   11  C11 UNL     1     -35.561  15.532  -4.892  1.00 20.00     0.123 C 
HETATM   12 BR12 UNL     1     -37.299  16.271  -5.352  1.00 20.00    -0.081 Br
ENDROOT
TORSDOF 0
ENDMDL
MODEL 3
REMARK VINA RESULT:      -5.1      2.393      3.761
REMARK  0 active torsions:
REMARK  status: ('A' for Active; 'I' for Inactive)
ROOT
HETATM    1  C1  UNL     1     -35.624  18.073  -3.940  1.00 20.00     0.001 C 
HETATM    2  C2  UNL     1     -34.275  18.162  -3.982  1.00 20.00     0.001 C 
HETATM    3  C3  UNL     1     -35.386  13.478  -4.185  1.00 20.00     0.001 C 
HETATM    4  C4  UNL     1     -33.915  13.577  -4.234  1.00 20.00     0.001 C 
HETATM    5  C5  UNL     1     -36.308  14.384  -3.785  1.00 20.00     0.009 C 
HETATM    6  C6  UNL     1     -33.099  14.599  -3.889  1.00 20.00     0.009 C 
HETATM    7  C7  UNL     1     -36.375  16.817  -3.944  1.00 20.00     0.009 C 
HETATM    8  C8  UNL     1     -33.365  17.018  -4.039  1.00 20.00     0.009 C 
HETATM    9  C9  UNL     1     -35.963  15.711  -3.284  1.00 20.00    -0.039 C 
HETATM   10  C10 UNL     1     -33.584  15.870  -3.360  1.00 20.00    -0.039 C 
HETATM   11  C11 UNL     1     -34.738  15.690  -2.417  1.00 20.00     0.123 C 
HETATM   12 BR12 UNL     1     -34.773  16.928  -0.920  1.00 20.00    -0.081 Br
ENDROOT
TORSDOF 0
ENDMDL
MODEL 4
REMARK VINA RESULT:      -5.1      1.393      3.197
REMARK  0 active torsions:
REMARK  status: ('A' for Active; 'I' for Inactive)
ROOT
HETATM    1  C1  UNL     1     -34.648  13.320  -4.669  1.00 20.00     0.001 C 
HETATM    2  C2  UNL     1     -34.889  13.949  -5.842  1.00 20.00     0.001 C 
HETATM    3  C3  UNL     1     -33.775  17.350  -2.615  1.00 20.00     0.001 C 
HETATM    4  C4  UNL     1     -34.036  18.036  -3.895  1.00 20.00     0.001 C 
HETATM    5  C5  UNL     1     -34.114  16.105  -2.208  1.00 20.00     0.009 C 
HETATM    6  C6  UNL     1     -34.684  17.601  -5.000  1.00 20.00     0.009 C 
HETATM    7  C7  UNL     1     -34.308  13.995  -3.416  1.00 20.00     0.009 C 
HETATM    8  C8  UNL     1     -34.845  15.400  -6.034  1.00 20.00     0.009 C 
HETATM    9  C9  UNL     1     -34.865  15.168  -3.038  1.00 20.00    -0.039 C 
HETATM   10  C10 UNL     1     -35.289  16.278  -5.107  1.00 20.00    -0.039 C 
HETATM   11  C11 UNL     1     -35.945  15.847  -3.827  1.00 20.00     0.123 C 
HETATM   12 BR12 UNL     1     -37.573  14.809  -4.050  1.00 20.00    -0.081 Br
ENDROOT
TORSDOF 0
ENDMDL
MODEL 5
REMARK VINA RESULT:      -4.9      1.823      3.385
REMARK  0 active torsions:
REMARK  status: ('A' for Active; 'I' for Inactive)
ROOT
HETATM    1  C1  UNL     1     -36.424  17.151  -5.594  1.00 20.00     0.001 C 
HETATM    2  C2  UNL     1     -37.213  16.063  -5.433  1.00 20.00     0.001 C 
HETATM    3  C3  UNL     1     -32.847  14.904  -3.755  1.00 20.00     0.001 C 
HETATM    4  C4  UNL     1     -33.709  13.719  -3.577  1.00 20.00     0.001 C 
HETATM    5  C5  UNL     1     -33.011  15.991  -4.544  1.00 20.00     0.009 C 
HETATM    6  C6  UNL     1     -34.890  13.406  -4.158  1.00 20.00     0.009 C 
HETATM    7  C7  UNL     1     -35.005  17.209  -5.243  1.00 20.00     0.009 C 
HETATM    8  C8  UNL     1     -36.765  14.783  -4.883  1.00 20.00     0.009 C 
HETATM    9  C9  UNL     1     -34.158  16.172  -5.429  1.00 20.00    -0.039 C 
HETATM   10  C10 UNL     1     -35.549  14.255  -5.145  1.00 20.00    -0.039 C 
HETATM   11  C11 UNL     1     -34.573  14.891  -6.091  1.00 20.00     0.123 C 
HETATM   12 BR12 UNL     1     -35.209  15.082  -7.918  1.00 20.00    -0.081 Br
ENDROOT
TORSDOF 0
ENDMDL
MODEL 6
REMARK VINA RESULT:      -4.9      1.834      1.964
REMARK  0 active torsions:
REMARK  status: ('A' for Active; 'I' for Inactive)
ROOT
HETATM    1  C1  UNL     1     -32.748  15.041  -3.974  1.00 20.00     0.001 C 
HETATM    2  C2  UNL     1     -33.476  13.973  -3.575  1.00 20.00     0.001 C 
HETATM    3  C3  UNL     1     -36.470  16.923  -5.932  1.00 20.00     0.001 C 
HETATM    4  C4  UNL     1     -37.263  15.757  -5.499  1.00 20.00     0.001 C 
HETATM    5  C5  UNL     1     -35.268  17.369  -5.499  1.00 20.00     0.009 C 
HETATM    6  C6  UNL     1     -36.998  14.826  -4.553  1.00 20.00     0.009 C 
HETATM    7  C7  UNL     1     -33.288  16.193  -4.696  1.00 20.00     0.009 C 
HETATM    8  C8  UNL     1     -34.912  13.809  -3.807  1.00 20.00     0.009 C 
HETATM    9  C9  UNL     1     -34.507  16.719  -4.437  1.00 20.00    -0.039 C 
HETATM   10  C10 UNL     1     -35.790  14.835  -3.735  1.00 20.00    -0.039 C 
HETATM   11  C11 UNL     1     -35.388  16.223  -3.329  1.00 20.00     0.123 C 
HETATM   12 BR12 UNL     1     -34.623  16.366  -1.548  1.00 20.00    -0.081 Br
ENDROOT
TORSDOF 0
ENDMDL
MODEL 7
REMARK VINA RESULT:      -4.9      2.130      3.819
REMARK  0 active torsions:
REMARK  status: ('A' for Active; 'I' for Inactive)
ROOT
HETATM    1  C1  UNL     1     -35.186  13.349  -4.542  1.00 20.00     0.001 C 
HETATM    2  C2  UNL     1     -33.876  13.439  -4.215  1.00 20.00     0.001 C 
HETATM    3  C3  UNL     1     -36.095  17.222  -2.218  1.00 20.00     0.001 C 
HETATM    4  C4  UNL     1     -34.668  17.318  -1.860  1.00 20.00     0.001 C 
HETATM    5  C5  UNL     1     -36.703  16.507  -3.193  1.00 20.00     0.009 C 
HETATM    6  C6  UNL     1     -33.588  16.719  -2.414  1.00 20.00     0.009 C 
HETATM    7  C7  UNL     1     -36.208  14.324  -4.161  1.00 20.00     0.009 C 
HETATM    8  C8  UNL     1     -33.286  14.525  -3.432  1.00 20.00     0.009 C 
HETATM    9  C9  UNL     1     -35.980  15.656  -4.133  1.00 20.00    -0.039 C 
HETATM   10  C10 UNL     1     -33.670  15.815  -3.556  1.00 20.00    -0.039 C 
HETATM   11  C11 UNL     1     -34.681  16.268  -4.569  1.00 20.00     0.123 C 
HETATM   12 BR12 UNL     1     -34.196  15.927  -6.420  1.00 20.00    -0.081 Br
ENDROOT
TORSDOF 0
ENDMDL
MODEL 8
REMARK VINA RESULT:      -4.9      1.990      3.601
REMARK  0 active torsions:
REMARK  status: ('A' for Active; 'I' for Inactive)
ROOT
HETATM    1  C1  UNL     1     -33.595  13.689  -3.955  1.00 20.00     0.001 C 
HETATM    2  C2  UNL     1     -32.970  14.863  -3.704  1.00 20.00     0.001 C 
HETATM    3  C3  UNL     1     -37.709  15.709  -3.482  1.00 20.00     0.001 C 
HETATM    4  C4  UNL     1     -37.027  16.987  -3.206  1.00 20.00     0.001 C 
HETATM    5  C5  UNL     1     -37.241  14.578  -4.060  1.00 20.00     0.009 C 
HETATM    6  C6  UNL     1     -35.754  17.369  -3.460  1.00 20.00     0.009 C 
HETATM    7  C7  UNL     1     -35.046  13.516  -4.017  1.00 20.00     0.009 C 
HETATM    8  C8  UNL     1     -33.652  16.134  -3.456  1.00 20.00     0.009 C 
HETATM    9  C9  UNL     1     -35.875  14.438  -4.555  1.00 20.00    -0.039 C 
HETATM   10  C10 UNL     1     -34.773  16.507  -4.112  1.00 20.00    -0.039 C 
HETATM   11  C11 UNL     1     -35.380  15.690  -5.217  1.00 20.00     0.123 C 
HETATM   12 BR12 UNL     1     -34.223  15.403  -6.752  1.00 20.00    -0.081 Br
ENDROOT
TORSDOF 0
ENDMDL
MODEL 9
REMARK VINA RESULT:      -4.8      1.544      2.417
REMARK  0 active torsions:
REMARK  status: ('A' for Active; 'I' for Inactive)
ROOT
HETATM    1  C1  UNL     1     -33.752  17.779  -3.037  1.00 20.00     0.001 C 
HETATM    2  C2  UNL     1     -34.104  16.873  -2.096  1.00 20.00     0.001 C 
HETATM    3  C3  UNL     1     -34.485  14.688  -6.375  1.00 20.00     0.001 C 
HETATM    4  C4  UNL     1     -34.866  13.700  -5.348  1.00 20.00     0.001 C 
HETATM    5  C5  UNL     1     -34.404  16.037  -6.299  1.00 20.00     0.009 C 
HETATM    6  C6  UNL     1     -35.236  13.881  -4.059  1.00 20.00     0.009 C 
HETATM    7  C7  UNL     1     -33.764  17.529  -4.479  1.00 20.00     0.009 C 
HETATM    8  C8  UNL     1     -34.548  15.507  -2.379  1.00 20.00     0.009 C 
HETATM    9  C9  UNL     1     -34.719  16.792  -5.090  1.00 20.00    -0.039 C 
HETATM   10  C10 UNL     1     -35.337  15.193  -3.430  1.00 20.00    -0.039 C 
HETATM   11  C11 UNL     1     -35.903  16.228  -4.360  1.00 20.00     0.123 C 
HETATM   12 BR12 UNL     1     -37.050  17.549  -3.515  1.00 20.00    -0.081 Br
ENDROOT
TORSDOF 0
ENDMDL
