MODEL 1
REMARK VINA RESULT:      -5.3      0.000      0.000
REMARK  2 active torsions:
REMARK  status: ('A' for Active; 'I' for Inactive)
REMARK    1  A    between atoms: C2_2  and  C3_3 
REMARK    2  A    between atoms: C3_3  and  C7_7 
ROOT
HETATM    1  C3  UNL     1     -34.871   4.849   4.784  1.00 20.00     0.255 C 
HETATM    2  O8  UNL     1     -35.124   3.730   4.347  1.00 20.00    -0.283 OA
ENDROOT
BRANCH   1   3
HETATM    3  C2  UNL     1     -34.728   6.034   3.896  1.00 20.00     0.062 C 
HETATM    4  C1  UNL     1     -33.532   6.406   3.438  1.00 20.00    -0.076 C 
HETATM    5  C4  UNL     1     -33.071   7.535   2.541  1.00 20.00     0.034 C 
HETATM    6  C5  UNL     1     -32.135   5.850   3.615  1.00 20.00     0.034 C 
HETATM    7  C6  UNL     1     -31.685   7.254   3.159  1.00 20.00     0.009 C 
ENDBRANCH   1   3
BRANCH   1   8
HETATM    8  C7  UNL     1     -34.688   5.098   6.253  1.00 20.00     0.455 C 
HETATM    9  F9  UNL     1     -35.798   4.775   6.964  1.00 20.00    -0.163 F 
HETATM   10  F10 UNL     1     -33.665   4.370   6.768  1.00 20.00    -0.163 F 
HETATM   11  F11 UNL     1     -34.417   6.399   6.520  1.00 20.00    -0.163 F 
ENDBRANCH   1   8
TORSDOF 2
ENDMDL
MODEL 2
REMARK VINA RESULT:      -5.1      3.940      5.016
REMARK  2 active torsions:
REMARK  status: ('A' for Active; 'I' for Inactive)
REMARK    1  A    between atoms: C2_2  and  C3_3 
REMARK    2  A    between atoms: C3_3  and  C7_7 
ROOT
HETATM    1  C3  UNL     1     -32.129   7.460   2.944  1.00 20.00     0.255 C 
HETATM    2  O8  UNL     1     -31.289   7.546   3.835  1.00 20.00    -0.283 OA
ENDROOT
BRANCH   1   3
HETATM    3  C2  UNL     1     -33.149   6.376   2.917  1.00 20.00     0.062 C 
HETATM    4  C1  UNL     1     -33.847   6.064   4.010  1.00 20.00    -0.076 C 
HETATM    5  C4  UNL     1     -34.924   5.041   4.294  1.00 20.00     0.034 C 
HETATM    6  C5  UNL     1     -33.860   6.610   5.422  1.00 20.00     0.034 C 
HETATM    7  C6  UNL     1     -34.534   5.266   5.770  1.00 20.00     0.009 C 
ENDBRANCH   1   3
BRANCH   1   8
HETATM    8  C7  UNL     1     -32.185   8.448   1.815  1.00 20.00     0.455 C 
HETATM    9  F9  UNL     1     -32.364   9.717   2.260  1.00 20.00    -0.163 F 
HETATM   10  F10 UNL     1     -31.042   8.445   1.082  1.00 20.00    -0.163 F 
HETATM   11  F11 UNL     1     -33.201   8.186   0.957  1.00 20.00    -0.163 F 
ENDBRANCH   1   8
TORSDOF 2
ENDMDL
MODEL 3
REMARK VINA RESULT:      -5.0      2.942      4.290
REMARK  2 active torsions:
REMARK  status: ('A' for Active; 'I' for Inactive)
REMARK    1  A    between atoms: C2_2  and  C3_3 
REMARK    2  A    between atoms: C3_3  and  C7_7 
ROOT
HETATM    1  C3  UNL     1     -33.619   6.993   3.309  1.00 20.00     0.255 C 
HETATM    2  O8  UNL     1     -34.241   8.050   3.305  1.00 20.00    -0.283 OA
ENDROOT
BRANCH   1   3
HETATM    3  C2  UNL     1     -34.281   5.683   3.553  1.00 20.00     0.062 C 
HETATM    4  C1  UNL     1     -34.557   5.274   4.792  1.00 20.00    -0.076 C 
HETATM    5  C4  UNL     1     -35.208   4.028   5.351  1.00 20.00     0.034 C 
HETATM    6  C5  UNL     1     -34.345   5.892   6.158  1.00 20.00     0.034 C 
HETATM    7  C6  UNL     1     -34.519   4.446   6.668  1.00 20.00     0.009 C 
ENDBRANCH   1   3
BRANCH   1   8
HETATM    8  C7  UNL     1     -32.137   6.950   3.069  1.00 20.00     0.455 C 
HETATM    9  F9  UNL     1     -31.443   7.549   4.069  1.00 20.00    -0.163 F 
HETATM   10  F10 UNL     1     -31.674   5.677   2.977  1.00 20.00    -0.163 F 
HETATM   11  F11 UNL     1     -31.788   7.578   1.918  1.00 20.00    -0.163 F 
ENDBRANCH   1   8
TORSDOF 2
ENDMDL
MODEL 4
REMARK VINA RESULT:      -4.9      1.542      1.945
REMARK  2 active torsions:
REMARK  status: ('A' for Active; 'I' for Inactive)
REMARK    1  A    between atoms: C2_2  and  C3_3 
REMARK    2  A    between atoms: C3_3  and  C7_7 
ROOT
HETATM    1  C3  UNL     1     -34.246   5.750   5.288  1.00 20.00     0.255 C 
HETATM    2  O8  UNL     1     -34.029   6.633   6.112  1.00 20.00    -0.283 OA
ENDROOT
BRANCH   1   3
HETATM    3  C2  UNL     1     -34.065   5.966   3.827  1.00 20.00     0.062 C 
HETATM    4  C1  UNL     1     -33.003   6.621   3.357  1.00 20.00    -0.076 C 
HETATM    5  C4  UNL     1     -32.547   6.992   1.963  1.00 20.00     0.034 C 
HETATM    6  C5  UNL     1     -31.802   7.259   4.022  1.00 20.00     0.034 C 
HETATM    7  C6  UNL     1     -31.670   8.032   2.693  1.00 20.00     0.009 C 
ENDBRANCH   1   3
BRANCH   1   8
HETATM    8  C7  UNL     1     -34.713   4.384   5.700  1.00 20.00     0.455 C 
HETATM    9  F9  UNL     1     -33.701   3.633   6.206  1.00 20.00    -0.163 F 
HETATM   10  F10 UNL     1     -35.674   4.443   6.657  1.00 20.00    -0.163 F 
HETATM   11  F11 UNL     1     -35.236   3.687   4.661  1.00 20.00    -0.163 F 
ENDBRANCH   1   8
TORSDOF 2
ENDMDL
MODEL 5
REMARK VINA RESULT:      -4.7      2.478      3.137
REMARK  2 active torsions:
REMARK  status: ('A' for Active; 'I' for Inactive)
REMARK    1  A    between atoms: C2_2  and  C3_3 
REMARK    2  A    between atoms: C3_3  and  C7_7 
ROOT
HETATM    1  C3  UNL     1     -33.370   6.349   3.936  1.00 20.00     0.255 C 
HETATM    2  O8  UNL     1     -33.293   6.799   5.075  1.00 20.00    -0.283 OA
ENDROOT
BRANCH   1   3
HETATM    3  C2  UNL     1     -32.339   6.630   2.901  1.00 20.00     0.062 C 
HETATM    4  C1  UNL     1     -32.263   7.827   2.316  1.00 20.00    -0.076 C 
HETATM    5  C4  UNL     1     -31.350   8.407   1.258  1.00 20.00     0.034 C 
HETATM    6  C5  UNL     1     -33.052   9.109   2.474  1.00 20.00     0.034 C 
HETATM    7  C6  UNL     1     -32.469   9.457   1.088  1.00 20.00     0.009 C 
ENDBRANCH   1   3
BRANCH   1   8
HETATM    8  C7  UNL     1     -34.516   5.480   3.507  1.00 20.00     0.455 C 
HETATM    9  F9  UNL     1     -34.327   4.966   2.265  1.00 20.00    -0.163 F 
HETATM   10  F10 UNL     1     -34.697   4.427   4.344  1.00 20.00    -0.163 F 
HETATM   11  F11 UNL     1     -35.689   6.161   3.474  1.00 20.00    -0.163 F 
ENDBRANCH   1   8
TORSDOF 2
ENDMDL
MODEL 6
REMARK VINA RESULT:      -4.7      1.062      1.188
REMARK  2 active torsions:
REMARK  status: ('A' for Active; 'I' for Inactive)
REMARK    1  A    between atoms: C2_2  and  C3_3 
REMARK    2  A    between atoms: C3_3  and  C7_7 
ROOT
HETATM    1  C3  UNL     1     -35.176   5.094   4.437  1.00 20.00     0.255 C 
HETATM    2  O8  UNL     1     -36.307   5.443   4.113  1.00 20.00    -0.283 OA
ENDROOT
BRANCH   1   3
HETATM    3  C2  UNL     1     -34.058   5.018   3.459  1.00 20.00     0.062 C 
HETATM    4  C1  UNL     1     -33.108   5.955   3.429  1.00 20.00    -0.076 C 
HETATM    5  C4  UNL     1     -31.874   6.152   2.576  1.00 20.00     0.034 C 
HETATM    6  C5  UNL     1     -32.861   7.206   4.244  1.00 20.00     0.034 C 
HETATM    7  C6  UNL     1     -31.964   7.616   3.057  1.00 20.00     0.009 C 
ENDBRANCH   1   3
BRANCH   1   8
HETATM    8  C7  UNL     1     -34.843   4.717   5.852  1.00 20.00     0.455 C 
HETATM    9  F9  UNL     1     -35.844   4.013   6.438  1.00 20.00    -0.163 F 
HETATM   10  F10 UNL     1     -33.727   3.948   5.924  1.00 20.00    -0.163 F 
HETATM   11  F11 UNL     1     -34.620   5.804   6.631  1.00 20.00    -0.163 F 
ENDBRANCH   1   8
TORSDOF 2
ENDMDL
MODEL 7
REMARK VINA RESULT:      -4.7     12.214     13.075
REMARK  2 active torsions:
REMARK  status: ('A' for Active; 'I' for Inactive)
REMARK    1  A    between atoms: C2_2  and  C3_3 
REMARK    2  A    between atoms: C3_3  and  C7_7 
ROOT
HETATM    1  C3  UNL     1     -34.293  15.634  -4.051  1.00 20.00     0.255 C 
HETATM    2  O8  UNL     1     -35.284  15.906  -4.723  1.00 20.00    -0.283 OA
ENDROOT
BRANCH   1   3
HETATM    3  C2  UNL     1     -33.547  16.668  -3.283  1.00 20.00     0.062 C 
HETATM    4  C1  UNL     1     -33.836  16.913  -2.004  1.00 20.00    -0.076 C 
HETATM    5  C4  UNL     1     -33.272  17.874  -0.981  1.00 20.00     0.034 C 
HETATM    6  C5  UNL     1     -34.840  16.323  -1.038  1.00 20.00     0.034 C 
HETATM    7  C6  UNL     1     -34.602  17.622  -0.239  1.00 20.00     0.009 C 
ENDBRANCH   1   3
BRANCH   1   8
HETATM    8  C7  UNL     1     -33.763  14.233  -3.959  1.00 20.00     0.455 C 
HETATM    9  F9  UNL     1     -33.909  13.558  -5.127  1.00 20.00    -0.163 F 
HETATM   10  F10 UNL     1     -32.441  14.208  -3.653  1.00 20.00    -0.163 F 
HETATM   11  F11 UNL     1     -34.399  13.508  -3.006  1.00 20.00    -0.163 F 
ENDBRANCH   1   8
TORSDOF 2
ENDMDL
MODEL 8
REMARK VINA RESULT:      -4.6     13.205     13.630
REMARK  2 active torsions:
REMARK  status: ('A' for Active; 'I' for Inactive)
REMARK    1  A    between atoms: C2_2  and  C3_3 
REMARK    2  A    between atoms: C3_3  and  C7_7 
ROOT
HETATM    1  C3  UNL     1     -34.548  13.819  -4.876  1.00 20.00     0.255 C 
HETATM    2  O8  UNL     1     -34.874  12.657  -4.650  1.00 20.00    -0.283 OA
ENDROOT
BRANCH   1   3
HETATM    3  C2  UNL     1     -33.779  14.632  -3.896  1.00 20.00     0.062 C 
HETATM    4  C1  UNL     1     -34.402  15.445  -3.040  1.00 20.00    -0.076 C 
HETATM    5  C4  UNL     1     -33.912  16.375  -1.952  1.00 20.00     0.034 C 
HETATM    6  C5  UNL     1     -35.859  15.767  -2.793  1.00 20.00     0.034 C 
HETATM    7  C6  UNL     1     -35.303  17.029  -2.100  1.00 20.00     0.009 C 
ENDBRANCH   1   3
BRANCH   1   8
HETATM    8  C7  UNL     1     -34.907  14.502  -6.164  1.00 20.00     0.455 C 
HETATM    9  F9  UNL     1     -35.948  15.359  -6.010  1.00 20.00    -0.163 F 
HETATM   10  F10 UNL     1     -33.872  15.226  -6.660  1.00 20.00    -0.163 F 
HETATM   11  F11 UNL     1     -35.266  13.619  -7.127  1.00 20.00    -0.163 F 
ENDBRANCH   1   8
TORSDOF 2
ENDMDL
MODEL 9
REMARK VINA RESULT:      -4.6     12.180     12.990
REMARK  2 active torsions:
REMARK  status: ('A' for Active; 'I' for Inactive)
REMARK    1  A    between atoms: C2_2  and  C3_3 
REMARK    2  A    between atoms: C3_3  and  C7_7 
ROOT
HETATM    1  C3  UNL     1     -33.670  14.135  -3.958  1.00 20.00     0.255 C 
HETATM    2  O8  UNL     1     -32.996  13.204  -3.528  1.00 20.00    -0.283 OA
ENDROOT
BRANCH   1   3
HETATM    3  C2  UNL     1     -33.279  15.556  -3.759  1.00 20.00     0.062 C 
HETATM    4  C1  UNL     1     -33.813  16.282  -2.775  1.00 20.00    -0.076 C 
HETATM    5  C4  UNL     1     -33.624  17.714  -2.325  1.00 20.00     0.034 C 
HETATM    6  C5  UNL     1     -34.821  15.973  -1.690  1.00 20.00     0.034 C 
HETATM    7  C6  UNL     1     -34.979  17.507  -1.614  1.00 20.00     0.009 C 
ENDBRANCH   1   3
BRANCH   1   8
HETATM    8  C7  UNL     1     -34.943  13.900  -4.719  1.00 20.00     0.455 C 
HETATM    9  F9  UNL     1     -34.878  12.779  -5.481  1.00 20.00    -0.163 F 
HETATM   10  F10 UNL     1     -36.009  13.753  -3.893  1.00 20.00    -0.163 F 
HETATM   11  F11 UNL     1     -35.234  14.926  -5.556  1.00 20.00    -0.163 F 
ENDBRANCH   1   8
TORSDOF 2
ENDMDL
