MODEL 1
REMARK VINA RESULT:      -4.4      0.000      0.000
REMARK  1 active torsions:
REMARK  status: ('A' for Active; 'I' for Inactive)
REMARK    1  A    between atoms: C4_4  and  C10_10 
ROOT
HETATM    1  C1  UNL     1     -33.458  14.039  -3.886  1.00 20.00    -0.004 C 
HETATM    2  C2  UNL     1     -33.567  15.216  -3.062  1.00 20.00     0.003 C 
HETATM    3  C3  UNL     1     -34.543  13.411  -4.357  1.00 20.00    -0.026 C 
HETATM    4  C4  UNL     1     -34.744  15.832  -2.860  1.00 20.00    -0.072 C 
HETATM    5  C5  UNL     1     -35.935  13.892  -4.070  1.00 20.00     0.031 C 
HETATM    6  C6  UNL     1     -36.021  15.313  -3.479  1.00 20.00     0.038 C 
ENDROOT
BRANCH   4   7
HETATM    7  C10 UNL     1     -34.861  17.077  -2.033  1.00 20.00    -0.028 C 
HETATM    8  C7  UNL     1     -36.257  17.687  -2.229  1.00 20.00     0.019 C 
HETATM    9  C8  UNL     1     -33.792  18.094  -2.468  1.00 20.00     0.019 C 
HETATM   10  C9  UNL     1     -34.656  16.736  -0.548  1.00 20.00     0.019 C 
ENDBRANCH   4   7
TORSDOF 1
ENDMDL
MODEL 2
REMARK VINA RESULT:      -4.4     11.367     12.365
REMARK  1 active torsions:
REMARK  status: ('A' for Active; 'I' for Inactive)
REMARK    1  A    between atoms: C4_4  and  C10_10 
ROOT
HETATM    1  C1  UNL     1     -35.230   4.622   4.606  1.00 20.00    -0.004 C 
HETATM    2  C2  UNL     1     -34.285   5.260   3.725  1.00 20.00     0.003 C 
HETATM    3  C3  UNL     1     -35.248   4.884   5.919  1.00 20.00    -0.026 C 
HETATM    4  C4  UNL     1     -33.490   6.260   4.142  1.00 20.00    -0.072 C 
HETATM    5  C5  UNL     1     -34.302   5.859   6.556  1.00 20.00     0.031 C 
HETATM    6  C6  UNL     1     -33.539   6.761   5.567  1.00 20.00     0.038 C 
ENDROOT
BRANCH   4   7
HETATM    7  C10 UNL     1     -32.530   6.952   3.223  1.00 20.00    -0.028 C 
HETATM    8  C7  UNL     1     -31.966   5.935   2.219  1.00 20.00     0.019 C 
HETATM    9  C8  UNL     1     -31.375   7.560   4.037  1.00 20.00     0.019 C 
HETATM   10  C9  UNL     1     -33.254   8.074   2.462  1.00 20.00     0.019 C 
ENDBRANCH   4   7
TORSDOF 1
ENDMDL
MODEL 3
REMARK VINA RESULT:      -4.4      0.251      1.590
REMARK  1 active torsions:
REMARK  status: ('A' for Active; 'I' for Inactive)
REMARK    1  A    between atoms: C4_4  and  C10_10 
ROOT
HETATM    1  C1  UNL     1     -36.166  14.027  -4.064  1.00 20.00    -0.004 C 
HETATM    2  C2  UNL     1     -36.121  15.278  -3.350  1.00 20.00     0.003 C 
HETATM    3  C3  UNL     1     -35.047  13.365  -4.387  1.00 20.00    -0.026 C 
HETATM    4  C4  UNL     1     -34.977  15.758  -2.834  1.00 20.00    -0.072 C 
HETATM    5  C5  UNL     1     -33.682  13.871  -4.021  1.00 20.00     0.031 C 
HETATM    6  C6  UNL     1     -33.671  15.014  -2.988  1.00 20.00     0.038 C 
ENDROOT
BRANCH   4   7
HETATM    7  C10 UNL     1     -34.928  17.041  -2.060  1.00 20.00    -0.028 C 
HETATM    8  C7  UNL     1     -36.280  17.760  -2.183  1.00 20.00     0.019 C 
HETATM    9  C8  UNL     1     -33.816  17.945  -2.619  1.00 20.00     0.019 C 
HETATM   10  C9  UNL     1     -34.639  16.745  -0.579  1.00 20.00     0.019 C 
ENDBRANCH   4   7
TORSDOF 1
ENDMDL
MODEL 4
REMARK VINA RESULT:      -4.3     11.392     12.328
REMARK  1 active torsions:
REMARK  status: ('A' for Active; 'I' for Inactive)
REMARK    1  A    between atoms: C4_4  and  C10_10 
ROOT
HETATM    1  C1  UNL     1     -34.305   5.870   6.488  1.00 20.00    -0.004 C 
HETATM    2  C2  UNL     1     -33.457   6.575   5.561  1.00 20.00     0.003 C 
HETATM    3  C3  UNL     1     -35.230   4.998   6.065  1.00 20.00    -0.026 C 
HETATM    4  C4  UNL     1     -33.438   6.278   4.251  1.00 20.00    -0.072 C 
HETATM    5  C5  UNL     1     -35.437   4.691   4.611  1.00 20.00     0.031 C 
HETATM    6  C6  UNL     1     -34.319   5.192   3.678  1.00 20.00     0.038 C 
ENDROOT
BRANCH   4   7
HETATM    7  C10 UNL     1     -32.533   6.983   3.286  1.00 20.00    -0.028 C 
HETATM    8  C7  UNL     1     -31.995   5.971   2.263  1.00 20.00     0.019 C 
HETATM    9  C8  UNL     1     -31.356   7.619   4.045  1.00 20.00     0.019 C 
HETATM   10  C9  UNL     1     -33.313   8.087   2.552  1.00 20.00     0.019 C 
ENDBRANCH   4   7
TORSDOF 1
ENDMDL
MODEL 5
REMARK VINA RESULT:      -4.3      1.234      4.210
REMARK  1 active torsions:
REMARK  status: ('A' for Active; 'I' for Inactive)
REMARK    1  A    between atoms: C4_4  and  C10_10 
ROOT
HETATM    1  C1  UNL     1     -34.735  17.216   0.024  1.00 20.00    -0.004 C 
HETATM    2  C2  UNL     1     -34.727  16.364  -1.139  1.00 20.00     0.003 C 
HETATM    3  C3  UNL     1     -34.088  18.388   0.037  1.00 20.00    -0.026 C 
HETATM    4  C4  UNL     1     -34.213  16.772  -2.312  1.00 20.00    -0.072 C 
HETATM    5  C5  UNL     1     -33.326  18.897  -1.152  1.00 20.00     0.031 C 
HETATM    6  C6  UNL     1     -33.603  18.145  -2.468  1.00 20.00     0.038 C 
ENDROOT
BRANCH   4   7
HETATM    7  C10 UNL     1     -34.232  15.906  -3.535  1.00 20.00    -0.028 C 
HETATM    8  C7  UNL     1     -35.426  14.942  -3.456  1.00 20.00     0.019 C 
HETATM    9  C8  UNL     1     -32.927  15.097  -3.622  1.00 20.00     0.019 C 
HETATM   10  C9  UNL     1     -34.365  16.782  -4.791  1.00 20.00     0.019 C 
ENDBRANCH   4   7
TORSDOF 1
ENDMDL
MODEL 6
REMARK VINA RESULT:      -4.3      1.292      4.140
REMARK  1 active torsions:
REMARK  status: ('A' for Active; 'I' for Inactive)
REMARK    1  A    between atoms: C4_4  and  C10_10 
ROOT
HETATM    1  C1  UNL     1     -34.653  17.054  -0.254  1.00 20.00    -0.004 C 
HETATM    2  C2  UNL     1     -34.685  16.240  -1.442  1.00 20.00     0.003 C 
HETATM    3  C3  UNL     1     -34.052  18.251  -0.242  1.00 20.00    -0.026 C 
HETATM    4  C4  UNL     1     -34.263  16.704  -2.630  1.00 20.00    -0.072 C 
HETATM    5  C5  UNL     1     -33.388  18.827  -1.458  1.00 20.00     0.031 C 
HETATM    6  C6  UNL     1     -33.717  18.106  -2.779  1.00 20.00     0.038 C 
ENDROOT
BRANCH   4   7
HETATM    7  C10 UNL     1     -34.326  15.876  -3.878  1.00 20.00    -0.028 C 
HETATM    8  C7  UNL     1     -33.192  16.299  -4.825  1.00 20.00     0.019 C 
HETATM    9  C8  UNL     1     -35.680  16.087  -4.576  1.00 20.00     0.019 C 
HETATM   10  C9  UNL     1     -34.168  14.388  -3.525  1.00 20.00     0.019 C 
ENDBRANCH   4   7
TORSDOF 1
ENDMDL
MODEL 7
REMARK VINA RESULT:      -4.3     11.304     13.692
REMARK  1 active torsions:
REMARK  status: ('A' for Active; 'I' for Inactive)
REMARK    1  A    between atoms: C4_4  and  C10_10 
ROOT
HETATM    1  C1  UNL     1     -42.001   7.186  -1.946  1.00 20.00    -0.004 C 
HETATM    2  C2  UNL     1     -42.496   5.935  -2.460  1.00 20.00     0.003 C 
HETATM    3  C3  UNL     1     -41.154   7.231  -0.910  1.00 20.00    -0.026 C 
HETATM    4  C4  UNL     1     -42.013   4.754  -2.037  1.00 20.00    -0.072 C 
HETATM    5  C5  UNL     1     -40.659   5.991  -0.225  1.00 20.00     0.031 C 
HETATM    6  C6  UNL     1     -40.930   4.679  -0.985  1.00 20.00     0.038 C 
ENDROOT
BRANCH   4   7
HETATM    7  C10 UNL     1     -42.498   3.449  -2.591  1.00 20.00    -0.028 C 
HETATM    8  C7  UNL     1     -43.417   3.718  -3.793  1.00 20.00     0.019 C 
HETATM    9  C8  UNL     1     -43.280   2.682  -1.512  1.00 20.00     0.019 C 
HETATM   10  C9  UNL     1     -41.300   2.598  -3.044  1.00 20.00     0.019 C 
ENDBRANCH   4   7
TORSDOF 1
ENDMDL
MODEL 8
REMARK VINA RESULT:      -4.2      2.691      3.901
REMARK  1 active torsions:
REMARK  status: ('A' for Active; 'I' for Inactive)
REMARK    1  A    between atoms: C4_4  and  C10_10 
ROOT
HETATM    1  C1  UNL     1     -34.831  15.696  -7.476  1.00 20.00    -0.004 C 
HETATM    2  C2  UNL     1     -34.704  14.977  -6.234  1.00 20.00     0.003 C 
HETATM    3  C3  UNL     1     -34.542  17.001  -7.562  1.00 20.00    -0.026 C 
HETATM    4  C4  UNL     1     -34.140  15.533  -5.148  1.00 20.00    -0.072 C 
HETATM    5  C5  UNL     1     -34.060  17.795  -6.383  1.00 20.00     0.031 C 
HETATM    6  C6  UNL     1     -33.619  16.952  -5.172  1.00 20.00     0.038 C 
ENDROOT
BRANCH   4   7
HETATM    7  C10 UNL     1     -33.972  14.780  -3.863  1.00 20.00    -0.028 C 
HETATM    8  C7  UNL     1     -34.663  13.413  -3.981  1.00 20.00     0.019 C 
HETATM    9  C8  UNL     1     -34.604  15.575  -2.708  1.00 20.00     0.019 C 
HETATM   10  C9  UNL     1     -32.476  14.574  -3.572  1.00 20.00     0.019 C 
ENDBRANCH   4   7
TORSDOF 1
ENDMDL
MODEL 9
REMARK VINA RESULT:      -4.2      2.703      3.832
REMARK  1 active torsions:
REMARK  status: ('A' for Active; 'I' for Inactive)
REMARK    1  A    between atoms: C4_4  and  C10_10 
ROOT
HETATM    1  C1  UNL     1     -34.374  17.262  -6.771  1.00 20.00    -0.004 C 
HETATM    2  C2  UNL     1     -34.064  16.671  -5.495  1.00 20.00     0.003 C 
HETATM    3  C3  UNL     1     -34.770  16.517  -7.810  1.00 20.00    -0.026 C 
HETATM    4  C4  UNL     1     -34.312  15.376  -5.236  1.00 20.00    -0.072 C 
HETATM    5  C5  UNL     1     -34.929  15.028  -7.714  1.00 20.00     0.031 C 
HETATM    6  C6  UNL     1     -34.918  14.467  -6.280  1.00 20.00     0.038 C 
ENDROOT
BRANCH   4   7
HETATM    7  C10 UNL     1     -34.025  14.761  -3.899  1.00 20.00    -0.028 C 
HETATM    8  C7  UNL     1     -32.508  14.754  -3.658  1.00 20.00     0.019 C 
HETATM    9  C8  UNL     1     -34.555  13.317  -3.865  1.00 20.00     0.019 C 
HETATM   10  C9  UNL     1     -34.715  15.575  -2.792  1.00 20.00     0.019 C 
ENDBRANCH   4   7
TORSDOF 1
ENDMDL
