MODEL 1
REMARK VINA RESULT:      -4.9      0.000      0.000
REMARK  1 active torsions:
REMARK  status: ('A' for Active; 'I' for Inactive)
REMARK    1  A    between atoms: C4_4  and  C8_8 
ROOT
HETATM    1  C5  UNL     1     -35.677  17.568  -1.767  1.00 20.00     0.002 C 
HETATM    2  C6  UNL     1     -34.675  16.495  -1.322  1.00 20.00     0.011 C 
HETATM    3  C7  UNL     1     -35.295  17.963  -3.191  1.00 20.00     0.021 C 
HETATM    4  C8  UNL     1     -33.781  16.189  -2.538  1.00 20.00     0.039 C 
HETATM    5  C9  UNL     1     -33.849  17.510  -3.326  1.00 20.00     0.090 C 
HETATM    6 CL11 UNL     1     -33.326  17.425  -5.016  1.00 20.00    -0.124 Cl
ENDROOT
BRANCH   4   7
HETATM    7  C4  UNL     1     -34.174  14.933  -3.300  1.00 20.00    -0.028 A 
HETATM    8  C1  UNL     1     -35.477  14.550  -3.698  1.00 20.00     0.034 A 
HETATM    9  C2  UNL     1     -35.338  13.350  -4.356  1.00 20.00     0.142 A 
HETATM   10  O10 UNL     1     -34.034  12.971  -4.388  1.00 20.00    -0.334 OA
HETATM   11  C3  UNL     1     -33.332  13.940  -3.744  1.00 20.00     0.148 A 
ENDBRANCH   4   7
TORSDOF 1
ENDMDL
MODEL 2
REMARK VINA RESULT:      -4.4      2.390      4.032
REMARK  1 active torsions:
REMARK  status: ('A' for Active; 'I' for Inactive)
REMARK    1  A    between atoms: C4_4  and  C8_8 
ROOT
HETATM    1  C5  UNL     1     -34.634  14.151  -5.812  1.00 20.00     0.002 C 
HETATM    2  C6  UNL     1     -34.034  13.823  -4.438  1.00 20.00     0.011 C 
HETATM    3  C7  UNL     1     -35.967  14.849  -5.554  1.00 20.00     0.021 C 
HETATM    4  C8  UNL     1     -34.974  14.438  -3.383  1.00 20.00     0.039 C 
HETATM    5  C9  UNL     1     -36.322  14.456  -4.127  1.00 20.00     0.090 C 
HETATM    6 CL11 UNL     1     -37.569  15.503  -3.432  1.00 20.00    -0.124 Cl
ENDROOT
BRANCH   4   7
HETATM    7  C4  UNL     1     -34.498  15.771  -2.826  1.00 20.00    -0.028 A 
HETATM    8  C1  UNL     1     -34.659  16.249  -1.504  1.00 20.00     0.034 A 
HETATM    9  C2  UNL     1     -34.070  17.491  -1.473  1.00 20.00     0.142 A 
HETATM   10  O10 UNL     1     -33.557  17.808  -2.690  1.00 20.00    -0.334 OA
HETATM   11  C3  UNL     1     -33.821  16.755  -3.508  1.00 20.00     0.148 A 
ENDBRANCH   4   7
TORSDOF 1
ENDMDL
MODEL 3
REMARK VINA RESULT:      -4.3      2.349      3.906
REMARK  1 active torsions:
REMARK  status: ('A' for Active; 'I' for Inactive)
REMARK    1  A    between atoms: C4_4  and  C8_8 
ROOT
HETATM    1  C5  UNL     1     -36.207  14.348  -4.130  1.00 20.00     0.002 C 
HETATM    2  C6  UNL     1     -36.031  15.851  -4.382  1.00 20.00     0.011 C 
HETATM    3  C7  UNL     1     -34.829  13.799  -3.769  1.00 20.00     0.021 C 
HETATM    4  C8  UNL     1     -34.565  16.190  -4.053  1.00 20.00     0.039 C 
HETATM    5  C9  UNL     1     -33.861  14.844  -4.305  1.00 20.00     0.090 C 
HETATM    6 CL11 UNL     1     -32.242  14.680  -3.609  1.00 20.00    -0.124 Cl
ENDROOT
BRANCH   4   7
HETATM    7  C4  UNL     1     -34.361  16.805  -2.677  1.00 20.00    -0.028 A 
HETATM    8  C1  UNL     1     -34.765  16.265  -1.433  1.00 20.00     0.034 A 
HETATM    9  C2  UNL     1     -34.366  17.169  -0.477  1.00 20.00     0.142 A 
HETATM   10  O10 UNL     1     -33.744  18.230  -1.052  1.00 20.00    -0.334 OA
HETATM   11  C3  UNL     1     -33.744  18.000  -2.392  1.00 20.00     0.148 A 
ENDBRANCH   4   7
TORSDOF 1
ENDMDL
MODEL 4
REMARK VINA RESULT:      -4.3      1.723      2.213
REMARK  1 active torsions:
REMARK  status: ('A' for Active; 'I' for Inactive)
REMARK    1  A    between atoms: C4_4  and  C8_8 
ROOT
HETATM    1  C5  UNL     1     -33.726  18.046  -2.872  1.00 20.00     0.002 C 
HETATM    2  C6  UNL     1     -33.825  16.653  -2.236  1.00 20.00     0.011 C 
HETATM    3  C7  UNL     1     -33.794  17.846  -4.384  1.00 20.00     0.021 C 
HETATM    4  C8  UNL     1     -34.065  15.655  -3.386  1.00 20.00     0.039 C 
HETATM    5  C9  UNL     1     -33.423  16.383  -4.581  1.00 20.00     0.090 C 
HETATM    6 CL11 UNL     1     -33.882  15.783  -6.182  1.00 20.00    -0.124 Cl
ENDROOT
BRANCH   4   7
HETATM    7  C4  UNL     1     -35.518  15.240  -3.556  1.00 20.00    -0.028 A 
HETATM    8  C1  UNL     1     -36.665  16.042  -3.349  1.00 20.00     0.034 A 
HETATM    9  C2  UNL     1     -37.747  15.241  -3.625  1.00 20.00     0.142 A 
HETATM   10  O10 UNL     1     -37.341  13.997  -3.989  1.00 20.00    -0.334 OA
HETATM   11  C3  UNL     1     -35.982  14.005  -3.945  1.00 20.00     0.148 A 
ENDBRANCH   4   7
TORSDOF 1
ENDMDL
MODEL 5
REMARK VINA RESULT:      -4.2      1.697      2.504
REMARK  1 active torsions:
REMARK  status: ('A' for Active; 'I' for Inactive)
REMARK    1  A    between atoms: C4_4  and  C8_8 
ROOT
HETATM    1  C5  UNL     1     -34.008  18.188  -4.712  1.00 20.00     0.002 C 
HETATM    2  C6  UNL     1     -35.255  17.378  -5.092  1.00 20.00     0.011 C 
HETATM    3  C7  UNL     1     -33.679  17.835  -3.263  1.00 20.00     0.021 C 
HETATM    4  C8  UNL     1     -35.578  16.468  -3.891  1.00 20.00     0.039 C 
HETATM    5  C9  UNL     1     -34.980  17.264  -2.716  1.00 20.00     0.090 C 
HETATM    6 CL11 UNL     1     -34.736  16.354  -1.217  1.00 20.00    -0.124 Cl
ENDROOT
BRANCH   4   7
HETATM    7  C4  UNL     1     -35.092  15.035  -4.047  1.00 20.00    -0.028 A 
HETATM    8  C1  UNL     1     -33.749  14.591  -4.098  1.00 20.00     0.034 A 
HETATM    9  C2  UNL     1     -33.804  13.225  -4.244  1.00 20.00     0.142 A 
HETATM   10  O10 UNL     1     -35.094  12.800  -4.286  1.00 20.00    -0.334 OA
HETATM   11  C3  UNL     1     -35.871  13.909  -4.164  1.00 20.00     0.148 A 
ENDBRANCH   4   7
TORSDOF 1
ENDMDL
MODEL 6
REMARK VINA RESULT:      -4.2      2.505      3.346
REMARK  1 active torsions:
REMARK  status: ('A' for Active; 'I' for Inactive)
REMARK    1  A    between atoms: C4_4  and  C8_8 
ROOT
HETATM    1  C5  UNL     1     -33.292  15.908  -4.859  1.00 20.00     0.002 C 
HETATM    2  C6  UNL     1     -34.501  16.807  -5.149  1.00 20.00     0.011 C 
HETATM    3  C7  UNL     1     -33.316  15.610  -3.361  1.00 20.00     0.021 C 
HETATM    4  C8  UNL     1     -35.289  16.934  -3.831  1.00 20.00     0.039 C 
HETATM    5  C9  UNL     1     -34.189  16.711  -2.778  1.00 20.00     0.090 C 
HETATM    6 CL11 UNL     1     -34.755  16.326  -1.145  1.00 20.00    -0.124 Cl
ENDROOT
BRANCH   4   7
HETATM    7  C4  UNL     1     -36.500  16.018  -3.740  1.00 20.00    -0.028 A 
HETATM    8  C1  UNL     1     -37.836  16.396  -3.465  1.00 20.00     0.034 A 
HETATM    9  C2  UNL     1     -38.573  15.236  -3.485  1.00 20.00     0.142 A 
HETATM   10  O10 UNL     1     -37.777  14.169  -3.755  1.00 20.00    -0.334 OA
HETATM   11  C3  UNL     1     -36.517  14.654  -3.909  1.00 20.00     0.148 A 
ENDBRANCH   4   7
TORSDOF 1
ENDMDL
MODEL 7
REMARK VINA RESULT:      -4.1      2.867      4.150
REMARK  1 active torsions:
REMARK  status: ('A' for Active; 'I' for Inactive)
REMARK    1  A    between atoms: C4_4  and  C8_8 
ROOT
HETATM    1  C5  UNL     1     -33.340  16.274  -4.717  1.00 20.00     0.002 C 
HETATM    2  C6  UNL     1     -33.188  15.491  -3.407  1.00 20.00     0.011 C 
HETATM    3  C7  UNL     1     -34.716  16.936  -4.676  1.00 20.00     0.021 C 
HETATM    4  C8  UNL     1     -34.436  15.797  -2.557  1.00 20.00     0.039 C 
HETATM    5  C9  UNL     1     -35.483  16.133  -3.635  1.00 20.00     0.090 C 
HETATM    6 CL11 UNL     1     -36.929  16.981  -3.064  1.00 20.00    -0.124 Cl
ENDROOT
BRANCH   4   7
HETATM    7  C4  UNL     1     -34.216  16.851  -1.484  1.00 20.00    -0.028 A 
HETATM    8  C1  UNL     1     -34.822  16.907  -0.207  1.00 20.00     0.034 A 
HETATM    9  C2  UNL     1     -34.318  18.031   0.406  1.00 20.00     0.142 A 
HETATM   10  O10 UNL     1     -33.442  18.669  -0.412  1.00 20.00    -0.334 OA
HETATM   11  C3  UNL     1     -33.385  17.944  -1.560  1.00 20.00     0.148 A 
ENDBRANCH   4   7
TORSDOF 1
ENDMDL
MODEL 8
REMARK VINA RESULT:      -4.1      2.322      2.798
REMARK  1 active torsions:
REMARK  status: ('A' for Active; 'I' for Inactive)
REMARK    1  A    between atoms: C4_4  and  C8_8 
ROOT
HETATM    1  C5  UNL     1     -34.833  15.683  -2.494  1.00 20.00     0.002 C 
HETATM    2  C6  UNL     1     -34.214  14.579  -3.362  1.00 20.00     0.011 C 
HETATM    3  C7  UNL     1     -34.654  16.993  -3.257  1.00 20.00     0.021 C 
HETATM    4  C8  UNL     1     -33.778  15.241  -4.682  1.00 20.00     0.039 C 
HETATM    5  C9  UNL     1     -33.535  16.697  -4.245  1.00 20.00     0.090 C 
HETATM    6 CL11 UNL     1     -33.459  17.890  -5.552  1.00 20.00    -0.124 Cl
ENDROOT
BRANCH   4   7
HETATM    7  C4  UNL     1     -34.754  15.041  -5.831  1.00 20.00    -0.028 A 
HETATM    8  C1  UNL     1     -34.438  14.895  -7.203  1.00 20.00     0.034 A 
HETATM    9  C2  UNL     1     -35.638  14.740  -7.857  1.00 20.00     0.142 A 
HETATM   10  O10 UNL     1     -36.671  14.781  -6.976  1.00 20.00    -0.334 OA
HETATM   11  C3  UNL     1     -36.125  14.964  -5.745  1.00 20.00     0.148 A 
ENDBRANCH   4   7
TORSDOF 1
ENDMDL
MODEL 9
REMARK VINA RESULT:      -4.1      2.496      4.064
REMARK  1 active torsions:
REMARK  status: ('A' for Active; 'I' for Inactive)
REMARK    1  A    between atoms: C4_4  and  C8_8 
ROOT
HETATM    1  C5  UNL     1     -34.411  13.321  -4.746  1.00 20.00     0.002 C 
HETATM    2  C6  UNL     1     -33.476  14.074  -3.790  1.00 20.00     0.011 C 
HETATM    3  C7  UNL     1     -35.762  14.031  -4.689  1.00 20.00     0.021 C 
HETATM    4  C8  UNL     1     -34.260  15.292  -3.267  1.00 20.00     0.039 C 
HETATM    5  C9  UNL     1     -35.717  14.808  -3.381  1.00 20.00     0.090 C 
HETATM    6 CL11 UNL     1     -36.955  16.072  -3.308  1.00 20.00    -0.124 Cl
ENDROOT
BRANCH   4   7
HETATM    7  C4  UNL     1     -33.930  16.597  -3.975  1.00 20.00    -0.028 A 
HETATM    8  C1  UNL     1     -33.671  16.776  -5.354  1.00 20.00     0.034 A 
HETATM    9  C2  UNL     1     -33.425  18.118  -5.526  1.00 20.00     0.142 A 
HETATM   10  O10 UNL     1     -33.516  18.776  -4.340  1.00 20.00    -0.334 OA
HETATM   11  C3  UNL     1     -33.825  17.843  -3.402  1.00 20.00     0.148 A 
ENDBRANCH   4   7
TORSDOF 1
ENDMDL
