MODEL 1
REMARK VINA RESULT:      -4.0      0.000      0.000
REMARK  4 active torsions:
REMARK  status: ('A' for Active; 'I' for Inactive)
REMARK    1  A    between atoms: C5_5  and  C8_8 
REMARK    2  A    between atoms: C7_7  and  N10_10 
REMARK    3  A    between atoms: C8_8  and  N10_10 
REMARK    4  A    between atoms: C9_9  and  N10_10 
ROOT
HETATM    1  C1  UNL     1     -33.522  17.417  -5.351  1.00 20.00     0.013 C 
HETATM    2  C2  UNL     1     -33.406  16.548  -4.530  1.00 20.00    -0.087 C 
HETATM    3  C7  UNL     1     -33.259  15.490  -3.529  1.00 20.00     0.364 C 
ENDROOT
BRANCH   3   4
HETATM    4  N10 UNL     1     -34.553  15.162  -2.930  1.00 20.00     0.099 N 
BRANCH   4   5
HETATM    5  C8  UNL     1     -35.120  16.335  -2.266  1.00 20.00     0.278 C 
BRANCH   5   6
HETATM    6  C5  UNL     1     -34.519  16.532  -0.916  1.00 20.00     0.014 A 
HETATM    7  C3  UNL     1     -33.811  17.816  -0.582  1.00 20.00     0.007 A 
HETATM    8  C4  UNL     1     -35.137  17.502   0.053  1.00 20.00     0.007 A 
ENDBRANCH   5   6
ENDBRANCH   4   5
BRANCH   4   9
HETATM    9  C9  UNL     1     -35.473  14.656  -3.948  1.00 20.00     0.269 C 
HETATM   10  C6  UNL     1     -35.120  13.265  -4.350  1.00 20.00     0.037 C 
ENDBRANCH   4   9
ENDBRANCH   3   4
TORSDOF 4
ENDMDL
MODEL 2
REMARK VINA RESULT:      -3.9      1.216      3.975
REMARK  4 active torsions:
REMARK  status: ('A' for Active; 'I' for Inactive)
REMARK    1  A    between atoms: C5_5  and  C8_8 
REMARK    2  A    between atoms: C7_7  and  N10_10 
REMARK    3  A    between atoms: C8_8  and  N10_10 
REMARK    4  A    between atoms: C9_9  and  N10_10 
ROOT
HETATM    1  C1  UNL     1     -34.593  16.829  -0.462  1.00 20.00     0.013 C 
HETATM    2  C2  UNL     1     -34.324  17.206  -1.569  1.00 20.00    -0.087 C 
HETATM    3  C7  UNL     1     -33.994  17.670  -2.918  1.00 20.00     0.364 C 
ENDROOT
BRANCH   3   4
HETATM    4  N10 UNL     1     -33.793  16.537  -3.821  1.00 20.00     0.099 N 
BRANCH   4   5
HETATM    5  C8  UNL     1     -35.033  15.777  -3.970  1.00 20.00     0.278 C 
BRANCH   5   6
HETATM    6  C5  UNL     1     -34.854  14.364  -3.530  1.00 20.00     0.014 A 
HETATM    7  C3  UNL     1     -34.898  13.245  -4.534  1.00 20.00     0.007 A 
HETATM    8  C4  UNL     1     -33.597  13.616  -3.879  1.00 20.00     0.007 A 
ENDBRANCH   5   6
ENDBRANCH   4   5
BRANCH   4   9
HETATM    9  C9  UNL     1     -33.318  17.000  -5.124  1.00 20.00     0.269 C 
HETATM   10  C6  UNL     1     -34.366  16.833  -6.170  1.00 20.00     0.037 C 
ENDBRANCH   4   9
ENDBRANCH   3   4
TORSDOF 4
ENDMDL
MODEL 3
REMARK VINA RESULT:      -3.9      1.772      4.382
REMARK  4 active torsions:
REMARK  status: ('A' for Active; 'I' for Inactive)
REMARK    1  A    between atoms: C5_5  and  C8_8 
REMARK    2  A    between atoms: C7_7  and  N10_10 
REMARK    3  A    between atoms: C8_8  and  N10_10 
REMARK    4  A    between atoms: C9_9  and  N10_10 
ROOT
HETATM    1  C1  UNL     1     -34.588  16.613  -0.836  1.00 20.00     0.013 C 
HETATM    2  C2  UNL     1     -34.245  16.884  -1.954  1.00 20.00    -0.087 C 
HETATM    3  C7  UNL     1     -33.825  17.221  -3.315  1.00 20.00     0.364 C 
ENDROOT
BRANCH   3   4
HETATM    4  N10 UNL     1     -33.785  16.024  -4.155  1.00 20.00     0.099 N 
BRANCH   4   5
HETATM    5  C8  UNL     1     -33.462  16.378  -5.536  1.00 20.00     0.278 C 
BRANCH   5   6
HETATM    6  C5  UNL     1     -34.630  16.154  -6.435  1.00 20.00     0.014 A 
HETATM    7  C3  UNL     1     -34.627  15.009  -7.411  1.00 20.00     0.007 A 
HETATM    8  C4  UNL     1     -35.539  14.976  -6.216  1.00 20.00     0.007 A 
ENDBRANCH   5   6
ENDBRANCH   4   5
BRANCH   4   9
HETATM    9  C9  UNL     1     -32.810  15.066  -3.632  1.00 20.00     0.269 C 
HETATM   10  C6  UNL     1     -33.334  13.673  -3.699  1.00 20.00     0.037 C 
ENDBRANCH   4   9
ENDBRANCH   3   4
TORSDOF 4
ENDMDL
MODEL 4
REMARK VINA RESULT:      -3.9      0.990      4.311
REMARK  4 active torsions:
REMARK  status: ('A' for Active; 'I' for Inactive)
REMARK    1  A    between atoms: C5_5  and  C8_8 
REMARK    2  A    between atoms: C7_7  and  N10_10 
REMARK    3  A    between atoms: C8_8  and  N10_10 
REMARK    4  A    between atoms: C9_9  and  N10_10 
ROOT
HETATM    1  C1  UNL     1     -34.694  17.575   0.489  1.00 20.00     0.013 C 
HETATM    2  C2  UNL     1     -34.717  16.901  -0.504  1.00 20.00    -0.087 C 
HETATM    3  C7  UNL     1     -34.751  16.078  -1.715  1.00 20.00     0.364 C 
ENDROOT
BRANCH   3   4
HETATM    4  N10 UNL     1     -33.657  16.440  -2.616  1.00 20.00     0.099 N 
BRANCH   4   5
HETATM    5  C8  UNL     1     -33.500  15.428  -3.660  1.00 20.00     0.278 C 
BRANCH   5   6
HETATM    6  C5  UNL     1     -34.597  14.420  -3.602  1.00 20.00     0.014 A 
HETATM    7  C3  UNL     1     -35.616  14.344  -4.705  1.00 20.00     0.007 A 
HETATM    8  C4  UNL     1     -34.600  13.249  -4.544  1.00 20.00     0.007 A 
ENDBRANCH   5   6
ENDBRANCH   4   5
BRANCH   4   9
HETATM    9  C9  UNL     1     -33.900  17.754  -3.211  1.00 20.00     0.269 C 
HETATM   10  C6  UNL     1     -33.618  17.744  -4.674  1.00 20.00     0.037 C 
ENDBRANCH   4   9
ENDBRANCH   3   4
TORSDOF 4
ENDMDL
MODEL 5
REMARK VINA RESULT:      -3.9      1.156      2.570
REMARK  4 active torsions:
REMARK  status: ('A' for Active; 'I' for Inactive)
REMARK    1  A    between atoms: C5_5  and  C8_8 
REMARK    2  A    between atoms: C7_7  and  N10_10 
REMARK    3  A    between atoms: C8_8  and  N10_10 
REMARK    4  A    between atoms: C9_9  and  N10_10 
ROOT
HETATM    1  C1  UNL     1     -34.782  13.261  -4.278  1.00 20.00     0.013 C 
HETATM    2  C2  UNL     1     -34.120  14.223  -3.998  1.00 20.00    -0.087 C 
HETATM    3  C7  UNL     1     -33.308  15.393  -3.657  1.00 20.00     0.364 C 
ENDROOT
BRANCH   3   4
HETATM    4  N10 UNL     1     -33.994  16.627  -4.039  1.00 20.00     0.099 N 
BRANCH   4   5
HETATM    5  C8  UNL     1     -33.904  17.615  -2.965  1.00 20.00     0.278 C 
BRANCH   5   6
HETATM    6  C5  UNL     1     -33.693  16.955  -1.644  1.00 20.00     0.014 A 
HETATM    7  C3  UNL     1     -33.696  17.771  -0.380  1.00 20.00     0.007 A 
HETATM    8  C4  UNL     1     -34.832  16.831  -0.670  1.00 20.00     0.007 A 
ENDBRANCH   5   6
ENDBRANCH   4   5
BRANCH   4   9
HETATM    9  C9  UNL     1     -33.426  17.165  -5.275  1.00 20.00     0.269 C 
HETATM   10  C6  UNL     1     -34.272  16.818  -6.452  1.00 20.00     0.037 C 
ENDBRANCH   4   9
ENDBRANCH   3   4
TORSDOF 4
ENDMDL
MODEL 6
REMARK VINA RESULT:      -3.8      1.640      2.163
REMARK  4 active torsions:
REMARK  status: ('A' for Active; 'I' for Inactive)
REMARK    1  A    between atoms: C5_5  and  C8_8 
REMARK    2  A    between atoms: C7_7  and  N10_10 
REMARK    3  A    between atoms: C8_8  and  N10_10 
REMARK    4  A    between atoms: C9_9  and  N10_10 
ROOT
HETATM    1  C1  UNL     1     -34.490  14.968  -6.865  1.00 20.00     0.013 C 
HETATM    2  C2  UNL     1     -34.577  14.432  -5.794  1.00 20.00    -0.087 C 
HETATM    3  C7  UNL     1     -34.679  13.774  -4.489  1.00 20.00     0.364 C 
ENDROOT
BRANCH   3   4
HETATM    4  N10 UNL     1     -35.489  14.573  -3.570  1.00 20.00     0.099 N 
BRANCH   4   5
HETATM    5  C8  UNL     1     -34.968  15.936  -3.482  1.00 20.00     0.278 C 
BRANCH   5   6
HETATM    6  C5  UNL     1     -34.084  16.098  -2.292  1.00 20.00     0.014 A 
HETATM    7  C3  UNL     1     -33.812  17.466  -1.730  1.00 20.00     0.007 A 
HETATM    8  C4  UNL     1     -34.667  16.496  -0.964  1.00 20.00     0.007 A 
ENDBRANCH   5   6
ENDBRANCH   4   5
BRANCH   4   9
HETATM    9  C9  UNL     1     -36.886  14.588  -4.003  1.00 20.00     0.269 C 
HETATM   10  C6  UNL     1     -37.470  15.954  -3.892  1.00 20.00     0.037 C 
ENDBRANCH   4   9
ENDBRANCH   3   4
TORSDOF 4
ENDMDL
MODEL 7
REMARK VINA RESULT:      -3.8      1.905      4.484
REMARK  4 active torsions:
REMARK  status: ('A' for Active; 'I' for Inactive)
REMARK    1  A    between atoms: C5_5  and  C8_8 
REMARK    2  A    between atoms: C7_7  and  N10_10 
REMARK    3  A    between atoms: C8_8  and  N10_10 
REMARK    4  A    between atoms: C9_9  and  N10_10 
ROOT
HETATM    1  C1  UNL     1     -34.721  16.737  -0.772  1.00 20.00     0.013 C 
HETATM    2  C2  UNL     1     -34.452  16.344  -1.874  1.00 20.00    -0.087 C 
HETATM    3  C7  UNL     1     -34.118  15.865  -3.217  1.00 20.00     0.364 C 
ENDROOT
BRANCH   3   4
HETATM    4  N10 UNL     1     -35.145  14.945  -3.708  1.00 20.00     0.099 N 
BRANCH   4   5
HETATM    5  C8  UNL     1     -35.703  15.429  -4.969  1.00 20.00     0.278 C 
BRANCH   5   6
HETATM    6  C5  UNL     1     -35.384  14.499  -6.090  1.00 20.00     0.014 A 
HETATM    7  C3  UNL     1     -35.981  14.720  -7.453  1.00 20.00     0.007 A 
HETATM    8  C4  UNL     1     -34.513  14.956  -7.228  1.00 20.00     0.007 A 
ENDBRANCH   5   6
ENDBRANCH   4   5
BRANCH   4   9
HETATM    9  C9  UNL     1     -34.588  13.603  -3.877  1.00 20.00     0.269 C 
HETATM   10  C6  UNL     1     -33.117  13.597  -3.641  1.00 20.00     0.037 C 
ENDBRANCH   4   9
ENDBRANCH   3   4
TORSDOF 4
ENDMDL
MODEL 8
REMARK VINA RESULT:      -3.8      1.409      2.637
REMARK  4 active torsions:
REMARK  status: ('A' for Active; 'I' for Inactive)
REMARK    1  A    between atoms: C5_5  and  C8_8 
REMARK    2  A    between atoms: C7_7  and  N10_10 
REMARK    3  A    between atoms: C8_8  and  N10_10 
REMARK    4  A    between atoms: C9_9  and  N10_10 
ROOT
HETATM    1  C1  UNL     1     -38.468  15.042  -3.964  1.00 20.00     0.013 C 
HETATM    2  C2  UNL     1     -37.305  14.756  -3.880  1.00 20.00    -0.087 C 
HETATM    3  C7  UNL     1     -35.887  14.402  -3.778  1.00 20.00     0.364 C 
ENDROOT
BRANCH   3   4
HETATM    4  N10 UNL     1     -35.046  15.588  -3.936  1.00 20.00     0.099 N 
BRANCH   4   5
HETATM    5  C8  UNL     1     -35.323  16.556  -2.877  1.00 20.00     0.278 C 
BRANCH   5   6
HETATM    6  C5  UNL     1     -34.431  16.337  -1.702  1.00 20.00     0.014 A 
HETATM    7  C3  UNL     1     -33.648  17.482  -1.121  1.00 20.00     0.007 A 
HETATM    8  C4  UNL     1     -34.801  16.895  -0.355  1.00 20.00     0.007 A 
ENDBRANCH   5   6
ENDBRANCH   4   5
BRANCH   4   9
HETATM    9  C9  UNL     1     -33.632  15.215  -3.930  1.00 20.00     0.269 C 
HETATM   10  C6  UNL     1     -33.466  13.736  -3.858  1.00 20.00     0.037 C 
ENDBRANCH   4   9
ENDBRANCH   3   4
TORSDOF 4
ENDMDL
MODEL 9
REMARK VINA RESULT:      -3.7      1.788      2.157
REMARK  4 active torsions:
REMARK  status: ('A' for Active; 'I' for Inactive)
REMARK    1  A    between atoms: C5_5  and  C8_8 
REMARK    2  A    between atoms: C7_7  and  N10_10 
REMARK    3  A    between atoms: C8_8  and  N10_10 
REMARK    4  A    between atoms: C9_9  and  N10_10 
ROOT
HETATM    1  C1  UNL     1     -34.765  14.919  -7.517  1.00 20.00     0.013 C 
HETATM    2  C2  UNL     1     -34.807  15.061  -6.326  1.00 20.00    -0.087 C 
HETATM    3  C7  UNL     1     -34.863  15.230  -4.872  1.00 20.00     0.364 C 
ENDROOT
BRANCH   3   4
HETATM    4  N10 UNL     1     -33.668  15.919  -4.386  1.00 20.00     0.099 N 
BRANCH   4   5
HETATM    5  C8  UNL     1     -34.037  17.003  -3.477  1.00 20.00     0.278 C 
BRANCH   5   6
HETATM    6  C5  UNL     1     -33.667  16.674  -2.071  1.00 20.00     0.014 A 
HETATM    7  C3  UNL     1     -33.809  17.709  -0.988  1.00 20.00     0.007 A 
HETATM    8  C4  UNL     1     -34.735  16.525  -1.022  1.00 20.00     0.007 A 
ENDBRANCH   5   6
ENDBRANCH   4   5
BRANCH   4   9
HETATM    9  C9  UNL     1     -32.772  14.975  -3.717  1.00 20.00     0.269 C 
HETATM   10  C6  UNL     1     -33.339  13.597  -3.723  1.00 20.00     0.037 C 
ENDBRANCH   4   9
ENDBRANCH   3   4
TORSDOF 4
ENDMDL
