MODEL 1
REMARK VINA RESULT:      -5.2      0.000      0.000
REMARK  3 active torsions:
REMARK  status: ('A' for Active; 'I' for Inactive)
REMARK    1  A    between atoms: C5_5  and  C6_6 
REMARK    2  A    between atoms: C6_6  and  C7_7 
REMARK    3  A    between atoms: C7_7  and  C8_8 
ROOT
HETATM    1  C1  UNL     1     -34.000   5.146   6.411  1.00 20.00     0.004 C 
HETATM    2  C2  UNL     1     -35.119   4.296   5.825  1.00 20.00     0.026 C 
HETATM    3  C3  UNL     1     -34.036   6.552   5.820  1.00 20.00     0.032 C 
HETATM    4  C4  UNL     1     -35.097   4.345   4.304  1.00 20.00     0.168 C 
HETATM    5  C5  UNL     1     -34.100   6.536   4.291  1.00 20.00     0.121 C 
HETATM    6  O9  UNL     1     -35.156   5.688   3.827  1.00 20.00    -0.386 OA
ENDROOT
BRANCH   5   7
HETATM    7  C6  UNL     1     -32.767   6.176   3.635  1.00 20.00     0.033 C 
BRANCH   7   8
HETATM    8  C7  UNL     1     -31.926   7.422   3.363  1.00 20.00     0.017 C 
BRANCH   8   9
HETATM    9  C8  UNL     1     -32.045   7.855   1.908  1.00 20.00     0.115 C 
HETATM   10 CL10 UNL     1     -32.495   9.574   1.806  1.00 20.00    -0.130 Cl
ENDBRANCH   8   9
ENDBRANCH   7   8
ENDBRANCH   5   7
TORSDOF 3
ENDMDL
MODEL 2
REMARK VINA RESULT:      -4.2     11.423     12.240
REMARK  3 active torsions:
REMARK  status: ('A' for Active; 'I' for Inactive)
REMARK    1  A    between atoms: C5_5  and  C6_6 
REMARK    2  A    between atoms: C6_6  and  C7_7 
REMARK    3  A    between atoms: C7_7  and  C8_8 
ROOT
HETATM    1  C1  UNL     1     -34.469  15.518  -5.614  1.00 20.00     0.004 C 
HETATM    2  C2  UNL     1     -34.818  14.047  -5.789  1.00 20.00     0.026 C 
HETATM    3  C3  UNL     1     -33.337  15.679  -4.605  1.00 20.00     0.032 C 
HETATM    4  C4  UNL     1     -35.071  13.386  -4.442  1.00 20.00     0.168 C 
HETATM    5  C5  UNL     1     -33.610  14.922  -3.302  1.00 20.00     0.121 C 
HETATM    6  O9  UNL     1     -33.962  13.559  -3.562  1.00 20.00    -0.386 OA
ENDROOT
BRANCH   5   7
HETATM    7  C6  UNL     1     -34.646  15.607  -2.412  1.00 20.00     0.033 C 
BRANCH   7   8
HETATM    8  C7  UNL     1     -34.039  16.787  -1.656  1.00 20.00     0.017 C 
BRANCH   8   9
HETATM    9  C8  UNL     1     -34.753  17.013  -0.330  1.00 20.00     0.115 C 
HETATM   10 CL10 UNL     1     -33.826  18.137   0.691  1.00 20.00    -0.130 Cl
ENDBRANCH   8   9
ENDBRANCH   7   8
ENDBRANCH   5   7
TORSDOF 3
ENDMDL
MODEL 3
REMARK VINA RESULT:      -3.9     11.708     12.616
REMARK  3 active torsions:
REMARK  status: ('A' for Active; 'I' for Inactive)
REMARK    1  A    between atoms: C5_5  and  C6_6 
REMARK    2  A    between atoms: C6_6  and  C7_7 
REMARK    3  A    between atoms: C7_7  and  C8_8 
ROOT
HETATM    1  C1  UNL     1     -34.502  13.607  -5.098  1.00 20.00     0.004 C 
HETATM    2  C2  UNL     1     -34.765  14.588  -6.232  1.00 20.00     0.026 C 
HETATM    3  C3  UNL     1     -35.277  14.017  -3.850  1.00 20.00     0.032 C 
HETATM    4  C4  UNL     1     -34.522  16.020  -5.777  1.00 20.00     0.168 C 
HETATM    5  C5  UNL     1     -35.059  15.490  -3.492  1.00 20.00     0.121 C 
HETATM    6  O9  UNL     1     -35.296  16.336  -4.621  1.00 20.00    -0.386 OA
ENDROOT
BRANCH   5   7
HETATM    7  C6  UNL     1     -33.692  15.763  -2.866  1.00 20.00     0.033 C 
BRANCH   7   8
HETATM    8  C7  UNL     1     -33.752  16.931  -1.883  1.00 20.00     0.017 C 
BRANCH   8   9
HETATM    9  C8  UNL     1     -34.723  16.641  -0.746  1.00 20.00     0.115 C 
HETATM   10 CL10 UNL     1     -34.469  17.783   0.594  1.00 20.00    -0.130 Cl
ENDBRANCH   8   9
ENDBRANCH   7   8
ENDBRANCH   5   7
TORSDOF 3
ENDMDL
MODEL 4
REMARK VINA RESULT:      -3.9      1.474      2.166
REMARK  3 active torsions:
REMARK  status: ('A' for Active; 'I' for Inactive)
REMARK    1  A    between atoms: C5_5  and  C6_6 
REMARK    2  A    between atoms: C6_6  and  C7_7 
REMARK    3  A    between atoms: C7_7  and  C8_8 
ROOT
HETATM    1  C1  UNL     1     -35.446   5.400   3.681  1.00 20.00     0.004 C 
HETATM    2  C2  UNL     1     -35.155   5.214   5.164  1.00 20.00     0.026 C 
HETATM    3  C3  UNL     1     -34.169   5.235   2.864  1.00 20.00     0.032 C 
HETATM    4  C4  UNL     1     -34.001   6.103   5.605  1.00 20.00     0.168 C 
HETATM    5  C5  UNL     1     -33.020   6.089   3.407  1.00 20.00     0.121 C 
HETATM    6  O9  UNL     1     -32.838   5.876   4.810  1.00 20.00    -0.386 OA
ENDROOT
BRANCH   5   7
HETATM    7  C6  UNL     1     -33.166   7.575   3.081  1.00 20.00     0.033 C 
BRANCH   7   8
HETATM    8  C7  UNL     1     -32.014   8.071   2.209  1.00 20.00     0.017 C 
BRANCH   8   9
HETATM    9  C8  UNL     1     -32.369   9.386   1.529  1.00 20.00     0.115 C 
HETATM   10 CL10 UNL     1     -32.706   9.121  -0.198  1.00 20.00    -0.130 Cl
ENDBRANCH   8   9
ENDBRANCH   7   8
ENDBRANCH   5   7
TORSDOF 3
ENDMDL
MODEL 5
REMARK VINA RESULT:      -3.9     11.696     12.857
REMARK  3 active torsions:
REMARK  status: ('A' for Active; 'I' for Inactive)
REMARK    1  A    between atoms: C5_5  and  C6_6 
REMARK    2  A    between atoms: C6_6  and  C7_7 
REMARK    3  A    between atoms: C7_7  and  C8_8 
ROOT
HETATM    1  C1  UNL     1     -34.010  16.372  -5.651  1.00 20.00     0.004 C 
HETATM    2  C2  UNL     1     -34.343  15.141  -6.483  1.00 20.00     0.026 C 
HETATM    3  C3  UNL     1     -33.088  15.999  -4.495  1.00 20.00     0.032 C 
HETATM    4  C4  UNL     1     -34.858  14.013  -5.599  1.00 20.00     0.168 C 
HETATM    5  C5  UNL     1     -33.616  14.805  -3.696  1.00 20.00     0.121 C 
HETATM    6  O9  UNL     1     -33.933  13.707  -4.557  1.00 20.00    -0.386 OA
ENDROOT
BRANCH   5   7
HETATM    7  C6  UNL     1     -34.792  15.160  -2.787  1.00 20.00     0.033 C 
BRANCH   7   8
HETATM    8  C7  UNL     1     -34.443  16.315  -1.850  1.00 20.00     0.017 C 
BRANCH   8   9
HETATM    9  C8  UNL     1     -35.523  17.389  -1.882  1.00 20.00     0.115 C 
HETATM   10 CL10 UNL     1     -36.658  17.090  -3.218  1.00 20.00    -0.130 Cl
ENDBRANCH   8   9
ENDBRANCH   7   8
ENDBRANCH   5   7
TORSDOF 3
ENDMDL
MODEL 6
REMARK VINA RESULT:      -3.9     11.826     12.621
REMARK  3 active torsions:
REMARK  status: ('A' for Active; 'I' for Inactive)
REMARK    1  A    between atoms: C5_5  and  C6_6 
REMARK    2  A    between atoms: C6_6  and  C7_7 
REMARK    3  A    between atoms: C7_7  and  C8_8 
ROOT
HETATM    1  C1  UNL     1     -34.811  14.386  -3.596  1.00 20.00     0.004 C 
HETATM    2  C2  UNL     1     -34.007  14.832  -4.809  1.00 20.00     0.026 C 
HETATM    3  C3  UNL     1     -35.650  15.542  -3.060  1.00 20.00     0.032 C 
HETATM    4  C4  UNL     1     -33.220  16.098  -4.502  1.00 20.00     0.168 C 
HETATM    5  C5  UNL     1     -34.820  16.811  -2.852  1.00 20.00     0.121 C 
HETATM    6  O9  UNL     1     -34.074  17.138  -4.028  1.00 20.00    -0.386 OA
ENDROOT
BRANCH   5   7
HETATM    7  C6  UNL     1     -33.921  16.749  -1.618  1.00 20.00     0.033 C 
BRANCH   7   8
HETATM    8  C7  UNL     1     -34.721  16.954  -0.333  1.00 20.00     0.017 C 
BRANCH   8   9
HETATM    9  C8  UNL     1     -34.140  18.091   0.498  1.00 20.00     0.115 C 
HETATM   10 CL10 UNL     1     -32.547  18.570  -0.134  1.00 20.00    -0.130 Cl
ENDBRANCH   8   9
ENDBRANCH   7   8
ENDBRANCH   5   7
TORSDOF 3
ENDMDL
MODEL 7
REMARK VINA RESULT:      -3.8     11.737     12.802
REMARK  3 active torsions:
REMARK  status: ('A' for Active; 'I' for Inactive)
REMARK    1  A    between atoms: C5_5  and  C6_6 
REMARK    2  A    between atoms: C6_6  and  C7_7 
REMARK    3  A    between atoms: C7_7  and  C8_8 
ROOT
HETATM    1  C1  UNL     1     -35.531  15.489  -3.530  1.00 20.00     0.004 C 
HETATM    2  C2  UNL     1     -34.235  15.200  -2.785  1.00 20.00     0.026 C 
HETATM    3  C3  UNL     1     -36.061  14.218  -4.185  1.00 20.00     0.032 C 
HETATM    4  C4  UNL     1     -33.238  14.489  -3.688  1.00 20.00     0.168 C 
HETATM    5  C5  UNL     1     -34.989  13.501  -5.011  1.00 20.00     0.121 C 
HETATM    6  O9  UNL     1     -33.797  13.301  -4.244  1.00 20.00    -0.386 OA
ENDROOT
BRANCH   5   7
HETATM    7  C6  UNL     1     -34.689  14.192  -6.340  1.00 20.00     0.033 C 
BRANCH   7   8
HETATM    8  C7  UNL     1     -35.968  14.693  -7.010  1.00 20.00     0.017 C 
BRANCH   8   9
HETATM    9  C8  UNL     1     -35.860  16.171  -7.359  1.00 20.00     0.115 C 
HETATM   10 CL10 UNL     1     -34.342  16.849  -6.726  1.00 20.00    -0.130 Cl
ENDBRANCH   8   9
ENDBRANCH   7   8
ENDBRANCH   5   7
TORSDOF 3
ENDMDL
MODEL 8
REMARK VINA RESULT:      -3.8     11.964     13.331
REMARK  3 active torsions:
REMARK  status: ('A' for Active; 'I' for Inactive)
REMARK    1  A    between atoms: C5_5  and  C6_6 
REMARK    2  A    between atoms: C6_6  and  C7_7 
REMARK    3  A    between atoms: C7_7  and  C8_8 
ROOT
HETATM    1  C1  UNL     1     -34.369  14.907  -3.057  1.00 20.00     0.004 C 
HETATM    2  C2  UNL     1     -34.593  16.112  -2.154  1.00 20.00     0.026 C 
HETATM    3  C3  UNL     1     -33.205  15.164  -4.008  1.00 20.00     0.032 C 
HETATM    4  C4  UNL     1     -34.715  17.388  -2.975  1.00 20.00     0.168 C 
HETATM    5  C5  UNL     1     -33.341  16.502  -4.741  1.00 20.00     0.121 C 
HETATM    6  O9  UNL     1     -33.581  17.571  -3.821  1.00 20.00    -0.386 OA
ENDROOT
BRANCH   5   7
HETATM    7  C6  UNL     1     -34.387  16.476  -5.854  1.00 20.00     0.033 C 
BRANCH   7   8
HETATM    8  C7  UNL     1     -34.159  15.304  -6.807  1.00 20.00     0.017 C 
BRANCH   8   9
HETATM    9  C8  UNL     1     -35.432  14.485  -6.982  1.00 20.00     0.115 C 
HETATM   10 CL10 UNL     1     -36.693  15.051  -5.861  1.00 20.00    -0.130 Cl
ENDBRANCH   8   9
ENDBRANCH   7   8
ENDBRANCH   5   7
TORSDOF 3
ENDMDL
MODEL 9
REMARK VINA RESULT:      -3.8     11.359     12.680
REMARK  3 active torsions:
REMARK  status: ('A' for Active; 'I' for Inactive)
REMARK    1  A    between atoms: C5_5  and  C6_6 
REMARK    2  A    between atoms: C6_6  and  C7_7 
REMARK    3  A    between atoms: C7_7  and  C8_8 
ROOT
HETATM    1  C1  UNL     1     -33.371  15.119  -3.420  1.00 20.00     0.004 C 
HETATM    2  C2  UNL     1     -33.315  13.633  -3.744  1.00 20.00     0.026 C 
HETATM    3  C3  UNL     1     -34.769  15.508  -2.952  1.00 20.00     0.032 C 
HETATM    4  C4  UNL     1     -34.435  13.244  -4.699  1.00 20.00     0.168 C 
HETATM    5  C5  UNL     1     -35.858  15.016  -3.908  1.00 20.00     0.121 C 
HETATM    6  O9  UNL     1     -35.710  13.619  -4.183  1.00 20.00    -0.386 OA
ENDROOT
BRANCH   5   7
HETATM    7  C6  UNL     1     -35.944  15.833  -5.197  1.00 20.00     0.033 C 
BRANCH   7   8
HETATM    8  C7  UNL     1     -37.029  15.293  -6.128  1.00 20.00     0.017 C 
BRANCH   8   9
HETATM    9  C8  UNL     1     -36.443  14.894  -7.476  1.00 20.00     0.115 C 
HETATM   10 CL10 UNL     1     -34.710  15.290  -7.542  1.00 20.00    -0.130 Cl
ENDBRANCH   8   9
ENDBRANCH   7   8
ENDBRANCH   5   7
TORSDOF 3
ENDMDL
