MODEL 1
REMARK VINA RESULT:      -4.7      0.000      0.000
REMARK  1 active torsions:
REMARK  status: ('A' for Active; 'I' for Inactive)
REMARK    1  A    between atoms: C4_4  and  C8_8 
ROOT
HETATM    1  C5  UNL     1     -34.771  14.359  -5.847  1.00 20.00     0.002 C 
HETATM    2  C6  UNL     1     -34.703  15.701  -5.113  1.00 20.00     0.011 C 
HETATM    3  C7  UNL     1     -34.757  13.277  -4.768  1.00 20.00     0.021 C 
HETATM    4  C8  UNL     1     -34.906  15.371  -3.622  1.00 20.00     0.039 C 
HETATM    5  C9  UNL     1     -34.265  13.974  -3.501  1.00 20.00     0.090 C 
HETATM    6 CL11 UNL     1     -32.473  14.038  -3.497  1.00 20.00    -0.124 Cl
ENDROOT
BRANCH   4   7
HETATM    7  C4  UNL     1     -34.462  16.409  -2.612  1.00 20.00    -0.028 A 
HETATM    8  C1  UNL     1     -34.646  16.367  -1.209  1.00 20.00     0.034 A 
HETATM    9  C2  UNL     1     -34.082  17.519  -0.715  1.00 20.00     0.142 A 
HETATM   10  O10 UNL     1     -33.563  18.268  -1.724  1.00 20.00    -0.334 OA
HETATM   11  C3  UNL     1     -33.798  17.585  -2.875  1.00 20.00     0.148 A 
ENDBRANCH   4   7
TORSDOF 1
ENDMDL
MODEL 2
REMARK VINA RESULT:      -4.5      1.542      1.642
REMARK  1 active torsions:
REMARK  status: ('A' for Active; 'I' for Inactive)
REMARK    1  A    between atoms: C4_4  and  C8_8 
ROOT
HETATM    1  C5  UNL     1     -35.153  13.604  -4.542  1.00 20.00     0.002 C 
HETATM    2  C6  UNL     1     -35.842  14.677  -3.695  1.00 20.00     0.011 C 
HETATM    3  C7  UNL     1     -33.678  13.624  -4.145  1.00 20.00     0.021 C 
HETATM    4  C8  UNL     1     -34.800  15.116  -2.650  1.00 20.00     0.039 C 
HETATM    5  C9  UNL     1     -33.472  14.951  -3.417  1.00 20.00     0.090 C 
HETATM    6 CL11 UNL     1     -33.196  16.263  -4.606  1.00 20.00    -0.124 Cl
ENDROOT
BRANCH   4   7
HETATM    7  C4  UNL     1     -35.022  16.447  -1.960  1.00 20.00    -0.028 A 
HETATM    8  C1  UNL     1     -34.432  16.889  -0.752  1.00 20.00     0.034 A 
HETATM    9  C2  UNL     1     -34.931  18.150  -0.523  1.00 20.00     0.142 A 
HETATM   10  O10 UNL     1     -35.789  18.511  -1.513  1.00 20.00    -0.334 OA
HETATM   11  C3  UNL     1     -35.839  17.469  -2.385  1.00 20.00     0.148 A 
ENDBRANCH   4   7
TORSDOF 1
ENDMDL
MODEL 3
REMARK VINA RESULT:      -4.5      2.328      4.411
REMARK  1 active torsions:
REMARK  status: ('A' for Active; 'I' for Inactive)
REMARK    1  A    between atoms: C4_4  and  C8_8 
ROOT
HETATM    1  C5  UNL     1     -34.769  17.831  -1.032  1.00 20.00     0.002 C 
HETATM    2  C6  UNL     1     -34.474  16.362  -1.347  1.00 20.00     0.011 C 
HETATM    3  C7  UNL     1     -35.526  18.386  -2.237  1.00 20.00     0.021 C 
HETATM    4  C8  UNL     1     -35.286  16.036  -2.615  1.00 20.00     0.039 C 
HETATM    5  C9  UNL     1     -35.285  17.384  -3.364  1.00 20.00     0.090 C 
HETATM    6 CL11 UNL     1     -33.715  17.727  -4.160  1.00 20.00    -0.124 Cl
ENDROOT
BRANCH   4   7
HETATM    7  C4  UNL     1     -34.873  14.817  -3.413  1.00 20.00    -0.028 A 
HETATM    8  C1  UNL     1     -35.657  14.110  -4.356  1.00 20.00     0.034 A 
HETATM    9  C2  UNL     1     -34.866  13.085  -4.818  1.00 20.00     0.142 A 
HETATM   10  O10 UNL     1     -33.646  13.117  -4.221  1.00 20.00    -0.334 OA
HETATM   11  C3  UNL     1     -33.658  14.174  -3.367  1.00 20.00     0.148 A 
ENDBRANCH   4   7
TORSDOF 1
ENDMDL
MODEL 4
REMARK VINA RESULT:      -4.5      1.468      1.905
REMARK  1 active torsions:
REMARK  status: ('A' for Active; 'I' for Inactive)
REMARK    1  A    between atoms: C4_4  and  C8_8 
ROOT
HETATM    1  C5  UNL     1     -34.644  13.255  -4.856  1.00 20.00     0.002 C 
HETATM    2  C6  UNL     1     -34.359  13.945  -3.520  1.00 20.00     0.011 C 
HETATM    3  C7  UNL     1     -34.716  14.362  -5.906  1.00 20.00     0.021 C 
HETATM    4  C8  UNL     1     -34.023  15.407  -3.869  1.00 20.00     0.039 C 
HETATM    5  C9  UNL     1     -34.893  15.658  -5.117  1.00 20.00     0.090 C 
HETATM    6 CL11 UNL     1     -36.624  15.894  -4.712  1.00 20.00    -0.124 Cl
ENDROOT
BRANCH   4   7
HETATM    7  C4  UNL     1     -34.123  16.430  -2.757  1.00 20.00    -0.028 A 
HETATM    8  C1  UNL     1     -34.618  16.221  -1.447  1.00 20.00     0.034 A 
HETATM    9  C2  UNL     1     -34.513  17.430  -0.801  1.00 20.00     0.142 A 
HETATM   10  O10 UNL     1     -33.986  18.369  -1.629  1.00 20.00    -0.334 OA
HETATM   11  C3  UNL     1     -33.751  17.753  -2.818  1.00 20.00     0.148 A 
ENDBRANCH   4   7
TORSDOF 1
ENDMDL
MODEL 5
REMARK VINA RESULT:      -4.4      0.590      1.119
REMARK  1 active torsions:
REMARK  status: ('A' for Active; 'I' for Inactive)
REMARK    1  A    between atoms: C4_4  and  C8_8 
ROOT
HETATM    1  C5  UNL     1     -34.759  14.430  -5.810  1.00 20.00     0.002 C 
HETATM    2  C6  UNL     1     -34.724  15.755  -5.044  1.00 20.00     0.011 C 
HETATM    3  C7  UNL     1     -34.702  13.323  -4.759  1.00 20.00     0.021 C 
HETATM    4  C8  UNL     1     -34.902  15.382  -3.560  1.00 20.00     0.039 C 
HETATM    5  C9  UNL     1     -34.218  14.003  -3.480  1.00 20.00     0.090 C 
HETATM    6 CL11 UNL     1     -32.429  14.120  -3.491  1.00 20.00    -0.124 Cl
ENDROOT
BRANCH   4   7
HETATM    7  C4  UNL     1     -34.479  16.408  -2.528  1.00 20.00    -0.028 A 
HETATM    8  C1  UNL     1     -33.804  17.629  -2.766  1.00 20.00     0.034 A 
HETATM    9  C2  UNL     1     -33.635  18.218  -1.536  1.00 20.00     0.142 A 
HETATM   10  O10 UNL     1     -34.163  17.438  -0.556  1.00 20.00    -0.334 OA
HETATM   11  C3  UNL     1     -34.675  16.338  -1.168  1.00 20.00     0.148 A 
ENDBRANCH   4   7
TORSDOF 1
ENDMDL
MODEL 6
REMARK VINA RESULT:      -4.4      2.431      4.224
REMARK  1 active torsions:
REMARK  status: ('A' for Active; 'I' for Inactive)
REMARK    1  A    between atoms: C4_4  and  C8_8 
ROOT
HETATM    1  C5  UNL     1     -34.980  18.965  -2.892  1.00 20.00     0.002 C 
HETATM    2  C6  UNL     1     -35.222  17.683  -3.692  1.00 20.00     0.011 C 
HETATM    3  C7  UNL     1     -33.781  18.687  -1.986  1.00 20.00     0.021 C 
HETATM    4  C8  UNL     1     -34.005  16.781  -3.414  1.00 20.00     0.039 C 
HETATM    5  C9  UNL     1     -33.630  17.167  -1.969  1.00 20.00     0.090 C 
HETATM    6 CL11 UNL     1     -34.744  16.458  -0.756  1.00 20.00    -0.124 Cl
ENDROOT
BRANCH   4   7
HETATM    7  C4  UNL     1     -34.154  15.301  -3.702  1.00 20.00    -0.028 A 
HETATM    8  C1  UNL     1     -35.351  14.605  -3.994  1.00 20.00     0.034 A 
HETATM    9  C2  UNL     1     -34.993  13.291  -4.181  1.00 20.00     0.142 A 
HETATM   10  O10 UNL     1     -33.653  13.134  -4.024  1.00 20.00    -0.334 OA
HETATM   11  C3  UNL     1     -33.148  14.363  -3.733  1.00 20.00     0.148 A 
ENDBRANCH   4   7
TORSDOF 1
ENDMDL
MODEL 7
REMARK VINA RESULT:      -4.3     11.372     12.485
REMARK  1 active torsions:
REMARK  status: ('A' for Active; 'I' for Inactive)
REMARK    1  A    between atoms: C4_4  and  C8_8 
ROOT
HETATM    1  C5  UNL     1     -35.047   5.096   6.505  1.00 20.00     0.002 C 
HETATM    2  C6  UNL     1     -34.047   6.158   6.041  1.00 20.00     0.011 C 
HETATM    3  C7  UNL     1     -35.178   4.097   5.357  1.00 20.00     0.021 C 
HETATM    4  C8  UNL     1     -33.435   5.612   4.737  1.00 20.00     0.039 C 
HETATM    5  C9  UNL     1     -34.604   4.808   4.134  1.00 20.00     0.090 C 
HETATM    6 CL11 UNL     1     -35.854   5.859   3.396  1.00 20.00    -0.124 Cl
ENDROOT
BRANCH   4   7
HETATM    7  C4  UNL     1     -32.751   6.604   3.819  1.00 20.00    -0.028 A 
HETATM    8  C1  UNL     1     -32.966   6.769   2.430  1.00 20.00     0.034 A 
HETATM    9  C2  UNL     1     -32.125   7.781   2.031  1.00 20.00     0.142 A 
HETATM   10  O10 UNL     1     -31.407   8.249   3.085  1.00 20.00    -0.334 OA
HETATM   11  C3  UNL     1     -31.794   7.528   4.171  1.00 20.00     0.148 A 
ENDBRANCH   4   7
TORSDOF 1
ENDMDL
MODEL 8
REMARK VINA RESULT:      -4.3      1.977      2.671
REMARK  1 active torsions:
REMARK  status: ('A' for Active; 'I' for Inactive)
REMARK    1  A    between atoms: C4_4  and  C8_8 
ROOT
HETATM    1  C5  UNL     1     -34.183  14.877  -4.621  1.00 20.00     0.002 C 
HETATM    2  C6  UNL     1     -34.370  15.056  -3.112  1.00 20.00     0.011 C 
HETATM    3  C7  UNL     1     -33.490  16.144  -5.122  1.00 20.00     0.021 C 
HETATM    4  C8  UNL     1     -33.557  16.309  -2.737  1.00 20.00     0.039 C 
HETATM    5  C9  UNL     1     -33.674  17.173  -4.008  1.00 20.00     0.090 C 
HETATM    6 CL11 UNL     1     -35.278  17.958  -4.161  1.00 20.00    -0.124 Cl
ENDROOT
BRANCH   4   7
HETATM    7  C4  UNL     1     -33.889  16.988  -1.424  1.00 20.00    -0.028 A 
HETATM    8  C1  UNL     1     -33.206  18.076  -0.830  1.00 20.00     0.034 A 
HETATM    9  C2  UNL     1     -33.865  18.345   0.346  1.00 20.00     0.142 A 
HETATM   10  O10 UNL     1     -34.910  17.492   0.514  1.00 20.00    -0.334 OA
HETATM   11  C3  UNL     1     -34.918  16.669  -0.568  1.00 20.00     0.148 A 
ENDBRANCH   4   7
TORSDOF 1
ENDMDL
MODEL 9
REMARK VINA RESULT:      -4.2      2.707      4.595
REMARK  1 active torsions:
REMARK  status: ('A' for Active; 'I' for Inactive)
REMARK    1  A    between atoms: C4_4  and  C8_8 
ROOT
HETATM    1  C5  UNL     1     -33.842  17.443  -2.074  1.00 20.00     0.002 C 
HETATM    2  C6  UNL     1     -33.625  17.105  -3.552  1.00 20.00     0.011 C 
HETATM    3  C7  UNL     1     -34.654  16.291  -1.484  1.00 20.00     0.021 C 
HETATM    4  C8  UNL     1     -34.099  15.649  -3.720  1.00 20.00     0.039 C 
HETATM    5  C9  UNL     1     -35.237  15.550  -2.685  1.00 20.00     0.090 C 
HETATM    6 CL11 UNL     1     -36.739  16.361  -3.232  1.00 20.00    -0.124 Cl
ENDROOT
BRANCH   4   7
HETATM    7  C4  UNL     1     -34.418  15.178  -5.124  1.00 20.00    -0.028 A 
HETATM    8  C1  UNL     1     -34.098  15.834  -6.337  1.00 20.00     0.034 A 
HETATM    9  C2  UNL     1     -34.586  15.035  -7.344  1.00 20.00     0.142 A 
HETATM   10  O10 UNL     1     -35.185  13.930  -6.828  1.00 20.00    -0.334 OA
HETATM   11  C3  UNL     1     -35.078  14.024  -5.476  1.00 20.00     0.148 A 
ENDBRANCH   4   7
TORSDOF 1
ENDMDL
