MODEL 1
REMARK VINA RESULT:      -5.0      0.000      0.000
REMARK  1 active torsions:
REMARK  status: ('A' for Active; 'I' for Inactive)
REMARK    1  A    between atoms: C4_4  and  C9_9 
ROOT
HETATM    1  C5  UNL     1     -33.777  17.354  -3.353  1.00 20.00     0.135 C 
HETATM    2  C6  UNL     1     -34.263  18.499  -2.500  1.00 20.00     0.079 C 
HETATM    3  C7  UNL     1     -34.225  17.893  -1.103  1.00 20.00     0.008 C 
HETATM    4  C8  UNL     1     -34.530  16.415  -1.321  1.00 20.00     0.017 C 
HETATM    5  C9  UNL     1     -33.736  16.051  -2.581  1.00 20.00     0.090 C 
HETATM    6  O10 UNL     1     -33.462  17.477  -4.530  1.00 20.00    -0.297 OA
ENDROOT
BRANCH   5   7
HETATM    7  C4  UNL     1     -34.287  14.866  -3.330  1.00 20.00    -0.023 A 
HETATM    8  C1  UNL     1     -35.637  14.637  -3.688  1.00 20.00     0.034 A 
HETATM    9  C2  UNL     1     -35.657  13.436  -4.357  1.00 20.00     0.142 A 
HETATM   10  O11 UNL     1     -34.405  12.911  -4.434  1.00 20.00    -0.334 OA
HETATM   11  C3  UNL     1     -33.578  13.788  -3.806  1.00 20.00     0.149 A 
ENDBRANCH   5   7
TORSDOF 1
ENDMDL
MODEL 2
REMARK VINA RESULT:      -4.7      1.570      4.237
REMARK  1 active torsions:
REMARK  status: ('A' for Active; 'I' for Inactive)
REMARK    1  A    between atoms: C4_4  and  C9_9 
ROOT
HETATM    1  C5  UNL     1     -33.528  14.772  -3.672  1.00 20.00     0.135 C 
HETATM    2  C6  UNL     1     -34.168  13.443  -3.985  1.00 20.00     0.079 C 
HETATM    3  C7  UNL     1     -35.610  13.845  -4.270  1.00 20.00     0.008 C 
HETATM    4  C8  UNL     1     -35.854  15.052  -3.372  1.00 20.00     0.017 C 
HETATM    5  C9  UNL     1     -34.559  15.866  -3.480  1.00 20.00     0.090 C 
HETATM    6  O10 UNL     1     -32.317  14.933  -3.583  1.00 20.00    -0.297 OA
ENDROOT
BRANCH   5   7
HETATM    7  C4  UNL     1     -34.300  16.764  -2.298  1.00 20.00    -0.023 A 
HETATM    8  C1  UNL     1     -34.632  16.508  -0.946  1.00 20.00     0.034 A 
HETATM    9  C2  UNL     1     -34.203  17.604  -0.234  1.00 20.00     0.142 A 
HETATM   10  O11 UNL     1     -33.630  18.517  -1.062  1.00 20.00    -0.334 OA
HETATM   11  C3  UNL     1     -33.693  17.997  -2.316  1.00 20.00     0.149 A 
ENDBRANCH   5   7
TORSDOF 1
ENDMDL
MODEL 3
REMARK VINA RESULT:      -4.6      1.495      4.298
REMARK  1 active torsions:
REMARK  status: ('A' for Active; 'I' for Inactive)
REMARK    1  A    between atoms: C4_4  and  C9_9 
ROOT
HETATM    1  C5  UNL     1     -35.855  14.837  -3.727  1.00 20.00     0.135 C 
HETATM    2  C6  UNL     1     -35.616  14.053  -4.993  1.00 20.00     0.079 C 
HETATM    3  C7  UNL     1     -34.291  13.364  -4.692  1.00 20.00     0.008 C 
HETATM    4  C8  UNL     1     -33.547  14.343  -3.791  1.00 20.00     0.017 C 
HETATM    5  C9  UNL     1     -34.628  14.871  -2.840  1.00 20.00     0.090 C 
HETATM    6  O10 UNL     1     -36.920  15.382  -3.463  1.00 20.00    -0.297 OA
ENDROOT
BRANCH   5   7
HETATM    7  C4  UNL     1     -34.319  16.224  -2.254  1.00 20.00    -0.023 A 
HETATM    8  C1  UNL     1     -34.516  16.637  -0.915  1.00 20.00     0.034 A 
HETATM    9  C2  UNL     1     -34.091  17.943  -0.852  1.00 20.00     0.142 A 
HETATM   10  O11 UNL     1     -33.646  18.360  -2.067  1.00 20.00    -0.334 OA
HETATM   11  C3  UNL     1     -33.789  17.307  -2.914  1.00 20.00     0.149 A 
ENDBRANCH   5   7
TORSDOF 1
ENDMDL
MODEL 4
REMARK VINA RESULT:      -4.4      1.802      4.350
REMARK  1 active torsions:
REMARK  status: ('A' for Active; 'I' for Inactive)
REMARK    1  A    between atoms: C4_4  and  C9_9 
ROOT
HETATM    1  C5  UNL     1     -35.832  14.911  -3.595  1.00 20.00     0.135 C 
HETATM    2  C6  UNL     1     -35.564  14.190  -4.892  1.00 20.00     0.079 C 
HETATM    3  C7  UNL     1     -34.197  13.570  -4.633  1.00 20.00     0.008 C 
HETATM    4  C8  UNL     1     -33.499  14.559  -3.706  1.00 20.00     0.017 C 
HETATM    5  C9  UNL     1     -34.596  14.986  -2.722  1.00 20.00     0.090 C 
HETATM    6  O10 UNL     1     -36.924  15.381  -3.298  1.00 20.00    -0.297 OA
ENDROOT
BRANCH   5   7
HETATM    7  C4  UNL     1     -34.361  16.333  -2.090  1.00 20.00    -0.023 A 
HETATM    8  C1  UNL     1     -33.843  17.490  -2.719  1.00 20.00     0.034 A 
HETATM    9  C2  UNL     1     -33.810  18.468  -1.753  1.00 20.00     0.142 A 
HETATM   10  O11 UNL     1     -34.275  17.986  -0.570  1.00 20.00    -0.334 OA
HETATM   11  C3  UNL     1     -34.607  16.686  -0.784  1.00 20.00     0.149 A 
ENDBRANCH   5   7
TORSDOF 1
ENDMDL
MODEL 5
REMARK VINA RESULT:      -4.4      2.363      3.813
REMARK  1 active torsions:
REMARK  status: ('A' for Active; 'I' for Inactive)
REMARK    1  A    between atoms: C4_4  and  C9_9 
ROOT
HETATM    1  C5  UNL     1     -34.797  13.794  -3.920  1.00 20.00     0.135 C 
HETATM    2  C6  UNL     1     -33.380  14.298  -3.817  1.00 20.00     0.079 C 
HETATM    3  C7  UNL     1     -33.558  15.580  -3.014  1.00 20.00     0.008 C 
HETATM    4  C8  UNL     1     -34.933  16.098  -3.421  1.00 20.00     0.017 C 
HETATM    5  C9  UNL     1     -35.804  14.837  -3.480  1.00 20.00     0.090 C 
HETATM    6  O10 UNL     1     -35.087  12.672  -4.318  1.00 20.00    -0.297 OA
ENDROOT
BRANCH   5   7
HETATM    7  C4  UNL     1     -37.004  14.965  -4.383  1.00 20.00    -0.023 A 
HETATM    8  C1  UNL     1     -37.008  15.352  -5.744  1.00 20.00     0.034 A 
HETATM    9  C2  UNL     1     -38.323  15.323  -6.145  1.00 20.00     0.142 A 
HETATM   10  O11 UNL     1     -39.127  14.942  -5.117  1.00 20.00    -0.334 OA
HETATM   11  C3  UNL     1     -38.316  14.727  -4.049  1.00 20.00     0.149 A 
ENDBRANCH   5   7
TORSDOF 1
ENDMDL
MODEL 6
REMARK VINA RESULT:      -4.3     12.232     14.107
REMARK  1 active torsions:
REMARK  status: ('A' for Active; 'I' for Inactive)
REMARK    1  A    between atoms: C4_4  and  C9_9 
ROOT
HETATM    1  C5  UNL     1     -42.340   5.811  -2.500  1.00 20.00     0.135 C 
HETATM    2  C6  UNL     1     -42.284   6.856  -1.415  1.00 20.00     0.079 C 
HETATM    3  C7  UNL     1     -41.069   6.412  -0.610  1.00 20.00     0.008 C 
HETATM    4  C8  UNL     1     -41.059   4.893  -0.741  1.00 20.00     0.017 C 
HETATM    5  C9  UNL     1     -41.419   4.643  -2.211  1.00 20.00     0.090 C 
HETATM    6  O10 UNL     1     -43.054   5.905  -3.491  1.00 20.00    -0.297 OA
ENDROOT
BRANCH   5   7
HETATM    7  C4  UNL     1     -42.029   3.290  -2.470  1.00 20.00    -0.023 A 
HETATM    8  C1  UNL     1     -41.552   2.296  -3.357  1.00 20.00     0.034 A 
HETATM    9  C2  UNL     1     -42.427   1.241  -3.255  1.00 20.00     0.142 A 
HETATM   10  O11 UNL     1     -43.413   1.522  -2.362  1.00 20.00    -0.334 OA
HETATM   11  C3  UNL     1     -43.162   2.771  -1.889  1.00 20.00     0.149 A 
ENDBRANCH   5   7
TORSDOF 1
ENDMDL
MODEL 7
REMARK VINA RESULT:      -4.3      2.083      4.395
REMARK  1 active torsions:
REMARK  status: ('A' for Active; 'I' for Inactive)
REMARK    1  A    between atoms: C4_4  and  C9_9 
ROOT
HETATM    1  C5  UNL     1     -34.729  13.894  -5.176  1.00 20.00     0.135 C 
HETATM    2  C6  UNL     1     -35.120  13.875  -6.632  1.00 20.00     0.079 C 
HETATM    3  C7  UNL     1     -34.359  15.076  -7.179  1.00 20.00     0.008 C 
HETATM    4  C8  UNL     1     -34.314  16.061  -6.017  1.00 20.00     0.017 C 
HETATM    5  C9  UNL     1     -34.028  15.182  -4.793  1.00 20.00     0.090 C 
HETATM    6  O10 UNL     1     -34.961  12.972  -4.403  1.00 20.00    -0.297 OA
ENDROOT
BRANCH   5   7
HETATM    7  C4  UNL     1     -34.491  15.779  -3.490  1.00 20.00    -0.023 A 
HETATM    8  C1  UNL     1     -33.700  16.046  -2.347  1.00 20.00     0.034 A 
HETATM    9  C2  UNL     1     -34.550  16.587  -1.412  1.00 20.00     0.142 A 
HETATM   10  O11 UNL     1     -35.813  16.670  -1.906  1.00 20.00    -0.334 OA
HETATM   11  C3  UNL     1     -35.768  16.176  -3.171  1.00 20.00     0.149 A 
ENDBRANCH   5   7
TORSDOF 1
ENDMDL
MODEL 8
REMARK VINA RESULT:      -4.2      1.459      2.153
REMARK  1 active torsions:
REMARK  status: ('A' for Active; 'I' for Inactive)
REMARK    1  A    between atoms: C4_4  and  C9_9 
ROOT
HETATM    1  C5  UNL     1     -34.391  16.942  -1.764  1.00 20.00     0.135 C 
HETATM    2  C6  UNL     1     -33.587  18.213  -1.662  1.00 20.00     0.079 C 
HETATM    3  C7  UNL     1     -33.739  18.798  -3.060  1.00 20.00     0.008 C 
HETATM    4  C8  UNL     1     -33.849  17.582  -3.972  1.00 20.00     0.017 C 
HETATM    5  C9  UNL     1     -34.755  16.615  -3.199  1.00 20.00     0.090 C 
HETATM    6  O10 UNL     1     -34.702  16.260  -0.795  1.00 20.00    -0.297 OA
ENDROOT
BRANCH   5   7
HETATM    7  C4  UNL     1     -34.568  15.168  -3.575  1.00 20.00    -0.023 A 
HETATM    8  C1  UNL     1     -33.342  14.484  -3.745  1.00 20.00     0.034 A 
HETATM    9  C2  UNL     1     -33.668  13.192  -4.083  1.00 20.00     0.142 A 
HETATM   10  O11 UNL     1     -35.018  13.038  -4.131  1.00 20.00    -0.334 OA
HETATM   11  C3  UNL     1     -35.558  14.246  -3.820  1.00 20.00     0.149 A 
ENDBRANCH   5   7
TORSDOF 1
ENDMDL
MODEL 9
REMARK VINA RESULT:      -4.2      2.180      2.689
REMARK  1 active torsions:
REMARK  status: ('A' for Active; 'I' for Inactive)
REMARK    1  A    between atoms: C4_4  and  C9_9 
ROOT
HETATM    1  C5  UNL     1     -33.619  16.242  -4.074  1.00 20.00     0.135 C 
HETATM    2  C6  UNL     1     -33.787  16.979  -2.770  1.00 20.00     0.079 C 
HETATM    3  C7  UNL     1     -34.649  16.013  -1.968  1.00 20.00     0.008 C 
HETATM    4  C8  UNL     1     -35.515  15.318  -3.013  1.00 20.00     0.017 C 
HETATM    5  C9  UNL     1     -34.555  15.056  -4.180  1.00 20.00     0.090 C 
HETATM    6  O10 UNL     1     -32.819  16.577  -4.940  1.00 20.00    -0.297 OA
ENDROOT
BRANCH   5   7
HETATM    7  C4  UNL     1     -35.239  14.919  -5.515  1.00 20.00    -0.023 A 
HETATM    8  C1  UNL     1     -34.652  14.501  -6.733  1.00 20.00     0.034 A 
HETATM    9  C2  UNL     1     -35.657  14.530  -7.671  1.00 20.00     0.142 A 
HETATM   10  O11 UNL     1     -36.825  14.940  -7.108  1.00 20.00    -0.334 OA
HETATM   11  C3  UNL     1     -36.561  15.174  -5.795  1.00 20.00     0.149 A 
ENDBRANCH   5   7
TORSDOF 1
ENDMDL
