MODEL 1
REMARK VINA RESULT:      -4.8      0.000      0.000
REMARK  1 active torsions:
REMARK  status: ('A' for Active; 'I' for Inactive)
REMARK    1  A    between atoms: C4_4  and  C9_9 
ROOT
HETATM    1  C5  UNL     1     -34.260  13.817  -4.031  1.00 20.00     0.135 C 
HETATM    2  C6  UNL     1     -34.812  13.685  -5.427  1.00 20.00     0.079 C 
HETATM    3  C7  UNL     1     -35.892  14.756  -5.445  1.00 20.00     0.008 C 
HETATM    4  C8  UNL     1     -36.410  14.810  -4.012  1.00 20.00     0.017 C 
HETATM    5  C9  UNL     1     -35.176  14.607  -3.120  1.00 20.00     0.090 C 
HETATM    6  O10 UNL     1     -33.195  13.326  -3.674  1.00 20.00    -0.297 OA
ENDROOT
BRANCH   5   7
HETATM    7  C4  UNL     1     -34.579  15.896  -2.612  1.00 20.00    -0.023 A 
HETATM    8  C1  UNL     1     -34.600  16.380  -1.281  1.00 20.00     0.034 A 
HETATM    9  C2  UNL     1     -33.937  17.585  -1.301  1.00 20.00     0.142 A 
HETATM   10  O11 UNL     1     -33.509  17.873  -2.558  1.00 20.00    -0.334 OA
HETATM   11  C3  UNL     1     -33.903  16.841  -3.349  1.00 20.00     0.149 A 
ENDBRANCH   5   7
TORSDOF 1
ENDMDL
MODEL 2
REMARK VINA RESULT:      -4.7      1.863      2.248
REMARK  1 active torsions:
REMARK  status: ('A' for Active; 'I' for Inactive)
REMARK    1  A    between atoms: C4_4  and  C9_9 
ROOT
HETATM    1  C5  UNL     1     -36.024  14.350  -3.993  1.00 20.00     0.135 C 
HETATM    2  C6  UNL     1     -35.074  13.215  -4.282  1.00 20.00     0.079 C 
HETATM    3  C7  UNL     1     -33.718  13.874  -4.076  1.00 20.00     0.008 C 
HETATM    4  C8  UNL     1     -33.925  15.326  -4.494  1.00 20.00     0.017 C 
HETATM    5  C9  UNL     1     -35.334  15.698  -4.011  1.00 20.00     0.090 C 
HETATM    6  O10 UNL     1     -37.221  14.194  -3.783  1.00 20.00    -0.297 OA
ENDROOT
BRANCH   5   7
HETATM    7  C4  UNL     1     -35.348  16.416  -2.684  1.00 20.00    -0.023 A 
HETATM    8  C1  UNL     1     -34.481  16.196  -1.586  1.00 20.00     0.034 A 
HETATM    9  C2  UNL     1     -34.873  17.078  -0.606  1.00 20.00     0.142 A 
HETATM   10  O11 UNL     1     -35.925  17.826  -1.030  1.00 20.00    -0.334 OA
HETATM   11  C3  UNL     1     -36.208  17.417  -2.295  1.00 20.00     0.149 A 
ENDBRANCH   5   7
TORSDOF 1
ENDMDL
MODEL 3
REMARK VINA RESULT:      -4.7     11.448     12.481
REMARK  1 active torsions:
REMARK  status: ('A' for Active; 'I' for Inactive)
REMARK    1  A    between atoms: C4_4  and  C9_9 
ROOT
HETATM    1  C5  UNL     1     -34.340   6.040   6.004  1.00 20.00     0.135 C 
HETATM    2  C6  UNL     1     -34.659   4.622   6.404  1.00 20.00     0.079 C 
HETATM    3  C7  UNL     1     -34.843   3.944   5.055  1.00 20.00     0.008 C 
HETATM    4  C8  UNL     1     -35.411   5.030   4.149  1.00 20.00     0.017 C 
HETATM    5  C9  UNL     1     -34.697   6.326   4.561  1.00 20.00     0.090 C 
HETATM    6  O10 UNL     1     -33.859   6.868   6.769  1.00 20.00    -0.297 OA
ENDROOT
BRANCH   5   7
HETATM    7  C4  UNL     1     -33.514   6.667   3.688  1.00 20.00    -0.023 A 
HETATM    8  C1  UNL     1     -33.244   7.909   3.064  1.00 20.00     0.034 A 
HETATM    9  C2  UNL     1     -32.064   7.745   2.378  1.00 20.00     0.142 A 
HETATM   10  O11 UNL     1     -31.590   6.482   2.540  1.00 20.00    -0.334 OA
HETATM   11  C3  UNL     1     -32.477   5.833   3.338  1.00 20.00     0.149 A 
ENDBRANCH   5   7
TORSDOF 1
ENDMDL
MODEL 4
REMARK VINA RESULT:      -4.6      1.453      4.184
REMARK  1 active torsions:
REMARK  status: ('A' for Active; 'I' for Inactive)
REMARK    1  A    between atoms: C4_4  and  C9_9 
ROOT
HETATM    1  C5  UNL     1     -35.120  17.376  -3.454  1.00 20.00     0.135 C 
HETATM    2  C6  UNL     1     -34.174  18.247  -2.668  1.00 20.00     0.079 C 
HETATM    3  C7  UNL     1     -33.648  17.280  -1.618  1.00 20.00     0.008 C 
HETATM    4  C8  UNL     1     -34.807  16.325  -1.355  1.00 20.00     0.017 C 
HETATM    5  C9  UNL     1     -35.474  16.100  -2.719  1.00 20.00     0.090 C 
HETATM    6  O10 UNL     1     -35.562  17.678  -4.556  1.00 20.00    -0.297 OA
ENDROOT
BRANCH   5   7
HETATM    7  C4  UNL     1     -35.017  14.841  -3.415  1.00 20.00    -0.023 A 
HETATM    8  C1  UNL     1     -33.682  14.417  -3.622  1.00 20.00     0.034 A 
HETATM    9  C2  UNL     1     -33.760  13.221  -4.296  1.00 20.00     0.142 A 
HETATM   10  O11 UNL     1     -35.057  12.881  -4.516  1.00 20.00    -0.334 OA
HETATM   11  C3  UNL     1     -35.815  13.871  -3.977  1.00 20.00     0.149 A 
ENDBRANCH   5   7
TORSDOF 1
ENDMDL
MODEL 5
REMARK VINA RESULT:      -4.5      1.654      1.981
REMARK  1 active torsions:
REMARK  status: ('A' for Active; 'I' for Inactive)
REMARK    1  A    between atoms: C4_4  and  C9_9 
ROOT
HETATM    1  C5  UNL     1     -34.257  15.364  -5.368  1.00 20.00     0.135 C 
HETATM    2  C6  UNL     1     -34.938  14.048  -5.641  1.00 20.00     0.079 C 
HETATM    3  C7  UNL     1     -34.843  13.354  -4.290  1.00 20.00     0.008 C 
HETATM    4  C8  UNL     1     -33.539  13.861  -3.684  1.00 20.00     0.017 C 
HETATM    5  C9  UNL     1     -33.442  15.339  -4.092  1.00 20.00     0.090 C 
HETATM    6  O10 UNL     1     -34.344  16.338  -6.107  1.00 20.00    -0.297 OA
ENDROOT
BRANCH   5   7
HETATM    7  C4  UNL     1     -33.932  16.292  -3.029  1.00 20.00    -0.023 A 
HETATM    8  C1  UNL     1     -34.643  15.962  -1.849  1.00 20.00     0.034 A 
HETATM    9  C2  UNL     1     -34.872  17.150  -1.196  1.00 20.00     0.142 A 
HETATM   10  O11 UNL     1     -34.347  18.189  -1.896  1.00 20.00    -0.334 OA
HETATM   11  C3  UNL     1     -33.777  17.659  -3.010  1.00 20.00     0.149 A 
ENDBRANCH   5   7
TORSDOF 1
ENDMDL
MODEL 6
REMARK VINA RESULT:      -4.5      1.376      4.048
REMARK  1 active torsions:
REMARK  status: ('A' for Active; 'I' for Inactive)
REMARK    1  A    between atoms: C4_4  and  C9_9 
ROOT
HETATM    1  C5  UNL     1     -34.516  16.831  -1.803  1.00 20.00     0.135 C 
HETATM    2  C6  UNL     1     -35.047  18.190  -2.176  1.00 20.00     0.079 C 
HETATM    3  C7  UNL     1     -34.840  18.212  -3.683  1.00 20.00     0.008 C 
HETATM    4  C8  UNL     1     -33.589  17.371  -3.915  1.00 20.00     0.017 C 
HETATM    5  C9  UNL     1     -33.673  16.219  -2.903  1.00 20.00     0.090 C 
HETATM    6  O10 UNL     1     -34.732  16.291  -0.724  1.00 20.00    -0.297 OA
ENDROOT
BRANCH   5   7
HETATM    7  C4  UNL     1     -34.244  14.947  -3.482  1.00 20.00    -0.023 A 
HETATM    8  C1  UNL     1     -35.599  14.687  -3.799  1.00 20.00     0.034 A 
HETATM    9  C2  UNL     1     -35.636  13.405  -4.296  1.00 20.00     0.142 A 
HETATM   10  O11 UNL     1     -34.392  12.860  -4.306  1.00 20.00    -0.334 OA
HETATM   11  C3  UNL     1     -33.550  13.805  -3.810  1.00 20.00     0.149 A 
ENDBRANCH   5   7
TORSDOF 1
ENDMDL
MODEL 7
REMARK VINA RESULT:      -4.5      2.492      3.572
REMARK  1 active torsions:
REMARK  status: ('A' for Active; 'I' for Inactive)
REMARK    1  A    between atoms: C4_4  and  C9_9 
ROOT
HETATM    1  C5  UNL     1     -34.343  13.561  -4.632  1.00 20.00     0.135 C 
HETATM    2  C6  UNL     1     -33.197  13.860  -3.700  1.00 20.00     0.079 C 
HETATM    3  C7  UNL     1     -33.318  15.366  -3.518  1.00 20.00     0.008 C 
HETATM    4  C8  UNL     1     -33.876  15.874  -4.843  1.00 20.00     0.017 C 
HETATM    5  C9  UNL     1     -34.881  14.808  -5.303  1.00 20.00     0.090 C 
HETATM    6  O10 UNL     1     -34.777  12.433  -4.831  1.00 20.00    -0.297 OA
ENDROOT
BRANCH   5   7
HETATM    7  C4  UNL     1     -36.311  15.132  -4.946  1.00 20.00    -0.023 A 
HETATM    8  C1  UNL     1     -36.966  14.866  -3.719  1.00 20.00     0.034 A 
HETATM    9  C2  UNL     1     -38.250  15.336  -3.861  1.00 20.00     0.142 A 
HETATM   10  O11 UNL     1     -38.428  15.874  -5.096  1.00 20.00    -0.334 OA
HETATM   11  C3  UNL     1     -37.244  15.747  -5.750  1.00 20.00     0.149 A 
ENDBRANCH   5   7
TORSDOF 1
ENDMDL
MODEL 8
REMARK VINA RESULT:      -4.4      2.337      4.351
REMARK  1 active torsions:
REMARK  status: ('A' for Active; 'I' for Inactive)
REMARK    1  A    between atoms: C4_4  and  C9_9 
ROOT
HETATM    1  C5  UNL     1     -33.450  15.876  -4.413  1.00 20.00     0.135 C 
HETATM    2  C6  UNL     1     -32.536  14.875  -3.753  1.00 20.00     0.079 C 
HETATM    3  C7  UNL     1     -33.411  13.631  -3.701  1.00 20.00     0.008 C 
HETATM    4  C8  UNL     1     -34.831  14.161  -3.540  1.00 20.00     0.017 C 
HETATM    5  C9  UNL     1     -34.898  15.431  -4.401  1.00 20.00     0.090 C 
HETATM    6  O10 UNL     1     -33.062  16.935  -4.891  1.00 20.00    -0.297 OA
ENDROOT
BRANCH   5   7
HETATM    7  C4  UNL     1     -35.484  15.201  -5.772  1.00 20.00    -0.023 A 
HETATM    8  C1  UNL     1     -34.821  14.670  -6.905  1.00 20.00     0.034 A 
HETATM    9  C2  UNL     1     -35.751  14.649  -7.918  1.00 20.00     0.142 A 
HETATM   10  O11 UNL     1     -36.943  15.131  -7.481  1.00 20.00    -0.334 OA
HETATM   11  C3  UNL     1     -36.773  15.464  -6.175  1.00 20.00     0.149 A 
ENDBRANCH   5   7
TORSDOF 1
ENDMDL
MODEL 9
REMARK VINA RESULT:      -4.4      2.330      4.195
REMARK  1 active torsions:
REMARK  status: ('A' for Active; 'I' for Inactive)
REMARK    1  A    between atoms: C4_4  and  C9_9 
ROOT
HETATM    1  C5  UNL     1     -35.475  14.836  -3.403  1.00 20.00     0.135 C 
HETATM    2  C6  UNL     1     -34.972  15.729  -2.298  1.00 20.00     0.079 C 
HETATM    3  C7  UNL     1     -33.616  16.164  -2.833  1.00 20.00     0.008 C 
HETATM    4  C8  UNL     1     -33.124  14.979  -3.657  1.00 20.00     0.017 C 
HETATM    5  C9  UNL     1     -34.372  14.415  -4.352  1.00 20.00     0.090 C 
HETATM    6  O10 UNL     1     -36.643  14.481  -3.509  1.00 20.00    -0.297 OA
ENDROOT
BRANCH   5   7
HETATM    7  C4  UNL     1     -34.552  14.910  -5.766  1.00 20.00    -0.023 A 
HETATM    8  C1  UNL     1     -35.223  14.249  -6.823  1.00 20.00     0.034 A 
HETATM    9  C2  UNL     1     -35.129  15.079  -7.915  1.00 20.00     0.142 A 
HETATM   10  O11 UNL     1     -34.444  16.208  -7.599  1.00 20.00    -0.334 OA
HETATM   11  C3  UNL     1     -34.097  16.099  -6.290  1.00 20.00     0.149 A 
ENDBRANCH   5   7
TORSDOF 1
ENDMDL
