MODEL 1
REMARK VINA RESULT:      -4.6      0.000      0.000
REMARK  2 active torsions:
REMARK  status: ('A' for Active; 'I' for Inactive)
REMARK    1  A    between atoms: C5_5  and  C6_6 
REMARK    2  A    between atoms: C6_6  and  C7_7 
ROOT
HETATM    1  C1  UNL     1     -33.221   6.433   5.305  1.00 20.00     0.031 C 
HETATM    2  C2  UNL     1     -34.369   5.257   3.408  1.00 20.00     0.031 C 
HETATM    3  C3  UNL     1     -34.422   6.065   6.167  1.00 20.00     0.168 C 
HETATM    4  C4  UNL     1     -35.506   4.955   4.377  1.00 20.00     0.168 C 
HETATM    5  C5  UNL     1     -33.624   6.529   3.829  1.00 20.00    -0.010 C 
HETATM    6  O8  UNL     1     -35.017   4.849   5.713  1.00 20.00    -0.391 OA
ENDROOT
BRANCH   5   7
HETATM    7  C6  UNL     1     -32.406   6.774   2.940  1.00 20.00     0.020 C 
BRANCH   7   8
HETATM    8  C7  UNL     1     -32.171   8.246   2.634  1.00 20.00     0.115 C 
HETATM    9 CL9  UNL     1     -31.762   8.515   0.924  1.00 20.00    -0.130 Cl
ENDBRANCH   7   8
ENDBRANCH   5   7
TORSDOF 2
ENDMDL
MODEL 2
REMARK VINA RESULT:      -4.6      0.836      1.794
REMARK  2 active torsions:
REMARK  status: ('A' for Active; 'I' for Inactive)
REMARK    1  A    between atoms: C5_5  and  C6_6 
REMARK    2  A    between atoms: C6_6  and  C7_7 
ROOT
HETATM    1  C1  UNL     1     -34.792   4.785   4.000  1.00 20.00     0.031 C 
HETATM    2  C2  UNL     1     -33.772   6.679   5.293  1.00 20.00     0.031 C 
HETATM    3  C3  UNL     1     -35.149   4.155   5.341  1.00 20.00     0.168 C 
HETATM    4  C4  UNL     1     -34.187   5.942   6.561  1.00 20.00     0.168 C 
HETATM    5  C5  UNL     1     -33.563   5.692   4.138  1.00 20.00    -0.010 C 
HETATM    6  O8  UNL     1     -35.358   5.161   6.332  1.00 20.00    -0.391 OA
ENDROOT
BRANCH   5   7
HETATM    7  C6  UNL     1     -33.271   6.426   2.832  1.00 20.00     0.020 C 
BRANCH   7   8
HETATM    8  C7  UNL     1     -32.054   7.336   2.913  1.00 20.00     0.115 C 
HETATM    9 CL9  UNL     1     -32.059   8.575   1.636  1.00 20.00    -0.130 Cl
ENDBRANCH   7   8
ENDBRANCH   5   7
TORSDOF 2
ENDMDL
MODEL 3
REMARK VINA RESULT:      -4.2     11.192     11.592
REMARK  2 active torsions:
REMARK  status: ('A' for Active; 'I' for Inactive)
REMARK    1  A    between atoms: C5_5  and  C6_6 
REMARK    2  A    between atoms: C6_6  and  C7_7 
ROOT
HETATM    1  C1  UNL     1     -35.777  15.063  -3.202  1.00 20.00     0.031 C 
HETATM    2  C2  UNL     1     -33.474  14.171  -3.652  1.00 20.00     0.031 C 
HETATM    3  C3  UNL     1     -36.289  14.056  -4.225  1.00 20.00     0.168 C 
HETATM    4  C4  UNL     1     -34.116  13.214  -4.649  1.00 20.00     0.168 C 
HETATM    5  C5  UNL     1     -34.320  15.440  -3.498  1.00 20.00    -0.010 C 
HETATM    6  O8  UNL     1     -35.452  12.900  -4.260  1.00 20.00    -0.391 OA
ENDROOT
BRANCH   5   7
HETATM    7  C6  UNL     1     -33.755  16.350  -2.410  1.00 20.00     0.020 C 
BRANCH   7   8
HETATM    8  C7  UNL     1     -34.663  16.469  -1.195  1.00 20.00     0.115 C 
HETATM    9 CL9  UNL     1     -34.070  17.679  -0.033  1.00 20.00    -0.130 Cl
ENDBRANCH   7   8
ENDBRANCH   5   7
TORSDOF 2
ENDMDL
MODEL 4
REMARK VINA RESULT:      -4.0     11.320     12.304
REMARK  2 active torsions:
REMARK  status: ('A' for Active; 'I' for Inactive)
REMARK    1  A    between atoms: C5_5  and  C6_6 
REMARK    2  A    between atoms: C6_6  and  C7_7 
ROOT
HETATM    1  C1  UNL     1     -34.240  16.007  -5.102  1.00 20.00     0.031 C 
HETATM    2  C2  UNL     1     -34.368  13.992  -3.610  1.00 20.00     0.031 C 
HETATM    3  C3  UNL     1     -34.371  15.052  -6.283  1.00 20.00     0.168 C 
HETATM    4  C4  UNL     1     -34.493  13.151  -4.875  1.00 20.00     0.168 C 
HETATM    5  C5  UNL     1     -33.611  15.294  -3.898  1.00 20.00    -0.010 C 
HETATM    6  O8  UNL     1     -35.123  13.895  -5.917  1.00 20.00    -0.391 OA
ENDROOT
BRANCH   5   7
HETATM    7  C6  UNL     1     -33.590  16.202  -2.671  1.00 20.00     0.020 C 
BRANCH   7   8
HETATM    8  C7  UNL     1     -34.892  16.179  -1.883  1.00 20.00     0.115 C 
HETATM    9 CL9  UNL     1     -34.704  16.888  -0.262  1.00 20.00    -0.130 Cl
ENDBRANCH   7   8
ENDBRANCH   5   7
TORSDOF 2
ENDMDL
MODEL 5
REMARK VINA RESULT:      -3.8     11.758     12.557
REMARK  2 active torsions:
REMARK  status: ('A' for Active; 'I' for Inactive)
REMARK    1  A    between atoms: C5_5  and  C6_6 
REMARK    2  A    between atoms: C6_6  and  C7_7 
ROOT
HETATM    1  C1  UNL     1     -33.854  17.072  -3.661  1.00 20.00     0.031 C 
HETATM    2  C2  UNL     1     -34.704  14.739  -3.292  1.00 20.00     0.031 C 
HETATM    3  C3  UNL     1     -33.284  16.579  -4.985  1.00 20.00     0.168 C 
HETATM    4  C4  UNL     1     -34.086  14.377  -4.637  1.00 20.00     0.168 C 
HETATM    5  C5  UNL     1     -33.960  15.920  -2.655  1.00 20.00    -0.010 C 
HETATM    6  O8  UNL     1     -34.070  15.508  -5.507  1.00 20.00    -0.391 OA
ENDROOT
BRANCH   5   7
HETATM    7  C6  UNL     1     -34.646  16.373  -1.369  1.00 20.00     0.020 C 
BRANCH   7   8
HETATM    8  C7  UNL     1     -33.938  17.535  -0.687  1.00 20.00     0.115 C 
HETATM    9 CL9  UNL     1     -34.580  17.845   0.943  1.00 20.00    -0.130 Cl
ENDBRANCH   7   8
ENDBRANCH   5   7
TORSDOF 2
ENDMDL
MODEL 6
REMARK VINA RESULT:      -3.7     11.532     12.746
REMARK  2 active torsions:
REMARK  status: ('A' for Active; 'I' for Inactive)
REMARK    1  A    between atoms: C5_5  and  C6_6 
REMARK    2  A    between atoms: C6_6  and  C7_7 
ROOT
HETATM    1  C1  UNL     1     -33.953  16.054  -2.562  1.00 20.00     0.031 C 
HETATM    2  C2  UNL     1     -33.515  16.063  -5.034  1.00 20.00     0.031 C 
HETATM    3  C3  UNL     1     -33.851  17.574  -2.610  1.00 20.00     0.168 C 
HETATM    4  C4  UNL     1     -33.438  17.582  -4.942  1.00 20.00     0.168 C 
HETATM    5  C5  UNL     1     -33.135  15.421  -3.694  1.00 20.00    -0.010 C 
HETATM    6  O8  UNL     1     -34.263  18.068  -3.885  1.00 20.00    -0.391 OA
ENDROOT
BRANCH   5   7
HETATM    7  C6  UNL     1     -33.330  13.907  -3.734  1.00 20.00     0.020 C 
BRANCH   7   8
HETATM    8  C7  UNL     1     -34.350  13.459  -4.772  1.00 20.00     0.115 C 
HETATM    9 CL9  UNL     1     -36.022  13.710  -4.216  1.00 20.00    -0.130 Cl
ENDBRANCH   7   8
ENDBRANCH   5   7
TORSDOF 2
ENDMDL
MODEL 7
REMARK VINA RESULT:      -3.7      9.937     11.141
REMARK  2 active torsions:
REMARK  status: ('A' for Active; 'I' for Inactive)
REMARK    1  A    between atoms: C5_5  and  C6_6 
REMARK    2  A    between atoms: C6_6  and  C7_7 
ROOT
HETATM    1  C1  UNL     1     -42.607   6.045  -2.950  1.00 20.00     0.031 C 
HETATM    2  C2  UNL     1     -41.264   4.372  -1.647  1.00 20.00     0.031 C 
HETATM    3  C3  UNL     1     -42.084   7.107  -1.990  1.00 20.00     0.168 C 
HETATM    4  C4  UNL     1     -40.817   5.528  -0.760  1.00 20.00     0.168 C 
HETATM    5  C5  UNL     1     -42.631   4.669  -2.273  1.00 20.00    -0.010 C 
HETATM    6  O8  UNL     1     -40.793   6.750  -1.496  1.00 20.00    -0.391 OA
ENDROOT
BRANCH   5   7
HETATM    7  C6  UNL     1     -43.033   3.577  -3.262  1.00 20.00     0.020 C 
BRANCH   7   8
HETATM    8  C7  UNL     1     -42.448   2.214  -2.923  1.00 20.00     0.115 C 
HETATM    9 CL9  UNL     1     -41.194   1.717  -4.084  1.00 20.00    -0.130 Cl
ENDBRANCH   7   8
ENDBRANCH   5   7
TORSDOF 2
ENDMDL
MODEL 8
REMARK VINA RESULT:      -3.7     12.079     13.127
REMARK  2 active torsions:
REMARK  status: ('A' for Active; 'I' for Inactive)
REMARK    1  A    between atoms: C5_5  and  C6_6 
REMARK    2  A    between atoms: C6_6  and  C7_7 
ROOT
HETATM    1  C1  UNL     1     -34.469  14.046  -4.990  1.00 20.00     0.031 C 
HETATM    2  C2  UNL     1     -33.581  16.354  -5.423  1.00 20.00     0.031 C 
HETATM    3  C3  UNL     1     -35.054  14.084  -6.397  1.00 20.00     0.168 C 
HETATM    4  C4  UNL     1     -34.216  16.262  -6.806  1.00 20.00     0.168 C 
HETATM    5  C5  UNL     1     -34.330  15.465  -4.424  1.00 20.00    -0.010 C 
HETATM    6  O8  UNL     1     -34.261  14.908  -7.252  1.00 20.00    -0.391 OA
ENDROOT
BRANCH   5   7
HETATM    7  C6  UNL     1     -33.630  15.449  -3.067  1.00 20.00     0.020 C 
BRANCH   7   8
HETATM    8  C7  UNL     1     -33.760  16.762  -2.309  1.00 20.00     0.115 C 
HETATM    9 CL9  UNL     1     -34.631  16.561  -0.770  1.00 20.00    -0.130 Cl
ENDBRANCH   7   8
ENDBRANCH   5   7
TORSDOF 2
ENDMDL
MODEL 9
REMARK VINA RESULT:      -3.6      9.740     10.648
REMARK  2 active torsions:
REMARK  status: ('A' for Active; 'I' for Inactive)
REMARK    1  A    between atoms: C5_5  and  C6_6 
REMARK    2  A    between atoms: C6_6  and  C7_7 
ROOT
HETATM    1  C1  UNL     1     -42.472   5.507  -2.591  1.00 20.00     0.031 C 
HETATM    2  C2  UNL     1     -41.453   7.043  -0.888  1.00 20.00     0.031 C 
HETATM    3  C3  UNL     1     -41.644   4.387  -1.973  1.00 20.00     0.168 C 
HETATM    4  C4  UNL     1     -40.682   5.836  -0.366  1.00 20.00     0.168 C 
HETATM    5  C5  UNL     1     -41.795   6.865  -2.372  1.00 20.00    -0.010 C 
HETATM    6  O8  UNL     1     -41.417   4.633  -0.585  1.00 20.00    -0.391 OA
ENDROOT
BRANCH   5   7
HETATM    7  C6  UNL     1     -42.675   8.007  -2.875  1.00 20.00     0.020 C 
BRANCH   7   8
HETATM    8  C7  UNL     1     -42.891   7.980  -4.381  1.00 20.00     0.115 C 
HETATM    9 CL9  UNL     1     -41.720   9.006  -5.243  1.00 20.00    -0.130 Cl
ENDBRANCH   7   8
ENDBRANCH   5   7
TORSDOF 2
ENDMDL
