MODEL 1
REMARK VINA RESULT:      -3.2      0.000      0.000
REMARK  3 active torsions:
REMARK  status: ('A' for Active; 'I' for Inactive)
REMARK    1  A    between atoms: C3_3  and  C4_4 
REMARK    2  A    between atoms: C3_3  and  N5_5 
REMARK    3  A    between atoms: C4_4  and  S7_7 
ROOT
HETATM    1  C1  UNL     1     -32.152   7.550   2.531  1.00 20.00     0.157 C 
HETATM    2  N5  UNL     1     -32.167   6.625   3.255  1.00 20.00    -0.275 NA
HETATM    3  S6  UNL     1     -32.103   8.793   1.537  1.00 20.00    -0.055 SA
ENDROOT
BRANCH   2   4
HETATM    4  C3  UNL     1     -33.337   6.554   4.136  1.00 20.00     0.160 C 
BRANCH   4   5
HETATM    5  C4  UNL     1     -34.307   5.525   3.575  1.00 20.00     0.095 C 
BRANCH   5   6
HETATM    6  S7  UNL     1     -35.165   4.655   4.916  1.00 20.00    -0.172 SA
HETATM    7  C2  UNL     1     -34.495   5.591   6.309  1.00 20.00     0.089 C 
ENDBRANCH   5   6
ENDBRANCH   4   5
ENDBRANCH   2   4
TORSDOF 3
ENDMDL
MODEL 2
REMARK VINA RESULT:      -3.0     11.042     11.644
REMARK  3 active torsions:
REMARK  status: ('A' for Active; 'I' for Inactive)
REMARK    1  A    between atoms: C3_3  and  C4_4 
REMARK    2  A    between atoms: C3_3  and  N5_5 
REMARK    3  A    between atoms: C4_4  and  S7_7 
ROOT
HETATM    1  C1  UNL     1     -34.941  13.634  -5.620  1.00 20.00     0.157 C 
HETATM    2  N5  UNL     1     -34.704  12.982  -4.671  1.00 20.00    -0.275 NA
HETATM    3  S6  UNL     1     -35.275  14.490  -6.920  1.00 20.00    -0.055 SA
ENDROOT
BRANCH   2   4
HETATM    4  C3  UNL     1     -34.033  13.701  -3.585  1.00 20.00     0.160 C 
BRANCH   4   5
HETATM    5  C4  UNL     1     -34.898  14.883  -3.176  1.00 20.00     0.095 C 
BRANCH   5   6
HETATM    6  S7  UNL     1     -33.866  16.290  -2.675  1.00 20.00    -0.172 SA
HETATM    7  C2  UNL     1     -34.589  16.580  -1.044  1.00 20.00     0.089 C 
ENDBRANCH   5   6
ENDBRANCH   4   5
ENDBRANCH   2   4
TORSDOF 3
ENDMDL
MODEL 3
REMARK VINA RESULT:      -2.8     11.067     11.725
REMARK  3 active torsions:
REMARK  status: ('A' for Active; 'I' for Inactive)
REMARK    1  A    between atoms: C3_3  and  C4_4 
REMARK    2  A    between atoms: C3_3  and  N5_5 
REMARK    3  A    between atoms: C4_4  and  S7_7 
ROOT
HETATM    1  C1  UNL     1     -34.665  16.282  -1.582  1.00 20.00     0.157 C 
HETATM    2  N5  UNL     1     -34.751  15.549  -2.497  1.00 20.00    -0.275 NA
HETATM    3  S6  UNL     1     -34.579  17.266  -0.334  1.00 20.00    -0.055 SA
ENDROOT
BRANCH   2   4
HETATM    4  C3  UNL     1     -33.546  15.461  -3.328  1.00 20.00     0.160 C 
BRANCH   4   5
HETATM    5  C4  UNL     1     -33.378  14.022  -3.790  1.00 20.00     0.095 C 
BRANCH   5   6
HETATM    6  S7  UNL     1     -34.891  13.427  -4.597  1.00 20.00    -0.172 SA
HETATM    7  C2  UNL     1     -34.783  14.406  -6.112  1.00 20.00     0.089 C 
ENDBRANCH   5   6
ENDBRANCH   4   5
ENDBRANCH   2   4
TORSDOF 3
ENDMDL
MODEL 4
REMARK VINA RESULT:      -2.7     11.258     11.779
REMARK  3 active torsions:
REMARK  status: ('A' for Active; 'I' for Inactive)
REMARK    1  A    between atoms: C3_3  and  C4_4 
REMARK    2  A    between atoms: C3_3  and  N5_5 
REMARK    3  A    between atoms: C4_4  and  S7_7 
ROOT
HETATM    1  C1  UNL     1     -36.369  14.056  -4.117  1.00 20.00     0.157 C 
HETATM    2  N5  UNL     1     -35.676  13.132  -4.331  1.00 20.00    -0.275 NA
HETATM    3  S6  UNL     1     -37.331  15.289  -3.816  1.00 20.00    -0.055 SA
ENDROOT
BRANCH   2   4
HETATM    4  C3  UNL     1     -34.368  13.465  -4.906  1.00 20.00     0.160 C 
BRANCH   4   5
HETATM    5  C4  UNL     1     -33.464  13.975  -3.794  1.00 20.00     0.095 C 
BRANCH   5   6
HETATM    6  S7  UNL     1     -33.126  15.745  -4.005  1.00 20.00    -0.172 SA
HETATM    7  C2  UNL     1     -33.844  16.337  -2.455  1.00 20.00     0.089 C 
ENDBRANCH   5   6
ENDBRANCH   4   5
ENDBRANCH   2   4
TORSDOF 3
ENDMDL
MODEL 5
REMARK VINA RESULT:      -2.7     11.297     12.408
REMARK  3 active torsions:
REMARK  status: ('A' for Active; 'I' for Inactive)
REMARK    1  A    between atoms: C3_3  and  C4_4 
REMARK    2  A    between atoms: C3_3  and  N5_5 
REMARK    3  A    between atoms: C4_4  and  S7_7 
ROOT
HETATM    1  C1  UNL     1     -33.462  16.904  -5.326  1.00 20.00     0.157 C 
HETATM    2  N5  UNL     1     -32.818  16.194  -4.647  1.00 20.00    -0.275 NA
HETATM    3  S6  UNL     1     -34.309  17.874  -6.263  1.00 20.00    -0.055 SA
ENDROOT
BRANCH   2   4
HETATM    4  C3  UNL     1     -33.570  15.498  -3.598  1.00 20.00     0.160 C 
BRANCH   4   5
HETATM    5  C4  UNL     1     -33.403  13.999  -3.794  1.00 20.00     0.095 C 
BRANCH   5   6
HETATM    6  S7  UNL     1     -34.775  13.324  -4.771  1.00 20.00    -0.172 SA
HETATM    7  C2  UNL     1     -36.101  14.365  -4.118  1.00 20.00     0.089 C 
ENDBRANCH   5   6
ENDBRANCH   4   5
ENDBRANCH   2   4
TORSDOF 3
ENDMDL
MODEL 6
REMARK VINA RESULT:      -2.7      1.400      4.582
REMARK  3 active torsions:
REMARK  status: ('A' for Active; 'I' for Inactive)
REMARK    1  A    between atoms: C3_3  and  C4_4 
REMARK    2  A    between atoms: C3_3  and  N5_5 
REMARK    3  A    between atoms: C4_4  and  S7_7 
ROOT
HETATM    1  C1  UNL     1     -34.263   5.706   4.639  1.00 20.00     0.157 C 
HETATM    2  N5  UNL     1     -33.912   6.505   3.853  1.00 20.00    -0.275 NA
HETATM    3  S6  UNL     1     -34.769   4.639   5.708  1.00 20.00    -0.055 SA
ENDROOT
BRANCH   2   4
HETATM    4  C3  UNL     1     -32.570   6.279   3.306  1.00 20.00     0.160 C 
BRANCH   4   5
HETATM    5  C4  UNL     1     -31.869   7.621   3.168  1.00 20.00     0.095 C 
BRANCH   5   6
HETATM    6  S7  UNL     1     -31.932   8.204   1.451  1.00 20.00    -0.172 SA
HETATM    7  C2  UNL     1     -32.584   9.861   1.758  1.00 20.00     0.089 C 
ENDBRANCH   5   6
ENDBRANCH   4   5
ENDBRANCH   2   4
TORSDOF 3
ENDMDL
MODEL 7
REMARK VINA RESULT:      -2.7     11.037     11.661
REMARK  3 active torsions:
REMARK  status: ('A' for Active; 'I' for Inactive)
REMARK    1  A    between atoms: C3_3  and  C4_4 
REMARK    2  A    between atoms: C3_3  and  N5_5 
REMARK    3  A    between atoms: C4_4  and  S7_7 
ROOT
HETATM    1  C1  UNL     1     -34.763  16.738  -0.660  1.00 20.00     0.157 C 
HETATM    2  N5  UNL     1     -34.683  16.053  -1.611  1.00 20.00    -0.275 NA
HETATM    3  S6  UNL     1     -34.896  17.647   0.640  1.00 20.00    -0.055 SA
ENDROOT
BRANCH   2   4
HETATM    4  C3  UNL     1     -33.662  16.463  -2.579  1.00 20.00     0.160 C 
BRANCH   4   5
HETATM    5  C4  UNL     1     -33.942  15.771  -3.904  1.00 20.00     0.095 C 
BRANCH   5   6
HETATM    6  S7  UNL     1     -33.598  13.993  -3.785  1.00 20.00    -0.172 SA
HETATM    7  C2  UNL     1     -35.198  13.376  -4.354  1.00 20.00     0.089 C 
ENDBRANCH   5   6
ENDBRANCH   4   5
ENDBRANCH   2   4
TORSDOF 3
ENDMDL
MODEL 8
REMARK VINA RESULT:      -2.6     11.104     12.349
REMARK  3 active torsions:
REMARK  status: ('A' for Active; 'I' for Inactive)
REMARK    1  A    between atoms: C3_3  and  C4_4 
REMARK    2  A    between atoms: C3_3  and  N5_5 
REMARK    3  A    between atoms: C4_4  and  S7_7 
ROOT
HETATM    1  C1  UNL     1     -34.039  14.519  -3.287  1.00 20.00     0.157 C 
HETATM    2  N5  UNL     1     -33.975  13.440  -3.747  1.00 20.00    -0.275 NA
HETATM    3  S6  UNL     1     -34.103  15.973  -2.641  1.00 20.00    -0.055 SA
ENDROOT
BRANCH   2   4
HETATM    4  C3  UNL     1     -34.905  13.187  -4.852  1.00 20.00     0.160 C 
BRANCH   4   5
HETATM    5  C4  UNL     1     -34.684  14.243  -5.924  1.00 20.00     0.095 C 
BRANCH   5   6
HETATM    6  S7  UNL     1     -36.245  15.069  -6.341  1.00 20.00    -0.172 SA
HETATM    7  C2  UNL     1     -35.720  16.777  -6.069  1.00 20.00     0.089 C 
ENDBRANCH   5   6
ENDBRANCH   4   5
ENDBRANCH   2   4
TORSDOF 3
ENDMDL
MODEL 9
REMARK VINA RESULT:      -2.5      1.846      4.455
REMARK  3 active torsions:
REMARK  status: ('A' for Active; 'I' for Inactive)
REMARK    1  A    between atoms: C3_3  and  C4_4 
REMARK    2  A    between atoms: C3_3  and  N5_5 
REMARK    3  A    between atoms: C4_4  and  S7_7 
ROOT
HETATM    1  C1  UNL     1     -35.068   4.927   4.767  1.00 20.00     0.157 C 
HETATM    2  N5  UNL     1     -35.203   5.181   3.627  1.00 20.00    -0.275 NA
HETATM    3  S6  UNL     1     -34.916   4.574   6.312  1.00 20.00    -0.055 SA
ENDROOT
BRANCH   2   4
HETATM    4  C3  UNL     1     -33.992   5.665   2.958  1.00 20.00     0.160 C 
BRANCH   4   5
HETATM    5  C4  UNL     1     -33.382   6.775   3.799  1.00 20.00     0.095 C 
BRANCH   5   6
HETATM    6  S7  UNL     1     -31.715   7.183   3.209  1.00 20.00    -0.172 SA
HETATM    7  C2  UNL     1     -32.171   8.395   1.948  1.00 20.00     0.089 C 
ENDBRANCH   5   6
ENDBRANCH   4   5
ENDBRANCH   2   4
TORSDOF 3
ENDMDL
