MODEL 1
REMARK VINA RESULT:      -3.9      0.000      0.000
REMARK  4 active torsions:
REMARK  status: ('A' for Active; 'I' for Inactive)
REMARK    1  A    between atoms: C1_1  and  C2_2 
REMARK    2  A    between atoms: C1_1  and  N9_9 
REMARK    3  A    between atoms: C7_7  and  C8_8 
REMARK    4  A    between atoms: C8_8  and  N9_9 
ROOT
HETATM    1  C4  UNL     1     -34.019  18.030  -3.018  1.00 20.00     0.038 C 
HETATM    2  C5  UNL     1     -35.988  16.701  -3.795  1.00 20.00     0.038 C 
HETATM    3  C8  UNL     1     -34.603  16.614  -3.142  1.00 20.00     0.024 C 
ENDROOT
BRANCH   3   4
HETATM    4  C7  UNL     1     -34.680  15.983  -1.730  1.00 20.00     0.026 C 
HETATM    5  C3  UNL     1     -34.645  16.979  -0.577  1.00 20.00     0.007 C 
ENDBRANCH   3   4
BRANCH   3   6
HETATM    6  N9  UNL     1     -33.721  15.829  -3.991  1.00 20.00    -0.383 N 
HETATM    7  C6  UNL     1     -33.272  16.468  -5.223  1.00 20.00     0.150 C 
BRANCH   6   8
HETATM    8  C1  UNL     1     -33.513  14.496  -3.769  1.00 20.00     0.127 C 
BRANCH   8   9
HETATM    9  C2  UNL     1     -34.026  13.454  -4.446  1.00 20.00     0.275 C 
HETATM   10  O10 UNL     1     -35.088  12.795  -4.293  1.00 20.00    -0.301 OA
ENDBRANCH   8   9
ENDBRANCH   6   8
ENDBRANCH   3   6
TORSDOF 4
ENDMDL
MODEL 2
REMARK VINA RESULT:      -3.9      1.061      1.562
REMARK  4 active torsions:
REMARK  status: ('A' for Active; 'I' for Inactive)
REMARK    1  A    between atoms: C1_1  and  C2_2 
REMARK    2  A    between atoms: C1_1  and  N9_9 
REMARK    3  A    between atoms: C7_7  and  C8_8 
REMARK    4  A    between atoms: C8_8  and  N9_9 
ROOT
HETATM    1  C4  UNL     1     -33.740  17.309  -4.160  1.00 20.00     0.038 C 
HETATM    2  C5  UNL     1     -35.871  17.774  -2.940  1.00 20.00     0.038 C 
HETATM    3  C8  UNL     1     -34.671  16.824  -3.037  1.00 20.00     0.024 C 
ENDROOT
BRANCH   3   4
HETATM    4  C7  UNL     1     -33.872  16.781  -1.713  1.00 20.00     0.026 C 
HETATM    5  C3  UNL     1     -34.715  16.889  -0.447  1.00 20.00     0.007 C 
ENDBRANCH   3   4
BRANCH   3   6
HETATM    6  N9  UNL     1     -35.141  15.491  -3.378  1.00 20.00    -0.383 N 
HETATM    7  C6  UNL     1     -36.588  15.305  -3.420  1.00 20.00     0.150 C 
BRANCH   6   8
HETATM    8  C1  UNL     1     -34.290  14.423  -3.428  1.00 20.00     0.127 C 
BRANCH   8   9
HETATM    9  C2  UNL     1     -34.129  13.536  -4.427  1.00 20.00     0.275 C 
HETATM   10  O10 UNL     1     -34.819  12.548  -4.789  1.00 20.00    -0.301 OA
ENDBRANCH   8   9
ENDBRANCH   6   8
ENDBRANCH   3   6
TORSDOF 4
ENDMDL
MODEL 3
REMARK VINA RESULT:      -3.8      1.739      2.876
REMARK  4 active torsions:
REMARK  status: ('A' for Active; 'I' for Inactive)
REMARK    1  A    between atoms: C1_1  and  C2_2 
REMARK    2  A    between atoms: C1_1  and  N9_9 
REMARK    3  A    between atoms: C7_7  and  C8_8 
REMARK    4  A    between atoms: C8_8  and  N9_9 
ROOT
HETATM    1  C4  UNL     1     -33.335  13.906  -3.740  1.00 20.00     0.038 C 
HETATM    2  C5  UNL     1     -33.250  16.282  -4.512  1.00 20.00     0.038 C 
HETATM    3  C8  UNL     1     -34.143  15.206  -3.880  1.00 20.00     0.024 C 
ENDROOT
BRANCH   3   4
HETATM    4  C7  UNL     1     -34.643  15.634  -2.479  1.00 20.00     0.026 C 
HETATM    5  C3  UNL     1     -33.851  16.763  -1.830  1.00 20.00     0.007 C 
ENDBRANCH   3   4
BRANCH   3   6
HETATM    6  N9  UNL     1     -35.275  14.947  -4.755  1.00 20.00    -0.383 N 
HETATM    7  C6  UNL     1     -35.012  14.117  -5.925  1.00 20.00     0.150 C 
BRANCH   6   8
HETATM    8  C1  UNL     1     -36.453  15.628  -4.622  1.00 20.00     0.127 C 
BRANCH   8   9
HETATM    9  C2  UNL     1     -37.684  15.123  -4.429  1.00 20.00     0.275 C 
HETATM   10  O10 UNL     1     -38.095  14.158  -3.734  1.00 20.00    -0.301 OA
ENDBRANCH   8   9
ENDBRANCH   6   8
ENDBRANCH   3   6
TORSDOF 4
ENDMDL
MODEL 4
REMARK VINA RESULT:      -3.7      1.674      3.246
REMARK  4 active torsions:
REMARK  status: ('A' for Active; 'I' for Inactive)
REMARK    1  A    between atoms: C1_1  and  C2_2 
REMARK    2  A    between atoms: C1_1  and  N9_9 
REMARK    3  A    between atoms: C7_7  and  C8_8 
REMARK    4  A    between atoms: C8_8  and  N9_9 
ROOT
HETATM    1  C4  UNL     1     -33.230  15.984  -4.510  1.00 20.00     0.038 C 
HETATM    2  C5  UNL     1     -34.160  16.186  -2.199  1.00 20.00     0.038 C 
HETATM    3  C8  UNL     1     -34.379  15.558  -3.581  1.00 20.00     0.024 C 
ENDROOT
BRANCH   3   4
HETATM    4  C7  UNL     1     -34.410  14.013  -3.505  1.00 20.00     0.026 C 
HETATM    5  C3  UNL     1     -34.552  13.304  -4.848  1.00 20.00     0.007 C 
ENDBRANCH   3   4
BRANCH   3   6
HETATM    6  N9  UNL     1     -35.625  16.055  -4.141  1.00 20.00    -0.383 N 
HETATM    7  C6  UNL     1     -35.529  16.749  -5.421  1.00 20.00     0.150 C 
BRANCH   6   8
HETATM    8  C1  UNL     1     -36.779  16.079  -3.409  1.00 20.00     0.127 C 
BRANCH   8   9
HETATM    9  C2  UNL     1     -37.882  15.327  -3.575  1.00 20.00     0.275 C 
HETATM   10  O10 UNL     1     -38.032  14.105  -3.834  1.00 20.00    -0.301 OA
ENDBRANCH   8   9
ENDBRANCH   6   8
ENDBRANCH   3   6
TORSDOF 4
ENDMDL
MODEL 5
REMARK VINA RESULT:      -3.7      1.793      3.818
REMARK  4 active torsions:
REMARK  status: ('A' for Active; 'I' for Inactive)
REMARK    1  A    between atoms: C1_1  and  C2_2 
REMARK    2  A    between atoms: C1_1  and  N9_9 
REMARK    3  A    between atoms: C7_7  and  C8_8 
REMARK    4  A    between atoms: C8_8  and  N9_9 
ROOT
HETATM    1  C4  UNL     1     -32.881  15.180  -3.777  1.00 20.00     0.038 C 
HETATM    2  C5  UNL     1     -34.540  13.550  -4.694  1.00 20.00     0.038 C 
HETATM    3  C8  UNL     1     -34.224  15.041  -4.513  1.00 20.00     0.024 C 
ENDROOT
BRANCH   3   4
HETATM    4  C7  UNL     1     -34.123  15.769  -5.875  1.00 20.00     0.026 C 
HETATM    5  C3  UNL     1     -34.464  14.914  -7.090  1.00 20.00     0.007 C 
ENDBRANCH   3   4
BRANCH   3   6
HETATM    6  N9  UNL     1     -35.258  15.654  -3.695  1.00 20.00    -0.383 N 
HETATM    7  C6  UNL     1     -34.933  15.862  -2.289  1.00 20.00     0.150 C 
BRANCH   6   8
HETATM    8  C1  UNL     1     -36.535  15.812  -4.157  1.00 20.00     0.127 C 
BRANCH   8   9
HETATM    9  C2  UNL     1     -37.668  15.290  -3.654  1.00 20.00     0.275 C 
HETATM   10  O10 UNL     1     -38.187  14.149  -3.766  1.00 20.00    -0.301 OA
ENDBRANCH   8   9
ENDBRANCH   6   8
ENDBRANCH   3   6
TORSDOF 4
ENDMDL
MODEL 6
REMARK VINA RESULT:      -3.6      2.267      4.108
REMARK  4 active torsions:
REMARK  status: ('A' for Active; 'I' for Inactive)
REMARK    1  A    between atoms: C1_1  and  C2_2 
REMARK    2  A    between atoms: C1_1  and  N9_9 
REMARK    3  A    between atoms: C7_7  and  C8_8 
REMARK    4  A    between atoms: C8_8  and  N9_9 
ROOT
HETATM    1  C4  UNL     1     -33.318  16.064  -4.823  1.00 20.00     0.038 C 
HETATM    2  C5  UNL     1     -33.344  13.797  -3.770  1.00 20.00     0.038 C 
HETATM    3  C8  UNL     1     -34.201  14.853  -4.482  1.00 20.00     0.024 C 
ENDROOT
BRANCH   3   4
HETATM    4  C7  UNL     1     -34.813  14.298  -5.791  1.00 20.00     0.026 C 
HETATM    5  C3  UNL     1     -34.404  15.040  -7.058  1.00 20.00     0.007 C 
ENDBRANCH   3   4
BRANCH   3   6
HETATM    6  N9  UNL     1     -35.257  15.297  -3.586  1.00 20.00    -0.383 N 
HETATM    7  C6  UNL     1     -36.578  14.719  -3.806  1.00 20.00     0.150 C 
BRANCH   6   8
HETATM    8  C1  UNL     1     -35.081  16.359  -2.744  1.00 20.00     0.127 C 
BRANCH   8   9
HETATM    9  C2  UNL     1     -34.733  16.338  -1.445  1.00 20.00     0.275 C 
HETATM   10  O10 UNL     1     -33.951  17.060  -0.775  1.00 20.00    -0.301 OA
ENDBRANCH   8   9
ENDBRANCH   6   8
ENDBRANCH   3   6
TORSDOF 4
ENDMDL
MODEL 7
REMARK VINA RESULT:      -3.6      2.509      3.789
REMARK  4 active torsions:
REMARK  status: ('A' for Active; 'I' for Inactive)
REMARK    1  A    between atoms: C1_1  and  C2_2 
REMARK    2  A    between atoms: C1_1  and  N9_9 
REMARK    3  A    between atoms: C7_7  and  C8_8 
REMARK    4  A    between atoms: C8_8  and  N9_9 
ROOT
HETATM    1  C4  UNL     1     -34.507  14.918  -7.202  1.00 20.00     0.038 C 
HETATM    2  C5  UNL     1     -33.694  16.121  -5.168  1.00 20.00     0.038 C 
HETATM    3  C8  UNL     1     -34.704  15.089  -5.687  1.00 20.00     0.024 C 
ENDROOT
BRANCH   3   4
HETATM    4  C7  UNL     1     -34.513  13.714  -5.003  1.00 20.00     0.026 C 
HETATM    5  C3  UNL     1     -33.510  13.700  -3.854  1.00 20.00     0.007 C 
ENDBRANCH   3   4
BRANCH   3   6
HETATM    6  N9  UNL     1     -36.053  15.578  -5.455  1.00 20.00    -0.383 N 
HETATM    7  C6  UNL     1     -36.788  16.032  -6.630  1.00 20.00     0.150 C 
BRANCH   6   8
HETATM    8  C1  UNL     1     -36.519  15.819  -4.192  1.00 20.00     0.127 C 
BRANCH   8   9
HETATM    9  C2  UNL     1     -37.561  15.239  -3.570  1.00 20.00     0.275 C 
HETATM   10  O10 UNL     1     -38.165  14.155  -3.779  1.00 20.00    -0.301 OA
ENDBRANCH   8   9
ENDBRANCH   6   8
ENDBRANCH   3   6
TORSDOF 4
ENDMDL
MODEL 8
REMARK VINA RESULT:      -3.6      2.325      3.993
REMARK  4 active torsions:
REMARK  status: ('A' for Active; 'I' for Inactive)
REMARK    1  A    between atoms: C1_1  and  C2_2 
REMARK    2  A    between atoms: C1_1  and  N9_9 
REMARK    3  A    between atoms: C7_7  and  C8_8 
REMARK    4  A    between atoms: C8_8  and  N9_9 
ROOT
HETATM    1  C4  UNL     1     -34.696  13.345  -4.495  1.00 20.00     0.038 C 
HETATM    2  C5  UNL     1     -36.401  15.106  -4.987  1.00 20.00     0.038 C 
HETATM    3  C8  UNL     1     -34.911  14.750  -5.081  1.00 20.00     0.024 C 
ENDROOT
BRANCH   3   4
HETATM    4  C7  UNL     1     -34.416  14.759  -6.547  1.00 20.00     0.026 C 
HETATM    5  C3  UNL     1     -35.491  14.480  -7.592  1.00 20.00     0.007 C 
ENDBRANCH   3   4
BRANCH   3   6
HETATM    6  N9  UNL     1     -34.142  15.696  -4.290  1.00 20.00    -0.383 N 
HETATM    7  C6  UNL     1     -33.357  16.675  -5.033  1.00 20.00     0.150 C 
BRANCH   6   8
HETATM    8  C1  UNL     1     -33.977  15.534  -2.942  1.00 20.00     0.127 C 
BRANCH   8   9
HETATM    9  C2  UNL     1     -34.148  16.448  -1.970  1.00 20.00     0.275 C 
HETATM   10  O10 UNL     1     -34.658  16.366  -0.823  1.00 20.00    -0.301 OA
ENDBRANCH   8   9
ENDBRANCH   6   8
ENDBRANCH   3   6
TORSDOF 4
ENDMDL
MODEL 9
REMARK VINA RESULT:      -3.6      2.383      3.291
REMARK  4 active torsions:
REMARK  status: ('A' for Active; 'I' for Inactive)
REMARK    1  A    between atoms: C1_1  and  C2_2 
REMARK    2  A    between atoms: C1_1  and  N9_9 
REMARK    3  A    between atoms: C7_7  and  C8_8 
REMARK    4  A    between atoms: C8_8  and  N9_9 
ROOT
HETATM    1  C4  UNL     1     -35.923  15.167  -3.464  1.00 20.00     0.038 C 
HETATM    2  C5  UNL     1     -33.881  13.742  -3.683  1.00 20.00     0.038 C 
HETATM    3  C8  UNL     1     -34.401  15.185  -3.682  1.00 20.00     0.024 C 
ENDROOT
BRANCH   3   4
HETATM    4  C7  UNL     1     -33.747  16.024  -2.558  1.00 20.00     0.026 C 
HETATM    5  C3  UNL     1     -34.668  16.369  -1.393  1.00 20.00     0.007 C 
ENDBRANCH   3   4
BRANCH   3   6
HETATM    6  N9  UNL     1     -34.133  15.792  -4.976  1.00 20.00    -0.383 N 
HETATM    7  C6  UNL     1     -34.529  15.019  -6.148  1.00 20.00     0.150 C 
BRANCH   6   8
HETATM    8  C1  UNL     1     -33.350  16.906  -5.095  1.00 20.00     0.127 C 
BRANCH   8   9
HETATM    9  C2  UNL     1     -33.703  18.122  -5.550  1.00 20.00     0.275 C 
HETATM   10  O10 UNL     1     -33.682  18.623  -6.704  1.00 20.00    -0.301 OA
ENDBRANCH   8   9
ENDBRANCH   6   8
ENDBRANCH   3   6
TORSDOF 4
ENDMDL
