MODEL 1
REMARK VINA RESULT:      -5.0      0.000      0.000
REMARK  3 active torsions:
REMARK  status: ('A' for Active; 'I' for Inactive)
REMARK    1  A    between atoms: C4_4  and  C8_8 
REMARK    2  A    between atoms: C8_8  and  N10_10 
REMARK    3  A    between atoms: C9_9  and  N10_10 
ROOT
HETATM    1  C1  UNL     1     -33.843   6.810   6.469  1.00 20.00     0.015 C 
HETATM    2  C2  UNL     1     -34.177   6.144   5.528  1.00 20.00    -0.076 C 
HETATM    3  C6  UNL     1     -34.782   3.871   4.813  1.00 20.00     0.063 C 
HETATM    4  C7  UNL     1     -35.896   5.871   3.787  1.00 20.00     0.063 C 
HETATM    5  C9  UNL     1     -34.589   5.325   4.370  1.00 20.00     0.212 C 
ENDROOT
BRANCH   5   6
HETATM    6  N10 UNL     1     -33.553   5.386   3.357  1.00 20.00     0.115 N 
HETATM    7  H23 UNL     1     -33.148   4.457   3.224  1.00 20.00     0.319 HD
BRANCH   6   8
HETATM    8  C8  UNL     1     -32.495   6.313   3.740  1.00 20.00     0.365 C 
BRANCH   8   9
HETATM    9  C4  UNL     1     -32.359   7.389   2.753  1.00 20.00    -0.077 C 
HETATM   10  C3  UNL     1     -32.253   8.274   1.947  1.00 20.00    -0.109 C 
HETATM   11  C5  UNL     1     -32.123   9.351   0.967  1.00 20.00     0.112 C 
ENDBRANCH   8   9
ENDBRANCH   6   8
ENDBRANCH   5   6
TORSDOF 3
ENDMDL
MODEL 2
REMARK VINA RESULT:      -4.7     10.821     12.065
REMARK  3 active torsions:
REMARK  status: ('A' for Active; 'I' for Inactive)
REMARK    1  A    between atoms: C4_4  and  C8_8 
REMARK    2  A    between atoms: C8_8  and  N10_10 
REMARK    3  A    between atoms: C9_9  and  N10_10 
ROOT
HETATM    1  C1  UNL     1     -34.039  16.023  -6.226  1.00 20.00     0.015 C 
HETATM    2  C2  UNL     1     -34.143  15.336  -5.247  1.00 20.00    -0.076 C 
HETATM    3  C6  UNL     1     -35.135  13.267  -4.363  1.00 20.00     0.063 C 
HETATM    4  C7  UNL     1     -32.883  14.041  -3.574  1.00 20.00     0.063 C 
HETATM    5  C9  UNL     1     -34.271  14.491  -4.041  1.00 20.00     0.212 C 
ENDROOT
BRANCH   5   6
HETATM    6  N10 UNL     1     -34.901  15.263  -2.988  1.00 20.00     0.115 N 
HETATM    7  H23 UNL     1     -35.723  15.744  -3.360  1.00 20.00     0.319 HD
BRANCH   6   8
HETATM    8  C8  UNL     1     -33.982  16.254  -2.439  1.00 20.00     0.365 C 
BRANCH   8   9
HETATM    9  C4  UNL     1     -34.439  16.721  -1.126  1.00 20.00    -0.077 C 
HETATM   10  C3  UNL     1     -34.811  17.108  -0.052  1.00 20.00    -0.109 C 
HETATM   11  C5  UNL     1     -35.265  17.581   1.255  1.00 20.00     0.112 C 
ENDBRANCH   8   9
ENDBRANCH   6   8
ENDBRANCH   5   6
TORSDOF 3
ENDMDL
MODEL 3
REMARK VINA RESULT:      -4.7      1.201      1.471
REMARK  3 active torsions:
REMARK  status: ('A' for Active; 'I' for Inactive)
REMARK    1  A    between atoms: C4_4  and  C8_8 
REMARK    2  A    between atoms: C8_8  and  N10_10 
REMARK    3  A    between atoms: C9_9  and  N10_10 
ROOT
HETATM    1  C1  UNL     1     -34.964   3.955   5.982  1.00 20.00     0.015 C 
HETATM    2  C2  UNL     1     -34.806   4.673   5.032  1.00 20.00    -0.076 C 
HETATM    3  C6  UNL     1     -33.976   4.760   2.720  1.00 20.00     0.063 C 
HETATM    4  C7  UNL     1     -35.962   6.125   3.414  1.00 20.00     0.063 C 
HETATM    5  C9  UNL     1     -34.612   5.556   3.864  1.00 20.00     0.212 C 
ENDROOT
BRANCH   5   6
HETATM    6  N10 UNL     1     -33.735   6.648   4.238  1.00 20.00     0.115 N 
HETATM    7  H23 UNL     1     -34.184   7.539   4.016  1.00 20.00     0.319 HD
BRANCH   6   8
HETATM    8  C8  UNL     1     -32.462   6.569   3.530  1.00 20.00     0.365 C 
BRANCH   8   9
HETATM    9  C4  UNL     1     -32.332   7.664   2.564  1.00 20.00    -0.077 C 
HETATM   10  C3  UNL     1     -32.230   8.559   1.769  1.00 20.00    -0.109 C 
HETATM   11  C5  UNL     1     -32.105   9.648   0.801  1.00 20.00     0.112 C 
ENDBRANCH   8   9
ENDBRANCH   6   8
ENDBRANCH   5   6
TORSDOF 3
ENDMDL
MODEL 4
REMARK VINA RESULT:      -4.7     11.127     12.351
REMARK  3 active torsions:
REMARK  status: ('A' for Active; 'I' for Inactive)
REMARK    1  A    between atoms: C4_4  and  C8_8 
REMARK    2  A    between atoms: C8_8  and  N10_10 
REMARK    3  A    between atoms: C9_9  and  N10_10 
ROOT
HETATM    1  C1  UNL     1     -34.821  14.746  -7.339  1.00 20.00     0.015 C 
HETATM    2  C2  UNL     1     -34.849  14.707  -6.140  1.00 20.00    -0.076 C 
HETATM    3  C6  UNL     1     -36.288  14.262  -4.196  1.00 20.00     0.063 C 
HETATM    4  C7  UNL     1     -33.858  13.641  -4.153  1.00 20.00     0.063 C 
HETATM    5  C9  UNL     1     -34.884  14.659  -4.663  1.00 20.00     0.212 C 
ENDROOT
BRANCH   5   6
HETATM    6  N10 UNL     1     -34.554  15.970  -4.140  1.00 20.00     0.115 N 
HETATM    7  H23 UNL     1     -34.182  16.555  -4.892  1.00 20.00     0.319 HD
BRANCH   6   8
HETATM    8  C8  UNL     1     -33.561  15.879  -3.076  1.00 20.00     0.365 C 
BRANCH   8   9
HETATM    9  C4  UNL     1     -34.092  16.415  -1.818  1.00 20.00    -0.077 C 
HETATM   10  C3  UNL     1     -34.531  16.849  -0.788  1.00 20.00    -0.109 C 
HETATM   11  C5  UNL     1     -35.066  17.377   0.467  1.00 20.00     0.112 C 
ENDBRANCH   8   9
ENDBRANCH   6   8
ENDBRANCH   5   6
TORSDOF 3
ENDMDL
MODEL 5
REMARK VINA RESULT:      -4.6     11.119     11.864
REMARK  3 active torsions:
REMARK  status: ('A' for Active; 'I' for Inactive)
REMARK    1  A    between atoms: C4_4  and  C8_8 
REMARK    2  A    between atoms: C8_8  and  N10_10 
REMARK    3  A    between atoms: C9_9  and  N10_10 
ROOT
HETATM    1  C1  UNL     1     -37.552  14.781  -3.809  1.00 20.00     0.015 C 
HETATM    2  C2  UNL     1     -36.381  14.660  -4.041  1.00 20.00    -0.076 C 
HETATM    3  C6  UNL     1     -34.673  13.120  -4.910  1.00 20.00     0.063 C 
HETATM    4  C7  UNL     1     -34.494  15.588  -5.322  1.00 20.00     0.063 C 
HETATM    5  C9  UNL     1     -34.939  14.511  -4.327  1.00 20.00     0.212 C 
ENDROOT
BRANCH   5   6
HETATM    6  N10 UNL     1     -34.194  14.667  -3.092  1.00 20.00     0.115 N 
HETATM    7  H23 UNL     1     -34.770  14.363  -2.304  1.00 20.00     0.319 HD
BRANCH   6   8
HETATM    8  C8  UNL     1     -33.803  16.057  -2.884  1.00 20.00     0.365 C 
BRANCH   8   9
HETATM    9  C4  UNL     1     -34.272  16.543  -1.582  1.00 20.00    -0.077 C 
HETATM   10  C3  UNL     1     -34.660  16.937  -0.516  1.00 20.00    -0.109 C 
HETATM   11  C5  UNL     1     -35.133  17.416   0.782  1.00 20.00     0.112 C 
ENDBRANCH   8   9
ENDBRANCH   6   8
ENDBRANCH   5   6
TORSDOF 3
ENDMDL
MODEL 6
REMARK VINA RESULT:      -4.5     11.357     12.249
REMARK  3 active torsions:
REMARK  status: ('A' for Active; 'I' for Inactive)
REMARK    1  A    between atoms: C4_4  and  C8_8 
REMARK    2  A    between atoms: C8_8  and  N10_10 
REMARK    3  A    between atoms: C9_9  and  N10_10 
ROOT
HETATM    1  C1  UNL     1     -37.462  15.058  -4.388  1.00 20.00     0.015 C 
HETATM    2  C2  UNL     1     -36.344  14.870  -4.785  1.00 20.00    -0.076 C 
HETATM    3  C6  UNL     1     -34.469  13.281  -4.773  1.00 20.00     0.063 C 
HETATM    4  C7  UNL     1     -34.953  14.668  -6.806  1.00 20.00     0.063 C 
HETATM    5  C9  UNL     1     -34.969  14.639  -5.275  1.00 20.00     0.212 C 
ENDROOT
BRANCH   5   6
HETATM    6  N10 UNL     1     -34.106  15.688  -4.769  1.00 20.00     0.115 N 
HETATM    7  H23 UNL     1     -33.419  15.940  -5.482  1.00 20.00     0.319 HD
BRANCH   6   8
HETATM    8  C8  UNL     1     -33.403  15.259  -3.566  1.00 20.00     0.365 C 
BRANCH   8   9
HETATM    9  C4  UNL     1     -33.917  15.955  -2.382  1.00 20.00    -0.077 C 
HETATM   10  C3  UNL     1     -34.342  16.521  -1.411  1.00 20.00    -0.109 C 
HETATM   11  C5  UNL     1     -34.858  17.209  -0.229  1.00 20.00     0.112 C 
ENDBRANCH   8   9
ENDBRANCH   6   8
ENDBRANCH   5   6
TORSDOF 3
ENDMDL
MODEL 7
REMARK VINA RESULT:      -4.3     10.922     11.819
REMARK  3 active torsions:
REMARK  status: ('A' for Active; 'I' for Inactive)
REMARK    1  A    between atoms: C4_4  and  C8_8 
REMARK    2  A    between atoms: C8_8  and  N10_10 
REMARK    3  A    between atoms: C9_9  and  N10_10 
ROOT
HETATM    1  C1  UNL     1     -35.517  17.517   2.432  1.00 20.00     0.015 C 
HETATM    2  C2  UNL     1     -35.177  17.636   1.287  1.00 20.00    -0.076 C 
HETATM    3  C6  UNL     1     -35.707  18.745  -0.842  1.00 20.00     0.063 C 
HETATM    4  C7  UNL     1     -33.324  18.319  -0.185  1.00 20.00     0.063 C 
HETATM    5  C9  UNL     1     -34.758  17.782  -0.123  1.00 20.00     0.212 C 
ENDROOT
BRANCH   5   6
HETATM    6  N10 UNL     1     -34.808  16.484  -0.767  1.00 20.00     0.115 N 
HETATM    7  H23 UNL     1     -34.443  15.771  -0.131  1.00 20.00     0.319 HD
BRANCH   6   8
HETATM    8  C8  UNL     1     -34.019  16.472  -1.994  1.00 20.00     0.365 C 
BRANCH   8   9
HETATM    9  C4  UNL     1     -34.390  15.337  -2.844  1.00 20.00    -0.077 C 
HETATM   10  C3  UNL     1     -34.698  14.410  -3.543  1.00 20.00    -0.109 C 
HETATM   11  C5  UNL     1     -35.073  13.282  -4.395  1.00 20.00     0.112 C 
ENDBRANCH   8   9
ENDBRANCH   6   8
ENDBRANCH   5   6
TORSDOF 3
ENDMDL
MODEL 8
REMARK VINA RESULT:      -4.3     10.996     12.324
REMARK  3 active torsions:
REMARK  status: ('A' for Active; 'I' for Inactive)
REMARK    1  A    between atoms: C4_4  and  C8_8 
REMARK    2  A    between atoms: C8_8  and  N10_10 
REMARK    3  A    between atoms: C9_9  and  N10_10 
ROOT
HETATM    1  C1  UNL     1     -34.594  16.373  -1.354  1.00 20.00     0.015 C 
HETATM    2  C2  UNL     1     -34.413  15.911  -2.447  1.00 20.00    -0.076 C 
HETATM    3  C6  UNL     1     -33.131  16.167  -4.529  1.00 20.00     0.063 C 
HETATM    4  C7  UNL     1     -33.729  13.887  -3.670  1.00 20.00     0.063 C 
HETATM    5  C9  UNL     1     -34.191  15.342  -3.793  1.00 20.00     0.212 C 
ENDROOT
BRANCH   5   6
HETATM    6  N10 UNL     1     -35.437  15.385  -4.535  1.00 20.00     0.115 N 
HETATM    7  H23 UNL     1     -35.917  16.268  -4.347  1.00 20.00     0.319 HD
BRANCH   6   8
HETATM    8  C8  UNL     1     -36.312  14.281  -4.160  1.00 20.00     0.365 C 
BRANCH   8   9
HETATM    9  C4  UNL     1     -37.657  14.767  -3.835  1.00 20.00    -0.077 C 
HETATM   10  C3  UNL     1     -38.758  15.168  -3.573  1.00 20.00    -0.109 C 
HETATM   11  C5  UNL     1     -40.100  15.657  -3.256  1.00 20.00     0.112 C 
ENDBRANCH   8   9
ENDBRANCH   6   8
ENDBRANCH   5   6
TORSDOF 3
ENDMDL
MODEL 9
REMARK VINA RESULT:      -4.2     11.351     13.066
REMARK  3 active torsions:
REMARK  status: ('A' for Active; 'I' for Inactive)
REMARK    1  A    between atoms: C4_4  and  C8_8 
REMARK    2  A    between atoms: C8_8  and  N10_10 
REMARK    3  A    between atoms: C9_9  and  N10_10 
ROOT
HETATM    1  C1  UNL     1     -33.656  17.946  -5.608  1.00 20.00     0.015 C 
HETATM    2  C2  UNL     1     -34.099  16.840  -5.755  1.00 20.00    -0.076 C 
HETATM    3  C6  UNL     1     -36.162  15.504  -5.745  1.00 20.00     0.063 C 
HETATM    4  C7  UNL     1     -34.304  14.968  -7.342  1.00 20.00     0.063 C 
HETATM    5  C9  UNL     1     -34.643  15.478  -5.937  1.00 20.00     0.212 C 
ENDROOT
BRANCH   5   6
HETATM    6  N10 UNL     1     -34.046  14.596  -4.953  1.00 20.00     0.115 N 
HETATM    7  H23 UNL     1     -33.816  13.702  -5.390  1.00 20.00     0.319 HD
BRANCH   6   8
HETATM    8  C8  UNL     1     -34.956  14.358  -3.838  1.00 20.00     0.365 C 
BRANCH   8   9
HETATM    9  C4  UNL     1     -34.713  15.312  -2.752  1.00 20.00    -0.077 C 
HETATM   10  C3  UNL     1     -34.519  16.092  -1.859  1.00 20.00    -0.109 C 
HETATM   11  C5  UNL     1     -34.282  17.041  -0.772  1.00 20.00     0.112 C 
ENDBRANCH   8   9
ENDBRANCH   6   8
ENDBRANCH   5   6
TORSDOF 3
ENDMDL
