MODEL 1
REMARK VINA RESULT:      -4.6      0.000      0.000
REMARK  3 active torsions:
REMARK  status: ('A' for Active; 'I' for Inactive)
REMARK    1  A    between atoms: C2_2  and  C6_6 
REMARK    2  A    between atoms: C2_2  and  C7_7 
REMARK    3  A    between atoms: C7_7  and  C8_8 
ROOT
HETATM    1  C1  UNL     1     -31.968   8.338   2.098  1.00 20.00     0.066 C 
HETATM    2  C6  UNL     1     -31.798   7.738   3.426  1.00 20.00     0.202 C 
HETATM    3  N9  UNL     1     -32.102   8.815   1.049  1.00 20.00    -0.197 NA
ENDROOT
BRANCH   2   4
HETATM    4  C2  UNL     1     -32.585   6.450   3.586  1.00 20.00     0.143 C 
HETATM    5  O10 UNL     1     -32.248   5.396   3.045  1.00 20.00    -0.297 OA
BRANCH   4   6
HETATM    6  C7  UNL     1     -33.816   6.521   4.492  1.00 20.00     0.055 C 
HETATM    7  C3  UNL     1     -33.320   6.803   5.911  1.00 20.00     0.018 C 
BRANCH   6   8
HETATM    8  C8  UNL     1     -34.666   5.230   4.379  1.00 20.00    -0.012 C 
HETATM    9  C4  UNL     1     -35.995   5.510   3.664  1.00 20.00     0.010 C 
HETATM   10  C5  UNL     1     -34.960   4.605   5.747  1.00 20.00     0.010 C 
ENDBRANCH   6   8
ENDBRANCH   4   6
ENDBRANCH   2   4
TORSDOF 3
ENDMDL
MODEL 2
REMARK VINA RESULT:      -4.5     11.092     12.338
REMARK  3 active torsions:
REMARK  status: ('A' for Active; 'I' for Inactive)
REMARK    1  A    between atoms: C2_2  and  C6_6 
REMARK    2  A    between atoms: C2_2  and  C7_7 
REMARK    3  A    between atoms: C7_7  and  C8_8 
ROOT
HETATM    1  C1  UNL     1     -33.995  13.660  -3.971  1.00 20.00     0.066 C 
HETATM    2  C6  UNL     1     -32.959  14.643  -3.637  1.00 20.00     0.202 C 
HETATM    3  N9  UNL     1     -34.813  12.880  -4.235  1.00 20.00    -0.197 NA
ENDROOT
BRANCH   2   4
HETATM    4  C2  UNL     1     -33.359  16.058  -4.013  1.00 20.00     0.143 C 
HETATM    5  O10 UNL     1     -32.907  16.633  -5.006  1.00 20.00    -0.297 OA
BRANCH   4   6
HETATM    6  C7  UNL     1     -34.390  16.731  -3.104  1.00 20.00     0.055 C 
HETATM    7  C3  UNL     1     -34.943  17.940  -3.861  1.00 20.00     0.018 C 
BRANCH   6   8
HETATM    8  C8  UNL     1     -33.769  17.092  -1.731  1.00 20.00    -0.012 C 
HETATM    9  C4  UNL     1     -34.711  16.701  -0.585  1.00 20.00     0.010 C 
HETATM   10  C5  UNL     1     -33.440  18.584  -1.616  1.00 20.00     0.010 C 
ENDBRANCH   6   8
ENDBRANCH   4   6
ENDBRANCH   2   4
TORSDOF 3
ENDMDL
MODEL 3
REMARK VINA RESULT:      -4.3     11.316     12.612
REMARK  3 active torsions:
REMARK  status: ('A' for Active; 'I' for Inactive)
REMARK    1  A    between atoms: C2_2  and  C6_6 
REMARK    2  A    between atoms: C2_2  and  C7_7 
REMARK    3  A    between atoms: C7_7  and  C8_8 
ROOT
HETATM    1  C1  UNL     1     -37.455  14.591  -3.751  1.00 20.00     0.066 C 
HETATM    2  C6  UNL     1     -36.062  14.910  -3.423  1.00 20.00     0.202 C 
HETATM    3  N9  UNL     1     -38.559  14.339  -4.007  1.00 20.00    -0.197 NA
ENDROOT
BRANCH   2   4
HETATM    4  C2  UNL     1     -35.075  14.001  -4.133  1.00 20.00     0.143 C 
HETATM    5  O10 UNL     1     -35.231  12.781  -4.204  1.00 20.00    -0.297 OA
BRANCH   4   6
HETATM    6  C7  UNL     1     -33.880  14.691  -4.795  1.00 20.00     0.055 C 
HETATM    7  C3  UNL     1     -32.938  15.138  -3.676  1.00 20.00     0.018 C 
BRANCH   6   8
HETATM    8  C8  UNL     1     -34.344  15.849  -5.714  1.00 20.00    -0.012 C 
HETATM    9  C4  UNL     1     -34.302  15.428  -7.188  1.00 20.00     0.010 C 
HETATM   10  C5  UNL     1     -33.493  17.111  -5.534  1.00 20.00     0.010 C 
ENDBRANCH   6   8
ENDBRANCH   4   6
ENDBRANCH   2   4
TORSDOF 3
ENDMDL
MODEL 4
REMARK VINA RESULT:      -4.3     11.087     12.150
REMARK  3 active torsions:
REMARK  status: ('A' for Active; 'I' for Inactive)
REMARK    1  A    between atoms: C2_2  and  C6_6 
REMARK    2  A    between atoms: C2_2  and  C7_7 
REMARK    3  A    between atoms: C7_7  and  C8_8 
ROOT
HETATM    1  C1  UNL     1     -35.868  13.918  -4.091  1.00 20.00     0.066 C 
HETATM    2  C6  UNL     1     -34.470  13.570  -4.362  1.00 20.00     0.202 C 
HETATM    3  N9  UNL     1     -36.976  14.191  -3.878  1.00 20.00    -0.197 NA
ENDROOT
BRANCH   2   4
HETATM    4  C2  UNL     1     -33.502  14.631  -3.869  1.00 20.00     0.143 C 
HETATM    5  O10 UNL     1     -32.352  14.365  -3.516  1.00 20.00    -0.297 OA
BRANCH   4   6
HETATM    6  C7  UNL     1     -34.024  16.069  -3.865  1.00 20.00     0.055 C 
HETATM    7  C3  UNL     1     -33.410  16.779  -5.073  1.00 20.00     0.018 C 
BRANCH   6   8
HETATM    8  C8  UNL     1     -33.717  16.768  -2.516  1.00 20.00    -0.012 C 
HETATM    9  C4  UNL     1     -34.693  16.305  -1.426  1.00 20.00     0.010 C 
HETATM   10  C5  UNL     1     -33.782  18.295  -2.624  1.00 20.00     0.010 C 
ENDBRANCH   6   8
ENDBRANCH   4   6
ENDBRANCH   2   4
TORSDOF 3
ENDMDL
MODEL 5
REMARK VINA RESULT:      -4.3     11.064     11.973
REMARK  3 active torsions:
REMARK  status: ('A' for Active; 'I' for Inactive)
REMARK    1  A    between atoms: C2_2  and  C6_6 
REMARK    2  A    between atoms: C2_2  and  C7_7 
REMARK    3  A    between atoms: C7_7  and  C8_8 
ROOT
HETATM    1  C1  UNL     1     -34.698  14.367  -6.272  1.00 20.00     0.066 C 
HETATM    2  C6  UNL     1     -35.160  13.659  -5.073  1.00 20.00     0.202 C 
HETATM    3  N9  UNL     1     -34.334  14.925  -7.222  1.00 20.00    -0.197 NA
ENDROOT
BRANCH   2   4
HETATM    4  C2  UNL     1     -34.247  13.881  -3.881  1.00 20.00     0.143 C 
HETATM    5  O10 UNL     1     -33.169  13.298  -3.753  1.00 20.00    -0.297 OA
BRANCH   4   6
HETATM    6  C7  UNL     1     -34.725  14.905  -2.848  1.00 20.00     0.055 C 
HETATM    7  C3  UNL     1     -36.119  15.366  -3.277  1.00 20.00     0.018 C 
BRANCH   6   8
HETATM    8  C8  UNL     1     -33.707  16.064  -2.702  1.00 20.00    -0.012 C 
HETATM    9  C4  UNL     1     -33.998  16.892  -1.443  1.00 20.00     0.010 C 
HETATM   10  C5  UNL     1     -33.707  16.995  -3.919  1.00 20.00     0.010 C 
ENDBRANCH   6   8
ENDBRANCH   4   6
ENDBRANCH   2   4
TORSDOF 3
ENDMDL
MODEL 6
REMARK VINA RESULT:      -4.2      0.864      1.731
REMARK  3 active torsions:
REMARK  status: ('A' for Active; 'I' for Inactive)
REMARK    1  A    between atoms: C2_2  and  C6_6 
REMARK    2  A    between atoms: C2_2  and  C7_7 
REMARK    3  A    between atoms: C7_7  and  C8_8 
ROOT
HETATM    1  C1  UNL     1     -32.351   8.140   2.038  1.00 20.00     0.066 C 
HETATM    2  C6  UNL     1     -33.267   7.608   3.052  1.00 20.00     0.202 C 
HETATM    3  N9  UNL     1     -31.628   8.564   1.235  1.00 20.00    -0.197 NA
ENDROOT
BRANCH   2   4
HETATM    4  C2  UNL     1     -32.939   6.176   3.435  1.00 20.00     0.143 C 
HETATM    5  O10 UNL     1     -31.799   5.714   3.361  1.00 20.00    -0.297 OA
BRANCH   4   6
HETATM    6  C7  UNL     1     -34.106   5.335   3.957  1.00 20.00     0.055 C 
HETATM    7  C3  UNL     1     -35.398   6.023   3.512  1.00 20.00     0.018 C 
BRANCH   6   8
HETATM    8  C8  UNL     1     -34.007   5.137   5.491  1.00 20.00    -0.012 C 
HETATM    9  C4  UNL     1     -35.108   4.193   5.993  1.00 20.00     0.010 C 
HETATM   10  C5  UNL     1     -34.101   6.461   6.255  1.00 20.00     0.010 C 
ENDBRANCH   6   8
ENDBRANCH   4   6
ENDBRANCH   2   4
TORSDOF 3
ENDMDL
MODEL 7
REMARK VINA RESULT:      -4.2     10.876     12.159
REMARK  3 active torsions:
REMARK  status: ('A' for Active; 'I' for Inactive)
REMARK    1  A    between atoms: C2_2  and  C6_6 
REMARK    2  A    between atoms: C2_2  and  C7_7 
REMARK    3  A    between atoms: C7_7  and  C8_8 
ROOT
HETATM    1  C1  UNL     1     -37.405  14.564  -4.167  1.00 20.00     0.066 C 
HETATM    2  C6  UNL     1     -36.296  14.647  -5.122  1.00 20.00     0.202 C 
HETATM    3  N9  UNL     1     -38.285  14.501  -3.412  1.00 20.00    -0.197 NA
ENDROOT
BRANCH   2   4
HETATM    4  C2  UNL     1     -35.055  13.922  -4.634  1.00 20.00     0.143 C 
HETATM    5  O10 UNL     1     -35.029  12.704  -4.448  1.00 20.00    -0.297 OA
BRANCH   4   6
HETATM    6  C7  UNL     1     -33.811  14.787  -4.414  1.00 20.00     0.055 C 
HETATM    7  C3  UNL     1     -32.867  14.002  -3.502  1.00 20.00     0.018 C 
BRANCH   6   8
HETATM    8  C8  UNL     1     -34.195  16.180  -3.855  1.00 20.00    -0.012 C 
HETATM    9  C4  UNL     1     -33.421  17.291  -4.575  1.00 20.00     0.010 C 
HETATM   10  C5  UNL     1     -33.939  16.293  -2.348  1.00 20.00     0.010 C 
ENDBRANCH   6   8
ENDBRANCH   4   6
ENDBRANCH   2   4
TORSDOF 3
ENDMDL
MODEL 8
REMARK VINA RESULT:      -4.2     11.322     12.060
REMARK  3 active torsions:
REMARK  status: ('A' for Active; 'I' for Inactive)
REMARK    1  A    between atoms: C2_2  and  C6_6 
REMARK    2  A    between atoms: C2_2  and  C7_7 
REMARK    3  A    between atoms: C7_7  and  C8_8 
ROOT
HETATM    1  C1  UNL     1     -34.560  15.681  -6.638  1.00 20.00     0.066 C 
HETATM    2  C6  UNL     1     -34.820  14.253  -6.431  1.00 20.00     0.202 C 
HETATM    3  N9  UNL     1     -34.354  16.811  -6.806  1.00 20.00    -0.197 NA
ENDROOT
BRANCH   2   4
HETATM    4  C2  UNL     1     -34.629  13.832  -4.985  1.00 20.00     0.143 C 
HETATM    5  O10 UNL     1     -34.871  12.691  -4.589  1.00 20.00    -0.297 OA
BRANCH   4   6
HETATM    6  C7  UNL     1     -34.082  14.903  -4.038  1.00 20.00     0.055 C 
HETATM    7  C3  UNL     1     -32.689  14.452  -3.598  1.00 20.00     0.018 C 
BRANCH   6   8
HETATM    8  C8  UNL     1     -35.054  15.151  -2.858  1.00 20.00    -0.012 C 
HETATM    9  C4  UNL     1     -36.423  15.623  -3.365  1.00 20.00     0.010 C 
HETATM   10  C5  UNL     1     -34.511  16.184  -1.864  1.00 20.00     0.010 C 
ENDBRANCH   6   8
ENDBRANCH   4   6
ENDBRANCH   2   4
TORSDOF 3
ENDMDL
MODEL 9
REMARK VINA RESULT:      -4.1     10.994     12.414
REMARK  3 active torsions:
REMARK  status: ('A' for Active; 'I' for Inactive)
REMARK    1  A    between atoms: C2_2  and  C6_6 
REMARK    2  A    between atoms: C2_2  and  C7_7 
REMARK    3  A    between atoms: C7_7  and  C8_8 
ROOT
HETATM    1  C1  UNL     1     -34.993  13.633  -4.116  1.00 20.00     0.066 C 
HETATM    2  C6  UNL     1     -35.136  14.867  -3.337  1.00 20.00     0.202 C 
HETATM    3  N9  UNL     1     -34.883  12.655  -4.731  1.00 20.00    -0.197 NA
ENDROOT
BRANCH   2   4
HETATM    4  C2  UNL     1     -33.808  15.564  -3.104  1.00 20.00     0.143 C 
HETATM    5  O10 UNL     1     -32.740  15.113  -3.525  1.00 20.00    -0.297 OA
BRANCH   4   6
HETATM    6  C7  UNL     1     -33.866  16.889  -2.340  1.00 20.00     0.055 C 
HETATM    7  C3  UNL     1     -34.548  16.610  -1.000  1.00 20.00     0.018 C 
BRANCH   6   8
HETATM    8  C8  UNL     1     -34.572  17.984  -3.179  1.00 20.00    -0.012 C 
HETATM    9  C4  UNL     1     -33.685  18.437  -4.346  1.00 20.00     0.010 C 
HETATM   10  C5  UNL     1     -34.950  19.207  -2.337  1.00 20.00     0.010 C 
ENDBRANCH   6   8
ENDBRANCH   4   6
ENDBRANCH   2   4
TORSDOF 3
ENDMDL
