MODEL 1
REMARK VINA RESULT:      -3.9      0.000      0.000
REMARK  4 active torsions:
REMARK  status: ('A' for Active; 'I' for Inactive)
REMARK    1  A    between atoms: C4_4  and  C6_6 
REMARK    2  A    between atoms: C6_6  and  C8_8 
REMARK    3  A    between atoms: C7_7  and  C8_8 
REMARK    4  A    between atoms: C8_8  and  N9_9 
ROOT
HETATM    1  C1  UNL     1     -33.622  17.224  -4.954  1.00 20.00     0.158 C 
HETATM    2  N9  UNL     1     -33.558  16.208  -4.374  1.00 20.00    -0.270 NA
HETATM    3  S10 UNL     1     -33.675  18.604  -5.747  1.00 20.00    -0.055 SA
ENDROOT
BRANCH   2   4
HETATM    4  C8  UNL     1     -34.849  15.687  -3.902  1.00 20.00     0.109 C 
BRANCH   4   5
HETATM    5  C6  UNL     1     -35.326  16.551  -2.728  1.00 20.00     0.032 C 
BRANCH   5   6
HETATM    6  C4  UNL     1     -34.471  16.365  -1.481  1.00 20.00    -0.013 A 
HETATM    7  C2  UNL     1     -33.643  17.503  -0.954  1.00 20.00     0.005 A 
HETATM    8  C3  UNL     1     -34.854  17.040  -0.194  1.00 20.00     0.005 A 
ENDBRANCH   5   6
ENDBRANCH   4   5
BRANCH   4   9
HETATM    9  C7  UNL     1     -34.659  14.229  -3.466  1.00 20.00     0.023 C 
HETATM   10  C5  UNL     1     -33.282  13.714  -3.760  1.00 20.00     0.007 C 
ENDBRANCH   4   9
ENDBRANCH   2   4
TORSDOF 4
ENDMDL
MODEL 2
REMARK VINA RESULT:      -3.8      1.030      3.414
REMARK  4 active torsions:
REMARK  status: ('A' for Active; 'I' for Inactive)
REMARK    1  A    between atoms: C4_4  and  C6_6 
REMARK    2  A    between atoms: C6_6  and  C8_8 
REMARK    3  A    between atoms: C7_7  and  C8_8 
REMARK    4  A    between atoms: C8_8  and  N9_9 
ROOT
HETATM    1  C1  UNL     1     -33.915  17.395  -4.270  1.00 20.00     0.158 C 
HETATM    2  N9  UNL     1     -33.977  17.482  -3.103  1.00 20.00    -0.270 NA
HETATM    3  S10 UNL     1     -33.826  17.312  -5.858  1.00 20.00    -0.055 SA
ENDROOT
BRANCH   2   4
HETATM    4  C8  UNL     1     -34.165  16.204  -2.401  1.00 20.00     0.109 C 
BRANCH   4   5
HETATM    5  C6  UNL     1     -35.210  15.378  -3.160  1.00 20.00     0.032 C 
BRANCH   5   6
HETATM    6  C4  UNL     1     -34.735  13.960  -3.449  1.00 20.00    -0.013 A 
HETATM    7  C2  UNL     1     -34.341  13.562  -4.845  1.00 20.00     0.005 A 
HETATM    8  C3  UNL     1     -33.292  13.697  -3.777  1.00 20.00     0.005 A 
ENDBRANCH   5   6
ENDBRANCH   4   5
BRANCH   4   9
HETATM    9  C7  UNL     1     -34.634  16.496  -0.970  1.00 20.00     0.023 C 
HETATM   10  C5  UNL     1     -33.923  17.667  -0.358  1.00 20.00     0.007 C 
ENDBRANCH   4   9
ENDBRANCH   2   4
TORSDOF 4
ENDMDL
MODEL 3
REMARK VINA RESULT:      -3.8      2.008      2.878
REMARK  4 active torsions:
REMARK  status: ('A' for Active; 'I' for Inactive)
REMARK    1  A    between atoms: C4_4  and  C6_6 
REMARK    2  A    between atoms: C6_6  and  C8_8 
REMARK    3  A    between atoms: C7_7  and  C8_8 
REMARK    4  A    between atoms: C8_8  and  N9_9 
ROOT
HETATM    1  C1  UNL     1     -33.751  14.309  -4.106  1.00 20.00     0.158 C 
HETATM    2  N9  UNL     1     -32.967  15.044  -3.637  1.00 20.00    -0.270 NA
HETATM    3  S10 UNL     1     -34.790  13.288  -4.749  1.00 20.00    -0.055 SA
ENDROOT
BRANCH   2   4
HETATM    4  C8  UNL     1     -33.523  16.325  -3.180  1.00 20.00     0.109 C 
BRANCH   4   5
HETATM    5  C6  UNL     1     -34.520  16.050  -2.048  1.00 20.00     0.032 C 
BRANCH   5   6
HETATM    6  C4  UNL     1     -34.827  17.295  -1.226  1.00 20.00    -0.013 A 
HETATM    7  C2  UNL     1     -34.857  17.223   0.276  1.00 20.00     0.005 A 
HETATM    8  C3  UNL     1     -33.744  17.956  -0.420  1.00 20.00     0.005 A 
ENDBRANCH   5   6
ENDBRANCH   4   5
BRANCH   4   9
HETATM    9  C7  UNL     1     -34.217  17.008  -4.365  1.00 20.00     0.023 C 
HETATM   10  C5  UNL     1     -33.516  18.261  -4.799  1.00 20.00     0.007 C 
ENDBRANCH   4   9
ENDBRANCH   2   4
TORSDOF 4
ENDMDL
MODEL 4
REMARK VINA RESULT:      -3.8      2.433      2.653
REMARK  4 active torsions:
REMARK  status: ('A' for Active; 'I' for Inactive)
REMARK    1  A    between atoms: C4_4  and  C6_6 
REMARK    2  A    between atoms: C6_6  and  C8_8 
REMARK    3  A    between atoms: C7_7  and  C8_8 
REMARK    4  A    between atoms: C8_8  and  N9_9 
ROOT
HETATM    1  C1  UNL     1     -37.171  15.092  -4.237  1.00 20.00     0.158 C 
HETATM    2  N9  UNL     1     -36.023  15.282  -4.381  1.00 20.00    -0.270 NA
HETATM    3  S10 UNL     1     -38.735  14.839  -4.075  1.00 20.00    -0.055 SA
ENDROOT
BRANCH   2   4
HETATM    4  C8  UNL     1     -35.223  15.166  -3.154  1.00 20.00     0.109 C 
BRANCH   4   5
HETATM    5  C6  UNL     1     -35.468  16.409  -2.290  1.00 20.00     0.032 C 
BRANCH   5   6
HETATM    6  C4  UNL     1     -34.534  16.478  -1.089  1.00 20.00    -0.013 A 
HETATM    7  C2  UNL     1     -33.808  17.755  -0.767  1.00 20.00     0.005 A 
HETATM    8  C3  UNL     1     -34.919  17.277   0.125  1.00 20.00     0.005 A 
ENDBRANCH   5   6
ENDBRANCH   4   5
BRANCH   4   9
HETATM    9  C7  UNL     1     -33.744  15.054  -3.543  1.00 20.00     0.023 C 
HETATM   10  C5  UNL     1     -33.311  13.634  -3.759  1.00 20.00     0.007 C 
ENDBRANCH   4   9
ENDBRANCH   2   4
TORSDOF 4
ENDMDL
MODEL 5
REMARK VINA RESULT:      -3.7      2.282      4.000
REMARK  4 active torsions:
REMARK  status: ('A' for Active; 'I' for Inactive)
REMARK    1  A    between atoms: C4_4  and  C6_6 
REMARK    2  A    between atoms: C6_6  and  C8_8 
REMARK    3  A    between atoms: C7_7  and  C8_8 
REMARK    4  A    between atoms: C8_8  and  N9_9 
ROOT
HETATM    1  C1  UNL     1     -34.685  16.240  -1.869  1.00 20.00     0.158 C 
HETATM    2  N9  UNL     1     -34.745  15.656  -2.884  1.00 20.00    -0.270 NA
HETATM    3  S10 UNL     1     -34.638  17.035  -0.490  1.00 20.00    -0.055 SA
ENDROOT
BRANCH   2   4
HETATM    4  C8  UNL     1     -33.444  15.273  -3.450  1.00 20.00     0.109 C 
BRANCH   4   5
HETATM    5  C6  UNL     1     -33.148  16.178  -4.652  1.00 20.00     0.032 C 
BRANCH   5   6
HETATM    6  C4  UNL     1     -34.361  16.366  -5.554  1.00 20.00    -0.013 A 
HETATM    7  C2  UNL     1     -34.290  17.295  -6.734  1.00 20.00     0.005 A 
HETATM    8  C3  UNL     1     -34.358  15.809  -6.951  1.00 20.00     0.005 A 
ENDBRANCH   5   6
ENDBRANCH   4   5
BRANCH   4   9
HETATM    9  C7  UNL     1     -33.509  13.802  -3.877  1.00 20.00     0.023 C 
HETATM   10  C5  UNL     1     -34.916  13.324  -4.086  1.00 20.00     0.007 C 
ENDBRANCH   4   9
ENDBRANCH   2   4
TORSDOF 4
ENDMDL
MODEL 6
REMARK VINA RESULT:      -3.7      2.843      3.102
REMARK  4 active torsions:
REMARK  status: ('A' for Active; 'I' for Inactive)
REMARK    1  A    between atoms: C4_4  and  C6_6 
REMARK    2  A    between atoms: C6_6  and  C8_8 
REMARK    3  A    between atoms: C7_7  and  C8_8 
REMARK    4  A    between atoms: C8_8  and  N9_9 
ROOT
HETATM    1  C1  UNL     1     -38.266  15.203  -4.487  1.00 20.00     0.158 C 
HETATM    2  N9  UNL     1     -37.768  14.370  -3.830  1.00 20.00    -0.270 NA
HETATM    3  S10 UNL     1     -38.974  16.320  -5.374  1.00 20.00    -0.055 SA
ENDROOT
BRANCH   2   4
HETATM    4  C8  UNL     1     -36.311  14.493  -3.683  1.00 20.00     0.109 C 
BRANCH   4   5
HETATM    5  C6  UNL     1     -35.997  15.844  -3.028  1.00 20.00     0.032 C 
BRANCH   5   6
HETATM    6  C4  UNL     1     -34.756  15.791  -2.147  1.00 20.00    -0.013 A 
HETATM    7  C2  UNL     1     -33.812  16.960  -2.097  1.00 20.00     0.005 A 
HETATM    8  C3  UNL     1     -34.672  16.637  -0.907  1.00 20.00     0.005 A 
ENDBRANCH   5   6
ENDBRANCH   4   5
BRANCH   4   9
HETATM    9  C7  UNL     1     -35.669  14.398  -5.073  1.00 20.00     0.023 C 
HETATM   10  C5  UNL     1     -34.657  13.295  -5.166  1.00 20.00     0.007 C 
ENDBRANCH   4   9
ENDBRANCH   2   4
TORSDOF 4
ENDMDL
MODEL 7
REMARK VINA RESULT:      -3.6      1.153      1.203
REMARK  4 active torsions:
REMARK  status: ('A' for Active; 'I' for Inactive)
REMARK    1  A    between atoms: C4_4  and  C6_6 
REMARK    2  A    between atoms: C6_6  and  C8_8 
REMARK    3  A    between atoms: C7_7  and  C8_8 
REMARK    4  A    between atoms: C8_8  and  N9_9 
ROOT
HETATM    1  C1  UNL     1     -34.672  16.680  -5.813  1.00 20.00     0.158 C 
HETATM    2  N9  UNL     1     -34.355  16.598  -4.687  1.00 20.00    -0.270 NA
HETATM    3  S10 UNL     1     -35.076  16.813  -7.348  1.00 20.00    -0.055 SA
ENDROOT
BRANCH   2   4
HETATM    4  C8  UNL     1     -35.239  15.764  -3.860  1.00 20.00     0.109 C 
BRANCH   4   5
HETATM    5  C6  UNL     1     -35.625  16.555  -2.605  1.00 20.00     0.032 C 
BRANCH   5   6
HETATM    6  C4  UNL     1     -34.638  16.356  -1.462  1.00 20.00    -0.013 A 
HETATM    7  C2  UNL     1     -33.681  17.454  -1.088  1.00 20.00     0.005 A 
HETATM    8  C3  UNL     1     -34.816  17.101  -0.169  1.00 20.00     0.005 A 
ENDBRANCH   5   6
ENDBRANCH   4   5
BRANCH   4   9
HETATM    9  C7  UNL     1     -34.491  14.479  -3.487  1.00 20.00     0.023 C 
HETATM   10  C5  UNL     1     -34.976  13.285  -4.256  1.00 20.00     0.007 C 
ENDBRANCH   4   9
ENDBRANCH   2   4
TORSDOF 4
ENDMDL
MODEL 8
REMARK VINA RESULT:      -3.6      1.572      1.671
REMARK  4 active torsions:
REMARK  status: ('A' for Active; 'I' for Inactive)
REMARK    1  A    between atoms: C4_4  and  C6_6 
REMARK    2  A    between atoms: C6_6  and  C8_8 
REMARK    3  A    between atoms: C7_7  and  C8_8 
REMARK    4  A    between atoms: C8_8  and  N9_9 
ROOT
HETATM    1  C1  UNL     1     -35.774  16.818  -4.640  1.00 20.00     0.158 C 
HETATM    2  N9  UNL     1     -34.910  16.026  -4.613  1.00 20.00    -0.270 NA
HETATM    3  S10 UNL     1     -36.939  17.901  -4.710  1.00 20.00    -0.055 SA
ENDROOT
BRANCH   2   4
HETATM    4  C8  UNL     1     -34.767  15.317  -3.334  1.00 20.00     0.109 C 
BRANCH   4   5
HETATM    5  C6  UNL     1     -33.898  16.165  -2.398  1.00 20.00     0.032 C 
BRANCH   5   6
HETATM    6  C4  UNL     1     -34.598  16.489  -1.085  1.00 20.00    -0.013 A 
HETATM    7  C2  UNL     1     -34.118  17.629  -0.231  1.00 20.00     0.005 A 
HETATM    8  C3  UNL     1     -35.429  17.735  -0.957  1.00 20.00     0.005 A 
ENDBRANCH   5   6
ENDBRANCH   4   5
BRANCH   4   9
HETATM    9  C7  UNL     1     -34.115  13.954  -3.599  1.00 20.00     0.023 C 
HETATM   10  C5  UNL     1     -34.769  13.212  -4.727  1.00 20.00     0.007 C 
ENDBRANCH   4   9
ENDBRANCH   2   4
TORSDOF 4
ENDMDL
MODEL 9
REMARK VINA RESULT:      -3.5      2.391      4.099
REMARK  4 active torsions:
REMARK  status: ('A' for Active; 'I' for Inactive)
REMARK    1  A    between atoms: C4_4  and  C6_6 
REMARK    2  A    between atoms: C6_6  and  C8_8 
REMARK    3  A    between atoms: C7_7  and  C8_8 
REMARK    4  A    between atoms: C8_8  and  N9_9 
ROOT
HETATM    1  C1  UNL     1     -34.607  17.054  -0.592  1.00 20.00     0.158 C 
HETATM    2  N9  UNL     1     -34.807  16.278  -1.448  1.00 20.00    -0.270 NA
HETATM    3  S10 UNL     1     -34.332  18.081   0.593  1.00 20.00    -0.055 SA
ENDROOT
BRANCH   2   4
HETATM    4  C8  UNL     1     -35.030  16.871  -2.775  1.00 20.00     0.109 C 
BRANCH   4   5
HETATM    5  C6  UNL     1     -35.372  15.749  -3.762  1.00 20.00     0.032 C 
BRANCH   5   6
HETATM    6  C4  UNL     1     -34.802  14.403  -3.337  1.00 20.00    -0.013 A 
HETATM    7  C2  UNL     1     -34.729  13.267  -4.319  1.00 20.00     0.005 A 
HETATM    8  C3  UNL     1     -33.469  13.946  -3.860  1.00 20.00     0.005 A 
ENDBRANCH   5   6
ENDBRANCH   4   5
BRANCH   4   9
HETATM    9  C7  UNL     1     -33.753  17.605  -3.203  1.00 20.00     0.023 C 
HETATM   10  C5  UNL     1     -33.657  17.774  -4.690  1.00 20.00     0.007 C 
ENDBRANCH   4   9
ENDBRANCH   2   4
TORSDOF 4
ENDMDL
