MODEL 1
REMARK VINA RESULT:      -4.0      0.000      0.000
REMARK  2 active torsions:
REMARK  status: ('A' for Active; 'I' for Inactive)
REMARK    1  A    between atoms: C7_7  and  N9_9 
REMARK    2  A    between atoms: C8_8  and  N9_9 
ROOT
HETATM    1  C1  UNL     1     -32.118   8.781   1.102  1.00 20.00     0.015 C 
HETATM    2  C2  UNL     1     -32.179   8.071   2.069  1.00 20.00    -0.076 C 
HETATM    3  C5  UNL     1     -31.898   5.761   2.862  1.00 20.00     0.063 C 
HETATM    4  C6  UNL     1     -31.281   7.699   4.331  1.00 20.00     0.063 C 
HETATM    5  C8  UNL     1     -32.254   7.199   3.259  1.00 20.00     0.212 C 
ENDROOT
BRANCH   5   6
HETATM    6  N9  UNL     1     -33.603   7.235   3.786  1.00 20.00     0.108 N 
HETATM    7  H24 UNL     1     -34.264   7.401   3.025  1.00 20.00     0.318 HD
BRANCH   6   8
HETATM    8  C7  UNL     1     -33.946   5.978   4.443  1.00 20.00     0.214 C 
HETATM    9  C3  UNL     1     -35.230   5.432   3.836  1.00 20.00     0.042 C 
HETATM   10  C4  UNL     1     -34.092   6.227   5.938  1.00 20.00     0.042 C 
ENDBRANCH   6   8
ENDBRANCH   5   6
TORSDOF 2
ENDMDL
MODEL 2
REMARK VINA RESULT:      -3.9     10.186     12.065
REMARK  2 active torsions:
REMARK  status: ('A' for Active; 'I' for Inactive)
REMARK    1  A    between atoms: C7_7  and  N9_9 
REMARK    2  A    between atoms: C8_8  and  N9_9 
ROOT
HETATM    1  C1  UNL     1     -34.591  16.195  -1.865  1.00 20.00     0.015 C 
HETATM    2  C2  UNL     1     -34.390  15.446  -2.782  1.00 20.00    -0.076 C 
HETATM    3  C5  UNL     1     -33.005  13.563  -3.545  1.00 20.00     0.063 C 
HETATM    4  C6  UNL     1     -35.416  13.730  -4.218  1.00 20.00     0.063 C 
HETATM    5  C8  UNL     1     -34.143  14.524  -3.909  1.00 20.00     0.212 C 
ENDROOT
BRANCH   5   6
HETATM    6  N9  UNL     1     -33.768  15.296  -5.077  1.00 20.00     0.108 N 
HETATM    7  H24 UNL     1     -33.019  14.815  -5.579  1.00 20.00     0.318 HD
BRANCH   6   8
HETATM    8  C7  UNL     1     -34.902  15.475  -5.978  1.00 20.00     0.214 C 
HETATM    9  C3  UNL     1     -34.527  14.959  -7.359  1.00 20.00     0.042 C 
HETATM   10  C4  UNL     1     -35.277  16.950  -6.011  1.00 20.00     0.042 C 
ENDBRANCH   6   8
ENDBRANCH   5   6
TORSDOF 2
ENDMDL
MODEL 3
REMARK VINA RESULT:      -3.9     10.685     11.786
REMARK  2 active torsions:
REMARK  status: ('A' for Active; 'I' for Inactive)
REMARK    1  A    between atoms: C7_7  and  N9_9 
REMARK    2  A    between atoms: C8_8  and  N9_9 
ROOT
HETATM    1  C1  UNL     1     -34.592  16.585  -0.985  1.00 20.00     0.015 C 
HETATM    2  C2  UNL     1     -34.280  16.407  -2.131  1.00 20.00    -0.076 C 
HETATM    3  C5  UNL     1     -33.605  17.538  -4.207  1.00 20.00     0.063 C 
HETATM    4  C6  UNL     1     -32.652  15.297  -3.607  1.00 20.00     0.063 C 
HETATM    5  C8  UNL     1     -33.895  16.189  -3.541  1.00 20.00     0.212 C 
ENDROOT
BRANCH   5   6
HETATM    6  N9  UNL     1     -34.988  15.534  -4.232  1.00 20.00     0.108 N 
HETATM    7  H24 UNL     1     -35.440  16.197  -4.864  1.00 20.00     0.318 HD
BRANCH   6   8
HETATM    8  C7  UNL     1     -34.513  14.392  -5.006  1.00 20.00     0.214 C 
HETATM    9  C3  UNL     1     -34.841  14.616  -6.475  1.00 20.00     0.042 C 
HETATM   10  C4  UNL     1     -35.168  13.126  -4.470  1.00 20.00     0.042 C 
ENDBRANCH   6   8
ENDBRANCH   5   6
TORSDOF 2
ENDMDL
MODEL 4
REMARK VINA RESULT:      -3.9     10.575     11.686
REMARK  2 active torsions:
REMARK  status: ('A' for Active; 'I' for Inactive)
REMARK    1  A    between atoms: C7_7  and  N9_9 
REMARK    2  A    between atoms: C8_8  and  N9_9 
ROOT
HETATM    1  C1  UNL     1     -34.216  15.440  -6.864  1.00 20.00     0.015 C 
HETATM    2  C2  UNL     1     -34.277  15.096  -5.715  1.00 20.00    -0.076 C 
HETATM    3  C5  UNL     1     -35.151  13.369  -4.198  1.00 20.00     0.063 C 
HETATM    4  C6  UNL     1     -32.940  14.464  -3.747  1.00 20.00     0.063 C 
HETATM    5  C8  UNL     1     -34.352  14.674  -4.301  1.00 20.00     0.212 C 
ENDROOT
BRANCH   5   6
HETATM    6  N9  UNL     1     -35.016  15.708  -3.534  1.00 20.00     0.108 N 
HETATM    7  H24 UNL     1     -35.741  15.289  -2.949  1.00 20.00     0.318 HD
BRANCH   6   8
HETATM    8  C7  UNL     1     -34.072  16.420  -2.679  1.00 20.00     0.214 C 
HETATM    9  C3  UNL     1     -34.601  16.431  -1.253  1.00 20.00     0.042 C 
HETATM   10  C4  UNL     1     -33.882  17.830  -3.220  1.00 20.00     0.042 C 
ENDBRANCH   6   8
ENDBRANCH   5   6
TORSDOF 2
ENDMDL
MODEL 5
REMARK VINA RESULT:      -3.7     10.420     12.233
REMARK  2 active torsions:
REMARK  status: ('A' for Active; 'I' for Inactive)
REMARK    1  A    between atoms: C7_7  and  N9_9 
REMARK    2  A    between atoms: C8_8  and  N9_9 
ROOT
HETATM    1  C1  UNL     1     -34.679  16.262  -1.516  1.00 20.00     0.015 C 
HETATM    2  C2  UNL     1     -34.413  15.786  -2.586  1.00 20.00    -0.076 C 
HETATM    3  C5  UNL     1     -33.178  16.163  -4.679  1.00 20.00     0.063 C 
HETATM    4  C6  UNL     1     -33.375  13.857  -3.711  1.00 20.00     0.063 C 
HETATM    5  C8  UNL     1     -34.085  15.201  -3.903  1.00 20.00     0.212 C 
ENDROOT
BRANCH   5   6
HETATM    6  N9  UNL     1     -35.312  14.990  -4.644  1.00 20.00     0.108 N 
HETATM    7  H24 UNL     1     -36.095  15.403  -4.134  1.00 20.00     0.318 HD
BRANCH   6   8
HETATM    8  C7  UNL     1     -35.238  15.594  -5.970  1.00 20.00     0.214 C 
HETATM    9  C3  UNL     1     -36.404  16.556  -6.144  1.00 20.00     0.042 C 
HETATM   10  C4  UNL     1     -35.258  14.490  -7.017  1.00 20.00     0.042 C 
ENDBRANCH   6   8
ENDBRANCH   5   6
TORSDOF 2
ENDMDL
MODEL 6
REMARK VINA RESULT:      -3.6     10.481     11.926
REMARK  2 active torsions:
REMARK  status: ('A' for Active; 'I' for Inactive)
REMARK    1  A    between atoms: C7_7  and  N9_9 
REMARK    2  A    between atoms: C8_8  and  N9_9 
ROOT
HETATM    1  C1  UNL     1     -34.595  16.589  -0.847  1.00 20.00     0.015 C 
HETATM    2  C2  UNL     1     -35.031  16.475  -1.960  1.00 20.00    -0.076 C 
HETATM    3  C5  UNL     1     -36.697  15.299  -3.334  1.00 20.00     0.063 C 
HETATM    4  C6  UNL     1     -36.102  17.687  -3.817  1.00 20.00     0.063 C 
HETATM    5  C8  UNL     1     -35.569  16.337  -3.329  1.00 20.00     0.212 C 
ENDROOT
BRANCH   5   6
HETATM    6  N9  UNL     1     -34.506  15.898  -4.211  1.00 20.00     0.108 N 
HETATM    7  H24 UNL     1     -33.602  16.042  -3.757  1.00 20.00     0.318 HD
BRANCH   6   8
HETATM    8  C7  UNL     1     -34.647  14.485  -4.546  1.00 20.00     0.214 C 
HETATM    9  C3  UNL     1     -33.516  13.703  -3.895  1.00 20.00     0.042 C 
HETATM   10  C4  UNL     1     -34.638  14.333  -6.060  1.00 20.00     0.042 C 
ENDBRANCH   6   8
ENDBRANCH   5   6
TORSDOF 2
ENDMDL
MODEL 7
REMARK VINA RESULT:      -3.5     10.792     11.813
REMARK  2 active torsions:
REMARK  status: ('A' for Active; 'I' for Inactive)
REMARK    1  A    between atoms: C7_7  and  N9_9 
REMARK    2  A    between atoms: C8_8  and  N9_9 
ROOT
HETATM    1  C1  UNL     1     -38.292  14.895  -3.775  1.00 20.00     0.015 C 
HETATM    2  C2  UNL     1     -37.196  14.778  -4.251  1.00 20.00    -0.076 C 
HETATM    3  C5  UNL     1     -35.261  13.274  -4.446  1.00 20.00     0.063 C 
HETATM    4  C6  UNL     1     -35.932  14.745  -6.364  1.00 20.00     0.063 C 
HETATM    5  C8  UNL     1     -35.848  14.634  -4.838  1.00 20.00     0.212 C 
ENDROOT
BRANCH   5   6
HETATM    6  N9  UNL     1     -34.997  15.692  -4.331  1.00 20.00     0.108 N 
HETATM    7  H24 UNL     1     -35.574  16.475  -4.017  1.00 20.00     0.318 HD
BRANCH   6   8
HETATM    8  C7  UNL     1     -34.185  15.225  -3.212  1.00 20.00     0.214 C 
HETATM    9  C3  UNL     1     -34.535  16.032  -1.971  1.00 20.00     0.042 C 
HETATM   10  C4  UNL     1     -32.714  15.363  -3.578  1.00 20.00     0.042 C 
ENDBRANCH   6   8
ENDBRANCH   5   6
TORSDOF 2
ENDMDL
MODEL 8
REMARK VINA RESULT:      -3.5      9.340     10.967
REMARK  2 active torsions:
REMARK  status: ('A' for Active; 'I' for Inactive)
REMARK    1  A    between atoms: C7_7  and  N9_9 
REMARK    2  A    between atoms: C8_8  and  N9_9 
ROOT
HETATM    1  C1  UNL     1     -41.532   3.197  -2.699  1.00 20.00     0.015 C 
HETATM    2  C2  UNL     1     -41.740   4.031  -1.861  1.00 20.00    -0.076 C 
HETATM    3  C5  UNL     1     -42.487   4.380   0.456  1.00 20.00     0.063 C 
HETATM    4  C6  UNL     1     -40.709   5.839  -0.546  1.00 20.00     0.063 C 
HETATM    5  C8  UNL     1     -41.995   5.057  -0.829  1.00 20.00     0.212 C 
ENDROOT
BRANCH   5   6
HETATM    6  N9  UNL     1     -43.011   5.970  -1.313  1.00 20.00     0.108 N 
HETATM    7  H24 UNL     1     -43.767   6.035  -0.628  1.00 20.00     0.318 HD
BRANCH   6   8
HETATM    8  C7  UNL     1     -42.460   7.302  -1.537  1.00 20.00     0.214 C 
HETATM    9  C3  UNL     1     -43.290   8.320  -0.769  1.00 20.00     0.042 C 
HETATM   10  C4  UNL     1     -42.458   7.590  -3.031  1.00 20.00     0.042 C 
ENDBRANCH   6   8
ENDBRANCH   5   6
TORSDOF 2
ENDMDL
MODEL 9
REMARK VINA RESULT:      -3.5     10.879     12.506
REMARK  2 active torsions:
REMARK  status: ('A' for Active; 'I' for Inactive)
REMARK    1  A    between atoms: C7_7  and  N9_9 
REMARK    2  A    between atoms: C8_8  and  N9_9 
ROOT
HETATM    1  C1  UNL     1     -38.591  14.771  -3.825  1.00 20.00     0.015 C 
HETATM    2  C2  UNL     1     -37.394  14.851  -3.894  1.00 20.00    -0.076 C 
HETATM    3  C5  UNL     1     -35.378  15.584  -2.693  1.00 20.00     0.063 C 
HETATM    4  C6  UNL     1     -35.321  13.552  -4.163  1.00 20.00     0.063 C 
HETATM    5  C8  UNL     1     -35.923  14.948  -3.977  1.00 20.00     0.212 C 
ENDROOT
BRANCH   5   6
HETATM    6  N9  UNL     1     -35.568  15.774  -5.114  1.00 20.00     0.108 N 
HETATM    7  H24 UNL     1     -35.554  16.756  -4.832  1.00 20.00     0.318 HD
BRANCH   6   8
HETATM    8  C7  UNL     1     -34.256  15.413  -5.640  1.00 20.00     0.214 C 
HETATM    9  C3  UNL     1     -33.270  16.529  -5.326  1.00 20.00     0.042 C 
HETATM   10  C4  UNL     1     -34.374  15.171  -7.138  1.00 20.00     0.042 C 
ENDBRANCH   6   8
ENDBRANCH   5   6
TORSDOF 2
ENDMDL
