MODEL 1
REMARK VINA RESULT:      -4.8      0.000      0.000
REMARK  1 active torsions:
REMARK  status: ('A' for Active; 'I' for Inactive)
REMARK    1  A    between atoms: C10_10  and  N11_11 
ROOT
HETATM    1  C1  UNL     1     -33.294  18.013  -0.559  1.00 20.00     0.015 C 
HETATM    2  C2  UNL     1     -33.848  17.758  -1.594  1.00 20.00    -0.076 C 
HETATM    3  C8  UNL     1     -35.925  18.078  -2.871  1.00 20.00     0.063 C 
HETATM    4  C9  UNL     1     -33.708  17.987  -4.041  1.00 20.00     0.063 C 
HETATM    5  C10 UNL     1     -34.529  17.445  -2.866  1.00 20.00     0.214 C 
ENDROOT
BRANCH   5   6
HETATM    6  N11 UNL     1     -34.652  15.992  -2.997  1.00 20.00     0.110 N 
HETATM    7  C6  UNL     1     -33.412  15.423  -3.550  1.00 20.00     0.282 C 
HETATM    8  C4  UNL     1     -33.478  13.901  -3.609  1.00 20.00     0.108 C 
HETATM    9  C3  UNL     1     -34.726  13.454  -4.332  1.00 20.00     0.130 C 
HETATM   10  C5  UNL     1     -36.008  14.142  -3.925  1.00 20.00     0.108 C 
HETATM   11  O12 UNL     1     -34.718  12.510  -5.120  1.00 20.00    -0.298 OA
HETATM   12  C7  UNL     1     -35.802  15.651  -3.848  1.00 20.00     0.282 C 
ENDBRANCH   5   6
TORSDOF 1
ENDMDL
MODEL 2
REMARK VINA RESULT:      -4.7      1.059      2.149
REMARK  1 active torsions:
REMARK  status: ('A' for Active; 'I' for Inactive)
REMARK    1  A    between atoms: C10_10  and  N11_11 
ROOT
HETATM    1  C1  UNL     1     -33.300  19.263  -2.631  1.00 20.00     0.015 C 
HETATM    2  C2  UNL     1     -34.109  18.411  -2.383  1.00 20.00    -0.076 C 
HETATM    3  C8  UNL     1     -34.767  16.712  -0.732  1.00 20.00     0.063 C 
HETATM    4  C9  UNL     1     -36.506  17.981  -2.019  1.00 20.00     0.063 C 
HETATM    5  C10 UNL     1     -35.104  17.363  -2.077  1.00 20.00     0.214 C 
ENDROOT
BRANCH   5   6
HETATM    6  N11 UNL     1     -35.069  16.350  -3.132  1.00 20.00     0.110 N 
HETATM    7  C6  UNL     1     -36.260  15.489  -3.053  1.00 20.00     0.282 C 
HETATM    8  C4  UNL     1     -36.296  14.483  -4.198  1.00 20.00     0.108 C 
HETATM    9  C3  UNL     1     -34.997  13.716  -4.268  1.00 20.00     0.130 C 
HETATM   10  C5  UNL     1     -33.736  14.542  -4.171  1.00 20.00     0.108 C 
HETATM   11  O12 UNL     1     -34.967  12.510  -4.504  1.00 20.00    -0.298 OA
HETATM   12  C7  UNL     1     -33.842  15.545  -3.027  1.00 20.00     0.282 C 
ENDBRANCH   5   6
TORSDOF 1
ENDMDL
MODEL 3
REMARK VINA RESULT:      -4.6      0.968      1.720
REMARK  1 active torsions:
REMARK  status: ('A' for Active; 'I' for Inactive)
REMARK    1  A    between atoms: C10_10  and  N11_11 
ROOT
HETATM    1  C1  UNL     1     -34.750  16.980  -0.119  1.00 20.00     0.015 C 
HETATM    2  C2  UNL     1     -34.857  17.339  -1.260  1.00 20.00    -0.076 C 
HETATM    3  C8  UNL     1     -36.285  18.583  -2.829  1.00 20.00     0.063 C 
HETATM    4  C9  UNL     1     -33.788  18.649  -3.049  1.00 20.00     0.063 C 
HETATM    5  C10 UNL     1     -34.990  17.781  -2.663  1.00 20.00     0.214 C 
ENDROOT
BRANCH   5   6
HETATM    6  N11 UNL     1     -35.030  16.604  -3.532  1.00 20.00     0.110 N 
HETATM    7  C6  UNL     1     -36.218  15.788  -3.232  1.00 20.00     0.282 C 
HETATM    8  C4  UNL     1     -36.334  14.604  -4.186  1.00 20.00     0.108 C 
HETATM    9  C3  UNL     1     -35.047  13.815  -4.208  1.00 20.00     0.130 C 
HETATM   10  C5  UNL     1     -33.778  14.624  -4.333  1.00 20.00     0.108 C 
HETATM   11  O12 UNL     1     -35.039  12.586  -4.238  1.00 20.00    -0.298 OA
HETATM   12  C7  UNL     1     -33.803  15.808  -3.371  1.00 20.00     0.282 C 
ENDBRANCH   5   6
TORSDOF 1
ENDMDL
MODEL 4
REMARK VINA RESULT:      -4.6      0.400      1.819
REMARK  1 active torsions:
REMARK  status: ('A' for Active; 'I' for Inactive)
REMARK    1  A    between atoms: C10_10  and  N11_11 
ROOT
HETATM    1  C1  UNL     1     -33.600  18.456  -4.847  1.00 20.00     0.015 C 
HETATM    2  C2  UNL     1     -34.044  17.955  -3.850  1.00 20.00    -0.076 C 
HETATM    3  C8  UNL     1     -33.626  17.579  -1.456  1.00 20.00     0.063 C 
HETATM    4  C9  UNL     1     -35.958  17.946  -2.302  1.00 20.00     0.063 C 
HETATM    5  C10 UNL     1     -34.589  17.338  -2.623  1.00 20.00     0.214 C 
ENDROOT
BRANCH   5   6
HETATM    6  N11 UNL     1     -34.742  15.899  -2.841  1.00 20.00     0.110 N 
HETATM    7  C6  UNL     1     -33.485  15.323  -3.346  1.00 20.00     0.282 C 
HETATM    8  C4  UNL     1     -33.588  13.808  -3.493  1.00 20.00     0.108 C 
HETATM    9  C3  UNL     1     -34.798  13.438  -4.316  1.00 20.00     0.130 C 
HETATM   10  C5  UNL     1     -36.085  14.142  -3.952  1.00 20.00     0.108 C 
HETATM   11  O12 UNL     1     -34.765  12.538  -5.152  1.00 20.00    -0.298 OA
HETATM   12  C7  UNL     1     -35.844  15.638  -3.779  1.00 20.00     0.282 C 
ENDBRANCH   5   6
TORSDOF 1
ENDMDL
MODEL 5
REMARK VINA RESULT:      -4.5      0.980      2.420
REMARK  1 active torsions:
REMARK  status: ('A' for Active; 'I' for Inactive)
REMARK    1  A    between atoms: C10_10  and  N11_11 
ROOT
HETATM    1  C1  UNL     1     -37.151  18.779  -2.205  1.00 20.00     0.015 C 
HETATM    2  C2  UNL     1     -36.127  18.151  -2.181  1.00 20.00    -0.076 C 
HETATM    3  C8  UNL     1     -33.685  18.318  -2.417  1.00 20.00     0.063 C 
HETATM    4  C9  UNL     1     -34.703  16.708  -0.785  1.00 20.00     0.063 C 
HETATM    5  C10 UNL     1     -34.868  17.380  -2.152  1.00 20.00     0.214 C 
ENDROOT
BRANCH   5   6
HETATM    6  N11 UNL     1     -34.915  16.350  -3.190  1.00 20.00     0.110 N 
HETATM    7  C6  UNL     1     -36.118  15.517  -3.029  1.00 20.00     0.282 C 
HETATM    8  C4  UNL     1     -36.241  14.495  -4.153  1.00 20.00     0.108 C 
HETATM    9  C3  UNL     1     -34.965  13.697  -4.284  1.00 20.00     0.130 C 
HETATM   10  C5  UNL     1     -33.683  14.496  -4.273  1.00 20.00     0.108 C 
HETATM   11  O12 UNL     1     -34.974  12.488  -4.502  1.00 20.00    -0.298 OA
HETATM   12  C7  UNL     1     -33.702  15.519  -3.142  1.00 20.00     0.282 C 
ENDBRANCH   5   6
TORSDOF 1
ENDMDL
MODEL 6
REMARK VINA RESULT:      -4.4      2.593      4.572
REMARK  1 active torsions:
REMARK  status: ('A' for Active; 'I' for Inactive)
REMARK    1  A    between atoms: C10_10  and  N11_11 
ROOT
HETATM    1  C1  UNL     1     -34.362  15.120  -7.035  1.00 20.00     0.015 C 
HETATM    2  C2  UNL     1     -34.493  14.918  -5.859  1.00 20.00    -0.076 C 
HETATM    3  C8  UNL     1     -35.963  13.912  -4.164  1.00 20.00     0.063 C 
HETATM    4  C9  UNL     1     -33.470  13.849  -3.891  1.00 20.00     0.063 C 
HETATM    5  C10 UNL     1     -34.655  14.670  -4.412  1.00 20.00     0.214 C 
ENDROOT
BRANCH   5   6
HETATM    6  N11 UNL     1     -34.694  15.954  -3.709  1.00 20.00     0.110 N 
HETATM    7  C6  UNL     1     -33.604  16.824  -4.175  1.00 20.00     0.282 C 
HETATM    8  C4  UNL     1     -33.678  18.203  -3.527  1.00 20.00     0.108 C 
HETATM    9  C3  UNL     1     -33.752  18.077  -2.025  1.00 20.00     0.130 C 
HETATM   10  C5  UNL     1     -34.735  17.059  -1.495  1.00 20.00     0.108 C 
HETATM   11  O12 UNL     1     -33.137  18.835  -1.278  1.00 20.00    -0.298 OA
HETATM   12  C7  UNL     1     -34.603  15.744  -2.256  1.00 20.00     0.282 C 
ENDBRANCH   5   6
TORSDOF 1
ENDMDL
MODEL 7
REMARK VINA RESULT:      -4.4      2.196      2.814
REMARK  1 active torsions:
REMARK  status: ('A' for Active; 'I' for Inactive)
REMARK    1  A    between atoms: C10_10  and  N11_11 
ROOT
HETATM    1  C1  UNL     1     -34.752  16.397  -1.285  1.00 20.00     0.015 C 
HETATM    2  C2  UNL     1     -34.340  16.215  -2.398  1.00 20.00    -0.076 C 
HETATM    3  C8  UNL     1     -33.439  17.334  -4.393  1.00 20.00     0.063 C 
HETATM    4  C9  UNL     1     -32.619  15.060  -3.726  1.00 20.00     0.063 C 
HETATM    5  C10 UNL     1     -33.834  15.993  -3.768  1.00 20.00     0.214 C 
ENDROOT
BRANCH   5   6
HETATM    6  N11 UNL     1     -34.888  15.372  -4.571  1.00 20.00     0.110 N 
HETATM    7  C6  UNL     1     -34.377  15.030  -5.908  1.00 20.00     0.282 C 
HETATM    8  C4  UNL     1     -35.429  14.297  -6.734  1.00 20.00     0.108 C 
HETATM    9  C3  UNL     1     -36.720  15.080  -6.761  1.00 20.00     0.130 C 
HETATM   10  C5  UNL     1     -37.197  15.612  -5.430  1.00 20.00     0.108 C 
HETATM   11  O12 UNL     1     -37.398  15.180  -7.781  1.00 20.00    -0.298 OA
HETATM   12  C7  UNL     1     -36.048  16.272  -4.676  1.00 20.00     0.282 C 
ENDBRANCH   5   6
TORSDOF 1
ENDMDL
MODEL 8
REMARK VINA RESULT:      -4.3      2.813      4.661
REMARK  1 active torsions:
REMARK  status: ('A' for Active; 'I' for Inactive)
REMARK    1  A    between atoms: C10_10  and  N11_11 
ROOT
HETATM    1  C1  UNL     1     -33.413  13.526  -3.819  1.00 20.00     0.015 C 
HETATM    2  C2  UNL     1     -33.735  14.681  -3.895  1.00 20.00    -0.076 C 
HETATM    3  C8  UNL     1     -33.328  16.785  -5.099  1.00 20.00     0.063 C 
HETATM    4  C9  UNL     1     -35.630  16.201  -4.291  1.00 20.00     0.063 C 
HETATM    5  C10 UNL     1     -34.131  16.100  -3.988  1.00 20.00     0.214 C 
ENDROOT
BRANCH   5   6
HETATM    6  N11 UNL     1     -33.855  16.757  -2.710  1.00 20.00     0.110 N 
HETATM    7  C6  UNL     1     -34.873  16.386  -1.714  1.00 20.00     0.282 C 
HETATM    8  C4  UNL     1     -34.557  16.983  -0.347  1.00 20.00     0.108 C 
HETATM    9  C3  UNL     1     -34.335  18.472  -0.459  1.00 20.00     0.130 C 
HETATM   10  C5  UNL     1     -33.435  18.922  -1.586  1.00 20.00     0.108 C 
HETATM   11  O12 UNL     1     -34.766  19.259   0.382  1.00 20.00    -0.298 OA
HETATM   12  C7  UNL     1     -33.813  18.218  -2.885  1.00 20.00     0.282 C 
ENDBRANCH   5   6
TORSDOF 1
ENDMDL
MODEL 9
REMARK VINA RESULT:      -4.3      2.657      4.033
REMARK  1 active torsions:
REMARK  status: ('A' for Active; 'I' for Inactive)
REMARK    1  A    between atoms: C10_10  and  N11_11 
ROOT
HETATM    1  C1  UNL     1     -34.605  16.514  -1.022  1.00 20.00     0.015 C 
HETATM    2  C2  UNL     1     -34.433  16.074  -2.126  1.00 20.00    -0.076 C 
HETATM    3  C8  UNL     1     -32.760  15.099  -3.641  1.00 20.00     0.063 C 
HETATM    4  C9  UNL     1     -35.147  14.332  -3.713  1.00 20.00     0.063 C 
HETATM    5  C10 UNL     1     -34.222  15.532  -3.484  1.00 20.00     0.214 C 
ENDROOT
BRANCH   5   6
HETATM    6  N11 UNL     1     -34.531  16.571  -4.466  1.00 20.00     0.110 N 
HETATM    7  C6  UNL     1     -34.428  16.031  -5.831  1.00 20.00     0.282 C 
HETATM    8  C4  UNL     1     -34.836  17.068  -6.872  1.00 20.00     0.108 C 
HETATM    9  C3  UNL     1     -34.066  18.351  -6.669  1.00 20.00     0.130 C 
HETATM   10  C5  UNL     1     -33.988  18.857  -5.247  1.00 20.00     0.108 C 
HETATM   11  O12 UNL     1     -33.630  19.004  -7.614  1.00 20.00    -0.298 OA
HETATM   12  C7  UNL     1     -33.627  17.720  -4.296  1.00 20.00     0.282 C 
ENDBRANCH   5   6
TORSDOF 1
ENDMDL
