MODEL 1
REMARK VINA RESULT:      -4.4      0.000      0.000
REMARK  3 active torsions:
REMARK  status: ('A' for Active; 'I' for Inactive)
REMARK    1  A    between atoms: C7_7  and  C8_8 
REMARK    2  A    between atoms: C8_8  and  N11_11 
REMARK    3  A    between atoms: C9_9  and  N11_11 
ROOT
HETATM    1  C1  UNL     1     -34.470  16.659  -0.937  1.00 20.00     0.015 C 
HETATM    2  C2  UNL     1     -34.463  16.230  -2.059  1.00 20.00    -0.076 C 
HETATM    3  C5  UNL     1     -33.268  16.297  -4.208  1.00 20.00     0.063 C 
HETATM    4  C6  UNL     1     -34.341  14.175  -3.409  1.00 20.00     0.063 C 
HETATM    5  C9  UNL     1     -34.453  15.703  -3.438  1.00 20.00     0.213 C 
ENDROOT
BRANCH   5   6
HETATM    6  N11 UNL     1     -35.692  16.077  -4.095  1.00 20.00     0.122 N 
HETATM    7  H25 UNL     1     -35.505  16.806  -4.786  1.00 20.00     0.319 HD
BRANCH   6   8
HETATM    8  C8  UNL     1     -36.298  14.933  -4.769  1.00 20.00     0.327 C 
HETATM    9  C3  UNL     1     -37.621  14.642  -4.199  1.00 20.00     0.095 C 
HETATM   10  N10 UNL     1     -38.665  14.408  -3.747  1.00 20.00    -0.195 NA
BRANCH   8  11
HETATM   11  C7  UNL     1     -36.349  15.142  -6.288  1.00 20.00     0.046 C 
HETATM   12  C4  UNL     1     -35.252  14.420  -7.065  1.00 20.00     0.008 C 
ENDBRANCH   8  11
ENDBRANCH   6   8
ENDBRANCH   5   6
TORSDOF 3
ENDMDL
MODEL 2
REMARK VINA RESULT:      -4.3      1.657      2.467
REMARK  3 active torsions:
REMARK  status: ('A' for Active; 'I' for Inactive)
REMARK    1  A    between atoms: C7_7  and  C8_8 
REMARK    2  A    between atoms: C8_8  and  N11_11 
REMARK    3  A    between atoms: C9_9  and  N11_11 
ROOT
HETATM    1  C1  UNL     1     -34.813  17.130   0.048  1.00 20.00     0.015 C 
HETATM    2  C2  UNL     1     -34.867  16.856  -1.120  1.00 20.00    -0.076 C 
HETATM    3  C5  UNL     1     -35.315  17.770  -3.359  1.00 20.00     0.063 C 
HETATM    4  C6  UNL     1     -33.573  15.996  -3.030  1.00 20.00     0.063 C 
HETATM    5  C9  UNL     1     -34.932  16.522  -2.557  1.00 20.00     0.213 C 
ENDROOT
BRANCH   5   6
HETATM    6  N11 UNL     1     -35.936  15.493  -2.756  1.00 20.00     0.122 N 
HETATM    7  H25 UNL     1     -36.852  15.851  -2.477  1.00 20.00     0.319 HD
BRANCH   6   8
HETATM    8  C8  UNL     1     -35.997  15.079  -4.154  1.00 20.00     0.327 C 
HETATM    9  C3  UNL     1     -35.435  13.731  -4.317  1.00 20.00     0.095 C 
HETATM   10  N10 UNL     1     -34.987  12.667  -4.448  1.00 20.00    -0.195 NA
BRANCH   8  11
HETATM   11  C7  UNL     1     -37.423  15.189  -4.707  1.00 20.00     0.046 C 
HETATM   12  C4  UNL     1     -38.524  14.922  -3.684  1.00 20.00     0.008 C 
ENDBRANCH   8  11
ENDBRANCH   6   8
ENDBRANCH   5   6
TORSDOF 3
ENDMDL
MODEL 3
REMARK VINA RESULT:      -4.2      2.237      4.414
REMARK  3 active torsions:
REMARK  status: ('A' for Active; 'I' for Inactive)
REMARK    1  A    between atoms: C7_7  and  C8_8 
REMARK    2  A    between atoms: C8_8  and  N11_11 
REMARK    3  A    between atoms: C9_9  and  N11_11 
ROOT
HETATM    1  C1  UNL     1     -34.542  15.046  -7.534  1.00 20.00     0.015 C 
HETATM    2  C2  UNL     1     -34.448  15.910  -6.704  1.00 20.00    -0.076 C 
HETATM    3  C5  UNL     1     -33.802  18.254  -6.337  1.00 20.00     0.063 C 
HETATM    4  C6  UNL     1     -35.704  17.238  -5.056  1.00 20.00     0.063 C 
HETATM    5  C9  UNL     1     -34.333  16.972  -5.686  1.00 20.00     0.213 C 
ENDROOT
BRANCH   5   6
HETATM    6  N11 UNL     1     -33.411  16.538  -4.653  1.00 20.00     0.122 N 
HETATM    7  H25 UNL     1     -32.876  17.340  -4.314  1.00 20.00     0.319 HD
BRANCH   6   8
HETATM    8  C8  UNL     1     -34.122  15.937  -3.530  1.00 20.00     0.327 C 
HETATM    9  C3  UNL     1     -33.972  14.474  -3.548  1.00 20.00     0.095 C 
HETATM   10  N10 UNL     1     -33.857  13.319  -3.563  1.00 20.00    -0.195 NA
BRANCH   8  11
HETATM   11  C7  UNL     1     -33.682  16.553  -2.196  1.00 20.00     0.046 C 
HETATM   12  C4  UNL     1     -34.726  16.476  -1.085  1.00 20.00     0.008 C 
ENDBRANCH   8  11
ENDBRANCH   6   8
ENDBRANCH   5   6
TORSDOF 3
ENDMDL
MODEL 4
REMARK VINA RESULT:      -4.2      1.905      2.451
REMARK  3 active torsions:
REMARK  status: ('A' for Active; 'I' for Inactive)
REMARK    1  A    between atoms: C7_7  and  C8_8 
REMARK    2  A    between atoms: C8_8  and  N11_11 
REMARK    3  A    between atoms: C9_9  and  N11_11 
ROOT
HETATM    1  C1  UNL     1     -34.544  16.270  -1.649  1.00 20.00     0.015 C 
HETATM    2  C2  UNL     1     -34.654  16.622  -2.792  1.00 20.00    -0.076 C 
HETATM    3  C5  UNL     1     -35.656  18.319  -4.264  1.00 20.00     0.063 C 
HETATM    4  C6  UNL     1     -33.405  17.344  -4.787  1.00 20.00     0.063 C 
HETATM    5  C9  UNL     1     -34.789  17.056  -4.197  1.00 20.00     0.213 C 
ENDROOT
BRANCH   5   6
HETATM    6  N11 UNL     1     -35.421  15.996  -4.960  1.00 20.00     0.122 N 
HETATM    7  H25 UNL     1     -35.977  16.403  -5.715  1.00 20.00     0.319 HD
BRANCH   6   8
HETATM    8  C8  UNL     1     -34.428  15.096  -5.536  1.00 20.00     0.327 C 
HETATM    9  C3  UNL     1     -34.604  13.733  -5.017  1.00 20.00     0.095 C 
HETATM   10  N10 UNL     1     -34.740  12.655  -4.605  1.00 20.00    -0.195 NA
BRANCH   8  11
HETATM   11  C7  UNL     1     -34.452  15.146  -7.069  1.00 20.00     0.046 C 
HETATM   12  C4  UNL     1     -35.702  14.544  -7.704  1.00 20.00     0.008 C 
ENDBRANCH   8  11
ENDBRANCH   6   8
ENDBRANCH   5   6
TORSDOF 3
ENDMDL
MODEL 5
REMARK VINA RESULT:      -4.2      1.759      4.562
REMARK  3 active torsions:
REMARK  status: ('A' for Active; 'I' for Inactive)
REMARK    1  A    between atoms: C7_7  and  C8_8 
REMARK    2  A    between atoms: C8_8  and  N11_11 
REMARK    3  A    between atoms: C9_9  and  N11_11 
ROOT
HETATM    1  C1  UNL     1     -34.356  15.109  -7.029  1.00 20.00     0.015 C 
HETATM    2  C2  UNL     1     -34.466  14.924  -5.847  1.00 20.00    -0.076 C 
HETATM    3  C5  UNL     1     -35.734  13.694  -4.136  1.00 20.00     0.063 C 
HETATM    4  C6  UNL     1     -33.286  14.149  -3.830  1.00 20.00     0.063 C 
HETATM    5  C9  UNL     1     -34.602  14.695  -4.395  1.00 20.00     0.213 C 
ENDROOT
BRANCH   5   6
HETATM    6  N11 UNL     1     -34.913  15.955  -3.746  1.00 20.00     0.122 N 
HETATM    7  H25 UNL     1     -35.427  15.775  -2.881  1.00 20.00     0.319 HD
BRANCH   6   8
HETATM    8  C8  UNL     1     -33.698  16.697  -3.427  1.00 20.00     0.327 C 
HETATM    9  C3  UNL     1     -33.568  17.873  -4.300  1.00 20.00     0.095 C 
HETATM   10  N10 UNL     1     -33.462  18.800  -4.991  1.00 20.00    -0.195 NA
BRANCH   8  11
HETATM   11  C7  UNL     1     -33.644  17.066  -1.939  1.00 20.00     0.046 C 
HETATM   12  C4  UNL     1     -34.762  16.463  -1.093  1.00 20.00     0.008 C 
ENDBRANCH   8  11
ENDBRANCH   6   8
ENDBRANCH   5   6
TORSDOF 3
ENDMDL
MODEL 6
REMARK VINA RESULT:      -4.1      1.987      3.092
REMARK  3 active torsions:
REMARK  status: ('A' for Active; 'I' for Inactive)
REMARK    1  A    between atoms: C7_7  and  C8_8 
REMARK    2  A    between atoms: C8_8  and  N11_11 
REMARK    3  A    between atoms: C9_9  and  N11_11 
ROOT
HETATM    1  C1  UNL     1     -34.600  16.490  -1.067  1.00 20.00     0.015 C 
HETATM    2  C2  UNL     1     -34.402  15.979  -2.136  1.00 20.00    -0.076 C 
HETATM    3  C5  UNL     1     -32.647  15.229  -3.689  1.00 20.00     0.063 C 
HETATM    4  C6  UNL     1     -34.802  13.960  -3.487  1.00 20.00     0.063 C 
HETATM    5  C9  UNL     1     -34.157  15.349  -3.449  1.00 20.00     0.213 C 
ENDROOT
BRANCH   5   6
HETATM    6  N11 UNL     1     -34.745  16.176  -4.486  1.00 20.00     0.122 N 
HETATM    7  H25 UNL     1     -34.981  17.092  -4.099  1.00 20.00     0.319 HD
BRANCH   6   8
HETATM    8  C8  UNL     1     -33.823  16.359  -5.602  1.00 20.00     0.327 C 
HETATM    9  C3  UNL     1     -34.253  15.563  -6.760  1.00 20.00     0.095 C 
HETATM   10  N10 UNL     1     -34.588  14.931  -7.676  1.00 20.00    -0.195 NA
BRANCH   8  11
HETATM   11  C7  UNL     1     -33.649  17.844  -5.945  1.00 20.00     0.046 C 
HETATM   12  C4  UNL     1     -33.618  18.776  -4.737  1.00 20.00     0.008 C 
ENDBRANCH   8  11
ENDBRANCH   6   8
ENDBRANCH   5   6
TORSDOF 3
ENDMDL
MODEL 7
REMARK VINA RESULT:      -4.1      2.184      2.605
REMARK  3 active torsions:
REMARK  status: ('A' for Active; 'I' for Inactive)
REMARK    1  A    between atoms: C7_7  and  C8_8 
REMARK    2  A    between atoms: C8_8  and  N11_11 
REMARK    3  A    between atoms: C9_9  and  N11_11 
ROOT
HETATM    1  C1  UNL     1     -34.435  16.235  -1.751  1.00 20.00     0.015 C 
HETATM    2  C2  UNL     1     -34.244  15.488  -2.672  1.00 20.00    -0.076 C 
HETATM    3  C5  UNL     1     -32.928  13.550  -3.423  1.00 20.00     0.063 C 
HETATM    4  C6  UNL     1     -35.309  13.839  -4.157  1.00 20.00     0.063 C 
HETATM    5  C9  UNL     1     -34.010  14.568  -3.803  1.00 20.00     0.213 C 
ENDROOT
BRANCH   5   6
HETATM    6  N11 UNL     1     -33.567  15.337  -4.952  1.00 20.00     0.122 N 
HETATM    7  H25 UNL     1     -32.873  14.799  -5.475  1.00 20.00     0.319 HD
BRANCH   6   8
HETATM    8  C8  UNL     1     -34.683  15.654  -5.836  1.00 20.00     0.327 C 
HETATM    9  C3  UNL     1     -34.989  17.091  -5.784  1.00 20.00     0.095 C 
HETATM   10  N10 UNL     1     -35.234  18.226  -5.741  1.00 20.00    -0.195 NA
BRANCH   8  11
HETATM   11  C7  UNL     1     -34.421  15.164  -7.265  1.00 20.00     0.046 C 
HETATM   12  C4  UNL     1     -35.600  14.448  -7.918  1.00 20.00     0.008 C 
ENDBRANCH   8  11
ENDBRANCH   6   8
ENDBRANCH   5   6
TORSDOF 3
ENDMDL
MODEL 8
REMARK VINA RESULT:      -4.0      1.745      3.006
REMARK  3 active torsions:
REMARK  status: ('A' for Active; 'I' for Inactive)
REMARK    1  A    between atoms: C7_7  and  C8_8 
REMARK    2  A    between atoms: C8_8  and  N11_11 
REMARK    3  A    between atoms: C9_9  and  N11_11 
ROOT
HETATM    1  C1  UNL     1     -34.663  16.443  -1.191  1.00 20.00     0.015 C 
HETATM    2  C2  UNL     1     -35.183  16.369  -2.271  1.00 20.00    -0.076 C 
HETATM    3  C5  UNL     1     -37.070  15.391  -3.510  1.00 20.00     0.063 C 
HETATM    4  C6  UNL     1     -36.216  17.679  -4.082  1.00 20.00     0.063 C 
HETATM    5  C9  UNL     1     -35.824  16.279  -3.599  1.00 20.00     0.213 C 
ENDROOT
BRANCH   5   6
HETATM    6  N11 UNL     1     -34.883  15.698  -4.538  1.00 20.00     0.122 N 
HETATM    7  H25 UNL     1     -33.981  15.560  -4.077  1.00 20.00     0.319 HD
BRANCH   6   8
HETATM    8  C8  UNL     1     -35.361  14.412  -5.036  1.00 20.00     0.327 C 
HETATM    9  C3  UNL     1     -35.377  14.403  -6.505  1.00 20.00     0.095 C 
HETATM   10  N10 UNL     1     -35.394  14.394  -7.667  1.00 20.00    -0.195 NA
BRANCH   8  11
HETATM   11  C7  UNL     1     -34.547  13.250  -4.452  1.00 20.00     0.046 C 
HETATM   12  C4  UNL     1     -33.255  13.666  -3.755  1.00 20.00     0.008 C 
ENDBRANCH   8  11
ENDBRANCH   6   8
ENDBRANCH   5   6
TORSDOF 3
ENDMDL
MODEL 9
REMARK VINA RESULT:      -4.0      1.853      2.801
REMARK  3 active torsions:
REMARK  status: ('A' for Active; 'I' for Inactive)
REMARK    1  A    between atoms: C7_7  and  C8_8 
REMARK    2  A    between atoms: C8_8  and  N11_11 
REMARK    3  A    between atoms: C9_9  and  N11_11 
ROOT
HETATM    1  C1  UNL     1     -36.585  18.814  -2.798  1.00 20.00     0.015 C 
HETATM    2  C2  UNL     1     -35.920  17.834  -2.599  1.00 20.00    -0.076 C 
HETATM    3  C5  UNL     1     -33.887  16.635  -3.291  1.00 20.00     0.063 C 
HETATM    4  C6  UNL     1     -34.633  16.607  -0.897  1.00 20.00     0.063 C 
HETATM    5  C9  UNL     1     -35.101  16.630  -2.355  1.00 20.00     0.213 C 
ENDROOT
BRANCH   5   6
HETATM    6  N11 UNL     1     -35.906  15.451  -2.615  1.00 20.00     0.122 N 
HETATM    7  H25 UNL     1     -36.867  15.620  -2.310  1.00 20.00     0.319 HD
BRANCH   6   8
HETATM    8  C8  UNL     1     -35.912  15.120  -4.036  1.00 20.00     0.327 C 
HETATM    9  C3  UNL     1     -35.360  13.775  -4.254  1.00 20.00     0.095 C 
HETATM   10  N10 UNL     1     -34.921  12.714  -4.429  1.00 20.00    -0.195 NA
BRANCH   8  11
HETATM   11  C7  UNL     1     -37.313  15.281  -4.641  1.00 20.00     0.046 C 
HETATM   12  C4  UNL     1     -38.459  15.091  -3.651  1.00 20.00     0.008 C 
ENDBRANCH   8  11
ENDBRANCH   6   8
ENDBRANCH   5   6
TORSDOF 3
ENDMDL
