MODEL 1
REMARK VINA RESULT:      -4.0      0.000      0.000
REMARK  3 active torsions:
REMARK  status: ('A' for Active; 'I' for Inactive)
REMARK    1  A    between atoms: C1_1  and  C7_7 
REMARK       I    between atoms: C1_1  and  N9_9 
REMARK    2  A    between atoms: C7_7  and  C8_8 
REMARK    3  A    between atoms: N9_9  and  O11_11 
ROOT
HETATM    1  C1  UNL     1     -33.725  16.220  -3.286  1.00 20.00     0.247 C 
HETATM    2  C5  UNL     1     -33.498  18.186  -1.770  1.00 20.00     0.189 C 
HETATM    3  N9  UNL     1     -33.972  16.850  -2.089  1.00 20.00    -0.231 N 
HETATM    4  O10 UNL     1     -33.074  16.747  -4.192  1.00 20.00    -0.271 OA
ENDROOT
BRANCH   1   5
HETATM    5  C7  UNL     1     -34.320  14.814  -3.466  1.00 20.00     0.079 C 
HETATM    6  C2  UNL     1     -33.200  13.792  -3.691  1.00 20.00     0.020 C 
BRANCH   5   7
HETATM    7  C8  UNL     1     -35.399  14.822  -4.583  1.00 20.00    -0.010 C 
HETATM    8  C3  UNL     1     -36.782  14.476  -4.024  1.00 20.00     0.010 C 
HETATM    9  C4  UNL     1     -35.071  13.896  -5.759  1.00 20.00     0.010 C 
ENDBRANCH   5   7
ENDBRANCH   1   5
BRANCH   3  10
HETATM   10  O11 UNL     1     -34.710  16.270  -1.041  1.00 20.00    -0.281 OA
HETATM   11  C6  UNL     1     -34.821  17.210   0.025  1.00 20.00     0.238 C 
ENDBRANCH   3  10
TORSDOF 3
ENDMDL
MODEL 2
REMARK VINA RESULT:      -4.0      2.427      3.869
REMARK  3 active torsions:
REMARK  status: ('A' for Active; 'I' for Inactive)
REMARK    1  A    between atoms: C1_1  and  C7_7 
REMARK       I    between atoms: C1_1  and  N9_9 
REMARK    2  A    between atoms: C7_7  and  C8_8 
REMARK    3  A    between atoms: N9_9  and  O11_11 
ROOT
HETATM    1  C1  UNL     1     -35.826  15.683  -4.270  1.00 20.00     0.247 C 
HETATM    2  C5  UNL     1     -37.838  15.808  -5.736  1.00 20.00     0.189 C 
HETATM    3  N9  UNL     1     -37.099  15.283  -4.599  1.00 20.00    -0.231 N 
HETATM    4  O10 UNL     1     -35.205  16.528  -4.921  1.00 20.00    -0.271 OA
ENDROOT
BRANCH   1   5
HETATM    5  C7  UNL     1     -35.181  15.010  -3.047  1.00 20.00     0.079 C 
HETATM    6  C2  UNL     1     -34.670  16.073  -2.068  1.00 20.00     0.020 C 
BRANCH   5   7
HETATM    7  C8  UNL     1     -34.096  13.994  -3.498  1.00 20.00    -0.010 C 
HETATM    8  C3  UNL     1     -32.733  14.673  -3.664  1.00 20.00     0.010 C 
HETATM    9  C4  UNL     1     -34.458  13.241  -4.782  1.00 20.00     0.010 C 
ENDBRANCH   5   7
ENDBRANCH   1   5
BRANCH   3  10
HETATM   10  O11 UNL     1     -37.828  14.324  -3.873  1.00 20.00    -0.281 OA
HETATM   11  C6  UNL     1     -39.206  14.688  -3.871  1.00 20.00     0.238 C 
ENDBRANCH   3  10
TORSDOF 3
ENDMDL
MODEL 3
REMARK VINA RESULT:      -3.9      1.680      4.166
REMARK  3 active torsions:
REMARK  status: ('A' for Active; 'I' for Inactive)
REMARK    1  A    between atoms: C1_1  and  C7_7 
REMARK       I    between atoms: C1_1  and  N9_9 
REMARK    2  A    between atoms: C7_7  and  C8_8 
REMARK    3  A    between atoms: N9_9  and  O11_11 
ROOT
HETATM    1  C1  UNL     1     -33.938  15.613  -3.477  1.00 20.00     0.247 C 
HETATM    2  C5  UNL     1     -34.813  13.348  -4.041  1.00 20.00     0.189 C 
HETATM    3  N9  UNL     1     -34.977  14.719  -3.589  1.00 20.00    -0.231 N 
HETATM    4  O10 UNL     1     -32.773  15.316  -3.755  1.00 20.00    -0.271 OA
ENDROOT
BRANCH   1   5
HETATM    5  C7  UNL     1     -34.285  17.019  -2.961  1.00 20.00     0.079 C 
HETATM    6  C2  UNL     1     -33.828  18.079  -3.970  1.00 20.00     0.020 C 
BRANCH   5   7
HETATM    7  C8  UNL     1     -33.718  17.226  -1.530  1.00 20.00    -0.010 C 
HETATM    8  C3  UNL     1     -34.717  16.765  -0.464  1.00 20.00     0.010 C 
HETATM    9  C4  UNL     1     -33.286  18.667  -1.243  1.00 20.00     0.010 C 
ENDBRANCH   5   7
ENDBRANCH   1   5
BRANCH   3  10
HETATM   10  O11 UNL     1     -36.313  15.033  -3.279  1.00 20.00    -0.281 OA
HETATM   11  C6  UNL     1     -37.099  14.947  -4.465  1.00 20.00     0.238 C 
ENDBRANCH   3  10
TORSDOF 3
ENDMDL
MODEL 4
REMARK VINA RESULT:      -3.9      2.577      4.315
REMARK  3 active torsions:
REMARK  status: ('A' for Active; 'I' for Inactive)
REMARK    1  A    between atoms: C1_1  and  C7_7 
REMARK       I    between atoms: C1_1  and  N9_9 
REMARK    2  A    between atoms: C7_7  and  C8_8 
REMARK    3  A    between atoms: N9_9  and  O11_11 
ROOT
HETATM    1  C1  UNL     1     -34.556  14.117  -5.128  1.00 20.00     0.247 C 
HETATM    2  C5  UNL     1     -35.373  14.261  -7.479  1.00 20.00     0.189 C 
HETATM    3  N9  UNL     1     -34.763  14.827  -6.287  1.00 20.00    -0.231 N 
HETATM    4  O10 UNL     1     -34.876  12.931  -5.009  1.00 20.00    -0.271 OA
ENDROOT
BRANCH   1   5
HETATM    5  C7  UNL     1     -33.917  14.877  -3.953  1.00 20.00     0.079 C 
HETATM    6  C2  UNL     1     -32.638  14.166  -3.499  1.00 20.00     0.020 C 
BRANCH   5   7
HETATM    7  C8  UNL     1     -34.957  15.090  -2.819  1.00 20.00    -0.010 C 
HETATM    8  C3  UNL     1     -36.341  15.417  -3.386  1.00 20.00     0.010 C 
HETATM    9  C4  UNL     1     -34.547  16.164  -1.806  1.00 20.00     0.010 C 
ENDBRANCH   5   7
ENDBRANCH   1   5
BRANCH   3  10
HETATM   10  O11 UNL     1     -34.407  16.178  -6.448  1.00 20.00    -0.281 OA
HETATM   11  C6  UNL     1     -35.557  16.919  -6.848  1.00 20.00     0.238 C 
ENDBRANCH   3  10
TORSDOF 3
ENDMDL
MODEL 5
REMARK VINA RESULT:      -3.8      1.915      2.303
REMARK  3 active torsions:
REMARK  status: ('A' for Active; 'I' for Inactive)
REMARK    1  A    between atoms: C1_1  and  C7_7 
REMARK       I    between atoms: C1_1  and  N9_9 
REMARK    2  A    between atoms: C7_7  and  C8_8 
REMARK    3  A    between atoms: N9_9  and  O11_11 
ROOT
HETATM    1  C1  UNL     1     -34.016  15.276  -3.685  1.00 20.00     0.247 C 
HETATM    2  C5  UNL     1     -34.334  16.476  -1.523  1.00 20.00     0.189 C 
HETATM    3  N9  UNL     1     -34.829  15.863  -2.744  1.00 20.00    -0.231 N 
HETATM    4  O10 UNL     1     -32.789  15.225  -3.564  1.00 20.00    -0.271 OA
ENDROOT
BRANCH   1   5
HETATM    5  C7  UNL     1     -34.705  14.693  -4.930  1.00 20.00     0.079 C 
HETATM    6  C2  UNL     1     -34.568  13.167  -4.943  1.00 20.00     0.020 C 
BRANCH   5   7
HETATM    7  C8  UNL     1     -34.173  15.384  -6.215  1.00 20.00    -0.010 C 
HETATM    8  C3  UNL     1     -34.427  16.894  -6.181  1.00 20.00     0.010 C 
HETATM    9  C4  UNL     1     -34.742  14.794  -7.510  1.00 20.00     0.010 C 
ENDBRANCH   5   7
ENDBRANCH   1   5
BRANCH   3  10
HETATM   10  O11 UNL     1     -36.229  15.933  -2.858  1.00 20.00    -0.281 OA
HETATM   11  C6  UNL     1     -36.620  17.299  -2.971  1.00 20.00     0.238 C 
ENDBRANCH   3  10
TORSDOF 3
ENDMDL
MODEL 6
REMARK VINA RESULT:      -3.8      2.114      3.469
REMARK  3 active torsions:
REMARK  status: ('A' for Active; 'I' for Inactive)
REMARK    1  A    between atoms: C1_1  and  C7_7 
REMARK       I    between atoms: C1_1  and  N9_9 
REMARK    2  A    between atoms: C7_7  and  C8_8 
REMARK    3  A    between atoms: N9_9  and  O11_11 
ROOT
HETATM    1  C1  UNL     1     -34.805  13.915  -4.606  1.00 20.00     0.247 C 
HETATM    2  C5  UNL     1     -32.649  13.777  -3.364  1.00 20.00     0.189 C 
HETATM    3  N9  UNL     1     -33.730  14.515  -3.995  1.00 20.00    -0.231 N 
HETATM    4  O10 UNL     1     -34.937  12.689  -4.666  1.00 20.00    -0.271 OA
ENDROOT
BRANCH   1   5
HETATM    5  C7  UNL     1     -35.850  14.846  -5.244  1.00 20.00     0.079 C 
HETATM    6  C2  UNL     1     -37.184  14.731  -4.499  1.00 20.00     0.020 C 
BRANCH   5   7
HETATM    7  C8  UNL     1     -35.955  14.575  -6.770  1.00 20.00    -0.010 C 
HETATM    8  C3  UNL     1     -34.667  14.975  -7.496  1.00 20.00     0.010 C 
HETATM    9  C4  UNL     1     -37.155  15.259  -7.433  1.00 20.00     0.010 C 
ENDBRANCH   5   7
ENDBRANCH   1   5
BRANCH   3  10
HETATM   10  O11 UNL     1     -33.558  15.908  -3.912  1.00 20.00    -0.281 OA
HETATM   11  C6  UNL     1     -33.772  16.325  -2.567  1.00 20.00     0.238 C 
ENDBRANCH   3  10
TORSDOF 3
ENDMDL
MODEL 7
REMARK VINA RESULT:      -3.7      1.270      2.841
REMARK  3 active torsions:
REMARK  status: ('A' for Active; 'I' for Inactive)
REMARK    1  A    between atoms: C1_1  and  C7_7 
REMARK       I    between atoms: C1_1  and  N9_9 
REMARK    2  A    between atoms: C7_7  and  C8_8 
REMARK    3  A    between atoms: N9_9  and  O11_11 
ROOT
HETATM    1  C1  UNL     1     -34.571  16.392  -2.448  1.00 20.00     0.247 C 
HETATM    2  C5  UNL     1     -33.429  18.546  -1.926  1.00 20.00     0.189 C 
HETATM    3  N9  UNL     1     -33.932  17.542  -2.848  1.00 20.00    -0.231 N 
HETATM    4  O10 UNL     1     -34.768  16.121  -1.260  1.00 20.00    -0.271 OA
ENDROOT
BRANCH   1   5
HETATM    5  C7  UNL     1     -35.021  15.426  -3.556  1.00 20.00     0.079 C 
HETATM    6  C2  UNL     1     -36.526  15.156  -3.442  1.00 20.00     0.020 C 
BRANCH   5   7
HETATM    7  C8  UNL     1     -34.148  14.142  -3.541  1.00 20.00    -0.010 C 
HETATM    8  C3  UNL     1     -32.656  14.482  -3.611  1.00 20.00     0.010 C 
HETATM    9  C4  UNL     1     -34.503  13.146  -4.650  1.00 20.00     0.010 C 
ENDBRANCH   5   7
ENDBRANCH   1   5
BRANCH   3  10
HETATM   10  O11 UNL     1     -33.697  17.874  -4.195  1.00 20.00    -0.281 OA
HETATM   11  C6  UNL     1     -33.970  19.260  -4.388  1.00 20.00     0.238 C 
ENDBRANCH   3  10
TORSDOF 3
ENDMDL
MODEL 8
REMARK VINA RESULT:      -3.7      2.574      3.674
REMARK  3 active torsions:
REMARK  status: ('A' for Active; 'I' for Inactive)
REMARK    1  A    between atoms: C1_1  and  C7_7 
REMARK       I    between atoms: C1_1  and  N9_9 
REMARK    2  A    between atoms: C7_7  and  C8_8 
REMARK    3  A    between atoms: N9_9  and  O11_11 
ROOT
HETATM    1  C1  UNL     1     -36.937  15.167  -3.957  1.00 20.00     0.247 C 
HETATM    2  C5  UNL     1     -38.893  16.532  -3.230  1.00 20.00     0.189 C 
HETATM    3  N9  UNL     1     -37.531  16.383  -3.715  1.00 20.00    -0.231 N 
HETATM    4  O10 UNL     1     -37.522  14.095  -3.780  1.00 20.00    -0.271 OA
ENDROOT
BRANCH   1   5
HETATM    5  C7  UNL     1     -35.480  15.191  -4.447  1.00 20.00     0.079 C 
HETATM    6  C2  UNL     1     -35.345  14.378  -5.739  1.00 20.00     0.020 C 
BRANCH   5   7
HETATM    7  C8  UNL     1     -34.521  14.736  -3.313  1.00 20.00    -0.010 C 
HETATM    8  C3  UNL     1     -33.860  15.936  -2.629  1.00 20.00     0.010 C 
HETATM    9  C4  UNL     1     -33.445  13.750  -3.779  1.00 20.00     0.010 C 
ENDBRANCH   5   7
ENDBRANCH   1   5
BRANCH   3  10
HETATM   10  O11 UNL     1     -36.885  17.618  -3.910  1.00 20.00    -0.281 OA
HETATM   11  C6  UNL     1     -36.769  18.286  -2.656  1.00 20.00     0.238 C 
ENDBRANCH   3  10
TORSDOF 3
ENDMDL
MODEL 9
REMARK VINA RESULT:      -3.7      2.264      3.718
REMARK  3 active torsions:
REMARK  status: ('A' for Active; 'I' for Inactive)
REMARK    1  A    between atoms: C1_1  and  C7_7 
REMARK       I    between atoms: C1_1  and  N9_9 
REMARK    2  A    between atoms: C7_7  and  C8_8 
REMARK    3  A    between atoms: N9_9  and  O11_11 
ROOT
HETATM    1  C1  UNL     1     -34.066  16.215  -4.789  1.00 20.00     0.247 C 
HETATM    2  C5  UNL     1     -34.636  17.293  -6.963  1.00 20.00     0.189 C 
HETATM    3  N9  UNL     1     -34.989  16.620  -5.724  1.00 20.00    -0.231 N 
HETATM    4  O10 UNL     1     -32.853  16.395  -4.930  1.00 20.00    -0.271 OA
ENDROOT
BRANCH   1   5
HETATM    5  C7  UNL     1     -34.610  15.497  -3.543  1.00 20.00     0.079 C 
HETATM    6  C2  UNL     1     -34.095  16.182  -2.272  1.00 20.00     0.020 C 
BRANCH   5   7
HETATM    7  C8  UNL     1     -34.292  13.978  -3.613  1.00 20.00    -0.010 C 
HETATM    8  C3  UNL     1     -32.796  13.713  -3.421  1.00 20.00     0.010 C 
HETATM    9  C4  UNL     1     -34.774  13.310  -4.905  1.00 20.00     0.010 C 
ENDBRANCH   5   7
ENDBRANCH   1   5
BRANCH   3  10
HETATM   10  O11 UNL     1     -36.375  16.428  -5.585  1.00 20.00    -0.281 OA
HETATM   11  C6  UNL     1     -36.875  15.781  -6.752  1.00 20.00     0.238 C 
ENDBRANCH   3  10
TORSDOF 3
ENDMDL
