MODEL 1
REMARK VINA RESULT:      -4.5      0.000      0.000
REMARK  3 active torsions:
REMARK  status: ('A' for Active; 'I' for Inactive)
REMARK    1  A    between atoms: C4_4  and  C6_6 
REMARK    2  A    between atoms: C6_6  and  C7_7 
REMARK    3  A    between atoms: C7_7  and  N8_8 
ROOT
HETATM    1  C1  UNL     1     -32.155   7.937   2.338  1.00 20.00     0.158 C 
HETATM    2  N8  UNL     1     -32.199   7.113   3.172  1.00 20.00    -0.271 NA
HETATM    3  S9  UNL     1     -32.061   9.055   1.208  1.00 20.00    -0.055 SA
ENDROOT
BRANCH   2   4
HETATM    4  C7  UNL     1     -33.546   6.617   3.475  1.00 20.00     0.106 C 
HETATM    5  C5  UNL     1     -33.857   5.480   2.510  1.00 20.00     0.034 C 
BRANCH   4   6
HETATM    6  C6  UNL     1     -33.593   6.139   4.929  1.00 20.00     0.031 C 
BRANCH   6   7
HETATM    7  C4  UNL     1     -34.878   5.388   5.254  1.00 20.00    -0.013 A 
HETATM    8  C2  UNL     1     -34.841   3.910   5.530  1.00 20.00     0.005 A 
HETATM    9  C3  UNL     1     -35.123   4.876   6.647  1.00 20.00     0.005 A 
ENDBRANCH   6   7
ENDBRANCH   4   6
ENDBRANCH   2   4
TORSDOF 3
ENDMDL
MODEL 2
REMARK VINA RESULT:      -4.2      2.700      4.919
REMARK  3 active torsions:
REMARK  status: ('A' for Active; 'I' for Inactive)
REMARK    1  A    between atoms: C4_4  and  C6_6 
REMARK    2  A    between atoms: C6_6  and  C7_7 
REMARK    3  A    between atoms: C7_7  and  N8_8 
ROOT
HETATM    1  C1  UNL     1     -34.116   5.822   5.278  1.00 20.00     0.158 C 
HETATM    2  N8  UNL     1     -33.499   6.698   4.800  1.00 20.00    -0.271 NA
HETATM    3  S9  UNL     1     -34.969   4.655   5.948  1.00 20.00    -0.055 SA
ENDROOT
BRANCH   2   4
HETATM    4  C7  UNL     1     -32.618   6.298   3.697  1.00 20.00     0.106 C 
HETATM    5  C5  UNL     1     -33.483   5.686   2.602  1.00 20.00     0.034 C 
BRANCH   4   6
HETATM    6  C6  UNL     1     -31.862   7.526   3.184  1.00 20.00     0.031 C 
BRANCH   6   7
HETATM    7  C4  UNL     1     -32.535   8.161   1.973  1.00 20.00    -0.013 A 
HETATM    8  C2  UNL     1     -32.447   9.645   1.750  1.00 20.00     0.005 A 
HETATM    9  C3  UNL     1     -31.703   8.704   0.844  1.00 20.00     0.005 A 
ENDBRANCH   6   7
ENDBRANCH   4   6
ENDBRANCH   2   4
TORSDOF 3
ENDMDL
MODEL 3
REMARK VINA RESULT:      -4.1     11.087     11.903
REMARK  3 active torsions:
REMARK  status: ('A' for Active; 'I' for Inactive)
REMARK    1  A    between atoms: C4_4  and  C6_6 
REMARK    2  A    between atoms: C6_6  and  C7_7 
REMARK    3  A    between atoms: C7_7  and  N8_8 
ROOT
HETATM    1  C1  UNL     1     -34.973  13.688  -5.526  1.00 20.00     0.158 C 
HETATM    2  N8  UNL     1     -34.936  13.046  -4.545  1.00 20.00    -0.271 NA
HETATM    3  S9  UNL     1     -35.038  14.534  -6.874  1.00 20.00    -0.055 SA
ENDROOT
BRANCH   2   4
HETATM    4  C7  UNL     1     -34.340  13.725  -3.389  1.00 20.00     0.106 C 
HETATM    5  C5  UNL     1     -32.876  13.999  -3.706  1.00 20.00     0.034 C 
BRANCH   4   6
HETATM    6  C6  UNL     1     -35.102  15.025  -3.119  1.00 20.00     0.031 C 
BRANCH   6   7
HETATM    7  C4  UNL     1     -34.258  16.050  -2.371  1.00 20.00    -0.013 A 
HETATM    8  C2  UNL     1     -34.765  17.452  -2.179  1.00 20.00     0.005 A 
HETATM    9  C3  UNL     1     -34.675  16.519  -1.004  1.00 20.00     0.005 A 
ENDBRANCH   6   7
ENDBRANCH   4   6
ENDBRANCH   2   4
TORSDOF 3
ENDMDL
MODEL 4
REMARK VINA RESULT:      -3.8     11.477     12.158
REMARK  3 active torsions:
REMARK  status: ('A' for Active; 'I' for Inactive)
REMARK    1  A    between atoms: C4_4  and  C6_6 
REMARK    2  A    between atoms: C6_6  and  C7_7 
REMARK    3  A    between atoms: C7_7  and  N8_8 
ROOT
HETATM    1  C1  UNL     1     -33.737  14.240  -4.097  1.00 20.00     0.158 C 
HETATM    2  N8  UNL     1     -32.972  14.922  -3.526  1.00 20.00    -0.271 NA
HETATM    3  S9  UNL     1     -34.753  13.290  -4.872  1.00 20.00    -0.055 SA
ENDROOT
BRANCH   2   4
HETATM    4  C7  UNL     1     -33.484  16.248  -3.161  1.00 20.00     0.106 C 
HETATM    5  C5  UNL     1     -33.757  17.018  -4.447  1.00 20.00     0.034 C 
BRANCH   4   6
HETATM    6  C6  UNL     1     -34.760  16.085  -2.331  1.00 20.00     0.031 C 
BRANCH   6   7
HETATM    7  C4  UNL     1     -34.574  16.523  -0.884  1.00 20.00    -0.013 A 
HETATM    8  C2  UNL     1     -33.786  17.762  -0.563  1.00 20.00     0.005 A 
HETATM    9  C3  UNL     1     -35.277  17.749  -0.368  1.00 20.00     0.005 A 
ENDBRANCH   6   7
ENDBRANCH   4   6
ENDBRANCH   2   4
TORSDOF 3
ENDMDL
MODEL 5
REMARK VINA RESULT:      -3.8     11.750     12.606
REMARK  3 active torsions:
REMARK  status: ('A' for Active; 'I' for Inactive)
REMARK    1  A    between atoms: C4_4  and  C6_6 
REMARK    2  A    between atoms: C6_6  and  C7_7 
REMARK    3  A    between atoms: C7_7  and  N8_8 
ROOT
HETATM    1  C1  UNL     1     -33.507  17.150  -5.091  1.00 20.00     0.158 C 
HETATM    2  N8  UNL     1     -33.320  16.148  -4.510  1.00 20.00    -0.271 NA
HETATM    3  S9  UNL     1     -33.728  18.513  -5.884  1.00 20.00    -0.055 SA
ENDROOT
BRANCH   2   4
HETATM    4  C7  UNL     1     -34.535  15.475  -4.039  1.00 20.00     0.106 C 
HETATM    5  C5  UNL     1     -34.145  14.084  -3.553  1.00 20.00     0.034 C 
BRANCH   4   6
HETATM    6  C6  UNL     1     -35.164  16.299  -2.913  1.00 20.00     0.031 C 
BRANCH   6   7
HETATM    7  C4  UNL     1     -34.356  16.236  -1.623  1.00 20.00    -0.013 A 
HETATM    8  C2  UNL     1     -33.629  17.455  -1.126  1.00 20.00     0.005 A 
HETATM    9  C3  UNL     1     -34.840  16.952  -0.392  1.00 20.00     0.005 A 
ENDBRANCH   6   7
ENDBRANCH   4   6
ENDBRANCH   2   4
TORSDOF 3
ENDMDL
MODEL 6
REMARK VINA RESULT:      -3.8     11.603     12.405
REMARK  3 active torsions:
REMARK  status: ('A' for Active; 'I' for Inactive)
REMARK    1  A    between atoms: C4_4  and  C6_6 
REMARK    2  A    between atoms: C6_6  and  C7_7 
REMARK    3  A    between atoms: C7_7  and  N8_8 
ROOT
HETATM    1  C1  UNL     1     -34.771  14.984  -6.438  1.00 20.00     0.158 C 
HETATM    2  N8  UNL     1     -34.252  15.273  -5.426  1.00 20.00    -0.271 NA
HETATM    3  S9  UNL     1     -35.457  14.615  -7.827  1.00 20.00    -0.055 SA
ENDROOT
BRANCH   2   4
HETATM    4  C7  UNL     1     -34.656  14.459  -4.274  1.00 20.00     0.106 C 
HETATM    5  C5  UNL     1     -33.422  13.729  -3.757  1.00 20.00     0.034 C 
BRANCH   4   6
HETATM    6  C6  UNL     1     -35.253  15.369  -3.197  1.00 20.00     0.031 C 
BRANCH   6   7
HETATM    7  C4  UNL     1     -34.210  15.847  -2.195  1.00 20.00    -0.013 A 
HETATM    8  C2  UNL     1     -33.913  17.314  -2.052  1.00 20.00     0.005 A 
HETATM    9  C3  UNL     1     -34.635  16.584  -0.954  1.00 20.00     0.005 A 
ENDBRANCH   6   7
ENDBRANCH   4   6
ENDBRANCH   2   4
TORSDOF 3
ENDMDL
MODEL 7
REMARK VINA RESULT:      -3.7      1.110      1.753
REMARK  3 active torsions:
REMARK  status: ('A' for Active; 'I' for Inactive)
REMARK    1  A    between atoms: C4_4  and  C6_6 
REMARK    2  A    between atoms: C6_6  and  C7_7 
REMARK    3  A    between atoms: C7_7  and  N8_8 
ROOT
HETATM    1  C1  UNL     1     -32.299   8.309   1.852  1.00 20.00     0.158 C 
HETATM    2  N8  UNL     1     -32.133   7.157   2.004  1.00 20.00    -0.271 NA
HETATM    3  S9  UNL     1     -32.522   9.867   1.613  1.00 20.00    -0.055 SA
ENDROOT
BRANCH   2   4
HETATM    4  C7  UNL     1     -32.169   6.710   3.400  1.00 20.00     0.106 C 
HETATM    5  C5  UNL     1     -31.455   7.754   4.249  1.00 20.00     0.034 C 
BRANCH   4   6
HETATM    6  C6  UNL     1     -33.626   6.543   3.839  1.00 20.00     0.031 C 
BRANCH   6   7
HETATM    7  C4  UNL     1     -33.791   5.489   4.927  1.00 20.00    -0.013 A 
HETATM    8  C2  UNL     1     -34.466   5.838   6.224  1.00 20.00     0.005 A 
HETATM    9  C3  UNL     1     -35.152   4.931   5.240  1.00 20.00     0.005 A 
ENDBRANCH   6   7
ENDBRANCH   4   6
ENDBRANCH   2   4
TORSDOF 3
ENDMDL
MODEL 8
REMARK VINA RESULT:      -3.7     11.531     12.124
REMARK  3 active torsions:
REMARK  status: ('A' for Active; 'I' for Inactive)
REMARK    1  A    between atoms: C4_4  and  C6_6 
REMARK    2  A    between atoms: C6_6  and  C7_7 
REMARK    3  A    between atoms: C7_7  and  N8_8 
ROOT
HETATM    1  C1  UNL     1     -37.067  14.597  -4.131  1.00 20.00     0.158 C 
HETATM    2  N8  UNL     1     -35.962  14.327  -4.417  1.00 20.00    -0.271 NA
HETATM    3  S9  UNL     1     -38.578  14.954  -3.774  1.00 20.00    -0.055 SA
ENDROOT
BRANCH   2   4
HETATM    4  C7  UNL     1     -34.985  14.515  -3.338  1.00 20.00     0.106 C 
HETATM    5  C5  UNL     1     -33.650  13.950  -3.807  1.00 20.00     0.034 C 
BRANCH   4   6
HETATM    6  C6  UNL     1     -34.871  16.007  -3.014  1.00 20.00     0.031 C 
BRANCH   6   7
HETATM    7  C4  UNL     1     -34.064  16.269  -1.749  1.00 20.00    -0.013 A 
HETATM    8  C2  UNL     1     -33.729  17.677  -1.343  1.00 20.00     0.005 A 
HETATM    9  C3  UNL     1     -34.724  16.882  -0.544  1.00 20.00     0.005 A 
ENDBRANCH   6   7
ENDBRANCH   4   6
ENDBRANCH   2   4
TORSDOF 3
ENDMDL
MODEL 9
REMARK VINA RESULT:      -3.6     11.179     12.860
REMARK  3 active torsions:
REMARK  status: ('A' for Active; 'I' for Inactive)
REMARK    1  A    between atoms: C4_4  and  C6_6 
REMARK    2  A    between atoms: C6_6  and  C7_7 
REMARK    3  A    between atoms: C7_7  and  N8_8 
ROOT
HETATM    1  C1  UNL     1     -34.757  16.064  -1.972  1.00 20.00     0.158 C 
HETATM    2  N8  UNL     1     -34.912  15.407  -2.931  1.00 20.00    -0.271 NA
HETATM    3  S9  UNL     1     -34.578  16.952  -0.662  1.00 20.00    -0.055 SA
ENDROOT
BRANCH   2   4
HETATM    4  C7  UNL     1     -33.703  15.197  -3.735  1.00 20.00     0.106 C 
HETATM    5  C5  UNL     1     -33.397  13.705  -3.746  1.00 20.00     0.034 C 
BRANCH   4   6
HETATM    6  C6  UNL     1     -33.942  15.724  -5.152  1.00 20.00     0.031 C 
BRANCH   6   7
HETATM    7  C4  UNL     1     -34.478  14.651  -6.091  1.00 20.00    -0.013 A 
HETATM    8  C2  UNL     1     -35.869  14.761  -6.651  1.00 20.00     0.005 A 
HETATM    9  C3  UNL     1     -34.680  14.954  -7.550  1.00 20.00     0.005 A 
ENDBRANCH   6   7
ENDBRANCH   4   6
ENDBRANCH   2   4
TORSDOF 3
ENDMDL
