MODEL 1
REMARK VINA RESULT:      -4.0      0.000      0.000
REMARK  4 active torsions:
REMARK  status: ('A' for Active; 'I' for Inactive)
REMARK    1  A    between atoms: C4_4  and  C6_6 
REMARK    2  A    between atoms: C6_6  and  C8_8 
REMARK    3  A    between atoms: C7_7  and  C8_8 
REMARK    4  A    between atoms: C8_8  and  N9_9 
ROOT
HETATM    1  C1  UNL     1     -38.233  14.835  -3.979  1.00 20.00     0.158 C 
HETATM    2  N9  UNL     1     -37.275  14.225  -3.687  1.00 20.00    -0.270 NA
HETATM    3  S10 UNL     1     -39.554  15.636  -4.367  1.00 20.00    -0.055 SA
ENDROOT
BRANCH   2   4
HETATM    4  C8  UNL     1     -36.008  14.941  -3.889  1.00 20.00     0.109 C 
BRANCH   4   5
HETATM    5  C6  UNL     1     -35.924  16.084  -2.869  1.00 20.00     0.032 C 
BRANCH   5   6
HETATM    6  C4  UNL     1     -34.727  15.947  -1.936  1.00 20.00    -0.013 A 
HETATM    7  C2  UNL     1     -33.740  17.073  -1.798  1.00 20.00     0.005 A 
HETATM    8  C3  UNL     1     -34.667  16.741  -0.662  1.00 20.00     0.005 A 
ENDBRANCH   5   6
ENDBRANCH   4   5
BRANCH   4   9
HETATM    9  C7  UNL     1     -34.852  13.953  -3.699  1.00 20.00     0.023 C 
HETATM   10  C5  UNL     1     -34.508  13.219  -4.962  1.00 20.00     0.007 C 
ENDBRANCH   4   9
ENDBRANCH   2   4
TORSDOF 4
ENDMDL
MODEL 2
REMARK VINA RESULT:      -4.0      2.925      3.192
REMARK  4 active torsions:
REMARK  status: ('A' for Active; 'I' for Inactive)
REMARK    1  A    between atoms: C4_4  and  C6_6 
REMARK    2  A    between atoms: C6_6  and  C8_8 
REMARK    3  A    between atoms: C7_7  and  C8_8 
REMARK    4  A    between atoms: C8_8  and  N9_9 
ROOT
HETATM    1  C1  UNL     1     -33.698  17.008  -5.158  1.00 20.00     0.158 C 
HETATM    2  N9  UNL     1     -33.739  15.839  -5.076  1.00 20.00    -0.270 NA
HETATM    3  S10 UNL     1     -33.650  18.594  -5.303  1.00 20.00    -0.055 SA
ENDROOT
BRANCH   2   4
HETATM    4  C8  UNL     1     -33.450  15.308  -3.736  1.00 20.00     0.109 C 
BRANCH   4   5
HETATM    5  C6  UNL     1     -34.503  15.846  -2.760  1.00 20.00     0.032 C 
BRANCH   5   6
HETATM    6  C4  UNL     1     -33.881  16.568  -1.571  1.00 20.00    -0.013 A 
HETATM    7  C2  UNL     1     -34.199  18.015  -1.313  1.00 20.00     0.005 A 
HETATM    8  C3  UNL     1     -34.730  16.952  -0.391  1.00 20.00     0.005 A 
ENDBRANCH   5   6
ENDBRANCH   4   5
BRANCH   4   9
HETATM    9  C7  UNL     1     -33.492  13.777  -3.798  1.00 20.00     0.023 C 
HETATM   10  C5  UNL     1     -34.728  13.262  -4.475  1.00 20.00     0.007 C 
ENDBRANCH   4   9
ENDBRANCH   2   4
TORSDOF 4
ENDMDL
MODEL 3
REMARK VINA RESULT:      -3.8      2.261      2.271
REMARK  4 active torsions:
REMARK  status: ('A' for Active; 'I' for Inactive)
REMARK    1  A    between atoms: C4_4  and  C6_6 
REMARK    2  A    between atoms: C6_6  and  C8_8 
REMARK    3  A    between atoms: C7_7  and  C8_8 
REMARK    4  A    between atoms: C8_8  and  N9_9 
ROOT
HETATM    1  C1  UNL     1     -35.734  15.211  -5.997  1.00 20.00     0.158 C 
HETATM    2  N9  UNL     1     -35.943  15.659  -4.934  1.00 20.00    -0.270 NA
HETATM    3  S10 UNL     1     -35.484  14.608  -7.450  1.00 20.00    -0.055 SA
ENDROOT
BRANCH   2   4
HETATM    4  C8  UNL     1     -34.774  15.690  -4.042  1.00 20.00     0.109 C 
BRANCH   4   5
HETATM    5  C6  UNL     1     -35.004  16.766  -2.973  1.00 20.00     0.032 C 
BRANCH   5   6
HETATM    6  C4  UNL     1     -34.223  16.493  -1.693  1.00 20.00    -0.013 A 
HETATM    7  C2  UNL     1     -33.578  17.625  -0.943  1.00 20.00     0.005 A 
HETATM    8  C3  UNL     1     -34.776  16.924  -0.364  1.00 20.00     0.005 A 
ENDBRANCH   5   6
ENDBRANCH   4   5
BRANCH   4   9
HETATM    9  C7  UNL     1     -34.612  14.308  -3.400  1.00 20.00     0.023 C 
HETATM   10  C5  UNL     1     -33.307  13.658  -3.756  1.00 20.00     0.007 C 
ENDBRANCH   4   9
ENDBRANCH   2   4
TORSDOF 4
ENDMDL
MODEL 4
REMARK VINA RESULT:      -3.8      2.944      4.523
REMARK  4 active torsions:
REMARK  status: ('A' for Active; 'I' for Inactive)
REMARK    1  A    between atoms: C4_4  and  C6_6 
REMARK    2  A    between atoms: C6_6  and  C8_8 
REMARK    3  A    between atoms: C7_7  and  C8_8 
REMARK    4  A    between atoms: C8_8  and  N9_9 
ROOT
HETATM    1  C1  UNL     1     -33.741  18.160  -4.288  1.00 20.00     0.158 C 
HETATM    2  N9  UNL     1     -33.683  17.603  -3.257  1.00 20.00    -0.270 NA
HETATM    3  S10 UNL     1     -33.786  18.926  -5.683  1.00 20.00    -0.055 SA
ENDROOT
BRANCH   2   4
HETATM    4  C8  UNL     1     -34.930  16.940  -2.848  1.00 20.00     0.109 C 
BRANCH   4   5
HETATM    5  C6  UNL     1     -35.256  15.840  -3.866  1.00 20.00     0.032 C 
BRANCH   5   6
HETATM    6  C4  UNL     1     -34.836  14.457  -3.384  1.00 20.00    -0.013 A 
HETATM    7  C2  UNL     1     -34.929  13.273  -4.307  1.00 20.00     0.005 A 
HETATM    8  C3  UNL     1     -33.583  13.819  -3.916  1.00 20.00     0.005 A 
ENDBRANCH   5   6
ENDBRANCH   4   5
BRANCH   4   9
HETATM    9  C7  UNL     1     -34.733  16.349  -1.448  1.00 20.00     0.023 C 
HETATM   10  C5  UNL     1     -34.257  17.368  -0.454  1.00 20.00     0.007 C 
ENDBRANCH   4   9
ENDBRANCH   2   4
TORSDOF 4
ENDMDL
MODEL 5
REMARK VINA RESULT:      -3.8      2.583      3.055
REMARK  4 active torsions:
REMARK  status: ('A' for Active; 'I' for Inactive)
REMARK    1  A    between atoms: C4_4  and  C6_6 
REMARK    2  A    between atoms: C6_6  and  C8_8 
REMARK    3  A    between atoms: C7_7  and  C8_8 
REMARK    4  A    between atoms: C8_8  and  N9_9 
ROOT
HETATM    1  C1  UNL     1     -35.009  14.501  -5.943  1.00 20.00     0.158 C 
HETATM    2  N9  UNL     1     -34.737  14.467  -4.803  1.00 20.00    -0.270 NA
HETATM    3  S10 UNL     1     -35.379  14.512  -7.492  1.00 20.00    -0.055 SA
ENDROOT
BRANCH   2   4
HETATM    4  C8  UNL     1     -34.569  15.785  -4.173  1.00 20.00     0.109 C 
BRANCH   4   5
HETATM    5  C6  UNL     1     -34.451  15.591  -2.657  1.00 20.00     0.032 C 
BRANCH   5   6
HETATM    6  C4  UNL     1     -34.676  16.886  -1.884  1.00 20.00    -0.013 A 
HETATM    7  C2  UNL     1     -34.755  16.867  -0.382  1.00 20.00     0.005 A 
HETATM    8  C3  UNL     1     -33.564  17.480  -1.066  1.00 20.00     0.005 A 
ENDBRANCH   5   6
ENDBRANCH   4   5
BRANCH   4   9
HETATM    9  C7  UNL     1     -33.305  16.441  -4.741  1.00 20.00     0.023 C 
HETATM   10  C5  UNL     1     -33.575  17.789  -5.341  1.00 20.00     0.007 C 
ENDBRANCH   4   9
ENDBRANCH   2   4
TORSDOF 4
ENDMDL
MODEL 6
REMARK VINA RESULT:      -3.7      2.898      4.473
REMARK  4 active torsions:
REMARK  status: ('A' for Active; 'I' for Inactive)
REMARK    1  A    between atoms: C4_4  and  C6_6 
REMARK    2  A    between atoms: C6_6  and  C8_8 
REMARK    3  A    between atoms: C7_7  and  C8_8 
REMARK    4  A    between atoms: C8_8  and  N9_9 
ROOT
HETATM    1  C1  UNL     1     -34.737  16.832  -0.572  1.00 20.00     0.158 C 
HETATM    2  N9  UNL     1     -34.657  16.117  -1.498  1.00 20.00    -0.270 NA
HETATM    3  S10 UNL     1     -34.872  17.783   0.699  1.00 20.00    -0.055 SA
ENDROOT
BRANCH   2   4
HETATM    4  C8  UNL     1     -33.598  16.471  -2.455  1.00 20.00     0.109 C 
BRANCH   4   5
HETATM    5  C6  UNL     1     -33.517  15.372  -3.522  1.00 20.00     0.032 C 
BRANCH   5   6
HETATM    6  C4  UNL     1     -34.667  14.377  -3.423  1.00 20.00    -0.013 A 
HETATM    7  C2  UNL     1     -35.754  14.371  -4.462  1.00 20.00     0.005 A 
HETATM    8  C3  UNL     1     -34.767  13.239  -4.399  1.00 20.00     0.005 A 
ENDBRANCH   5   6
ENDBRANCH   4   5
BRANCH   4   9
HETATM    9  C7  UNL     1     -33.942  17.824  -3.087  1.00 20.00     0.023 C 
HETATM   10  C5  UNL     1     -33.673  17.854  -4.563  1.00 20.00     0.007 C 
ENDBRANCH   4   9
ENDBRANCH   2   4
TORSDOF 4
ENDMDL
MODEL 7
REMARK VINA RESULT:      -3.7      3.376      4.563
REMARK  4 active torsions:
REMARK  status: ('A' for Active; 'I' for Inactive)
REMARK    1  A    between atoms: C4_4  and  C6_6 
REMARK    2  A    between atoms: C6_6  and  C8_8 
REMARK    3  A    between atoms: C7_7  and  C8_8 
REMARK    4  A    between atoms: C8_8  and  N9_9 
ROOT
HETATM    1  C1  UNL     1     -34.076  17.121  -2.150  1.00 20.00     0.158 C 
HETATM    2  N9  UNL     1     -33.696  17.302  -3.244  1.00 20.00    -0.270 NA
HETATM    3  S10 UNL     1     -34.584  16.910  -0.655  1.00 20.00    -0.055 SA
ENDROOT
BRANCH   2   4
HETATM    4  C8  UNL     1     -33.811  16.136  -4.133  1.00 20.00     0.109 C 
BRANCH   4   5
HETATM    5  C6  UNL     1     -33.395  16.557  -5.548  1.00 20.00     0.032 C 
BRANCH   5   6
HETATM    6  C4  UNL     1     -34.487  16.296  -6.578  1.00 20.00    -0.013 A 
HETATM    7  C2  UNL     1     -34.516  14.999  -7.339  1.00 20.00     0.005 A 
HETATM    8  C3  UNL     1     -35.564  15.285  -6.300  1.00 20.00     0.005 A 
ENDBRANCH   5   6
ENDBRANCH   4   5
BRANCH   4   9
HETATM    9  C7  UNL     1     -32.898  15.025  -3.602  1.00 20.00     0.023 C 
HETATM   10  C5  UNL     1     -33.486  13.657  -3.790  1.00 20.00     0.007 C 
ENDBRANCH   4   9
ENDBRANCH   2   4
TORSDOF 4
ENDMDL
MODEL 8
REMARK VINA RESULT:      -3.7     11.663     12.290
REMARK  4 active torsions:
REMARK  status: ('A' for Active; 'I' for Inactive)
REMARK    1  A    between atoms: C4_4  and  C6_6 
REMARK    2  A    between atoms: C6_6  and  C8_8 
REMARK    3  A    between atoms: C7_7  and  C8_8 
REMARK    4  A    between atoms: C8_8  and  N9_9 
ROOT
HETATM    1  C1  UNL     1     -31.956   7.861   2.753  1.00 20.00     0.158 C 
HETATM    2  N9  UNL     1     -31.783   7.244   3.735  1.00 20.00    -0.270 NA
HETATM    3  S10 UNL     1     -32.162   8.719   1.427  1.00 20.00    -0.055 SA
ENDROOT
BRANCH   2   4
HETATM    4  C8  UNL     1     -32.747   6.155   3.952  1.00 20.00     0.109 C 
BRANCH   4   5
HETATM    5  C6  UNL     1     -33.923   6.700   4.772  1.00 20.00     0.032 C 
BRANCH   5   6
HETATM    6  C4  UNL     1     -34.122   5.944   6.080  1.00 20.00    -0.013 A 
HETATM    7  C2  UNL     1     -35.256   4.966   6.224  1.00 20.00     0.005 A 
HETATM    8  C3  UNL     1     -33.838   4.470   6.151  1.00 20.00     0.005 A 
ENDBRANCH   5   6
ENDBRANCH   4   5
BRANCH   4   9
HETATM    9  C7  UNL     1     -33.222   5.644   2.587  1.00 20.00     0.023 C 
HETATM   10  C5  UNL     1     -34.672   5.256   2.591  1.00 20.00     0.007 C 
ENDBRANCH   4   9
ENDBRANCH   2   4
TORSDOF 4
ENDMDL
MODEL 9
REMARK VINA RESULT:      -3.6      1.427      2.195
REMARK  4 active torsions:
REMARK  status: ('A' for Active; 'I' for Inactive)
REMARK    1  A    between atoms: C4_4  and  C6_6 
REMARK    2  A    between atoms: C6_6  and  C8_8 
REMARK    3  A    between atoms: C7_7  and  C8_8 
REMARK    4  A    between atoms: C8_8  and  N9_9 
ROOT
HETATM    1  C1  UNL     1     -38.782  14.983  -3.558  1.00 20.00     0.158 C 
HETATM    2  N9  UNL     1     -37.903  14.252  -3.817  1.00 20.00    -0.270 NA
HETATM    3  S10 UNL     1     -39.997  15.949  -3.200  1.00 20.00    -0.055 SA
ENDROOT
BRANCH   2   4
HETATM    4  C8  UNL     1     -36.633  14.913  -4.148  1.00 20.00     0.109 C 
BRANCH   4   5
HETATM    5  C6  UNL     1     -35.533  13.848  -4.229  1.00 20.00     0.032 C 
BRANCH   5   6
HETATM    6  C4  UNL     1     -34.343  14.168  -3.332  1.00 20.00    -0.013 A 
HETATM    7  C2  UNL     1     -33.212  15.014  -3.848  1.00 20.00     0.005 A 
HETATM    8  C3  UNL     1     -34.147  15.563  -2.806  1.00 20.00     0.005 A 
ENDBRANCH   5   6
ENDBRANCH   4   5
BRANCH   4   9
HETATM    9  C7  UNL     1     -36.793  15.637  -5.490  1.00 20.00     0.023 C 
HETATM   10  C5  UNL     1     -36.068  14.945  -6.607  1.00 20.00     0.007 C 
ENDBRANCH   4   9
ENDBRANCH   2   4
TORSDOF 4
ENDMDL
