MODEL 1
REMARK VINA RESULT:      -5.1      0.000      0.000
REMARK  3 active torsions:
REMARK  status: ('A' for Active; 'I' for Inactive)
REMARK    1  A    between atoms: C2_2  and  C3_3 
REMARK    2  A    between atoms: C3_3  and  C11_11 
REMARK    3  A    between atoms: C11_11  and  C12_12 
ROOT
HETATM    1  C3  UNL     1     -33.874  16.700  -3.204  1.00 20.00     0.159 C 
HETATM    2  O13 UNL     1     -33.797  17.421  -4.196  1.00 20.00    -0.292 OA
ENDROOT
BRANCH   1   3
HETATM    3  C2  UNL     1     -33.949  17.309  -1.874  1.00 20.00    -0.016 C 
HETATM    4  C1  UNL     1     -33.388  18.516  -1.708  1.00 20.00    -0.016 C 
HETATM    5  C4  UNL     1     -33.392  19.234  -0.389  1.00 20.00     0.028 C 
HETATM    6  C6  UNL     1     -33.806  18.343   0.786  1.00 20.00     0.004 C 
HETATM    7  C7  UNL     1     -34.989  17.451   0.418  1.00 20.00     0.005 C 
HETATM    8  C5  UNL     1     -34.663  16.564  -0.786  1.00 20.00     0.042 C 
ENDBRANCH   1   3
BRANCH   1   9
HETATM    9  C11 UNL     1     -33.912  15.174  -3.276  1.00 20.00     0.059 C 
HETATM   10  C8  UNL     1     -32.517  14.627  -3.585  1.00 20.00     0.018 C 
BRANCH   9  11
HETATM   11  C12 UNL     1     -35.018  14.704  -4.254  1.00 20.00    -0.012 C 
HETATM   12  C9  UNL     1     -34.819  13.272  -4.761  1.00 20.00     0.010 C 
HETATM   13  C10 UNL     1     -36.410  14.844  -3.633  1.00 20.00     0.010 C 
ENDBRANCH   9  11
ENDBRANCH   1   9
TORSDOF 3
ENDMDL
MODEL 2
REMARK VINA RESULT:      -5.0      0.286      1.423
REMARK  3 active torsions:
REMARK  status: ('A' for Active; 'I' for Inactive)
REMARK    1  A    between atoms: C2_2  and  C3_3 
REMARK    2  A    between atoms: C3_3  and  C11_11 
REMARK    3  A    between atoms: C11_11  and  C12_12 
ROOT
HETATM    1  C3  UNL     1     -33.794  16.644  -3.233  1.00 20.00     0.159 C 
HETATM    2  O13 UNL     1     -33.596  17.328  -4.236  1.00 20.00    -0.292 OA
ENDROOT
BRANCH   1   3
HETATM    3  C2  UNL     1     -33.948  17.300  -1.933  1.00 20.00    -0.016 C 
HETATM    4  C1  UNL     1     -34.636  16.649  -0.984  1.00 20.00    -0.016 C 
HETATM    5  C4  UNL     1     -34.868  17.224   0.384  1.00 20.00     0.028 C 
HETATM    6  C6  UNL     1     -34.527  18.714   0.481  1.00 20.00     0.004 C 
HETATM    7  C7  UNL     1     -33.228  19.037  -0.253  1.00 20.00     0.005 C 
HETATM    8  C5  UNL     1     -33.313  18.643  -1.730  1.00 20.00     0.042 C 
ENDBRANCH   1   3
BRANCH   1   9
HETATM    9  C11 UNL     1     -33.904  15.120  -3.265  1.00 20.00     0.059 C 
HETATM   10  C8  UNL     1     -32.532  14.499  -3.532  1.00 20.00     0.018 C 
BRANCH   9  11
HETATM   11  C12 UNL     1     -35.014  14.677  -4.252  1.00 20.00    -0.012 C 
HETATM   12  C9  UNL     1     -34.832  13.248  -4.775  1.00 20.00     0.010 C 
HETATM   13  C10 UNL     1     -36.406  14.827  -3.632  1.00 20.00     0.010 C 
ENDBRANCH   9  11
ENDBRANCH   1   9
TORSDOF 3
ENDMDL
MODEL 3
REMARK VINA RESULT:      -4.8      2.078      5.353
REMARK  3 active torsions:
REMARK  status: ('A' for Active; 'I' for Inactive)
REMARK    1  A    between atoms: C2_2  and  C3_3 
REMARK    2  A    between atoms: C3_3  and  C11_11 
REMARK    3  A    between atoms: C11_11  and  C12_12 
ROOT
HETATM    1  C3  UNL     1     -33.556  15.210  -3.743  1.00 20.00     0.159 C 
HETATM    2  O13 UNL     1     -32.401  14.825  -3.573  1.00 20.00    -0.292 OA
ENDROOT
BRANCH   1   3
HETATM    3  C2  UNL     1     -34.083  15.327  -5.105  1.00 20.00    -0.016 C 
HETATM    4  C1  UNL     1     -34.738  14.274  -5.613  1.00 20.00    -0.016 C 
HETATM    5  C4  UNL     1     -35.313  14.273  -7.000  1.00 20.00     0.028 C 
HETATM    6  C6  UNL     1     -34.818  15.437  -7.864  1.00 20.00     0.004 C 
HETATM    7  C7  UNL     1     -34.784  16.742  -7.071  1.00 20.00     0.005 C 
HETATM    8  C5  UNL     1     -33.882  16.619  -5.839  1.00 20.00     0.042 C 
ENDBRANCH   1   3
BRANCH   1   9
HETATM    9  C11 UNL     1     -34.499  15.569  -2.596  1.00 20.00     0.059 C 
HETATM   10  C8  UNL     1     -35.904  15.844  -3.136  1.00 20.00     0.018 C 
BRANCH   9  11
HETATM   11  C12 UNL     1     -33.903  16.716  -1.742  1.00 20.00    -0.012 C 
HETATM   12  C9  UNL     1     -33.824  18.054  -2.484  1.00 20.00     0.010 C 
HETATM   13  C10 UNL     1     -34.673  16.896  -0.431  1.00 20.00     0.010 C 
ENDBRANCH   9  11
ENDBRANCH   1   9
TORSDOF 3
ENDMDL
MODEL 4
REMARK VINA RESULT:      -4.8      1.638      2.534
REMARK  3 active torsions:
REMARK  status: ('A' for Active; 'I' for Inactive)
REMARK    1  A    between atoms: C2_2  and  C3_3 
REMARK    2  A    between atoms: C3_3  and  C11_11 
REMARK    3  A    between atoms: C11_11  and  C12_12 
ROOT
HETATM    1  C3  UNL     1     -33.668  15.458  -3.657  1.00 20.00     0.159 C 
HETATM    2  O13 UNL     1     -32.531  14.991  -3.694  1.00 20.00    -0.292 OA
ENDROOT
BRANCH   1   3
HETATM    3  C2  UNL     1     -33.981  16.516  -2.693  1.00 20.00    -0.016 C 
HETATM    4  C1  UNL     1     -34.498  16.150  -1.511  1.00 20.00    -0.016 C 
HETATM    5  C4  UNL     1     -34.868  17.145  -0.449  1.00 20.00     0.028 C 
HETATM    6  C6  UNL     1     -34.895  18.591  -0.954  1.00 20.00     0.004 C 
HETATM    7  C7  UNL     1     -33.707  18.883  -1.868  1.00 20.00     0.005 C 
HETATM    8  C5  UNL     1     -33.687  17.937  -3.072  1.00 20.00     0.042 C 
ENDBRANCH   1   3
BRANCH   1   9
HETATM    9  C11 UNL     1     -34.794  15.002  -4.583  1.00 20.00     0.059 C 
HETATM   10  C8  UNL     1     -35.270  13.603  -4.184  1.00 20.00     0.018 C 
BRANCH   9  11
HETATM   11  C12 UNL     1     -34.364  15.135  -6.066  1.00 20.00    -0.012 C 
HETATM   12  C9  UNL     1     -35.280  14.386  -7.039  1.00 20.00     0.010 C 
HETATM   13  C10 UNL     1     -34.254  16.603  -6.486  1.00 20.00     0.010 C 
ENDBRANCH   9  11
ENDBRANCH   1   9
TORSDOF 3
ENDMDL
MODEL 5
REMARK VINA RESULT:      -4.7      0.966      2.026
REMARK  3 active torsions:
REMARK  status: ('A' for Active; 'I' for Inactive)
REMARK    1  A    between atoms: C2_2  and  C3_3 
REMARK    2  A    between atoms: C3_3  and  C11_11 
REMARK    3  A    between atoms: C11_11  and  C12_12 
ROOT
HETATM    1  C3  UNL     1     -34.367  17.351  -3.102  1.00 20.00     0.159 C 
HETATM    2  O13 UNL     1     -35.183  17.982  -3.771  1.00 20.00    -0.292 OA
ENDROOT
BRANCH   1   3
HETATM    3  C2  UNL     1     -34.184  17.683  -1.688  1.00 20.00    -0.016 C 
HETATM    4  C1  UNL     1     -34.992  17.089  -0.798  1.00 20.00    -0.016 C 
HETATM    5  C4  UNL     1     -34.905  17.358   0.677  1.00 20.00     0.028 C 
HETATM    6  C6  UNL     1     -34.045  18.578   1.022  1.00 20.00     0.004 C 
HETATM    7  C7  UNL     1     -32.771  18.616   0.181  1.00 20.00     0.005 C 
HETATM    8  C5  UNL     1     -33.095  18.645  -1.315  1.00 20.00     0.042 C 
ENDBRANCH   1   3
BRANCH   1   9
HETATM    9  C11 UNL     1     -33.523  16.209  -3.666  1.00 20.00     0.059 C 
HETATM   10  C8  UNL     1     -33.305  16.407  -5.168  1.00 20.00     0.018 C 
BRANCH   9  11
HETATM   11  C12 UNL     1     -34.138  14.839  -3.281  1.00 20.00    -0.012 C 
HETATM   12  C9  UNL     1     -35.535  14.609  -3.867  1.00 20.00     0.010 C 
HETATM   13  C10 UNL     1     -33.216  13.682  -3.675  1.00 20.00     0.010 C 
ENDBRANCH   9  11
ENDBRANCH   1   9
TORSDOF 3
ENDMDL
MODEL 6
REMARK VINA RESULT:      -4.6      1.462      1.883
REMARK  3 active torsions:
REMARK  status: ('A' for Active; 'I' for Inactive)
REMARK    1  A    between atoms: C2_2  and  C3_3 
REMARK    2  A    between atoms: C3_3  and  C11_11 
REMARK    3  A    between atoms: C11_11  and  C12_12 
ROOT
HETATM    1  C3  UNL     1     -35.121  16.362  -4.158  1.00 20.00     0.159 C 
HETATM    2  O13 UNL     1     -36.315  16.478  -4.430  1.00 20.00    -0.292 OA
ENDROOT
BRANCH   1   3
HETATM    3  C2  UNL     1     -34.604  16.949  -2.920  1.00 20.00    -0.016 C 
HETATM    4  C1  UNL     1     -33.953  18.117  -3.008  1.00 20.00    -0.016 C 
HETATM    5  C4  UNL     1     -33.369  18.809  -1.810  1.00 20.00     0.028 C 
HETATM    6  C6  UNL     1     -33.315  17.921  -0.563  1.00 20.00     0.004 C 
HETATM    7  C7  UNL     1     -34.597  17.107  -0.404  1.00 20.00     0.005 C 
HETATM    8  C5  UNL     1     -34.850  16.225  -1.630  1.00 20.00     0.042 C 
ENDBRANCH   1   3
BRANCH   1   9
HETATM    9  C11 UNL     1     -34.127  15.615  -5.046  1.00 20.00     0.059 C 
HETATM   10  C8  UNL     1     -34.425  15.895  -6.520  1.00 20.00     0.018 C 
BRANCH   9  11
HETATM   11  C12 UNL     1     -34.089  14.111  -4.671  1.00 20.00    -0.012 C 
HETATM   12  C9  UNL     1     -33.056  13.776  -3.590  1.00 20.00     0.010 C 
HETATM   13  C10 UNL     1     -35.469  13.607  -4.242  1.00 20.00     0.010 C 
ENDBRANCH   9  11
ENDBRANCH   1   9
TORSDOF 3
ENDMDL
MODEL 7
REMARK VINA RESULT:      -4.6      1.361      5.054
REMARK  3 active torsions:
REMARK  status: ('A' for Active; 'I' for Inactive)
REMARK    1  A    between atoms: C2_2  and  C3_3 
REMARK    2  A    between atoms: C3_3  and  C11_11 
REMARK    3  A    between atoms: C11_11  and  C12_12 
ROOT
HETATM    1  C3  UNL     1     -35.428  17.124  -1.828  1.00 20.00     0.159 C 
HETATM    2  O13 UNL     1     -36.457  17.777  -1.986  1.00 20.00    -0.292 OA
ENDROOT
BRANCH   1   3
HETATM    3  C2  UNL     1     -35.183  15.949  -2.667  1.00 20.00    -0.016 C 
HETATM    4  C1  UNL     1     -36.238  15.383  -3.270  1.00 20.00    -0.016 C 
HETATM    5  C4  UNL     1     -36.113  14.169  -4.146  1.00 20.00     0.028 C 
HETATM    6  C6  UNL     1     -34.753  13.475  -4.029  1.00 20.00     0.004 C 
HETATM    7  C7  UNL     1     -33.612  14.489  -3.992  1.00 20.00     0.005 C 
HETATM    8  C5  UNL     1     -33.773  15.463  -2.822  1.00 20.00     0.042 C 
ENDBRANCH   1   3
BRANCH   1   9
HETATM    9  C11 UNL     1     -34.358  17.480  -0.796  1.00 20.00     0.059 C 
HETATM   10  C8  UNL     1     -34.917  17.316   0.619  1.00 20.00     0.018 C 
BRANCH   9  11
HETATM   11  C12 UNL     1     -33.762  18.879  -1.093  1.00 20.00    -0.012 C 
HETATM   12  C9  UNL     1     -32.527  19.210  -0.249  1.00 20.00     0.010 C 
HETATM   13  C10 UNL     1     -33.430  19.041  -2.579  1.00 20.00     0.010 C 
ENDBRANCH   9  11
ENDBRANCH   1   9
TORSDOF 3
ENDMDL
MODEL 8
REMARK VINA RESULT:      -4.6      2.133      3.041
REMARK  3 active torsions:
REMARK  status: ('A' for Active; 'I' for Inactive)
REMARK    1  A    between atoms: C2_2  and  C3_3 
REMARK    2  A    between atoms: C3_3  and  C11_11 
REMARK    3  A    between atoms: C11_11  and  C12_12 
ROOT
HETATM    1  C3  UNL     1     -36.022  14.688  -3.831  1.00 20.00     0.159 C 
HETATM    2  O13 UNL     1     -37.074  14.056  -3.753  1.00 20.00    -0.292 OA
ENDROOT
BRANCH   1   3
HETATM    3  C2  UNL     1     -35.805  15.838  -2.950  1.00 20.00    -0.016 C 
HETATM    4  C1  UNL     1     -34.888  15.717  -1.980  1.00 20.00    -0.016 C 
HETATM    5  C4  UNL     1     -34.585  16.823  -1.011  1.00 20.00     0.028 C 
HETATM    6  C6  UNL     1     -35.620  17.952  -1.037  1.00 20.00     0.004 C 
HETATM    7  C7  UNL     1     -36.025  18.303  -2.467  1.00 20.00     0.005 C 
HETATM    8  C5  UNL     1     -36.601  17.085  -3.195  1.00 20.00     0.042 C 
ENDBRANCH   1   3
BRANCH   1   9
HETATM    9  C11 UNL     1     -34.898  14.332  -4.803  1.00 20.00     0.059 C 
HETATM   10  C8  UNL     1     -33.731  13.695  -4.046  1.00 20.00     0.018 C 
BRANCH   9  11
HETATM   11  C12 UNL     1     -34.513  15.563  -5.662  1.00 20.00    -0.012 C 
HETATM   12  C9  UNL     1     -33.226  16.253  -5.199  1.00 20.00     0.010 C 
HETATM   13  C10 UNL     1     -34.399  15.197  -7.144  1.00 20.00     0.010 C 
ENDBRANCH   9  11
ENDBRANCH   1   9
TORSDOF 3
ENDMDL
MODEL 9
REMARK VINA RESULT:      -4.6      1.215      4.823
REMARK  3 active torsions:
REMARK  status: ('A' for Active; 'I' for Inactive)
REMARK    1  A    between atoms: C2_2  and  C3_3 
REMARK    2  A    between atoms: C3_3  and  C11_11 
REMARK    3  A    between atoms: C11_11  and  C12_12 
ROOT
HETATM    1  C3  UNL     1     -34.839  17.297  -2.931  1.00 20.00     0.159 C 
HETATM    2  O13 UNL     1     -34.406  18.227  -3.609  1.00 20.00    -0.292 OA
ENDROOT
BRANCH   1   3
HETATM    3  C2  UNL     1     -34.689  15.922  -3.412  1.00 20.00    -0.016 C 
HETATM    4  C1  UNL     1     -33.484  15.348  -3.292  1.00 20.00    -0.016 C 
HETATM    5  C4  UNL     1     -33.207  13.947  -3.758  1.00 20.00     0.028 C 
HETATM    6  C6  UNL     1     -34.315  13.373  -4.646  1.00 20.00     0.004 C 
HETATM    7  C7  UNL     1     -35.699  13.717  -4.100  1.00 20.00     0.005 C 
HETATM    8  C5  UNL     1     -35.890  15.232  -3.987  1.00 20.00     0.042 C 
ENDBRANCH   1   3
BRANCH   1   9
HETATM    9  C11 UNL     1     -35.528  17.494  -1.581  1.00 20.00     0.059 C 
HETATM   10  C8  UNL     1     -36.193  18.870  -1.524  1.00 20.00     0.018 C 
BRANCH   9  11
HETATM   11  C12 UNL     1     -34.539  17.209  -0.421  1.00 20.00    -0.012 C 
HETATM   12  C9  UNL     1     -33.242  18.019  -0.511  1.00 20.00     0.010 C 
HETATM   13  C10 UNL     1     -35.197  17.435   0.942  1.00 20.00     0.010 C 
ENDBRANCH   9  11
ENDBRANCH   1   9
TORSDOF 3
ENDMDL
