MODEL 1
REMARK VINA RESULT:      -4.2      0.000      0.000
REMARK  2 active torsions:
REMARK  status: ('A' for Active; 'I' for Inactive)
REMARK    1  A    between atoms: C4_4  and  C5_5 
REMARK    2  A    between atoms: C5_5  and  N6_6 
ROOT
HETATM    1  C1  UNL     1     -34.910   4.363   5.815  1.00 20.00     0.012 C 
HETATM    2  C2  UNL     1     -34.647   5.220   5.017  1.00 20.00    -0.116 C 
HETATM    3  C4  UNL     1     -34.332   6.273   4.040  1.00 20.00     0.115 C 
ENDROOT
BRANCH   3   4
HETATM    4  C5  UNL     1     -33.076   5.947   3.241  1.00 20.00     0.162 C 
BRANCH   4   5
HETATM    5  N6  UNL     1     -32.101   7.031   3.386  1.00 20.00    -0.275 NA
HETATM    6  C3  UNL     1     -32.084   7.800   2.501  1.00 20.00     0.157 C 
HETATM    7  S7  UNL     1     -32.039   8.861   1.313  1.00 20.00    -0.055 SA
ENDBRANCH   4   5
ENDBRANCH   3   4
TORSDOF 2
ENDMDL
MODEL 2
REMARK VINA RESULT:      -4.1      2.833      4.613
REMARK  2 active torsions:
REMARK  status: ('A' for Active; 'I' for Inactive)
REMARK    1  A    between atoms: C4_4  and  C5_5 
REMARK    2  A    between atoms: C5_5  and  N6_6 
ROOT
HETATM    1  C1  UNL     1     -32.145   8.953   1.172  1.00 20.00     0.012 C 
HETATM    2  C2  UNL     1     -32.030   8.206   2.106  1.00 20.00    -0.116 C 
HETATM    3  C4  UNL     1     -31.883   7.295   3.250  1.00 20.00     0.115 C 
ENDROOT
BRANCH   3   4
HETATM    4  C5  UNL     1     -32.875   6.141   3.188  1.00 20.00     0.162 C 
BRANCH   4   5
HETATM    5  N6  UNL     1     -34.045   6.447   4.016  1.00 20.00    -0.275 NA
HETATM    6  C3  UNL     1     -34.363   5.592   4.754  1.00 20.00     0.157 C 
HETATM    7  S7  UNL     1     -34.818   4.448   5.766  1.00 20.00    -0.055 SA
ENDBRANCH   4   5
ENDBRANCH   3   4
TORSDOF 2
ENDMDL
MODEL 3
REMARK VINA RESULT:      -4.0      1.228      1.414
REMARK  2 active torsions:
REMARK  status: ('A' for Active; 'I' for Inactive)
REMARK    1  A    between atoms: C4_4  and  C5_5 
REMARK    2  A    between atoms: C5_5  and  N6_6 
ROOT
HETATM    1  C1  UNL     1     -34.011   6.568   6.641  1.00 20.00     0.012 C 
HETATM    2  C2  UNL     1     -34.343   5.897   5.702  1.00 20.00    -0.116 C 
HETATM    3  C4  UNL     1     -34.751   5.071   4.557  1.00 20.00     0.115 C 
ENDROOT
BRANCH   3   4
HETATM    4  C5  UNL     1     -34.206   5.616   3.242  1.00 20.00     0.162 C 
BRANCH   4   5
HETATM    5  N6  UNL     1     -32.805   6.009   3.411  1.00 20.00    -0.275 NA
HETATM    6  C3  UNL     1     -32.490   6.976   2.825  1.00 20.00     0.157 C 
HETATM    7  S7  UNL     1     -32.034   8.286   2.041  1.00 20.00    -0.055 SA
ENDBRANCH   4   5
ENDBRANCH   3   4
TORSDOF 2
ENDMDL
MODEL 4
REMARK VINA RESULT:      -3.9      1.904      2.417
REMARK  2 active torsions:
REMARK  status: ('A' for Active; 'I' for Inactive)
REMARK    1  A    between atoms: C4_4  and  C5_5 
REMARK    2  A    between atoms: C5_5  and  N6_6 
ROOT
HETATM    1  C1  UNL     1     -33.790   6.890   6.763  1.00 20.00     0.012 C 
HETATM    2  C2  UNL     1     -34.315   6.009   6.139  1.00 20.00    -0.116 C 
HETATM    3  C4  UNL     1     -34.957   4.926   5.381  1.00 20.00     0.115 C 
ENDROOT
BRANCH   3   4
HETATM    4  C5  UNL     1     -35.367   5.377   3.984  1.00 20.00     0.162 C 
BRANCH   4   5
HETATM    5  N6  UNL     1     -34.266   5.147   3.045  1.00 20.00    -0.275 NA
HETATM    6  C3  UNL     1     -33.424   5.963   3.063  1.00 20.00     0.157 C 
HETATM    7  S7  UNL     1     -32.265   7.057   3.066  1.00 20.00    -0.055 SA
ENDBRANCH   4   5
ENDBRANCH   3   4
TORSDOF 2
ENDMDL
MODEL 5
REMARK VINA RESULT:      -3.6      1.367      1.685
REMARK  2 active torsions:
REMARK  status: ('A' for Active; 'I' for Inactive)
REMARK    1  A    between atoms: C4_4  and  C5_5 
REMARK    2  A    between atoms: C5_5  and  N6_6 
ROOT
HETATM    1  C1  UNL     1     -35.161   3.805   5.269  1.00 20.00     0.012 C 
HETATM    2  C2  UNL     1     -34.800   4.833   5.774  1.00 20.00    -0.116 C 
HETATM    3  C4  UNL     1     -34.362   6.091   6.396  1.00 20.00     0.115 C 
ENDROOT
BRANCH   3   4
HETATM    4  C5  UNL     1     -33.320   6.811   5.549  1.00 20.00     0.162 C 
BRANCH   4   5
HETATM    5  N6  UNL     1     -33.345   6.287   4.181  1.00 20.00    -0.275 NA
HETATM    6  C3  UNL     1     -32.796   6.954   3.388  1.00 20.00     0.157 C 
HETATM    7  S7  UNL     1     -32.056   7.840   2.289  1.00 20.00    -0.055 SA
ENDBRANCH   4   5
ENDBRANCH   3   4
TORSDOF 2
ENDMDL
MODEL 6
REMARK VINA RESULT:      -3.6     10.918     11.463
REMARK  2 active torsions:
REMARK  status: ('A' for Active; 'I' for Inactive)
REMARK    1  A    between atoms: C4_4  and  C5_5 
REMARK    2  A    between atoms: C5_5  and  N6_6 
ROOT
HETATM    1  C1  UNL     1     -34.440  16.604  -1.132  1.00 20.00     0.012 C 
HETATM    2  C2  UNL     1     -34.780  15.909  -2.051  1.00 20.00    -0.116 C 
HETATM    3  C4  UNL     1     -35.203  15.062  -3.175  1.00 20.00     0.115 C 
ENDROOT
BRANCH   3   4
HETATM    4  C5  UNL     1     -34.243  13.900  -3.402  1.00 20.00     0.162 C 
BRANCH   4   5
HETATM    5  N6  UNL     1     -34.739  13.052  -4.488  1.00 20.00    -0.275 NA
HETATM    6  C3  UNL     1     -34.934  13.611  -5.501  1.00 20.00     0.157 C 
HETATM    7  S7  UNL     1     -35.207  14.345  -6.889  1.00 20.00    -0.055 SA
ENDBRANCH   4   5
ENDBRANCH   3   4
TORSDOF 2
ENDMDL
MODEL 7
REMARK VINA RESULT:      -3.5      2.991      4.001
REMARK  2 active torsions:
REMARK  status: ('A' for Active; 'I' for Inactive)
REMARK    1  A    between atoms: C4_4  and  C5_5 
REMARK    2  A    between atoms: C5_5  and  N6_6 
ROOT
HETATM    1  C1  UNL     1     -32.479   6.203   2.968  1.00 20.00     0.012 C 
HETATM    2  C2  UNL     1     -33.581   5.859   3.300  1.00 20.00    -0.116 C 
HETATM    3  C4  UNL     1     -34.933   5.444   3.703  1.00 20.00     0.115 C 
ENDROOT
BRANCH   3   4
HETATM    4  C5  UNL     1     -34.898   4.359   4.771  1.00 20.00     0.162 C 
BRANCH   4   5
HETATM    5  N6  UNL     1     -35.171   4.947   6.085  1.00 20.00    -0.275 NA
HETATM    6  C3  UNL     1     -34.495   5.864   6.365  1.00 20.00     0.157 C 
HETATM    7  S7  UNL     1     -33.592   7.113   6.771  1.00 20.00    -0.055 SA
ENDBRANCH   4   5
ENDBRANCH   3   4
TORSDOF 2
ENDMDL
MODEL 8
REMARK VINA RESULT:      -3.5     11.233     11.423
REMARK  2 active torsions:
REMARK  status: ('A' for Active; 'I' for Inactive)
REMARK    1  A    between atoms: C4_4  and  C5_5 
REMARK    2  A    between atoms: C5_5  and  N6_6 
ROOT
HETATM    1  C1  UNL     1     -34.625  17.393   0.213  1.00 20.00     0.012 C 
HETATM    2  C2  UNL     1     -34.675  16.744  -0.796  1.00 20.00    -0.116 C 
HETATM    3  C4  UNL     1     -34.739  15.946  -2.028  1.00 20.00     0.115 C 
ENDROOT
BRANCH   3   4
HETATM    4  C5  UNL     1     -33.648  16.339  -3.016  1.00 20.00     0.162 C 
BRANCH   4   5
HETATM    5  N6  UNL     1     -33.002  15.135  -3.547  1.00 20.00    -0.275 NA
HETATM    6  C3  UNL     1     -33.730  14.372  -4.063  1.00 20.00     0.157 C 
HETATM    7  S7  UNL     1     -34.694  13.319  -4.770  1.00 20.00    -0.055 SA
ENDBRANCH   4   5
ENDBRANCH   3   4
TORSDOF 2
ENDMDL
MODEL 9
REMARK VINA RESULT:      -3.4     11.865     12.225
REMARK  2 active torsions:
REMARK  status: ('A' for Active; 'I' for Inactive)
REMARK    1  A    between atoms: C4_4  and  C5_5 
REMARK    2  A    between atoms: C5_5  and  N6_6 
ROOT
HETATM    1  C1  UNL     1     -34.506  16.817  -0.890  1.00 20.00     0.012 C 
HETATM    2  C2  UNL     1     -34.477  16.092  -1.846  1.00 20.00    -0.116 C 
HETATM    3  C4  UNL     1     -34.446  15.201  -3.016  1.00 20.00     0.115 C 
ENDROOT
BRANCH   3   4
HETATM    4  C5  UNL     1     -33.075  15.183  -3.679  1.00 20.00     0.162 C 
BRANCH   4   5
HETATM    5  N6  UNL     1     -32.933  16.346  -4.558  1.00 20.00    -0.275 NA
HETATM    6  C3  UNL     1     -33.606  16.323  -5.519  1.00 20.00     0.157 C 
HETATM    7  S7  UNL     1     -34.509  16.318  -6.832  1.00 20.00    -0.055 SA
ENDBRANCH   4   5
ENDBRANCH   3   4
TORSDOF 2
ENDMDL
