MODEL 1
REMARK VINA RESULT:      -4.0      0.000      0.000
REMARK  1 active torsions:
REMARK  status: ('A' for Active; 'I' for Inactive)
REMARK    1  A    between atoms: C7_7  and  N9_9 
ROOT
HETATM    1  C1  UNL     1     -34.144  13.687  -4.108  1.00 20.00     0.089 C 
HETATM    2  C7  UNL     1     -33.325  14.829  -3.703  1.00 20.00     0.396 C 
HETATM    3  N8  UNL     1     -34.790  12.779  -4.430  1.00 20.00    -0.195 NA
ENDROOT
BRANCH   2   4
HETATM    4  N9  UNL     1     -34.143  16.035  -3.568  1.00 20.00     0.107 N 
HETATM    5  C2  UNL     1     -34.155  16.798  -4.818  1.00 20.00     0.284 C 
HETATM    6  C3  UNL     1     -35.264  17.849  -4.818  1.00 20.00     0.104 C 
HETATM    7  S10 UNL     1     -35.209  18.997  -3.410  1.00 20.00    -0.165 SA
HETATM    8  C4  UNL     1     -33.731  18.352  -2.577  1.00 20.00     0.109 C 
HETATM    9  C5  UNL     1     -33.744  16.824  -2.384  1.00 20.00     0.229 C 
HETATM   10  C6  UNL     1     -34.662  16.429  -1.219  1.00 20.00     0.043 C 
ENDBRANCH   2   4
TORSDOF 1
ENDMDL
MODEL 2
REMARK VINA RESULT:      -4.0      1.495      1.899
REMARK  1 active torsions:
REMARK  status: ('A' for Active; 'I' for Inactive)
REMARK    1  A    between atoms: C7_7  and  N9_9 
ROOT
HETATM    1  C1  UNL     1     -35.497  13.598  -4.232  1.00 20.00     0.089 C 
HETATM    2  C7  UNL     1     -36.252  14.746  -3.729  1.00 20.00     0.396 C 
HETATM    3  N8  UNL     1     -34.901  12.686  -4.629  1.00 20.00    -0.195 NA
ENDROOT
BRANCH   2   4
HETATM    4  N9  UNL     1     -35.562  15.999  -4.039  1.00 20.00     0.107 N 
HETATM    5  C2  UNL     1     -35.871  16.440  -5.400  1.00 20.00     0.284 C 
HETATM    6  C3  UNL     1     -35.460  17.895  -5.621  1.00 20.00     0.104 C 
HETATM    7  S10 UNL     1     -33.714  18.245  -5.254  1.00 20.00    -0.165 SA
HETATM    8  C4  UNL     1     -33.186  16.576  -4.777  1.00 20.00     0.109 C 
HETATM    9  C5  UNL     1     -34.115  15.900  -3.752  1.00 20.00     0.229 C 
HETATM   10  C6  UNL     1     -33.872  16.458  -2.342  1.00 20.00     0.043 C 
ENDBRANCH   2   4
TORSDOF 1
ENDMDL
MODEL 3
REMARK VINA RESULT:      -3.9      0.968      2.311
REMARK  1 active torsions:
REMARK  status: ('A' for Active; 'I' for Inactive)
REMARK    1  A    between atoms: C7_7  and  N9_9 
ROOT
HETATM    1  C1  UNL     1     -34.139  13.624  -4.062  1.00 20.00     0.089 C 
HETATM    2  C7  UNL     1     -33.155  14.641  -3.693  1.00 20.00     0.396 C 
HETATM    3  N8  UNL     1     -34.916  12.816  -4.355  1.00 20.00    -0.195 NA
ENDROOT
BRANCH   2   4
HETATM    4  N9  UNL     1     -33.806  15.926  -3.434  1.00 20.00     0.107 N 
HETATM    5  C2  UNL     1     -34.673  15.843  -2.257  1.00 20.00     0.284 C 
HETATM    6  C3  UNL     1     -35.078  17.232  -1.764  1.00 20.00     0.104 C 
HETATM    7  S10 UNL     1     -35.870  18.274  -3.025  1.00 20.00    -0.165 SA
HETATM    8  C4  UNL     1     -35.852  17.103  -4.411  1.00 20.00     0.109 C 
HETATM    9  C5  UNL     1     -34.482  16.438  -4.645  1.00 20.00     0.229 C 
HETATM   10  C6  UNL     1     -33.521  17.403  -5.353  1.00 20.00     0.043 C 
ENDBRANCH   2   4
TORSDOF 1
ENDMDL
MODEL 4
REMARK VINA RESULT:      -3.8      2.530      4.012
REMARK  1 active torsions:
REMARK  status: ('A' for Active; 'I' for Inactive)
REMARK    1  A    between atoms: C7_7  and  N9_9 
ROOT
HETATM    1  C1  UNL     1     -34.927  17.104  -1.397  1.00 20.00     0.089 C 
HETATM    2  C7  UNL     1     -35.251  17.453  -2.780  1.00 20.00     0.396 C 
HETATM    3  N8  UNL     1     -34.670  16.831  -0.300  1.00 20.00    -0.195 NA
ENDROOT
BRANCH   2   4
HETATM    4  N9  UNL     1     -35.158  16.278  -3.648  1.00 20.00     0.107 N 
HETATM    5  C2  UNL     1     -36.077  15.228  -3.204  1.00 20.00     0.284 C 
HETATM    6  C3  UNL     1     -36.257  14.156  -4.277  1.00 20.00     0.104 C 
HETATM    7  S10 UNL     1     -34.706  13.399  -4.848  1.00 20.00    -0.165 SA
HETATM    8  C4  UNL     1     -33.543  14.305  -3.790  1.00 20.00     0.109 C 
HETATM    9  C5  UNL     1     -33.758  15.830  -3.796  1.00 20.00     0.229 C 
HETATM   10  C6  UNL     1     -33.191  16.457  -5.078  1.00 20.00     0.043 C 
ENDBRANCH   2   4
TORSDOF 1
ENDMDL
MODEL 5
REMARK VINA RESULT:      -3.7      2.576      3.095
REMARK  1 active torsions:
REMARK  status: ('A' for Active; 'I' for Inactive)
REMARK    1  A    between atoms: C7_7  and  N9_9 
ROOT
HETATM    1  C1  UNL     1     -38.058  15.331  -3.579  1.00 20.00     0.089 C 
HETATM    2  C7  UNL     1     -37.484  16.634  -3.245  1.00 20.00     0.396 C 
HETATM    3  N8  UNL     1     -38.517  14.298  -3.842  1.00 20.00    -0.195 NA
ENDROOT
BRANCH   2   4
HETATM    4  N9  UNL     1     -36.056  16.669  -3.559  1.00 20.00     0.107 N 
HETATM    5  C2  UNL     1     -35.838  16.575  -5.004  1.00 20.00     0.284 C 
HETATM    6  C3  UNL     1     -34.407  16.961  -5.378  1.00 20.00     0.104 C 
HETATM    7  S10 UNL     1     -33.123  16.011  -4.511  1.00 20.00    -0.165 SA
HETATM    8  C4  UNL     1     -34.192  14.923  -3.528  1.00 20.00     0.109 C 
HETATM    9  C5  UNL     1     -35.308  15.667  -2.771  1.00 20.00     0.229 C 
HETATM   10  C6  UNL     1     -34.750  16.364  -1.523  1.00 20.00     0.043 C 
ENDBRANCH   2   4
TORSDOF 1
ENDMDL
MODEL 6
REMARK VINA RESULT:      -3.7      2.256      3.552
REMARK  1 active torsions:
REMARK  status: ('A' for Active; 'I' for Inactive)
REMARK    1  A    between atoms: C7_7  and  N9_9 
ROOT
HETATM    1  C1  UNL     1     -34.255  16.361  -1.724  1.00 20.00     0.089 C 
HETATM    2  C7  UNL     1     -33.675  16.016  -3.022  1.00 20.00     0.396 C 
HETATM    3  N8  UNL     1     -34.711  16.634  -0.694  1.00 20.00    -0.195 NA
ENDROOT
BRANCH   2   4
HETATM    4  N9  UNL     1     -34.724  15.768  -4.012  1.00 20.00     0.107 N 
HETATM    5  C2  UNL     1     -35.487  16.988  -4.279  1.00 20.00     0.284 C 
HETATM    6  C3  UNL     1     -36.336  16.850  -5.541  1.00 20.00     0.104 C 
HETATM    7  S10 UNL     1     -37.463  15.424  -5.534  1.00 20.00    -0.165 SA
HETATM    8  C4  UNL     1     -37.068  14.760  -3.892  1.00 20.00     0.109 C 
HETATM    9  C5  UNL     1     -35.558  14.608  -3.630  1.00 20.00     0.229 C 
HETATM   10  C6  UNL     1     -35.002  13.368  -4.344  1.00 20.00     0.043 C 
ENDBRANCH   2   4
TORSDOF 1
ENDMDL
MODEL 7
REMARK VINA RESULT:      -3.6      1.931      2.675
REMARK  1 active torsions:
REMARK  status: ('A' for Active; 'I' for Inactive)
REMARK    1  A    between atoms: C7_7  and  N9_9 
ROOT
HETATM    1  C1  UNL     1     -34.835  13.540  -5.210  1.00 20.00     0.089 C 
HETATM    2  C7  UNL     1     -34.753  14.469  -6.337  1.00 20.00     0.396 C 
HETATM    3  N8  UNL     1     -34.900  12.801  -4.320  1.00 20.00    -0.195 NA
ENDROOT
BRANCH   2   4
HETATM    4  N9  UNL     1     -34.825  15.856  -5.875  1.00 20.00     0.107 N 
HETATM    5  C2  UNL     1     -33.584  16.246  -5.204  1.00 20.00     0.284 C 
HETATM    6  C3  UNL     1     -33.496  17.762  -5.032  1.00 20.00     0.104 C 
HETATM    7  S10 UNL     1     -34.911  18.501  -4.163  1.00 20.00    -0.165 SA
HETATM    8  C4  UNL     1     -35.861  16.991  -3.835  1.00 20.00     0.109 C 
HETATM    9  C5  UNL     1     -36.043  16.091  -5.072  1.00 20.00     0.229 C 
HETATM   10  C6  UNL     1     -37.125  16.656  -6.004  1.00 20.00     0.043 C 
ENDBRANCH   2   4
TORSDOF 1
ENDMDL
MODEL 8
REMARK VINA RESULT:      -3.6      2.216      3.348
REMARK  1 active torsions:
REMARK  status: ('A' for Active; 'I' for Inactive)
REMARK    1  A    between atoms: C7_7  and  N9_9 
ROOT
HETATM    1  C1  UNL     1     -36.663  14.242  -3.989  1.00 20.00     0.089 C 
HETATM    2  C7  UNL     1     -35.240  14.010  -4.233  1.00 20.00     0.396 C 
HETATM    3  N8  UNL     1     -37.792  14.423  -3.794  1.00 20.00    -0.195 NA
ENDROOT
BRANCH   2   4
HETATM    4  N9  UNL     1     -34.604  15.207  -4.785  1.00 20.00     0.107 N 
HETATM    5  C2  UNL     1     -34.554  16.277  -3.787  1.00 20.00     0.284 C 
HETATM    6  C3  UNL     1     -33.596  17.390  -4.212  1.00 20.00     0.104 C 
HETATM    7  S10 UNL     1     -33.954  18.104  -5.844  1.00 20.00    -0.165 SA
HETATM    8  C4  UNL     1     -35.419  17.120  -6.268  1.00 20.00     0.109 C 
HETATM    9  C5  UNL     1     -35.230  15.605  -6.064  1.00 20.00     0.229 C 
HETATM   10  C6  UNL     1     -34.403  14.999  -7.206  1.00 20.00     0.043 C 
ENDBRANCH   2   4
TORSDOF 1
ENDMDL
MODEL 9
REMARK VINA RESULT:      -3.6      1.724      2.543
REMARK  1 active torsions:
REMARK  status: ('A' for Active; 'I' for Inactive)
REMARK    1  A    between atoms: C7_7  and  N9_9 
ROOT
HETATM    1  C1  UNL     1     -34.566  13.699  -3.864  1.00 20.00     0.089 C 
HETATM    2  C7  UNL     1     -34.048  14.900  -3.211  1.00 20.00     0.396 C 
HETATM    3  N8  UNL     1     -34.974  12.743  -4.379  1.00 20.00    -0.195 NA
ENDROOT
BRANCH   2   4
HETATM    4  N9  UNL     1     -34.791  16.086  -3.638  1.00 20.00     0.107 N 
HETATM    5  C2  UNL     1     -36.182  16.020  -3.186  1.00 20.00     0.284 C 
HETATM    6  C3  UNL     1     -36.872  17.378  -3.306  1.00 20.00     0.104 C 
HETATM    7  S10 UNL     1     -36.813  18.104  -4.971  1.00 20.00    -0.165 SA
HETATM    8  C4  UNL     1     -35.913  16.779  -5.825  1.00 20.00     0.109 C 
HETATM    9  C5  UNL     1     -34.641  16.319  -5.090  1.00 20.00     0.229 C 
HETATM   10  C6  UNL     1     -33.498  17.325  -5.293  1.00 20.00     0.043 C 
ENDBRANCH   2   4
TORSDOF 1
ENDMDL
