MODEL 1
REMARK VINA RESULT:      -4.6      0.000      0.000
REMARK  1 active torsions:
REMARK  status: ('A' for Active; 'I' for Inactive)
REMARK    1  A    between atoms: C5_5  and  C9_9 
ROOT
HETATM    1  C1  UNL     1     -35.462  13.611  -4.171  1.00 20.00     0.046 C 
HETATM    2  C2  UNL     1     -33.510  15.157  -3.827  1.00 20.00     0.058 C 
HETATM    3  C3  UNL     1     -36.359  14.757  -3.733  1.00 20.00     0.170 C 
HETATM    4  C4  UNL     1     -34.142  14.110  -4.748  1.00 20.00     0.087 C 
HETATM    5  C5  UNL     1     -34.487  16.212  -3.245  1.00 20.00     0.061 C 
HETATM    6  C6  UNL     1     -34.812  17.342  -4.237  1.00 20.00     0.046 C 
HETATM    7  O10 UNL     1     -35.697  15.593  -2.787  1.00 20.00    -0.380 OA
HETATM    8 CL11 UNL     1     -34.370  14.744  -6.404  1.00 20.00    -0.125 Cl
ENDROOT
BRANCH   5   9
HETATM    9  C9  UNL     1     -33.840  16.841  -2.020  1.00 20.00     0.012 C 
HETATM   10  C7  UNL     1     -33.643  18.336  -2.236  1.00 20.00     0.012 C 
HETATM   11  C8  UNL     1     -34.687  16.576  -0.782  1.00 20.00     0.012 C 
ENDBRANCH   5   9
TORSDOF 1
ENDMDL
MODEL 2
REMARK VINA RESULT:      -4.5      2.134      3.927
REMARK  1 active torsions:
REMARK  status: ('A' for Active; 'I' for Inactive)
REMARK    1  A    between atoms: C5_5  and  C9_9 
ROOT
HETATM    1  C1  UNL     1     -33.872  17.772  -3.122  1.00 20.00     0.046 C 
HETATM    2  C2  UNL     1     -34.034  15.267  -3.270  1.00 20.00     0.058 C 
HETATM    3  C3  UNL     1     -35.187  17.832  -3.883  1.00 20.00     0.170 C 
HETATM    4  C4  UNL     1     -33.714  16.458  -2.363  1.00 20.00     0.087 C 
HETATM    5  C5  UNL     1     -35.283  15.431  -4.174  1.00 20.00     0.061 C 
HETATM    6  C6  UNL     1     -36.602  15.164  -3.429  1.00 20.00     0.046 C 
HETATM    7  O10 UNL     1     -35.312  16.732  -4.779  1.00 20.00    -0.380 OA
HETATM    8 CL11 UNL     1     -34.723  16.450  -0.889  1.00 20.00    -0.125 Cl
ENDROOT
BRANCH   5   9
HETATM    9  C9  UNL     1     -35.183  14.432  -5.317  1.00 20.00     0.012 C 
HETATM   10  C7  UNL     1     -34.434  15.047  -6.492  1.00 20.00     0.012 C 
HETATM   11  C8  UNL     1     -34.499  13.155  -4.843  1.00 20.00     0.012 C 
ENDBRANCH   5   9
TORSDOF 1
ENDMDL
MODEL 3
REMARK VINA RESULT:      -4.5      1.537      2.043
REMARK  1 active torsions:
REMARK  status: ('A' for Active; 'I' for Inactive)
REMARK    1  A    between atoms: C5_5  and  C9_9 
ROOT
HETATM    1  C1  UNL     1     -35.708  15.451  -5.621  1.00 20.00     0.046 C 
HETATM    2  C2  UNL     1     -35.115  15.050  -3.210  1.00 20.00     0.058 C 
HETATM    3  C3  UNL     1     -34.359  16.137  -5.766  1.00 20.00     0.170 C 
HETATM    4  C4  UNL     1     -35.710  14.438  -4.481  1.00 20.00     0.087 C 
HETATM    5  C5  UNL     1     -33.836  15.902  -3.414  1.00 20.00     0.061 C 
HETATM    6  C6  UNL     1     -32.562  15.049  -3.549  1.00 20.00     0.046 C 
HETATM    7  O10 UNL     1     -33.972  16.769  -4.549  1.00 20.00    -0.380 OA
HETATM    8 CL11 UNL     1     -34.850  12.945  -4.955  1.00 20.00    -0.125 Cl
ENDROOT
BRANCH   5   9
HETATM    9  C9  UNL     1     -33.664  16.807  -2.204  1.00 20.00     0.012 C 
HETATM   10  C7  UNL     1     -33.777  18.269  -2.617  1.00 20.00     0.012 C 
HETATM   11  C8  UNL     1     -34.695  16.462  -1.136  1.00 20.00     0.012 C 
ENDBRANCH   5   9
TORSDOF 1
ENDMDL
MODEL 4
REMARK VINA RESULT:      -4.3      2.075      3.487
REMARK  1 active torsions:
REMARK  status: ('A' for Active; 'I' for Inactive)
REMARK    1  A    between atoms: C5_5  and  C9_9 
ROOT
HETATM    1  C1  UNL     1     -34.932  17.575  -5.683  1.00 20.00     0.046 C 
HETATM    2  C2  UNL     1     -33.352  16.199  -4.294  1.00 20.00     0.058 C 
HETATM    3  C3  UNL     1     -36.061  17.001  -4.842  1.00 20.00     0.170 C 
HETATM    4  C4  UNL     1     -33.604  17.566  -4.934  1.00 20.00     0.087 C 
HETATM    5  C5  UNL     1     -34.576  15.551  -3.597  1.00 20.00     0.061 C 
HETATM    6  C6  UNL     1     -34.834  16.115  -2.189  1.00 20.00     0.046 C 
HETATM    7  O10 UNL     1     -35.754  15.681  -4.405  1.00 20.00    -0.380 OA
HETATM    8 CL11 UNL     1     -33.549  18.879  -3.722  1.00 20.00    -0.125 Cl
ENDROOT
BRANCH   5   9
HETATM    9  C9  UNL     1     -34.316  14.058  -3.459  1.00 20.00     0.012 C 
HETATM   10  C7  UNL     1     -35.058  13.290  -4.545  1.00 20.00     0.012 C 
HETATM   11  C8  UNL     1     -32.819  13.776  -3.518  1.00 20.00     0.012 C 
ENDBRANCH   5   9
TORSDOF 1
ENDMDL
MODEL 5
REMARK VINA RESULT:      -4.2      2.599      4.261
REMARK  1 active torsions:
REMARK  status: ('A' for Active; 'I' for Inactive)
REMARK    1  A    between atoms: C5_5  and  C9_9 
ROOT
HETATM    1  C1  UNL     1     -32.944  15.245  -3.748  1.00 20.00     0.046 C 
HETATM    2  C2  UNL     1     -35.258  14.407  -4.265  1.00 20.00     0.058 C 
HETATM    3  C3  UNL     1     -33.171  16.314  -4.806  1.00 20.00     0.170 C 
HETATM    4  C4  UNL     1     -34.257  14.745  -3.156  1.00 20.00     0.087 C 
HETATM    5  C5  UNL     1     -35.335  15.428  -5.429  1.00 20.00     0.061 C 
HETATM    6  C6  UNL     1     -36.192  16.661  -5.090  1.00 20.00     0.046 C 
HETATM    7  O10 UNL     1     -34.024  15.836  -5.842  1.00 20.00    -0.380 OA
HETATM    8 CL11 UNL     1     -34.931  15.934  -2.005  1.00 20.00    -0.125 Cl
ENDROOT
BRANCH   5   9
HETATM    9  C9  UNL     1     -35.967  14.740  -6.630  1.00 20.00     0.012 C 
HETATM   10  C7  UNL     1     -37.293  15.401  -6.981  1.00 20.00     0.012 C 
HETATM   11  C8  UNL     1     -35.012  14.770  -7.817  1.00 20.00     0.012 C 
ENDBRANCH   5   9
TORSDOF 1
ENDMDL
MODEL 6
REMARK VINA RESULT:      -4.2      2.078      3.397
REMARK  1 active torsions:
REMARK  status: ('A' for Active; 'I' for Inactive)
REMARK    1  A    between atoms: C5_5  and  C9_9 
ROOT
HETATM    1  C1  UNL     1     -34.731  15.520  -2.601  1.00 20.00     0.046 C 
HETATM    2  C2  UNL     1     -33.407  16.275  -4.599  1.00 20.00     0.058 C 
HETATM    3  C3  UNL     1     -35.903  15.304  -3.545  1.00 20.00     0.170 C 
HETATM    4  C4  UNL     1     -33.392  15.428  -3.325  1.00 20.00     0.087 C 
HETATM    5  C5  UNL     1     -34.697  16.176  -5.454  1.00 20.00     0.061 C 
HETATM    6  C6  UNL     1     -34.734  14.918  -6.341  1.00 20.00     0.046 C 
HETATM    7  O10 UNL     1     -35.867  16.232  -4.626  1.00 20.00    -0.380 OA
HETATM    8 CL11 UNL     1     -32.973  13.726  -3.673  1.00 20.00    -0.125 Cl
ENDROOT
BRANCH   5   9
HETATM    9  C9  UNL     1     -34.763  17.391  -6.368  1.00 20.00     0.012 C 
HETATM   10  C7  UNL     1     -33.657  18.377  -6.014  1.00 20.00     0.012 C 
HETATM   11  C8  UNL     1     -34.662  16.960  -7.826  1.00 20.00     0.012 C 
ENDBRANCH   5   9
TORSDOF 1
ENDMDL
MODEL 7
REMARK VINA RESULT:      -4.1      2.295      3.984
REMARK  1 active torsions:
REMARK  status: ('A' for Active; 'I' for Inactive)
REMARK    1  A    between atoms: C5_5  and  C9_9 
ROOT
HETATM    1  C1  UNL     1     -36.764  16.606  -3.106  1.00 20.00     0.046 C 
HETATM    2  C2  UNL     1     -34.499  16.499  -4.191  1.00 20.00     0.058 C 
HETATM    3  C3  UNL     1     -36.990  15.186  -3.598  1.00 20.00     0.170 C 
HETATM    4  C4  UNL     1     -35.281  16.923  -2.945  1.00 20.00     0.087 C 
HETATM    5  C5  UNL     1     -34.881  15.117  -4.783  1.00 20.00     0.061 C 
HETATM    6  C6  UNL     1     -34.234  13.942  -4.029  1.00 20.00     0.046 C 
HETATM    7  O10 UNL     1     -36.305  14.954  -4.825  1.00 20.00    -0.380 OA
HETATM    8 CL11 UNL     1     -34.624  16.162  -1.468  1.00 20.00    -0.125 Cl
ENDROOT
BRANCH   5   9
HETATM    9  C9  UNL     1     -34.402  15.064  -6.226  1.00 20.00     0.012 C 
HETATM   10  C7  UNL     1     -35.421  14.335  -7.093  1.00 20.00     0.012 C 
HETATM   11  C8  UNL     1     -34.149  16.472  -6.750  1.00 20.00     0.012 C 
ENDBRANCH   5   9
TORSDOF 1
ENDMDL
MODEL 8
REMARK VINA RESULT:      -4.1      1.769      2.678
REMARK  1 active torsions:
REMARK  status: ('A' for Active; 'I' for Inactive)
REMARK    1  A    between atoms: C5_5  and  C9_9 
ROOT
HETATM    1  C1  UNL     1     -34.259  16.833  -6.312  1.00 20.00     0.046 C 
HETATM    2  C2  UNL     1     -36.005  15.867  -4.783  1.00 20.00     0.058 C 
HETATM    3  C3  UNL     1     -33.238  16.526  -5.227  1.00 20.00     0.170 C 
HETATM    4  C4  UNL     1     -35.479  15.923  -6.219  1.00 20.00     0.087 C 
HETATM    5  C5  UNL     1     -34.924  15.737  -3.679  1.00 20.00     0.061 C 
HETATM    6  C6  UNL     1     -34.415  14.296  -3.503  1.00 20.00     0.046 C 
HETATM    7  O10 UNL     1     -33.823  16.622  -3.932  1.00 20.00    -0.380 OA
HETATM    8 CL11 UNL     1     -35.104  14.291  -6.844  1.00 20.00    -0.125 Cl
ENDROOT
BRANCH   5   9
HETATM    9  C9  UNL     1     -35.532  16.180  -2.356  1.00 20.00     0.012 C 
HETATM   10  C7  UNL     1     -34.434  16.499  -1.350  1.00 20.00     0.012 C 
HETATM   11  C8  UNL     1     -36.440  17.385  -2.571  1.00 20.00     0.012 C 
ENDBRANCH   5   9
TORSDOF 1
ENDMDL
MODEL 9
REMARK VINA RESULT:      -4.1      2.208      2.864
REMARK  1 active torsions:
REMARK  status: ('A' for Active; 'I' for Inactive)
REMARK    1  A    between atoms: C5_5  and  C9_9 
ROOT
HETATM    1  C1  UNL     1     -35.697  14.780  -7.620  1.00 20.00     0.046 C 
HETATM    2  C2  UNL     1     -34.179  15.313  -5.689  1.00 20.00     0.058 C 
HETATM    3  C3  UNL     1     -36.864  15.122  -6.707  1.00 20.00     0.170 C 
HETATM    4  C4  UNL     1     -34.414  15.484  -7.191  1.00 20.00     0.087 C 
HETATM    5  C5  UNL     1     -35.431  15.487  -4.791  1.00 20.00     0.061 C 
HETATM    6  C6  UNL     1     -35.778  16.962  -4.525  1.00 20.00     0.046 C 
HETATM    7  O10 UNL     1     -36.563  14.806  -5.351  1.00 20.00    -0.380 OA
HETATM    8 CL11 UNL     1     -34.449  17.209  -7.657  1.00 20.00    -0.125 Cl
ENDROOT
BRANCH   5   9
HETATM    9  C9  UNL     1     -35.156  14.825  -3.449  1.00 20.00     0.012 C 
HETATM   10  C7  UNL     1     -34.186  13.663  -3.623  1.00 20.00     0.012 C 
HETATM   11  C8  UNL     1     -34.610  15.846  -2.459  1.00 20.00     0.012 C 
ENDBRANCH   5   9
TORSDOF 1
ENDMDL
