MODEL 1
REMARK VINA RESULT:      -4.2      0.000      0.000
REMARK  1 active torsions:
REMARK  status: ('A' for Active; 'I' for Inactive)
REMARK    1  A    between atoms: C6_6  and  C7_7 
ROOT
HETATM    1  C3  UNL     1     -34.450  13.474  -4.931  1.00 20.00     0.046 C 
HETATM    2  C4  UNL     1     -35.468  15.727  -4.485  1.00 20.00     0.052 C 
HETATM    3  C5  UNL     1     -33.453  13.694  -3.792  1.00 20.00     0.169 C 
HETATM    4  C7  UNL     1     -34.864  15.476  -3.094  1.00 20.00     0.126 C 
HETATM    5  C8  UNL     1     -34.859  14.806  -5.546  1.00 20.00     0.086 C 
HETATM    6  O9  UNL     1     -33.522  15.005  -3.226  1.00 20.00    -0.385 OA
HETATM    7 CL10 UNL     1     -36.001  14.559  -6.892  1.00 20.00    -0.125 Cl
ENDROOT
BRANCH   4   8
HETATM    8  C6  UNL     1     -34.863  16.718  -2.254  1.00 20.00     0.015 A 
HETATM    9  C1  UNL     1     -34.780  16.620  -0.756  1.00 20.00     0.007 A 
HETATM   10  C2  UNL     1     -33.612  17.147  -1.541  1.00 20.00     0.007 A 
ENDBRANCH   4   8
TORSDOF 1
ENDMDL
MODEL 2
REMARK VINA RESULT:      -4.2      1.383      1.943
REMARK  1 active torsions:
REMARK  status: ('A' for Active; 'I' for Inactive)
REMARK    1  A    between atoms: C6_6  and  C7_7 
ROOT
HETATM    1  C3  UNL     1     -36.472  15.169  -5.471  1.00 20.00     0.046 C 
HETATM    2  C4  UNL     1     -34.152  15.619  -4.621  1.00 20.00     0.052 C 
HETATM    3  C5  UNL     1     -36.981  15.047  -4.033  1.00 20.00     0.169 C 
HETATM    4  C7  UNL     1     -34.936  16.069  -3.377  1.00 20.00     0.126 C 
HETATM    5  C8  UNL     1     -35.008  14.759  -5.555  1.00 20.00     0.086 C 
HETATM    6  O9  UNL     1     -35.936  15.100  -3.059  1.00 20.00    -0.385 OA
HETATM    7 CL10 UNL     1     -34.413  14.872  -7.231  1.00 20.00    -0.125 Cl
ENDROOT
BRANCH   4   8
HETATM    8  C6  UNL     1     -34.040  16.251  -2.189  1.00 20.00     0.015 A 
HETATM    9  C1  UNL     1     -33.827  17.620  -1.604  1.00 20.00     0.007 A 
HETATM   10  C2  UNL     1     -34.623  16.594  -0.847  1.00 20.00     0.007 A 
ENDBRANCH   4   8
TORSDOF 1
ENDMDL
MODEL 3
REMARK VINA RESULT:      -4.2      1.657      2.407
REMARK  1 active torsions:
REMARK  status: ('A' for Active; 'I' for Inactive)
REMARK    1  A    between atoms: C6_6  and  C7_7 
ROOT
HETATM    1  C3  UNL     1     -35.923  15.585  -4.970  1.00 20.00     0.046 C 
HETATM    2  C4  UNL     1     -34.563  14.859  -2.987  1.00 20.00     0.052 C 
HETATM    3  C5  UNL     1     -36.618  16.644  -4.112  1.00 20.00     0.169 C 
HETATM    4  C7  UNL     1     -34.881  16.291  -2.527  1.00 20.00     0.126 C 
HETATM    5  C8  UNL     1     -35.495  14.402  -4.113  1.00 20.00     0.086 C 
HETATM    6  O9  UNL     1     -36.268  16.568  -2.728  1.00 20.00    -0.385 OA
HETATM    7 CL10 UNL     1     -34.707  13.150  -5.108  1.00 20.00    -0.125 Cl
ENDROOT
BRANCH   4   8
HETATM    8  C6  UNL     1     -34.549  16.498  -1.080  1.00 20.00     0.015 A 
HETATM    9  C1  UNL     1     -33.721  17.679  -0.654  1.00 20.00     0.007 A 
HETATM   10  C2  UNL     1     -35.183  17.623  -0.311  1.00 20.00     0.007 A 
ENDBRANCH   4   8
TORSDOF 1
ENDMDL
MODEL 4
REMARK VINA RESULT:      -4.1      2.613      4.551
REMARK  1 active torsions:
REMARK  status: ('A' for Active; 'I' for Inactive)
REMARK    1  A    between atoms: C6_6  and  C7_7 
ROOT
HETATM    1  C3  UNL     1     -34.156  18.015  -3.015  1.00 20.00     0.046 C 
HETATM    2  C4  UNL     1     -34.570  15.560  -3.352  1.00 20.00     0.052 C 
HETATM    3  C5  UNL     1     -33.575  18.116  -4.426  1.00 20.00     0.169 C 
HETATM    4  C7  UNL     1     -34.563  15.991  -4.829  1.00 20.00     0.126 C 
HETATM    5  C8  UNL     1     -33.936  16.619  -2.446  1.00 20.00     0.086 C 
HETATM    6  O9  UNL     1     -33.448  16.849  -5.077  1.00 20.00    -0.385 OA
HETATM    7 CL10 UNL     1     -34.586  16.499  -0.791  1.00 20.00    -0.125 Cl
ENDROOT
BRANCH   4   8
HETATM    8  C6  UNL     1     -34.482  14.812  -5.752  1.00 20.00     0.015 A 
HETATM    9  C1  UNL     1     -35.629  14.489  -6.670  1.00 20.00     0.007 A 
HETATM   10  C2  UNL     1     -34.341  15.020  -7.234  1.00 20.00     0.007 A 
ENDBRANCH   4   8
TORSDOF 1
ENDMDL
MODEL 5
REMARK VINA RESULT:      -4.1      1.643      2.149
REMARK  1 active torsions:
REMARK  status: ('A' for Active; 'I' for Inactive)
REMARK    1  A    between atoms: C6_6  and  C7_7 
ROOT
HETATM    1  C3  UNL     1     -33.640  15.891  -5.157  1.00 20.00     0.046 C 
HETATM    2  C4  UNL     1     -34.636  14.994  -3.033  1.00 20.00     0.052 C 
HETATM    3  C5  UNL     1     -33.708  17.312  -4.596  1.00 20.00     0.169 C 
HETATM    4  C7  UNL     1     -34.050  16.300  -2.471  1.00 20.00     0.126 C 
HETATM    5  C8  UNL     1     -34.743  15.027  -4.560  1.00 20.00     0.086 C 
HETATM    6  O9  UNL     1     -34.379  17.389  -3.336  1.00 20.00    -0.385 OA
HETATM    7 CL10 UNL     1     -34.688  13.376  -5.228  1.00 20.00    -0.125 Cl
ENDROOT
BRANCH   4   8
HETATM    8  C6  UNL     1     -34.570  16.598  -1.096  1.00 20.00     0.015 A 
HETATM    9  C1  UNL     1     -33.924  17.666  -0.257  1.00 20.00     0.007 A 
HETATM   10  C2  UNL     1     -35.298  17.884  -0.825  1.00 20.00     0.007 A 
ENDBRANCH   4   8
TORSDOF 1
ENDMDL
MODEL 6
REMARK VINA RESULT:      -4.1      2.878      4.534
REMARK  1 active torsions:
REMARK  status: ('A' for Active; 'I' for Inactive)
REMARK    1  A    between atoms: C6_6  and  C7_7 
ROOT
HETATM    1  C3  UNL     1     -34.162  18.484  -2.352  1.00 20.00     0.046 C 
HETATM    2  C4  UNL     1     -34.482  16.119  -1.569  1.00 20.00     0.052 C 
HETATM    3  C5  UNL     1     -33.705  17.976  -3.720  1.00 20.00     0.169 C 
HETATM    4  C7  UNL     1     -34.618  15.874  -3.081  1.00 20.00     0.126 C 
HETATM    5  C8  UNL     1     -33.828  17.470  -1.267  1.00 20.00     0.086 C 
HETATM    6  O9  UNL     1     -33.571  16.553  -3.777  1.00 20.00    -0.385 OA
HETATM    7 CL10 UNL     1     -34.332  18.066   0.336  1.00 20.00    -0.125 Cl
ENDROOT
BRANCH   4   8
HETATM    8  C6  UNL     1     -34.557  14.415  -3.417  1.00 20.00     0.015 A 
HETATM    9  C1  UNL     1     -35.637  13.784  -4.252  1.00 20.00     0.007 A 
HETATM   10  C2  UNL     1     -34.259  13.973  -4.822  1.00 20.00     0.007 A 
ENDBRANCH   4   8
TORSDOF 1
ENDMDL
MODEL 7
REMARK VINA RESULT:      -3.9     12.888     14.194
REMARK  1 active torsions:
REMARK  status: ('A' for Active; 'I' for Inactive)
REMARK    1  A    between atoms: C6_6  and  C7_7 
ROOT
HETATM    1  C3  UNL     1     -42.107   5.422   0.348  1.00 20.00     0.046 C 
HETATM    2  C4  UNL     1     -41.833   5.311  -2.146  1.00 20.00     0.052 C 
HETATM    3  C5  UNL     1     -42.902   4.115   0.324  1.00 20.00     0.169 C 
HETATM    4  C7  UNL     1     -42.061   3.814  -1.880  1.00 20.00     0.126 C 
HETATM    5  C8  UNL     1     -42.280   6.175  -0.964  1.00 20.00     0.086 C 
HETATM    6  O9  UNL     1     -43.172   3.643  -0.998  1.00 20.00    -0.385 OA
HETATM    7 CL10 UNL     1     -41.379   7.713  -0.936  1.00 20.00    -0.125 Cl
ENDROOT
BRANCH   4   8
HETATM    8  C6  UNL     1     -42.326   3.056  -3.146  1.00 20.00     0.015 A 
HETATM    9  C1  UNL     1     -41.325   2.054  -3.653  1.00 20.00     0.007 A 
HETATM   10  C2  UNL     1     -42.643   1.588  -3.098  1.00 20.00     0.007 A 
ENDBRANCH   4   8
TORSDOF 1
ENDMDL
MODEL 8
REMARK VINA RESULT:      -3.9      2.813      4.580
REMARK  1 active torsions:
REMARK  status: ('A' for Active; 'I' for Inactive)
REMARK    1  A    between atoms: C6_6  and  C7_7 
ROOT
HETATM    1  C3  UNL     1     -36.187  17.718  -2.025  1.00 20.00     0.046 C 
HETATM    2  C4  UNL     1     -34.491  15.866  -1.965  1.00 20.00     0.052 C 
HETATM    3  C5  UNL     1     -36.219  17.648  -3.552  1.00 20.00     0.169 C 
HETATM    4  C7  UNL     1     -35.118  15.551  -3.333  1.00 20.00     0.126 C 
HETATM    5  C8  UNL     1     -34.825  17.286  -1.498  1.00 20.00     0.086 C 
HETATM    6  O9  UNL     1     -35.245  16.752  -4.096  1.00 20.00    -0.385 OA
HETATM    7 CL10 UNL     1     -34.771  17.390   0.280  1.00 20.00    -0.125 Cl
ENDROOT
BRANCH   4   8
HETATM    8  C6  UNL     1     -34.295  14.568  -4.110  1.00 20.00     0.015 A 
HETATM    9  C1  UNL     1     -34.900  13.270  -4.571  1.00 20.00     0.007 A 
HETATM   10  C2  UNL     1     -34.565  14.341  -5.571  1.00 20.00     0.007 A 
ENDBRANCH   4   8
TORSDOF 1
ENDMDL
MODEL 9
REMARK VINA RESULT:      -3.8      3.701      5.599
REMARK  1 active torsions:
REMARK  status: ('A' for Active; 'I' for Inactive)
REMARK    1  A    between atoms: C6_6  and  C7_7 
ROOT
HETATM    1  C3  UNL     1     -34.239  18.210   1.239  1.00 20.00     0.046 C 
HETATM    2  C4  UNL     1     -33.204  17.776  -1.008  1.00 20.00     0.052 C 
HETATM    3  C5  UNL     1     -35.616  17.846   0.680  1.00 20.00     0.169 C 
HETATM    4  C7  UNL     1     -34.456  16.897  -1.166  1.00 20.00     0.126 C 
HETATM    5  C8  UNL     1     -33.351  18.778   0.140  1.00 20.00     0.086 C 
HETATM    6  O9  UNL     1     -35.610  17.618  -0.731  1.00 20.00    -0.385 OA
HETATM    7 CL10 UNL     1     -31.753  19.230   0.786  1.00 20.00    -0.125 Cl
ENDROOT
BRANCH   4   8
HETATM    8  C6  UNL     1     -34.659  16.467  -2.588  1.00 20.00     0.015 A 
HETATM    9  C1  UNL     1     -34.483  15.025  -2.976  1.00 20.00     0.007 A 
HETATM   10  C2  UNL     1     -35.855  15.639  -2.965  1.00 20.00     0.007 A 
ENDBRANCH   4   8
TORSDOF 1
ENDMDL
