MODEL 1
REMARK VINA RESULT:      -4.6      0.000      0.000
REMARK  2 active torsions:
REMARK  status: ('A' for Active; 'I' for Inactive)
REMARK    1  A    between atoms: C4_4  and  O10_10 
REMARK    2  A    between atoms: C5_5  and  C8_8 
ROOT
HETATM    1  C1  UNL     1     -35.822  14.564  -5.585  1.00 20.00     0.058 C 
HETATM    2  C2  UNL     1     -35.218  14.810  -3.161  1.00 20.00     0.069 C 
HETATM    3  C3  UNL     1     -34.446  15.119  -5.921  1.00 20.00     0.171 C 
HETATM    4  C4  UNL     1     -35.823  13.887  -4.220  1.00 20.00     0.123 C 
HETATM    5  C5  UNL     1     -33.894  15.481  -3.594  1.00 20.00     0.059 C 
HETATM    6  C6  UNL     1     -32.702  14.552  -3.491  1.00 20.00     0.046 C 
HETATM    7  O9  UNL     1     -33.995  16.027  -4.919  1.00 20.00    -0.380 OA
ENDROOT
BRANCH   5   8
HETATM    8  C8  UNL     1     -33.637  16.689  -2.672  1.00 20.00     0.033 C 
HETATM    9  C7  UNL     1     -34.419  16.585  -1.408  1.00 20.00     0.008 C 
ENDBRANCH   5   8
BRANCH   4  10
HETATM   10  O10 UNL     1     -35.087  12.670  -4.272  1.00 20.00    -0.395 OA
HETATM   11  H26 UNL     1     -35.399  12.190  -5.057  1.00 20.00     0.210 HD
ENDBRANCH   4  10
TORSDOF 2
ENDMDL
MODEL 2
REMARK VINA RESULT:      -4.4      1.450      2.113
REMARK  2 active torsions:
REMARK  status: ('A' for Active; 'I' for Inactive)
REMARK    1  A    between atoms: C4_4  and  O10_10 
REMARK    2  A    between atoms: C5_5  and  C8_8 
ROOT
HETATM    1  C1  UNL     1     -35.395  13.528  -4.115  1.00 20.00     0.058 C 
HETATM    2  C2  UNL     1     -33.379  14.945  -3.635  1.00 20.00     0.069 C 
HETATM    3  C3  UNL     1     -36.249  14.750  -3.811  1.00 20.00     0.171 C 
HETATM    4  C4  UNL     1     -34.007  13.935  -4.596  1.00 20.00     0.123 C 
HETATM    5  C5  UNL     1     -34.327  16.094  -3.222  1.00 20.00     0.059 C 
HETATM    6  C6  UNL     1     -34.456  17.163  -4.289  1.00 20.00     0.046 C 
HETATM    7  O9  UNL     1     -35.622  15.594  -2.850  1.00 20.00    -0.380 OA
ENDROOT
BRANCH   5   8
HETATM    8  C8  UNL     1     -33.763  16.757  -1.950  1.00 20.00     0.033 C 
HETATM    9  C7  UNL     1     -34.698  16.609  -0.800  1.00 20.00     0.008 C 
ENDBRANCH   5   8
BRANCH   4  10
HETATM   10  O10 UNL     1     -34.082  14.497  -5.900  1.00 20.00    -0.395 OA
HETATM   11  H26 UNL     1     -33.896  15.446  -5.805  1.00 20.00     0.210 HD
ENDBRANCH   4  10
TORSDOF 2
ENDMDL
MODEL 3
REMARK VINA RESULT:      -4.3      1.320      3.245
REMARK  2 active torsions:
REMARK  status: ('A' for Active; 'I' for Inactive)
REMARK    1  A    between atoms: C4_4  and  O10_10 
REMARK    2  A    between atoms: C5_5  and  C8_8 
ROOT
HETATM    1  C1  UNL     1     -33.517  13.996  -3.753  1.00 20.00     0.058 C 
HETATM    2  C2  UNL     1     -34.932  14.193  -5.817  1.00 20.00     0.069 C 
HETATM    3  C3  UNL     1     -34.289  15.177  -3.185  1.00 20.00     0.171 C 
HETATM    4  C4  UNL     1     -34.352  13.235  -4.776  1.00 20.00     0.123 C 
HETATM    5  C5  UNL     1     -35.576  15.463  -5.214  1.00 20.00     0.059 C 
HETATM    6  C6  UNL     1     -36.959  15.210  -4.648  1.00 20.00     0.046 C 
HETATM    7  O9  UNL     1     -34.725  16.056  -4.219  1.00 20.00    -0.380 OA
ENDROOT
BRANCH   5   8
HETATM    8  C8  UNL     1     -35.703  16.521  -6.327  1.00 20.00     0.033 C 
HETATM    9  C7  UNL     1     -34.540  16.473  -7.257  1.00 20.00     0.008 C 
ENDBRANCH   5   8
BRANCH   4  10
HETATM   10  O10 UNL     1     -35.407  12.534  -4.129  1.00 20.00    -0.395 OA
HETATM   11  H26 UNL     1     -36.022  12.252  -4.825  1.00 20.00     0.210 HD
ENDBRANCH   4  10
TORSDOF 2
ENDMDL
MODEL 4
REMARK VINA RESULT:      -4.2     11.412     13.372
REMARK  2 active torsions:
REMARK  status: ('A' for Active; 'I' for Inactive)
REMARK    1  A    between atoms: C4_4  and  O10_10 
REMARK    2  A    between atoms: C5_5  and  C8_8 
ROOT
HETATM    1  C1  UNL     1     -41.195   6.823  -1.357  1.00 20.00     0.058 C 
HETATM    2  C2  UNL     1     -40.693   4.375  -1.129  1.00 20.00     0.069 C 
HETATM    3  C3  UNL     1     -42.478   6.431  -2.074  1.00 20.00     0.171 C 
HETATM    4  C4  UNL     1     -40.737   5.722  -0.408  1.00 20.00     0.123 C 
HETATM    5  C5  UNL     1     -41.951   4.072  -1.975  1.00 20.00     0.059 C 
HETATM    6  C6  UNL     1     -43.126   3.607  -1.138  1.00 20.00     0.046 C 
HETATM    7  O9  UNL     1     -42.322   5.203  -2.780  1.00 20.00    -0.380 OA
ENDROOT
BRANCH   5   8
HETATM    8  C8  UNL     1     -41.607   2.953  -2.976  1.00 20.00     0.033 C 
HETATM    9  C7  UNL     1     -42.617   1.857  -2.935  1.00 20.00     0.008 C 
ENDBRANCH   5   8
BRANCH   4  10
HETATM   10  O10 UNL     1     -41.613   5.640   0.710  1.00 20.00    -0.395 OA
HETATM   11  H26 UNL     1     -41.050   5.597   1.501  1.00 20.00     0.210 HD
ENDBRANCH   4  10
TORSDOF 2
ENDMDL
MODEL 5
REMARK VINA RESULT:      -4.2      1.496      3.213
REMARK  2 active torsions:
REMARK  status: ('A' for Active; 'I' for Inactive)
REMARK    1  A    between atoms: C4_4  and  O10_10 
REMARK    2  A    between atoms: C5_5  and  C8_8 
ROOT
HETATM    1  C1  UNL     1     -33.265  13.686  -3.734  1.00 20.00     0.058 C 
HETATM    2  C2  UNL     1     -34.462  15.842  -3.265  1.00 20.00     0.069 C 
HETATM    3  C3  UNL     1     -34.377  13.355  -4.718  1.00 20.00     0.171 C 
HETATM    4  C4  UNL     1     -33.111  15.193  -3.568  1.00 20.00     0.123 C 
HETATM    5  C5  UNL     1     -35.609  15.368  -4.187  1.00 20.00     0.059 C 
HETATM    6  C6  UNL     1     -35.578  16.026  -5.551  1.00 20.00     0.046 C 
HETATM    7  O9  UNL     1     -35.614  13.936  -4.317  1.00 20.00    -0.380 OA
ENDROOT
BRANCH   5   8
HETATM    8  C8  UNL     1     -36.950  15.723  -3.517  1.00 20.00     0.033 C 
HETATM    9  C7  UNL     1     -38.029  14.780  -3.927  1.00 20.00     0.008 C 
ENDBRANCH   5   8
BRANCH   4  10
HETATM   10  O10 UNL     1     -32.557  15.766  -4.746  1.00 20.00    -0.395 OA
HETATM   11  H26 UNL     1     -31.801  15.210  -4.997  1.00 20.00     0.210 HD
ENDBRANCH   4  10
TORSDOF 2
ENDMDL
MODEL 6
REMARK VINA RESULT:      -4.1      1.503      3.727
REMARK  2 active torsions:
REMARK  status: ('A' for Active; 'I' for Inactive)
REMARK    1  A    between atoms: C4_4  and  O10_10 
REMARK    2  A    between atoms: C5_5  and  C8_8 
ROOT
HETATM    1  C1  UNL     1     -33.886  16.339  -3.005  1.00 20.00     0.058 C 
HETATM    2  C2  UNL     1     -33.879  15.591  -5.400  1.00 20.00     0.069 C 
HETATM    3  C3  UNL     1     -35.026  15.362  -2.767  1.00 20.00     0.171 C 
HETATM    4  C4  UNL     1     -33.017  15.895  -4.175  1.00 20.00     0.123 C 
HETATM    5  C5  UNL     1     -35.120  14.720  -5.097  1.00 20.00     0.059 C 
HETATM    6  C6  UNL     1     -34.784  13.250  -4.946  1.00 20.00     0.046 C 
HETATM    7  O9  UNL     1     -35.822  15.199  -3.938  1.00 20.00    -0.380 OA
ENDROOT
BRANCH   5   8
HETATM    8  C8  UNL     1     -36.113  14.864  -6.266  1.00 20.00     0.033 C 
HETATM    9  C7  UNL     1     -35.480  14.502  -7.565  1.00 20.00     0.008 C 
ENDBRANCH   5   8
BRANCH   4  10
HETATM   10  O10 UNL     1     -32.264  14.740  -3.820  1.00 20.00    -0.395 OA
HETATM   11  H26 UNL     1     -31.329  15.004  -3.830  1.00 20.00     0.210 HD
ENDBRANCH   4  10
TORSDOF 2
ENDMDL
MODEL 7
REMARK VINA RESULT:      -4.1      1.632      3.353
REMARK  2 active torsions:
REMARK  status: ('A' for Active; 'I' for Inactive)
REMARK    1  A    between atoms: C4_4  and  O10_10 
REMARK    2  A    between atoms: C5_5  and  C8_8 
ROOT
HETATM    1  C1  UNL     1     -33.724  17.335  -3.412  1.00 20.00     0.058 C 
HETATM    2  C2  UNL     1     -34.835  15.771  -5.030  1.00 20.00     0.069 C 
HETATM    3  C3  UNL     1     -34.034  16.325  -2.318  1.00 20.00     0.171 C 
HETATM    4  C4  UNL     1     -33.615  16.656  -4.772  1.00 20.00     0.123 C 
HETATM    5  C5  UNL     1     -35.220  14.864  -3.839  1.00 20.00     0.059 C 
HETATM    6  C6  UNL     1     -34.334  13.640  -3.722  1.00 20.00     0.046 C 
HETATM    7  O9  UNL     1     -35.228  15.601  -2.605  1.00 20.00    -0.380 OA
ENDROOT
BRANCH   5   8
HETATM    8  C8  UNL     1     -36.670  14.385  -4.039  1.00 20.00     0.033 C 
HETATM    9  C7  UNL     1     -37.649  15.446  -3.667  1.00 20.00     0.008 C 
ENDBRANCH   5   8
BRANCH   4  10
HETATM   10  O10 UNL     1     -32.431  15.870  -4.837  1.00 20.00    -0.395 OA
HETATM   11  H26 UNL     1     -32.094  15.950  -5.745  1.00 20.00     0.210 HD
ENDBRANCH   4  10
TORSDOF 2
ENDMDL
MODEL 8
REMARK VINA RESULT:      -4.0      1.584      1.831
REMARK  2 active torsions:
REMARK  status: ('A' for Active; 'I' for Inactive)
REMARK    1  A    between atoms: C4_4  and  O10_10 
REMARK    2  A    between atoms: C5_5  and  C8_8 
ROOT
HETATM    1  C1  UNL     1     -37.279  15.971  -5.242  1.00 20.00     0.058 C 
HETATM    2  C2  UNL     1     -36.045  15.573  -3.093  1.00 20.00     0.069 C 
HETATM    3  C3  UNL     1     -36.108  15.321  -5.963  1.00 20.00     0.171 C 
HETATM    4  C4  UNL     1     -37.391  15.464  -3.809  1.00 20.00     0.123 C 
HETATM    5  C5  UNL     1     -34.849  15.043  -3.917  1.00 20.00     0.059 C 
HETATM    6  C6  UNL     1     -34.752  13.531  -3.908  1.00 20.00     0.046 C 
HETATM    7  O9  UNL     1     -34.885  15.538  -5.265  1.00 20.00    -0.380 OA
ENDROOT
BRANCH   5   8
HETATM    8  C8  UNL     1     -33.551  15.607  -3.308  1.00 20.00     0.033 C 
HETATM    9  C7  UNL     1     -33.836  16.496  -2.147  1.00 20.00     0.008 C 
ENDBRANCH   5   8
BRANCH   4  10
HETATM   10  O10 UNL     1     -37.833  14.111  -3.798  1.00 20.00    -0.395 OA
HETATM   11  H26 UNL     1     -37.035  13.558  -3.832  1.00 20.00     0.210 HD
ENDBRANCH   4  10
TORSDOF 2
ENDMDL
MODEL 9
REMARK VINA RESULT:      -4.0      1.618      2.323
REMARK  2 active torsions:
REMARK  status: ('A' for Active; 'I' for Inactive)
REMARK    1  A    between atoms: C4_4  and  O10_10 
REMARK    2  A    between atoms: C5_5  and  C8_8 
ROOT
HETATM    1  C1  UNL     1     -36.389  14.384  -3.859  1.00 20.00     0.058 C 
HETATM    2  C2  UNL     1     -33.965  14.811  -4.352  1.00 20.00     0.069 C 
HETATM    3  C3  UNL     1     -36.719  15.152  -5.129  1.00 20.00     0.171 C 
HETATM    4  C4  UNL     1     -34.999  13.763  -3.938  1.00 20.00     0.123 C 
HETATM    5  C5  UNL     1     -34.398  15.682  -5.554  1.00 20.00     0.059 C 
HETATM    6  C6  UNL     1     -34.237  14.972  -6.883  1.00 20.00     0.046 C 
HETATM    7  O9  UNL     1     -35.745  16.157  -5.395  1.00 20.00    -0.380 OA
ENDROOT
BRANCH   5   8
HETATM    8  C8  UNL     1     -33.518  16.946  -5.580  1.00 20.00     0.033 C 
HETATM    9  C7  UNL     1     -33.742  17.790  -4.373  1.00 20.00     0.008 C 
ENDBRANCH   5   8
BRANCH   4  10
HETATM   10  O10 UNL     1     -34.992  12.688  -4.869  1.00 20.00    -0.395 OA
HETATM   11  H26 UNL     1     -34.098  12.307  -4.847  1.00 20.00     0.210 HD
ENDBRANCH   4  10
TORSDOF 2
ENDMDL
