MODEL 1
REMARK VINA RESULT:      -4.5      0.000      0.000
REMARK  0 active torsions:
REMARK  status: ('A' for Active; 'I' for Inactive)
ROOT
HETATM    1  C1  UNL     1     -34.621  13.709  -5.091  1.00 20.00     0.088 C 
HETATM    2  C2  UNL     1     -33.757  15.928  -4.731  1.00 20.00    -0.066 C 
HETATM    3  C3  UNL     1     -34.386  15.041  -5.514  1.00 20.00     0.096 C 
HETATM    4  C4  UNL     1     -33.490  17.348  -5.145  1.00 20.00     0.061 C 
HETATM    5  C5  UNL     1     -33.276  15.607  -3.344  1.00 20.00     0.066 C 
HETATM    6  C6  UNL     1     -34.019  18.298  -4.077  1.00 20.00     0.172 C 
HETATM    7  C7  UNL     1     -33.786  16.648  -2.339  1.00 20.00     0.121 C 
HETATM    8  C8  UNL     1     -35.265  16.486  -1.994  1.00 20.00     0.040 C 
HETATM    9  N9  UNL     1     -34.817  12.617  -4.751  1.00 20.00    -0.192 NA
HETATM   10  O10 UNL     1     -33.490  17.981  -2.786  1.00 20.00    -0.386 OA
ENDROOT
TORSDOF 0
ENDMDL
MODEL 2
REMARK VINA RESULT:      -4.5      2.154      2.494
REMARK  0 active torsions:
REMARK  status: ('A' for Active; 'I' for Inactive)
ROOT
HETATM    1  C1  UNL     1     -37.638  14.809  -4.425  1.00 20.00     0.088 C 
HETATM    2  C2  UNL     1     -35.345  15.146  -5.080  1.00 20.00    -0.066 C 
HETATM    3  C3  UNL     1     -36.652  15.373  -5.271  1.00 20.00     0.096 C 
HETATM    4  C4  UNL     1     -34.270  15.727  -5.956  1.00 20.00     0.061 C 
HETATM    5  C5  UNL     1     -34.811  14.308  -3.952  1.00 20.00     0.066 C 
HETATM    6  C6  UNL     1     -33.241  16.447  -5.091  1.00 20.00     0.172 C 
HETATM    7  C7  UNL     1     -33.728  15.070  -3.176  1.00 20.00     0.121 C 
HETATM    8  C8  UNL     1     -34.288  16.159  -2.263  1.00 20.00     0.040 C 
HETATM    9  N9  UNL     1     -38.451  14.349  -3.736  1.00 20.00    -0.192 NA
HETATM   10  O10 UNL     1     -32.728  15.589  -4.067  1.00 20.00    -0.386 OA
ENDROOT
TORSDOF 0
ENDMDL
MODEL 3
REMARK VINA RESULT:      -4.4      1.604      2.291
REMARK  0 active torsions:
REMARK  status: ('A' for Active; 'I' for Inactive)
ROOT
HETATM    1  C1  UNL     1     -34.298  13.545  -4.221  1.00 20.00     0.088 C 
HETATM    2  C2  UNL     1     -34.417  15.532  -2.865  1.00 20.00    -0.066 C 
HETATM    3  C3  UNL     1     -33.694  14.563  -3.442  1.00 20.00     0.096 C 
HETATM    4  C4  UNL     1     -33.812  16.628  -2.034  1.00 20.00     0.061 C 
HETATM    5  C5  UNL     1     -35.909  15.644  -3.011  1.00 20.00     0.066 C 
HETATM    6  C6  UNL     1     -34.278  17.982  -2.558  1.00 20.00     0.172 C 
HETATM    7  C7  UNL     1     -36.305  17.054  -3.468  1.00 20.00     0.121 C 
HETATM    8  C8  UNL     1     -36.020  17.317  -4.946  1.00 20.00     0.040 C 
HETATM    9  N9  UNL     1     -34.787  12.708  -4.859  1.00 20.00    -0.192 NA
HETATM   10  O10 UNL     1     -35.705  18.053  -2.628  1.00 20.00    -0.386 OA
ENDROOT
TORSDOF 0
ENDMDL
MODEL 4
REMARK VINA RESULT:      -4.4      2.720      4.024
REMARK  0 active torsions:
REMARK  status: ('A' for Active; 'I' for Inactive)
ROOT
HETATM    1  C1  UNL     1     -33.936  17.134  -1.082  1.00 20.00     0.088 C 
HETATM    2  C2  UNL     1     -34.442  15.579  -2.850  1.00 20.00    -0.066 C 
HETATM    3  C3  UNL     1     -34.804  16.221  -1.731  1.00 20.00     0.096 C 
HETATM    4  C4  UNL     1     -35.336  14.606  -3.567  1.00 20.00     0.061 C 
HETATM    5  C5  UNL     1     -33.115  15.783  -3.525  1.00 20.00     0.066 C 
HETATM    6  C6  UNL     1     -35.448  15.002  -5.035  1.00 20.00     0.172 C 
HETATM    7  C7  UNL     1     -33.307  16.103  -5.013  1.00 20.00     0.121 C 
HETATM    8  C8  UNL     1     -33.793  17.529  -5.270  1.00 20.00     0.040 C 
HETATM    9  N9  UNL     1     -33.229  17.882  -0.545  1.00 20.00    -0.192 NA
HETATM   10  O10 UNL     1     -34.158  15.132  -5.642  1.00 20.00    -0.386 OA
ENDROOT
TORSDOF 0
ENDMDL
MODEL 5
REMARK VINA RESULT:      -4.3      2.817      4.148
REMARK  0 active torsions:
REMARK  status: ('A' for Active; 'I' for Inactive)
ROOT
HETATM    1  C1  UNL     1     -33.941  17.262  -1.929  1.00 20.00     0.088 C 
HETATM    2  C2  UNL     1     -33.980  15.278  -3.294  1.00 20.00    -0.066 C 
HETATM    3  C3  UNL     1     -34.279  15.904  -2.147  1.00 20.00     0.096 C 
HETATM    4  C4  UNL     1     -34.323  13.839  -3.562  1.00 20.00     0.061 C 
HETATM    5  C5  UNL     1     -33.295  15.957  -4.448  1.00 20.00     0.066 C 
HETATM    6  C6  UNL     1     -35.086  13.733  -4.877  1.00 20.00     0.172 C 
HETATM    7  C7  UNL     1     -34.083  15.741  -5.747  1.00 20.00     0.121 C 
HETATM    8  C8  UNL     1     -35.347  16.594  -5.840  1.00 20.00     0.040 C 
HETATM    9  N9  UNL     1     -33.667  18.375  -1.744  1.00 20.00    -0.192 NA
HETATM   10  O10 UNL     1     -34.367  14.349  -5.951  1.00 20.00    -0.386 OA
ENDROOT
TORSDOF 0
ENDMDL
MODEL 6
REMARK VINA RESULT:      -4.1      1.577      2.072
REMARK  0 active torsions:
REMARK  status: ('A' for Active; 'I' for Inactive)
ROOT
HETATM    1  C1  UNL     1     -34.879  13.559  -5.159  1.00 20.00     0.088 C 
HETATM    2  C2  UNL     1     -34.325  15.619  -6.277  1.00 20.00    -0.066 C 
HETATM    3  C3  UNL     1     -35.039  14.487  -6.217  1.00 20.00     0.096 C 
HETATM    4  C4  UNL     1     -34.468  16.627  -7.383  1.00 20.00     0.061 C 
HETATM    5  C5  UNL     1     -33.323  16.017  -5.228  1.00 20.00     0.066 C 
HETATM    6  C6  UNL     1     -34.720  18.007  -6.785  1.00 20.00     0.172 C 
HETATM    7  C7  UNL     1     -33.597  17.443  -4.732  1.00 20.00     0.121 C 
HETATM    8  C8  UNL     1     -34.798  17.540  -3.793  1.00 20.00     0.040 C 
HETATM    9  N9  UNL     1     -34.752  12.795  -4.294  1.00 20.00    -0.192 NA
HETATM   10  O10 UNL     1     -33.710  18.357  -5.834  1.00 20.00    -0.386 OA
ENDROOT
TORSDOF 0
ENDMDL
MODEL 7
REMARK VINA RESULT:      -4.0      2.795      3.931
REMARK  0 active torsions:
REMARK  status: ('A' for Active; 'I' for Inactive)
ROOT
HETATM    1  C1  UNL     1     -37.062  16.999  -3.181  1.00 20.00     0.088 C 
HETATM    2  C2  UNL     1     -35.810  14.967  -3.502  1.00 20.00    -0.066 C 
HETATM    3  C3  UNL     1     -36.912  15.697  -3.719  1.00 20.00     0.096 C 
HETATM    4  C4  UNL     1     -35.616  13.583  -4.057  1.00 20.00     0.061 C 
HETATM    5  C5  UNL     1     -34.636  15.464  -2.705  1.00 20.00     0.066 C 
HETATM    6  C6  UNL     1     -34.291  13.517  -4.808  1.00 20.00     0.172 C 
HETATM    7  C7  UNL     1     -33.333  15.294  -3.496  1.00 20.00     0.121 C 
HETATM    8  C8  UNL     1     -33.162  16.322  -4.614  1.00 20.00     0.040 C 
HETATM    9  N9  UNL     1     -37.190  18.066  -2.742  1.00 20.00    -0.192 NA
HETATM   10  O10 UNL     1     -33.202  13.951  -3.988  1.00 20.00    -0.386 OA
ENDROOT
TORSDOF 0
ENDMDL
MODEL 8
REMARK VINA RESULT:      -4.0     12.292     13.494
REMARK  0 active torsions:
REMARK  status: ('A' for Active; 'I' for Inactive)
ROOT
HETATM    1  C1  UNL     1     -42.726   7.865  -3.140  1.00 20.00     0.088 C 
HETATM    2  C2  UNL     1     -42.608   6.778  -0.994  1.00 20.00    -0.066 C 
HETATM    3  C3  UNL     1     -43.315   7.430  -1.928  1.00 20.00     0.096 C 
HETATM    4  C4  UNL     1     -43.198   6.301   0.303  1.00 20.00     0.061 C 
HETATM    5  C5  UNL     1     -41.155   6.429  -1.156  1.00 20.00     0.066 C 
HETATM    6  C6  UNL     1     -42.900   4.817   0.484  1.00 20.00     0.172 C 
HETATM    7  C7  UNL     1     -40.922   4.937  -0.885  1.00 20.00     0.121 C 
HETATM    8  C8  UNL     1     -41.391   4.032  -2.023  1.00 20.00     0.040 C 
HETATM    9  N9  UNL     1     -42.249   8.224  -4.136  1.00 20.00    -0.192 NA
HETATM   10  O10 UNL     1     -41.498   4.548   0.372  1.00 20.00    -0.386 OA
ENDROOT
TORSDOF 0
ENDMDL
MODEL 9
REMARK VINA RESULT:      -4.0     12.080     13.428
REMARK  0 active torsions:
REMARK  status: ('A' for Active; 'I' for Inactive)
ROOT
HETATM    1  C1  UNL     1     -41.566   3.113  -2.669  1.00 20.00     0.088 C 
HETATM    2  C2  UNL     1     -41.558   5.072  -1.268  1.00 20.00    -0.066 C 
HETATM    3  C3  UNL     1     -40.910   4.035  -1.816  1.00 20.00     0.096 C 
HETATM    4  C4  UNL     1     -40.895   6.070  -0.360  1.00 20.00     0.061 C 
HETATM    5  C5  UNL     1     -43.010   5.366  -1.524  1.00 20.00     0.066 C 
HETATM    6  C6  UNL     1     -41.154   7.481  -0.877  1.00 20.00     0.172 C 
HETATM    7  C7  UNL     1     -43.197   6.823  -1.967  1.00 20.00     0.121 C 
HETATM    8  C8  UNL     1     -42.767   7.079  -3.410  1.00 20.00     0.040 C 
HETATM    9  N9  UNL     1     -42.099   2.355  -3.368  1.00 20.00    -0.192 NA
HETATM   10  O10 UNL     1     -42.553   7.725  -1.054  1.00 20.00    -0.386 OA
ENDROOT
TORSDOF 0
ENDMDL
