MODEL 1
REMARK VINA RESULT:      -4.0      0.000      0.000
REMARK  2 active torsions:
REMARK  status: ('A' for Active; 'I' for Inactive)
REMARK    1  A    between atoms: C4_4  and  S10_10 
REMARK    2  A    between atoms: C5_5  and  C8_8 
ROOT
HETATM    1  C1  UNL     1     -34.282  16.782  -6.488  1.00 20.00     0.041 C 
HETATM    2  C2  UNL     1     -34.933  14.905  -4.961  1.00 20.00     0.052 C 
HETATM    3  C3  UNL     1     -33.477  17.365  -5.334  1.00 20.00     0.170 C 
HETATM    4  C4  UNL     1     -34.389  15.265  -6.346  1.00 20.00     0.049 C 
HETATM    5  C5  UNL     1     -34.134  15.589  -3.832  1.00 20.00     0.058 C 
HETATM    6  C6  UNL     1     -32.741  14.966  -3.649  1.00 20.00     0.046 C 
HETATM    7  O9  UNL     1     -34.033  17.001  -4.073  1.00 20.00    -0.381 OA
ENDROOT
BRANCH   5   8
HETATM    8  C8  UNL     1     -34.903  15.442  -2.511  1.00 20.00     0.033 C 
HETATM    9  C7  UNL     1     -34.471  16.463  -1.515  1.00 20.00     0.008 C 
ENDBRANCH   5   8
BRANCH   4  10
HETATM   10  S10 UNL     1     -35.471  14.582  -7.646  1.00 20.00    -0.177 SA
HETATM   11  H26 UNL     1     -36.332  13.993  -6.806  1.00 20.00     0.102 HD
ENDBRANCH   4  10
TORSDOF 2
ENDMDL
MODEL 2
REMARK VINA RESULT:      -3.9      2.032      2.436
REMARK  2 active torsions:
REMARK  status: ('A' for Active; 'I' for Inactive)
REMARK    1  A    between atoms: C4_4  and  S10_10 
REMARK    2  A    between atoms: C5_5  and  C8_8 
ROOT
HETATM    1  C1  UNL     1     -36.523  15.380  -5.682  1.00 20.00     0.041 C 
HETATM    2  C2  UNL     1     -36.015  15.259  -3.232  1.00 20.00     0.052 C 
HETATM    3  C3  UNL     1     -35.022  15.328  -5.937  1.00 20.00     0.170 C 
HETATM    4  C4  UNL     1     -36.862  14.679  -4.368  1.00 20.00     0.049 C 
HETATM    5  C5  UNL     1     -34.511  15.259  -3.576  1.00 20.00     0.058 C 
HETATM    6  C6  UNL     1     -33.910  13.845  -3.550  1.00 20.00     0.046 C 
HETATM    7  O9  UNL     1     -34.288  15.883  -4.849  1.00 20.00    -0.381 OA
ENDROOT
BRANCH   5   8
HETATM    8  C8  UNL     1     -33.760  16.119  -2.549  1.00 20.00     0.033 C 
HETATM    9  C7  UNL     1     -34.607  16.404  -1.356  1.00 20.00     0.008 C 
ENDBRANCH   5   8
BRANCH   4  10
HETATM   10  S10 UNL     1     -38.636  14.865  -3.990  1.00 20.00    -0.177 SA
HETATM   11  H26 UNL     1     -38.500  14.772  -2.661  1.00 20.00     0.102 HD
ENDBRANCH   4  10
TORSDOF 2
ENDMDL
MODEL 3
REMARK VINA RESULT:      -3.9      1.607      2.443
REMARK  2 active torsions:
REMARK  status: ('A' for Active; 'I' for Inactive)
REMARK    1  A    between atoms: C4_4  and  S10_10 
REMARK    2  A    between atoms: C5_5  and  C8_8 
ROOT
HETATM    1  C1  UNL     1     -34.822  13.804  -5.702  1.00 20.00     0.041 C 
HETATM    2  C2  UNL     1     -34.569  16.116  -4.770  1.00 20.00     0.052 C 
HETATM    3  C3  UNL     1     -35.098  13.324  -4.283  1.00 20.00     0.170 C 
HETATM    4  C4  UNL     1     -35.234  15.266  -5.857  1.00 20.00     0.049 C 
HETATM    5  C5  UNL     1     -34.810  15.539  -3.359  1.00 20.00     0.058 C 
HETATM    6  C6  UNL     1     -36.259  15.742  -2.890  1.00 20.00     0.046 C 
HETATM    7  O9  UNL     1     -34.451  14.149  -3.318  1.00 20.00    -0.381 OA
ENDROOT
BRANCH   5   8
HETATM    8  C8  UNL     1     -33.878  16.243  -2.362  1.00 20.00     0.033 C 
HETATM    9  C7  UNL     1     -34.582  16.551  -1.085  1.00 20.00     0.008 C 
ENDBRANCH   5   8
BRANCH   4  10
HETATM   10  S10 UNL     1     -34.772  15.884  -7.510  1.00 20.00    -0.177 SA
HETATM   11  H26 UNL     1     -33.469  16.028  -7.239  1.00 20.00     0.102 HD
ENDBRANCH   4  10
TORSDOF 2
ENDMDL
MODEL 4
REMARK VINA RESULT:      -3.8      2.592      4.213
REMARK  2 active torsions:
REMARK  status: ('A' for Active; 'I' for Inactive)
REMARK    1  A    between atoms: C4_4  and  S10_10 
REMARK    2  A    between atoms: C5_5  and  C8_8 
ROOT
HETATM    1  C1  UNL     1     -36.297  15.647  -2.993  1.00 20.00     0.041 C 
HETATM    2  C2  UNL     1     -34.168  15.536  -4.310  1.00 20.00     0.052 C 
HETATM    3  C3  UNL     1     -36.892  14.651  -3.979  1.00 20.00     0.170 C 
HETATM    4  C4  UNL     1     -34.782  15.469  -2.909  1.00 20.00     0.049 C 
HETATM    5  C5  UNL     1     -34.863  14.568  -5.291  1.00 20.00     0.058 C 
HETATM    6  C6  UNL     1     -34.509  13.100  -5.005  1.00 20.00     0.046 C 
HETATM    7  O9  UNL     1     -36.285  14.763  -5.264  1.00 20.00    -0.381 OA
ENDROOT
BRANCH   5   8
HETATM    8  C8  UNL     1     -34.420  14.899  -6.723  1.00 20.00     0.033 C 
HETATM    9  C7  UNL     1     -35.463  14.516  -7.716  1.00 20.00     0.008 C 
ENDBRANCH   5   8
BRANCH   4  10
HETATM   10  S10 UNL     1     -34.051  16.753  -1.839  1.00 20.00    -0.177 SA
HETATM   11  H26 UNL     1     -34.563  17.793  -2.510  1.00 20.00     0.102 HD
ENDBRANCH   4  10
TORSDOF 2
ENDMDL
MODEL 5
REMARK VINA RESULT:      -3.7      1.957      3.221
REMARK  2 active torsions:
REMARK  status: ('A' for Active; 'I' for Inactive)
REMARK    1  A    between atoms: C4_4  and  S10_10 
REMARK    2  A    between atoms: C5_5  and  C8_8 
ROOT
HETATM    1  C1  UNL     1     -35.546  13.779  -4.164  1.00 20.00     0.041 C 
HETATM    2  C2  UNL     1     -35.766  16.261  -3.904  1.00 20.00     0.052 C 
HETATM    3  C3  UNL     1     -34.088  13.922  -3.748  1.00 20.00     0.170 C 
HETATM    4  C4  UNL     1     -36.383  14.904  -3.558  1.00 20.00     0.049 C 
HETATM    5  C5  UNL     1     -34.267  16.324  -3.539  1.00 20.00     0.058 C 
HETATM    6  C6  UNL     1     -34.043  16.402  -2.021  1.00 20.00     0.046 C 
HETATM    7  O9  UNL     1     -33.568  15.202  -4.100  1.00 20.00    -0.381 OA
ENDROOT
BRANCH   5   8
HETATM    8  C8  UNL     1     -33.645  17.571  -4.182  1.00 20.00     0.033 C 
HETATM    9  C7  UNL     1     -33.644  17.472  -5.669  1.00 20.00     0.008 C 
ENDBRANCH   5   8
BRANCH   4  10
HETATM   10  S10 UNL     1     -38.099  14.817  -4.169  1.00 20.00    -0.177 SA
HETATM   11  H26 UNL     1     -37.903  15.609  -5.231  1.00 20.00     0.102 HD
ENDBRANCH   4  10
TORSDOF 2
ENDMDL
MODEL 6
REMARK VINA RESULT:      -3.7      2.026      2.824
REMARK  2 active torsions:
REMARK  status: ('A' for Active; 'I' for Inactive)
REMARK    1  A    between atoms: C4_4  and  S10_10 
REMARK    2  A    between atoms: C5_5  and  C8_8 
ROOT
HETATM    1  C1  UNL     1     -36.468  15.151  -3.864  1.00 20.00     0.041 C 
HETATM    2  C2  UNL     1     -34.115  15.474  -3.068  1.00 20.00     0.052 C 
HETATM    3  C3  UNL     1     -36.767  16.562  -3.375  1.00 20.00     0.170 C 
HETATM    4  C4  UNL     1     -34.993  15.021  -4.237  1.00 20.00     0.049 C 
HETATM    5  C5  UNL     1     -34.514  16.875  -2.557  1.00 20.00     0.058 C 
HETATM    6  C6  UNL     1     -34.106  17.987  -3.535  1.00 20.00     0.046 C 
HETATM    7  O9  UNL     1     -35.923  16.927  -2.286  1.00 20.00    -0.381 OA
ENDROOT
BRANCH   5   8
HETATM    8  C8  UNL     1     -33.818  17.137  -1.213  1.00 20.00     0.033 C 
HETATM    9  C7  UNL     1     -34.792  17.123  -0.085  1.00 20.00     0.008 C 
ENDBRANCH   5   8
BRANCH   4  10
HETATM   10  S10 UNL     1     -34.603  13.296  -4.686  1.00 20.00    -0.177 SA
HETATM   11  H26 UNL     1     -33.923  13.599  -5.800  1.00 20.00     0.102 HD
ENDBRANCH   4  10
TORSDOF 2
ENDMDL
MODEL 7
REMARK VINA RESULT:      -3.7      2.735      3.605
REMARK  2 active torsions:
REMARK  status: ('A' for Active; 'I' for Inactive)
REMARK    1  A    between atoms: C4_4  and  S10_10 
REMARK    2  A    between atoms: C5_5  and  C8_8 
ROOT
HETATM    1  C1  UNL     1     -38.581  15.615  -5.169  1.00 20.00     0.041 C 
HETATM    2  C2  UNL     1     -36.125  15.257  -5.516  1.00 20.00     0.052 C 
HETATM    3  C3  UNL     1     -38.427  14.949  -3.808  1.00 20.00     0.170 C 
HETATM    4  C4  UNL     1     -37.268  16.273  -5.587  1.00 20.00     0.049 C 
HETATM    5  C5  UNL     1     -36.067  14.551  -4.144  1.00 20.00     0.058 C 
HETATM    6  C6  UNL     1     -35.554  15.482  -3.034  1.00 20.00     0.046 C 
HETATM    7  O9  UNL     1     -37.353  14.012  -3.803  1.00 20.00    -0.381 OA
ENDROOT
BRANCH   5   8
HETATM    8  C8  UNL     1     -35.118  13.348  -4.238  1.00 20.00     0.033 C 
HETATM    9  C7  UNL     1     -33.727  13.721  -3.854  1.00 20.00     0.008 C 
ENDBRANCH   5   8
BRANCH   4  10
HETATM   10  S10 UNL     1     -37.406  16.947  -7.277  1.00 20.00    -0.177 SA
HETATM   11  H26 UNL     1     -37.179  15.785  -7.903  1.00 20.00     0.102 HD
ENDBRANCH   4  10
TORSDOF 2
ENDMDL
MODEL 8
REMARK VINA RESULT:      -3.7      2.109      2.922
REMARK  2 active torsions:
REMARK  status: ('A' for Active; 'I' for Inactive)
REMARK    1  A    between atoms: C4_4  and  S10_10 
REMARK    2  A    between atoms: C5_5  and  C8_8 
ROOT
HETATM    1  C1  UNL     1     -33.970  17.567  -3.060  1.00 20.00     0.041 C 
HETATM    2  C2  UNL     1     -34.526  15.933  -4.876  1.00 20.00     0.052 C 
HETATM    3  C3  UNL     1     -34.020  16.404  -2.077  1.00 20.00     0.170 C 
HETATM    4  C4  UNL     1     -33.590  17.067  -4.452  1.00 20.00     0.049 C 
HETATM    5  C5  UNL     1     -34.605  14.821  -3.808  1.00 20.00     0.058 C 
HETATM    6  C6  UNL     1     -33.318  13.984  -3.746  1.00 20.00     0.046 C 
HETATM    7  O9  UNL     1     -34.909  15.383  -2.521  1.00 20.00    -0.381 OA
ENDROOT
BRANCH   5   8
HETATM    8  C8  UNL     1     -35.773  13.883  -4.143  1.00 20.00     0.033 C 
HETATM    9  C7  UNL     1     -37.085  14.579  -4.007  1.00 20.00     0.008 C 
ENDBRANCH   5   8
BRANCH   4  10
HETATM   10  S10 UNL     1     -33.669  18.433  -5.659  1.00 20.00    -0.177 SA
HETATM   11  H26 UNL     1     -33.402  19.405  -4.778  1.00 20.00     0.102 HD
ENDBRANCH   4  10
TORSDOF 2
ENDMDL
MODEL 9
REMARK VINA RESULT:      -3.7      2.933      3.941
REMARK  2 active torsions:
REMARK  status: ('A' for Active; 'I' for Inactive)
REMARK    1  A    between atoms: C4_4  and  S10_10 
REMARK    2  A    between atoms: C5_5  and  C8_8 
ROOT
HETATM    1  C1  UNL     1     -33.824  18.104  -2.507  1.00 20.00     0.041 C 
HETATM    2  C2  UNL     1     -34.490  15.710  -2.180  1.00 20.00     0.052 C 
HETATM    3  C3  UNL     1     -33.732  17.814  -3.999  1.00 20.00     0.170 C 
HETATM    4  C4  UNL     1     -34.832  17.165  -1.847  1.00 20.00     0.049 C 
HETATM    5  C5  UNL     1     -34.325  15.490  -3.698  1.00 20.00     0.058 C 
HETATM    6  C6  UNL     1     -35.670  15.537  -4.440  1.00 20.00     0.046 C 
HETATM    7  O9  UNL     1     -33.407  16.448  -4.247  1.00 20.00    -0.381 OA
ENDROOT
BRANCH   5   8
HETATM    8  C8  UNL     1     -33.691  14.113  -3.941  1.00 20.00     0.033 C 
HETATM    9  C7  UNL     1     -34.580  13.242  -4.760  1.00 20.00     0.008 C 
ENDBRANCH   5   8
BRANCH   4  10
HETATM   10  S10 UNL     1     -34.839  17.413  -0.039  1.00 20.00    -0.177 SA
HETATM   11  H26 UNL     1     -36.171  17.476   0.081  1.00 20.00     0.102 HD
ENDBRANCH   4  10
TORSDOF 2
ENDMDL
