MODEL 1
REMARK VINA RESULT:      -4.1      0.000      0.000
REMARK  0 active torsions:
REMARK  status: ('A' for Active; 'I' for Inactive)
ROOT
HETATM    1  C1  UNL     1     -34.343   4.989   6.591  1.00 20.00     0.046 C 
HETATM    2  C2  UNL     1     -33.819   6.369   4.569  1.00 20.00     0.057 C 
HETATM    3  C3  UNL     1     -35.185   4.094   5.693  1.00 20.00     0.170 C 
HETATM    4  C4  UNL     1     -34.285   6.403   6.024  1.00 20.00     0.087 C 
HETATM    5  C5  UNL     1     -34.652   5.388   3.721  1.00 20.00     0.055 C 
HETATM    6  C6  UNL     1     -33.951   5.169   2.372  1.00 20.00     0.045 C 
HETATM    7  C7  UNL     1     -36.068   5.915   3.447  1.00 20.00     0.045 C 
HETATM    8  O8  UNL     1     -34.702   4.098   4.351  1.00 20.00    -0.381 OA
HETATM    9 CL9  UNL     1     -33.182   7.413   7.001  1.00 20.00    -0.125 Cl
ENDROOT
TORSDOF 0
ENDMDL
MODEL 2
REMARK VINA RESULT:      -4.0     12.427     13.274
REMARK  0 active torsions:
REMARK  status: ('A' for Active; 'I' for Inactive)
ROOT
HETATM    1  C1  UNL     1     -33.778  17.431  -3.335  1.00 20.00     0.046 C 
HETATM    2  C2  UNL     1     -34.852  15.324  -2.515  1.00 20.00     0.057 C 
HETATM    3  C3  UNL     1     -33.424  16.687  -4.615  1.00 20.00     0.170 C 
HETATM    4  C4  UNL     1     -33.886  16.457  -2.168  1.00 20.00     0.087 C 
HETATM    5  C5  UNL     1     -34.498  14.657  -3.859  1.00 20.00     0.055 C 
HETATM    6  C6  UNL     1     -35.663  13.756  -4.295  1.00 20.00     0.045 C 
HETATM    7  C7  UNL     1     -33.233  13.793  -3.761  1.00 20.00     0.045 C 
HETATM    8  O8  UNL     1     -34.361  15.647  -4.890  1.00 20.00    -0.381 OA
HETATM    9 CL9  UNL     1     -34.440  17.312  -0.701  1.00 20.00    -0.125 Cl
ENDROOT
TORSDOF 0
ENDMDL
MODEL 3
REMARK VINA RESULT:      -3.9      8.956     10.253
REMARK  0 active torsions:
REMARK  status: ('A' for Active; 'I' for Inactive)
ROOT
HETATM    1  C1  UNL     1     -41.146   7.015  -1.191  1.00 20.00     0.046 C 
HETATM    2  C2  UNL     1     -42.465   5.484  -2.669  1.00 20.00     0.057 C 
HETATM    3  C3  UNL     1     -40.741   5.793  -0.380  1.00 20.00     0.170 C 
HETATM    4  C4  UNL     1     -42.495   6.782  -1.863  1.00 20.00     0.087 C 
HETATM    5  C5  UNL     1     -41.970   4.293  -1.824  1.00 20.00     0.055 C 
HETATM    6  C6  UNL     1     -41.670   3.108  -2.753  1.00 20.00     0.045 C 
HETATM    7  C7  UNL     1     -43.013   3.842  -0.792  1.00 20.00     0.045 C 
HETATM    8  O8  UNL     1     -40.726   4.615  -1.184  1.00 20.00    -0.381 OA
HETATM    9 CL9  UNL     1     -42.899   8.159  -2.926  1.00 20.00    -0.125 Cl
ENDROOT
TORSDOF 0
ENDMDL
MODEL 4
REMARK VINA RESULT:      -3.9     12.706     13.587
REMARK  0 active torsions:
REMARK  status: ('A' for Active; 'I' for Inactive)
ROOT
HETATM    1  C1  UNL     1     -34.365  13.900  -3.469  1.00 20.00     0.046 C 
HETATM    2  C2  UNL     1     -34.830  16.133  -4.501  1.00 20.00     0.057 C 
HETATM    3  C3  UNL     1     -34.684  13.272  -4.818  1.00 20.00     0.170 C 
HETATM    4  C4  UNL     1     -35.113  15.219  -3.309  1.00 20.00     0.087 C 
HETATM    5  C5  UNL     1     -35.090  15.423  -5.845  1.00 20.00     0.055 C 
HETATM    6  C6  UNL     1     -34.502  16.270  -6.983  1.00 20.00     0.045 C 
HETATM    7  C7  UNL     1     -36.589  15.228  -6.116  1.00 20.00     0.045 C 
HETATM    8  O8  UNL     1     -34.397  14.167  -5.891  1.00 20.00    -0.381 OA
HETATM    9 CL9  UNL     1     -34.627  16.022  -1.789  1.00 20.00    -0.125 Cl
ENDROOT
TORSDOF 0
ENDMDL
MODEL 5
REMARK VINA RESULT:      -3.9     13.044     13.898
REMARK  0 active torsions:
REMARK  status: ('A' for Active; 'I' for Inactive)
ROOT
HETATM    1  C1  UNL     1     -35.138  14.140  -6.135  1.00 20.00     0.046 C 
HETATM    2  C2  UNL     1     -34.346  16.110  -4.808  1.00 20.00     0.057 C 
HETATM    3  C3  UNL     1     -34.797  13.266  -4.937  1.00 20.00     0.170 C 
HETATM    4  C4  UNL     1     -34.258  15.384  -6.151  1.00 20.00     0.087 C 
HETATM    5  C5  UNL     1     -34.073  15.163  -3.623  1.00 20.00     0.055 C 
HETATM    6  C6  UNL     1     -34.475  15.862  -2.317  1.00 20.00     0.045 C 
HETATM    7  C7  UNL     1     -32.590  14.773  -3.523  1.00 20.00     0.045 C 
HETATM    8  O8  UNL     1     -34.901  13.993  -3.714  1.00 20.00    -0.381 OA
HETATM    9 CL9  UNL     1     -34.757  16.475  -7.475  1.00 20.00    -0.125 Cl
ENDROOT
TORSDOF 0
ENDMDL
MODEL 6
REMARK VINA RESULT:      -3.9     12.580     13.361
REMARK  0 active torsions:
REMARK  status: ('A' for Active; 'I' for Inactive)
ROOT
HETATM    1  C1  UNL     1     -33.583  16.751  -3.187  1.00 20.00     0.046 C 
HETATM    2  C2  UNL     1     -35.750  15.517  -2.966  1.00 20.00     0.057 C 
HETATM    3  C3  UNL     1     -33.440  16.140  -4.574  1.00 20.00     0.170 C 
HETATM    4  C4  UNL     1     -34.418  15.843  -2.292  1.00 20.00     0.087 C 
HETATM    5  C5  UNL     1     -35.554  14.978  -4.397  1.00 20.00     0.055 C 
HETATM    6  C6  UNL     1     -36.908  14.964  -5.120  1.00 20.00     0.045 C 
HETATM    7  C7  UNL     1     -34.990  13.549  -4.406  1.00 20.00     0.045 C 
HETATM    8  O8  UNL     1     -34.713  15.861  -5.155  1.00 20.00    -0.381 OA
HETATM    9 CL9  UNL     1     -34.703  16.629  -0.713  1.00 20.00    -0.125 Cl
ENDROOT
TORSDOF 0
ENDMDL
MODEL 7
REMARK VINA RESULT:      -3.8     12.879     13.853
REMARK  0 active torsions:
REMARK  status: ('A' for Active; 'I' for Inactive)
ROOT
HETATM    1  C1  UNL     1     -33.469  15.935  -4.888  1.00 20.00     0.046 C 
HETATM    2  C2  UNL     1     -34.659  15.154  -2.829  1.00 20.00     0.057 C 
HETATM    3  C3  UNL     1     -33.657  17.361  -4.389  1.00 20.00     0.170 C 
HETATM    4  C4  UNL     1     -34.575  15.035  -4.351  1.00 20.00     0.087 C 
HETATM    5  C5  UNL     1     -34.767  16.622  -2.372  1.00 20.00     0.055 C 
HETATM    6  C6  UNL     1     -34.537  16.694  -0.855  1.00 20.00     0.045 C 
HETATM    7  C7  UNL     1     -36.146  17.225  -2.678  1.00 20.00     0.045 C 
HETATM    8  O8  UNL     1     -33.724  17.410  -2.965  1.00 20.00    -0.381 OA
HETATM    9 CL9  UNL     1     -34.272  13.339  -4.821  1.00 20.00    -0.125 Cl
ENDROOT
TORSDOF 0
ENDMDL
MODEL 8
REMARK VINA RESULT:      -3.8      8.950     10.454
REMARK  0 active torsions:
REMARK  status: ('A' for Active; 'I' for Inactive)
ROOT
HETATM    1  C1  UNL     1     -42.852   4.533  -3.058  1.00 20.00     0.046 C 
HETATM    2  C2  UNL     1     -40.936   4.264  -1.468  1.00 20.00     0.057 C 
HETATM    3  C3  UNL     1     -43.416   5.584  -2.113  1.00 20.00     0.170 C 
HETATM    4  C4  UNL     1     -41.999   3.532  -2.288  1.00 20.00     0.087 C 
HETATM    5  C5  UNL     1     -41.550   5.372  -0.590  1.00 20.00     0.055 C 
HETATM    6  C6  UNL     1     -40.424   6.260  -0.040  1.00 20.00     0.045 C 
HETATM    7  C7  UNL     1     -42.336   4.800   0.600  1.00 20.00     0.045 C 
HETATM    8  O8  UNL     1     -42.381   6.237  -1.380  1.00 20.00    -0.381 OA
HETATM    9 CL9  UNL     1     -41.224   2.386  -3.417  1.00 20.00    -0.125 Cl
ENDROOT
TORSDOF 0
ENDMDL
MODEL 9
REMARK VINA RESULT:      -3.7     12.498     13.271
REMARK  0 active torsions:
REMARK  status: ('A' for Active; 'I' for Inactive)
ROOT
HETATM    1  C1  UNL     1     -35.522  13.635  -4.186  1.00 20.00     0.046 C 
HETATM    2  C2  UNL     1     -35.839  15.847  -3.056  1.00 20.00     0.057 C 
HETATM    3  C3  UNL     1     -34.029  13.927  -4.215  1.00 20.00     0.170 C 
HETATM    4  C4  UNL     1     -36.316  14.937  -4.188  1.00 20.00     0.087 C 
HETATM    5  C5  UNL     1     -34.310  16.045  -3.082  1.00 20.00     0.055 C 
HETATM    6  C6  UNL     1     -33.865  16.699  -1.766  1.00 20.00     0.045 C 
HETATM    7  C7  UNL     1     -33.862  16.945  -4.242  1.00 20.00     0.045 C 
HETATM    8  O8  UNL     1     -33.641  14.775  -3.136  1.00 20.00    -0.381 OA
HETATM    9 CL9  UNL     1     -38.060  14.595  -4.009  1.00 20.00    -0.125 Cl
ENDROOT
TORSDOF 0
ENDMDL
