MODEL 1
REMARK VINA RESULT:      -4.7      0.000      0.000
REMARK  0 active torsions:
REMARK  status: ('A' for Active; 'I' for Inactive)
ROOT
HETATM    1  C1  UNL     1     -37.582  14.567  -4.052  1.00 20.00     0.085 C 
HETATM    2  C2  UNL     1     -35.343  13.544  -4.181  1.00 20.00     0.067 C 
HETATM    3  C3  UNL     1     -35.622  15.906  -3.363  1.00 20.00     0.078 C 
HETATM    4  C4  UNL     1     -33.844  13.806  -4.213  1.00 20.00     0.171 C 
HETATM    5  C5  UNL     1     -36.159  14.833  -4.326  1.00 20.00     0.130 C 
HETATM    6  C6  UNL     1     -34.080  16.026  -3.293  1.00 20.00     0.056 C 
HETATM    7  C7  UNL     1     -33.708  16.753  -1.988  1.00 20.00     0.045 C 
HETATM    8  C8  UNL     1     -33.471  16.829  -4.451  1.00 20.00     0.045 C 
HETATM    9  N9  UNL     1     -38.703  14.358  -3.836  1.00 20.00    -0.195 NA
HETATM   10  O10 UNL     1     -33.467  14.733  -3.199  1.00 20.00    -0.381 OA
HETATM   11 CL11 UNL     1     -36.108  15.410  -6.025  1.00 20.00    -0.103 Cl
ENDROOT
TORSDOF 0
ENDMDL
MODEL 2
REMARK VINA RESULT:      -4.7      1.972      2.660
REMARK  0 active torsions:
REMARK  status: ('A' for Active; 'I' for Inactive)
ROOT
HETATM    1  C1  UNL     1     -34.884  13.803  -4.427  1.00 20.00     0.085 C 
HETATM    2  C2  UNL     1     -33.716  15.966  -4.619  1.00 20.00     0.067 C 
HETATM    3  C3  UNL     1     -35.131  15.454  -2.603  1.00 20.00     0.078 C 
HETATM    4  C4  UNL     1     -33.641  17.400  -4.114  1.00 20.00     0.171 C 
HETATM    5  C5  UNL     1     -34.971  15.242  -4.118  1.00 20.00     0.130 C 
HETATM    6  C6  UNL     1     -34.876  16.896  -2.102  1.00 20.00     0.056 C 
HETATM    7  C7  UNL     1     -34.597  16.842  -0.588  1.00 20.00     0.045 C 
HETATM    8  C8  UNL     1     -36.068  17.841  -2.311  1.00 20.00     0.045 C 
HETATM    9  N9  UNL     1     -34.816  12.671  -4.669  1.00 20.00    -0.195 NA
HETATM   10  O10 UNL     1     -33.689  17.443  -2.691  1.00 20.00    -0.381 OA
HETATM   11 CL11 UNL     1     -36.417  15.826  -5.006  1.00 20.00    -0.103 Cl
ENDROOT
TORSDOF 0
ENDMDL
MODEL 3
REMARK VINA RESULT:      -4.3      2.521      3.241
REMARK  0 active torsions:
REMARK  status: ('A' for Active; 'I' for Inactive)
ROOT
HETATM    1  C1  UNL     1     -34.949  15.893  -2.237  1.00 20.00     0.085 C 
HETATM    2  C2  UNL     1     -34.607  13.925  -3.682  1.00 20.00     0.067 C 
HETATM    3  C3  UNL     1     -35.064  16.185  -4.689  1.00 20.00     0.078 C 
HETATM    4  C4  UNL     1     -34.800  13.343  -5.075  1.00 20.00     0.171 C 
HETATM    5  C5  UNL     1     -35.354  15.251  -3.501  1.00 20.00     0.130 C 
HETATM    6  C6  UNL     1     -35.100  15.516  -6.085  1.00 20.00     0.056 C 
HETATM    7  C7  UNL     1     -34.338  16.417  -7.075  1.00 20.00     0.045 C 
HETATM    8  C8  UNL     1     -36.518  15.326  -6.641  1.00 20.00     0.045 C 
HETATM    9  N9  UNL     1     -34.632  16.398  -1.242  1.00 20.00    -0.195 NA
HETATM   10  O10 UNL     1     -34.390  14.270  -6.077  1.00 20.00    -0.381 OA
HETATM   11 CL11 UNL     1     -37.115  14.951  -3.333  1.00 20.00    -0.103 Cl
ENDROOT
TORSDOF 0
ENDMDL
MODEL 4
REMARK VINA RESULT:      -4.2      2.552      3.263
REMARK  0 active torsions:
REMARK  status: ('A' for Active; 'I' for Inactive)
ROOT
HETATM    1  C1  UNL     1     -34.682  13.736  -4.292  1.00 20.00     0.085 C 
HETATM    2  C2  UNL     1     -35.131  15.580  -2.718  1.00 20.00     0.067 C 
HETATM    3  C3  UNL     1     -34.817  16.042  -5.171  1.00 20.00     0.078 C 
HETATM    4  C4  UNL     1     -35.066  17.084  -2.498  1.00 20.00     0.171 C 
HETATM    5  C5  UNL     1     -34.394  15.150  -3.991  1.00 20.00     0.130 C 
HETATM    6  C6  UNL     1     -34.907  17.556  -4.861  1.00 20.00     0.056 C 
HETATM    7  C7  UNL     1     -35.779  18.222  -5.941  1.00 20.00     0.045 C 
HETATM    8  C8  UNL     1     -33.548  18.270  -4.869  1.00 20.00     0.045 C 
HETATM    9  N9  UNL     1     -34.909  12.623  -4.529  1.00 20.00    -0.195 NA
HETATM   10  O10 UNL     1     -35.590  17.788  -3.621  1.00 20.00    -0.381 OA
HETATM   11 CL11 UNL     1     -32.620  15.222  -3.733  1.00 20.00    -0.103 Cl
ENDROOT
TORSDOF 0
ENDMDL
MODEL 5
REMARK VINA RESULT:      -4.2      2.343      3.363
REMARK  0 active torsions:
REMARK  status: ('A' for Active; 'I' for Inactive)
ROOT
HETATM    1  C1  UNL     1     -36.329  17.256  -2.636  1.00 20.00     0.085 C 
HETATM    2  C2  UNL     1     -34.474  17.413  -4.253  1.00 20.00     0.067 C 
HETATM    3  C3  UNL     1     -35.388  15.170  -3.573  1.00 20.00     0.078 C 
HETATM    4  C4  UNL     1     -33.338  16.666  -4.935  1.00 20.00     0.171 C 
HETATM    5  C5  UNL     1     -35.092  16.606  -3.106  1.00 20.00     0.130 C 
HETATM    6  C6  UNL     1     -34.274  14.502  -4.414  1.00 20.00     0.056 C 
HETATM    7  C7  UNL     1     -34.892  13.322  -5.188  1.00 20.00     0.045 C 
HETATM    8  C8  UNL     1     -33.119  13.939  -3.573  1.00 20.00     0.045 C 
HETATM    9  N9  UNL     1     -37.303  17.766  -2.266  1.00 20.00    -0.195 NA
HETATM   10  O10 UNL     1     -33.777  15.399  -5.417  1.00 20.00    -0.381 OA
HETATM   11 CL11 UNL     1     -33.993  16.608  -1.687  1.00 20.00    -0.103 Cl
ENDROOT
TORSDOF 0
ENDMDL
MODEL 6
REMARK VINA RESULT:      -4.2      1.558      2.194
REMARK  0 active torsions:
REMARK  status: ('A' for Active; 'I' for Inactive)
ROOT
HETATM    1  C1  UNL     1     -37.159  14.728  -3.789  1.00 20.00     0.085 C 
HETATM    2  C2  UNL     1     -35.224  15.545  -2.498  1.00 20.00     0.067 C 
HETATM    3  C3  UNL     1     -35.697  16.448  -4.798  1.00 20.00     0.078 C 
HETATM    4  C4  UNL     1     -33.887  16.270  -2.565  1.00 20.00     0.171 C 
HETATM    5  C5  UNL     1     -35.769  15.207  -3.890  1.00 20.00     0.130 C 
HETATM    6  C6  UNL     1     -34.383  17.261  -4.710  1.00 20.00     0.056 C 
HETATM    7  C7  UNL     1     -34.647  18.672  -5.269  1.00 20.00     0.045 C 
HETATM    8  C8  UNL     1     -33.229  16.658  -5.523  1.00 20.00     0.045 C 
HETATM    9  N9  UNL     1     -38.254  14.351  -3.710  1.00 20.00    -0.195 NA
HETATM   10  O10 UNL     1     -33.989  17.458  -3.345  1.00 20.00    -0.381 OA
HETATM   11 CL11 UNL     1     -34.851  13.838  -4.599  1.00 20.00    -0.103 Cl
ENDROOT
TORSDOF 0
ENDMDL
MODEL 7
REMARK VINA RESULT:      -4.2      1.552      2.068
REMARK  0 active torsions:
REMARK  status: ('A' for Active; 'I' for Inactive)
ROOT
HETATM    1  C1  UNL     1     -37.928  14.786  -4.126  1.00 20.00     0.085 C 
HETATM    2  C2  UNL     1     -36.397  15.071  -6.038  1.00 20.00     0.067 C 
HETATM    3  C3  UNL     1     -35.493  14.622  -3.733  1.00 20.00     0.078 C 
HETATM    4  C4  UNL     1     -34.966  15.364  -6.465  1.00 20.00     0.171 C 
HETATM    5  C5  UNL     1     -36.611  15.306  -4.538  1.00 20.00     0.130 C 
HETATM    6  C6  UNL     1     -34.063  14.799  -4.298  1.00 20.00     0.056 C 
HETATM    7  C7  UNL     1     -33.165  13.700  -3.700  1.00 20.00     0.045 C 
HETATM    8  C8  UNL     1     -33.424  16.150  -3.947  1.00 20.00     0.045 C 
HETATM    9  N9  UNL     1     -38.964  14.378  -3.802  1.00 20.00    -0.195 NA
HETATM   10  O10 UNL     1     -34.039  14.583  -5.716  1.00 20.00    -0.381 OA
HETATM   11 CL11 UNL     1     -36.671  17.065  -4.190  1.00 20.00    -0.103 Cl
ENDROOT
TORSDOF 0
ENDMDL
MODEL 8
REMARK VINA RESULT:      -4.1      2.595      3.307
REMARK  0 active torsions:
REMARK  status: ('A' for Active; 'I' for Inactive)
ROOT
HETATM    1  C1  UNL     1     -34.745  13.779  -4.937  1.00 20.00     0.085 C 
HETATM    2  C2  UNL     1     -33.481  15.890  -4.771  1.00 20.00     0.067 C 
HETATM    3  C3  UNL     1     -35.954  15.916  -5.230  1.00 20.00     0.078 C 
HETATM    4  C4  UNL     1     -33.477  17.378  -5.090  1.00 20.00     0.171 C 
HETATM    5  C5  UNL     1     -34.637  15.154  -5.458  1.00 20.00     0.130 C 
HETATM    6  C6  UNL     1     -35.871  17.452  -5.395  1.00 20.00     0.056 C 
HETATM    7  C7  UNL     1     -37.082  18.083  -4.682  1.00 20.00     0.045 C 
HETATM    8  C8  UNL     1     -35.910  17.919  -6.857  1.00 20.00     0.045 C 
HETATM    9  N9  UNL     1     -34.830  12.697  -4.528  1.00 20.00    -0.195 NA
HETATM   10  O10 UNL     1     -34.716  17.980  -4.728  1.00 20.00    -0.381 OA
HETATM   11 CL11 UNL     1     -34.297  14.967  -7.210  1.00 20.00    -0.103 Cl
ENDROOT
TORSDOF 0
ENDMDL
MODEL 9
REMARK VINA RESULT:      -4.1      2.764      3.924
REMARK  0 active torsions:
REMARK  status: ('A' for Active; 'I' for Inactive)
ROOT
HETATM    1  C1  UNL     1     -34.374  16.362  -2.007  1.00 20.00     0.085 C 
HETATM    2  C2  UNL     1     -33.702  17.560  -4.055  1.00 20.00     0.067 C 
HETATM    3  C3  UNL     1     -35.375  15.684  -4.164  1.00 20.00     0.078 C 
HETATM    4  C4  UNL     1     -33.664  17.521  -5.576  1.00 20.00     0.171 C 
HETATM    5  C5  UNL     1     -34.118  16.214  -3.452  1.00 20.00     0.130 C 
HETATM    6  C6  UNL     1     -35.372  15.819  -5.706  1.00 20.00     0.056 C 
HETATM    7  C7  UNL     1     -36.825  15.713  -6.205  1.00 20.00     0.045 C 
HETATM    8  C8  UNL     1     -34.565  14.726  -6.419  1.00 20.00     0.045 C 
HETATM    9  N9  UNL     1     -34.575  16.477  -0.871  1.00 20.00    -0.195 NA
HETATM   10  O10 UNL     1     -34.923  17.121  -6.108  1.00 20.00    -0.381 OA
HETATM   11 CL11 UNL     1     -32.767  15.039  -3.571  1.00 20.00    -0.103 Cl
ENDROOT
TORSDOF 0
ENDMDL
