MODEL 1
REMARK VINA RESULT:      -3.9      0.000      0.000
REMARK  1 active torsions:
REMARK  status: ('A' for Active; 'I' for Inactive)
REMARK    1  A    between atoms: C5_5  and  C7_7 
ROOT
HETATM    1  C1  UNL     1     -33.527  15.900  -4.949  1.00 20.00     0.046 C 
HETATM    2  C2  UNL     1     -34.624  15.076  -2.847  1.00 20.00     0.052 C 
HETATM    3  C3  UNL     1     -33.665  17.310  -4.386  1.00 20.00     0.169 C 
HETATM    4  C4  UNL     1     -34.614  14.996  -4.373  1.00 20.00     0.086 C 
HETATM    5  C5  UNL     1     -34.711  16.538  -2.397  1.00 20.00     0.122 C 
HETATM    6  O8  UNL     1     -33.632  17.293  -2.959  1.00 20.00    -0.386 OA
HETATM    7 CL9  UNL     1     -34.361  13.311  -4.902  1.00 20.00    -0.125 Cl
ENDROOT
BRANCH   5   8
HETATM    8  C7  UNL     1     -34.620  16.653  -0.882  1.00 20.00     0.027 C 
HETATM    9  C6  UNL     1     -33.728  17.776  -0.462  1.00 20.00     0.007 C 
ENDBRANCH   5   8
TORSDOF 1
ENDMDL
MODEL 2
REMARK VINA RESULT:      -3.9      2.276      3.858
REMARK  1 active torsions:
REMARK  status: ('A' for Active; 'I' for Inactive)
REMARK    1  A    between atoms: C5_5  and  C7_7 
ROOT
HETATM    1  C1  UNL     1     -33.942  17.465  -3.328  1.00 20.00     0.046 C 
HETATM    2  C2  UNL     1     -34.542  15.034  -3.157  1.00 20.00     0.052 C 
HETATM    3  C3  UNL     1     -33.441  17.172  -4.738  1.00 20.00     0.169 C 
HETATM    4  C4  UNL     1     -33.852  16.209  -2.466  1.00 20.00     0.086 C 
HETATM    5  C5  UNL     1     -33.999  14.867  -4.581  1.00 20.00     0.122 C 
HETATM    6  O8  UNL     1     -34.163  16.085  -5.317  1.00 20.00    -0.386 OA
HETATM    7 CL9  UNL     1     -34.584  16.502  -0.866  1.00 20.00    -0.125 Cl
ENDROOT
BRANCH   5   8
HETATM    8  C7  UNL     1     -34.744  13.769  -5.326  1.00 20.00     0.027 C 
HETATM    9  C6  UNL     1     -35.318  14.262  -6.615  1.00 20.00     0.007 C 
ENDBRANCH   5   8
TORSDOF 1
ENDMDL
MODEL 3
REMARK VINA RESULT:      -3.9     11.660     12.577
REMARK  1 active torsions:
REMARK  status: ('A' for Active; 'I' for Inactive)
REMARK    1  A    between atoms: C5_5  and  C7_7 
ROOT
HETATM    1  C1  UNL     1     -34.887   4.684   4.220  1.00 20.00     0.046 C 
HETATM    2  C2  UNL     1     -33.319   6.526   4.889  1.00 20.00     0.052 C 
HETATM    3  C3  UNL     1     -34.703   5.144   2.778  1.00 20.00     0.169 C 
HETATM    4  C4  UNL     1     -34.659   5.851   5.177  1.00 20.00     0.086 C 
HETATM    5  C5  UNL     1     -33.224   6.895   3.404  1.00 20.00     0.122 C 
HETATM    6  O8  UNL     1     -33.415   5.731   2.593  1.00 20.00    -0.386 OA
HETATM    7 CL9  UNL     1     -34.714   5.284   6.868  1.00 20.00    -0.125 Cl
ENDROOT
BRANCH   5   8
HETATM    8  C7  UNL     1     -31.858   7.476   3.070  1.00 20.00     0.027 C 
HETATM    9  C6  UNL     1     -31.896   8.311   1.831  1.00 20.00     0.007 C 
ENDBRANCH   5   8
TORSDOF 1
ENDMDL
MODEL 4
REMARK VINA RESULT:      -3.9     12.682     13.740
REMARK  1 active torsions:
REMARK  status: ('A' for Active; 'I' for Inactive)
REMARK    1  A    between atoms: C5_5  and  C7_7 
ROOT
HETATM    1  C1  UNL     1     -34.475   5.068   6.675  1.00 20.00     0.046 C 
HETATM    2  C2  UNL     1     -33.723   6.458   4.725  1.00 20.00     0.052 C 
HETATM    3  C3  UNL     1     -35.255   4.217   5.680  1.00 20.00     0.169 C 
HETATM    4  C4  UNL     1     -34.307   6.487   6.136  1.00 20.00     0.086 C 
HETATM    5  C5  UNL     1     -34.554   5.533   3.829  1.00 20.00     0.122 C 
HETATM    6  O8  UNL     1     -34.621   4.222   4.401  1.00 20.00    -0.386 OA
HETATM    7 CL9  UNL     1     -33.260   7.440   7.221  1.00 20.00    -0.125 Cl
ENDROOT
BRANCH   5   8
HETATM    8  C7  UNL     1     -33.933   5.406   2.446  1.00 20.00     0.027 C 
HETATM    9  C6  UNL     1     -32.558   5.990   2.397  1.00 20.00     0.007 C 
ENDBRANCH   5   8
TORSDOF 1
ENDMDL
MODEL 5
REMARK VINA RESULT:      -3.8      1.968      2.653
REMARK  1 active torsions:
REMARK  status: ('A' for Active; 'I' for Inactive)
REMARK    1  A    between atoms: C5_5  and  C7_7 
ROOT
HETATM    1  C1  UNL     1     -34.843  14.148  -5.643  1.00 20.00     0.046 C 
HETATM    2  C2  UNL     1     -33.979  16.355  -4.816  1.00 20.00     0.052 C 
HETATM    3  C3  UNL     1     -34.355  13.543  -4.331  1.00 20.00     0.169 C 
HETATM    4  C4  UNL     1     -34.014  15.382  -5.993  1.00 20.00     0.086 C 
HETATM    5  C5  UNL     1     -33.528  15.628  -3.544  1.00 20.00     0.122 C 
HETATM    6  O8  UNL     1     -34.387  14.512  -3.283  1.00 20.00    -0.386 OA
HETATM    7 CL9  UNL     1     -34.681  16.184  -7.440  1.00 20.00    -0.125 Cl
ENDROOT
BRANCH   5   8
HETATM    8  C7  UNL     1     -33.584  16.551  -2.336  1.00 20.00     0.027 C 
HETATM    9  C6  UNL     1     -34.756  16.250  -1.459  1.00 20.00     0.007 C 
ENDBRANCH   5   8
TORSDOF 1
ENDMDL
MODEL 6
REMARK VINA RESULT:      -3.8     12.595     13.805
REMARK  1 active torsions:
REMARK  status: ('A' for Active; 'I' for Inactive)
REMARK    1  A    between atoms: C5_5  and  C7_7 
ROOT
HETATM    1  C1  UNL     1     -41.191   7.053  -1.041  1.00 20.00     0.046 C 
HETATM    2  C2  UNL     1     -42.374   5.521  -2.639  1.00 20.00     0.052 C 
HETATM    3  C3  UNL     1     -40.664   5.804  -0.342  1.00 20.00     0.169 C 
HETATM    4  C4  UNL     1     -42.514   6.746  -1.737  1.00 20.00     0.086 C 
HETATM    5  C5  UNL     1     -41.787   4.348  -1.847  1.00 20.00     0.122 C 
HETATM    6  O8  UNL     1     -40.534   4.723  -1.264  1.00 20.00    -0.386 OA
HETATM    7 CL9  UNL     1     -43.053   8.156  -2.688  1.00 20.00    -0.125 Cl
ENDROOT
BRANCH   5   8
HETATM    8  C7  UNL     1     -41.541   3.146  -2.747  1.00 20.00     0.027 C 
HETATM    9  C6  UNL     1     -42.709   2.215  -2.765  1.00 20.00     0.007 C 
ENDBRANCH   5   8
TORSDOF 1
ENDMDL
MODEL 7
REMARK VINA RESULT:      -3.6      2.735      4.142
REMARK  1 active torsions:
REMARK  status: ('A' for Active; 'I' for Inactive)
REMARK    1  A    between atoms: C5_5  and  C7_7 
ROOT
HETATM    1  C1  UNL     1     -34.382  13.912  -3.478  1.00 20.00     0.046 C 
HETATM    2  C2  UNL     1     -34.609  16.191  -4.503  1.00 20.00     0.052 C 
HETATM    3  C3  UNL     1     -34.722  13.337  -4.849  1.00 20.00     0.169 C 
HETATM    4  C4  UNL     1     -34.996  15.301  -3.323  1.00 20.00     0.086 C 
HETATM    5  C5  UNL     1     -34.946  15.492  -5.824  1.00 20.00     0.122 C 
HETATM    6  O8  UNL     1     -34.296  14.218  -5.888  1.00 20.00    -0.386 OA
HETATM    7 CL9  UNL     1     -34.469  16.042  -1.789  1.00 20.00    -0.125 Cl
ENDROOT
BRANCH   5   8
HETATM    8  C7  UNL     1     -34.477  16.314  -7.015  1.00 20.00     0.027 C 
HETATM    9  C6  UNL     1     -34.315  17.759  -6.666  1.00 20.00     0.007 C 
ENDBRANCH   5   8
TORSDOF 1
ENDMDL
MODEL 8
REMARK VINA RESULT:      -3.6      1.694      1.945
REMARK  1 active torsions:
REMARK  status: ('A' for Active; 'I' for Inactive)
REMARK    1  A    between atoms: C5_5  and  C7_7 
ROOT
HETATM    1  C1  UNL     1     -34.854  14.317  -4.279  1.00 20.00     0.046 C 
HETATM    2  C2  UNL     1     -35.560  16.071  -2.630  1.00 20.00     0.052 C 
HETATM    3  C3  UNL     1     -33.455  14.921  -4.219  1.00 20.00     0.169 C 
HETATM    4  C4  UNL     1     -35.900  15.378  -3.948  1.00 20.00     0.086 C 
HETATM    5  C5  UNL     1     -34.118  16.590  -2.663  1.00 20.00     0.122 C 
HETATM    6  O8  UNL     1     -33.214  15.516  -2.945  1.00 20.00    -0.386 OA
HETATM    7 CL9  UNL     1     -37.522  14.641  -3.859  1.00 20.00    -0.125 Cl
ENDROOT
BRANCH   5   8
HETATM    8  C7  UNL     1     -33.721  17.194  -1.324  1.00 20.00     0.027 C 
HETATM    9  C6  UNL     1     -34.782  16.999  -0.289  1.00 20.00     0.007 C 
ENDBRANCH   5   8
TORSDOF 1
ENDMDL
MODEL 9
REMARK VINA RESULT:      -3.6      2.634      3.829
REMARK  1 active torsions:
REMARK  status: ('A' for Active; 'I' for Inactive)
REMARK    1  A    between atoms: C5_5  and  C7_7 
ROOT
HETATM    1  C1  UNL     1     -33.974  18.560  -2.159  1.00 20.00     0.046 C 
HETATM    2  C2  UNL     1     -34.605  16.209  -1.545  1.00 20.00     0.052 C 
HETATM    3  C3  UNL     1     -33.767  18.059  -3.584  1.00 20.00     0.169 C 
HETATM    4  C4  UNL     1     -33.757  17.421  -1.165  1.00 20.00     0.086 C 
HETATM    5  C5  UNL     1     -34.356  15.830  -3.009  1.00 20.00     0.122 C 
HETATM    6  O8  UNL     1     -34.621  16.949  -3.861  1.00 20.00    -0.386 OA
HETATM    7 CL9  UNL     1     -34.153  17.960   0.489  1.00 20.00    -0.125 Cl
ENDROOT
BRANCH   5   8
HETATM    8  C7  UNL     1     -35.266  14.689  -3.442  1.00 20.00     0.027 C 
HETATM    9  C6  UNL     1     -34.499  13.578  -4.084  1.00 20.00     0.007 C 
ENDBRANCH   5   8
TORSDOF 1
ENDMDL
