MODEL 1
REMARK VINA RESULT:      -3.8      0.000      0.000
REMARK  1 active torsions:
REMARK  status: ('A' for Active; 'I' for Inactive)
REMARK    1  A    between atoms: C4_4  and  S9_9 
ROOT
HETATM    1  C1  UNL     1     -41.633   7.121  -1.122  1.00 20.00     0.041 C 
HETATM    2  C2  UNL     1     -42.592   5.488  -2.764  1.00 20.00     0.052 C 
HETATM    3  C3  UNL     1     -40.727   6.031  -0.555  1.00 20.00     0.170 C 
HETATM    4  C4  UNL     1     -41.934   6.862  -2.591  1.00 20.00     0.049 C 
HETATM    5  C5  UNL     1     -41.951   4.404  -1.863  1.00 20.00     0.054 C 
HETATM    6  C6  UNL     1     -41.647   3.152  -2.698  1.00 20.00     0.045 C 
HETATM    7  C7  UNL     1     -42.887   3.996  -0.714  1.00 20.00     0.045 C 
HETATM    8  O8  UNL     1     -40.689   4.849  -1.351  1.00 20.00    -0.381 OA
ENDROOT
BRANCH   4   9
HETATM    9  S9  UNL     1     -43.003   8.171  -3.273  1.00 20.00    -0.177 SA
HETATM   10  H23 UNL     1     -44.091   7.836  -2.569  1.00 20.00     0.102 HD
ENDBRANCH   4   9
TORSDOF 1
ENDMDL
MODEL 2
REMARK VINA RESULT:      -3.7     12.426     13.152
REMARK  1 active torsions:
REMARK  status: ('A' for Active; 'I' for Inactive)
REMARK    1  A    between atoms: C4_4  and  S9_9 
ROOT
HETATM    1  C1  UNL     1     -34.452  16.679  -6.236  1.00 20.00     0.041 C 
HETATM    2  C2  UNL     1     -34.437  14.325  -5.374  1.00 20.00     0.052 C 
HETATM    3  C3  UNL     1     -33.401  17.073  -5.201  1.00 20.00     0.170 C 
HETATM    4  C4  UNL     1     -34.309  15.212  -6.617  1.00 20.00     0.049 C 
HETATM    5  C5  UNL     1     -33.709  14.919  -4.143  1.00 20.00     0.054 C 
HETATM    6  C6  UNL     1     -32.839  13.836  -3.486  1.00 20.00     0.045 C 
HETATM    7  C7  UNL     1     -34.703  15.435  -3.090  1.00 20.00     0.045 C 
HETATM    8  O8  UNL     1     -32.807  15.959  -4.538  1.00 20.00    -0.381 OA
ENDROOT
BRANCH   4   9
HETATM    9  S9  UNL     1     -35.554  14.745  -7.864  1.00 20.00    -0.177 SA
HETATM   10  H23 UNL     1     -36.082  15.968  -7.991  1.00 20.00     0.102 HD
ENDBRANCH   4   9
TORSDOF 1
ENDMDL
MODEL 3
REMARK VINA RESULT:      -3.6     11.504     12.762
REMARK  1 active torsions:
REMARK  status: ('A' for Active; 'I' for Inactive)
REMARK    1  A    between atoms: C4_4  and  S9_9 
ROOT
HETATM    1  C1  UNL     1     -34.858  14.042  -5.890  1.00 20.00     0.041 C 
HETATM    2  C2  UNL     1     -34.088  16.179  -4.829  1.00 20.00     0.052 C 
HETATM    3  C3  UNL     1     -34.999  13.400  -4.512  1.00 20.00     0.170 C 
HETATM    4  C4  UNL     1     -35.082  15.546  -5.809  1.00 20.00     0.049 C 
HETATM    5  C5  UNL     1     -33.876  15.320  -3.558  1.00 20.00     0.054 C 
HETATM    6  C6  UNL     1     -33.997  16.207  -2.310  1.00 20.00     0.045 C 
HETATM    7  C7  UNL     1     -32.488  14.661  -3.543  1.00 20.00     0.045 C 
HETATM    8  O8  UNL     1     -34.905  14.331  -3.436  1.00 20.00    -0.381 OA
ENDROOT
BRANCH   4   9
HETATM    9  S9  UNL     1     -34.929  16.311  -7.456  1.00 20.00    -0.177 SA
HETATM   10  H23 UNL     1     -34.687  15.170  -8.112  1.00 20.00     0.102 HD
ENDBRANCH   4   9
TORSDOF 1
ENDMDL
MODEL 4
REMARK VINA RESULT:      -3.6     12.298     13.340
REMARK  1 active torsions:
REMARK  status: ('A' for Active; 'I' for Inactive)
REMARK    1  A    between atoms: C4_4  and  S9_9 
ROOT
HETATM    1  C1  UNL     1     -34.105  16.003  -5.101  1.00 20.00     0.041 C 
HETATM    2  C2  UNL     1     -34.929  15.177  -2.882  1.00 20.00     0.052 C 
HETATM    3  C3  UNL     1     -33.616  17.293  -4.448  1.00 20.00     0.170 C 
HETATM    4  C4  UNL     1     -34.070  14.849  -4.108  1.00 20.00     0.049 C 
HETATM    5  C5  UNL     1     -34.775  16.648  -2.423  1.00 20.00     0.054 C 
HETATM    6  C6  UNL     1     -34.532  16.693  -0.908  1.00 20.00     0.045 C 
HETATM    7  C7  UNL     1     -36.035  17.474  -2.729  1.00 20.00     0.045 C 
HETATM    8  O8  UNL     1     -33.621  17.249  -3.022  1.00 20.00    -0.381 OA
ENDROOT
BRANCH   4   9
HETATM    9  S9  UNL     1     -34.639  13.305  -4.891  1.00 20.00    -0.177 SA
HETATM   10  H23 UNL     1     -33.800  13.365  -5.932  1.00 20.00     0.102 HD
ENDBRANCH   4   9
TORSDOF 1
ENDMDL
MODEL 5
REMARK VINA RESULT:      -3.5     11.824     12.911
REMARK  1 active torsions:
REMARK  status: ('A' for Active; 'I' for Inactive)
REMARK    1  A    between atoms: C4_4  and  S9_9 
ROOT
HETATM    1  C1  UNL     1     -33.679  17.270  -3.771  1.00 20.00     0.041 C 
HETATM    2  C2  UNL     1     -34.948  15.315  -2.848  1.00 20.00     0.052 C 
HETATM    3  C3  UNL     1     -33.379  16.484  -5.045  1.00 20.00     0.170 C 
HETATM    4  C4  UNL     1     -34.994  16.816  -3.155  1.00 20.00     0.049 C 
HETATM    5  C5  UNL     1     -34.251  14.501  -3.967  1.00 20.00     0.054 C 
HETATM    6  C6  UNL     1     -35.118  13.289  -4.339  1.00 20.00     0.045 C 
HETATM    7  C7  UNL     1     -32.874  13.983  -3.519  1.00 20.00     0.045 C 
HETATM    8  O8  UNL     1     -34.133  15.279  -5.163  1.00 20.00    -0.381 OA
ENDROOT
BRANCH   4   9
HETATM    9  S9  UNL     1     -35.360  17.764  -1.642  1.00 20.00    -0.177 SA
HETATM   10  H23 UNL     1     -35.527  16.696  -0.852  1.00 20.00     0.102 HD
ENDBRANCH   4   9
TORSDOF 1
ENDMDL
MODEL 6
REMARK VINA RESULT:      -3.5     11.279     12.560
REMARK  1 active torsions:
REMARK  status: ('A' for Active; 'I' for Inactive)
REMARK    1  A    between atoms: C4_4  and  S9_9 
ROOT
HETATM    1  C1  UNL     1     -35.575  13.626  -4.257  1.00 20.00     0.041 C 
HETATM    2  C2  UNL     1     -35.745  16.013  -5.004  1.00 20.00     0.052 C 
HETATM    3  C3  UNL     1     -34.053  13.696  -4.356  1.00 20.00     0.170 C 
HETATM    4  C4  UNL     1     -36.157  14.995  -3.934  1.00 20.00     0.049 C 
HETATM    5  C5  UNL     1     -34.273  15.842  -5.452  1.00 20.00     0.054 C 
HETATM    6  C6  UNL     1     -33.568  17.206  -5.438  1.00 20.00     0.045 C 
HETATM    7  C7  UNL     1     -34.175  15.268  -6.875  1.00 20.00     0.045 C 
HETATM    8  O8  UNL     1     -33.552  15.020  -4.526  1.00 20.00    -0.381 OA
ENDROOT
BRANCH   4   9
HETATM    9  S9  UNL     1     -37.973  14.910  -3.801  1.00 20.00    -0.177 SA
HETATM   10  H23 UNL     1     -38.219  15.381  -5.030  1.00 20.00     0.102 HD
ENDBRANCH   4   9
TORSDOF 1
ENDMDL
MODEL 7
REMARK VINA RESULT:      -3.5     10.953     12.335
REMARK  1 active torsions:
REMARK  status: ('A' for Active; 'I' for Inactive)
REMARK    1  A    between atoms: C4_4  and  S9_9 
ROOT
HETATM    1  C1  UNL     1     -35.637  13.913  -4.585  1.00 20.00     0.041 C 
HETATM    2  C2  UNL     1     -35.829  16.070  -3.323  1.00 20.00     0.052 C 
HETATM    3  C3  UNL     1     -34.232  13.702  -4.027  1.00 20.00     0.170 C 
HETATM    4  C4  UNL     1     -36.488  14.717  -3.612  1.00 20.00     0.049 C 
HETATM    5  C5  UNL     1     -34.293  15.961  -3.160  1.00 20.00     0.054 C 
HETATM    6  C6  UNL     1     -33.854  16.706  -1.891  1.00 20.00     0.045 C 
HETATM    7  C7  UNL     1     -33.549  16.576  -4.356  1.00 20.00     0.045 C 
HETATM    8  O8  UNL     1     -33.898  14.597  -2.968  1.00 20.00    -0.381 OA
ENDROOT
BRANCH   4   9
HETATM    9  S9  UNL     1     -38.171  14.956  -4.270  1.00 20.00    -0.177 SA
HETATM   10  H23 UNL     1     -37.825  14.864  -5.560  1.00 20.00     0.102 HD
ENDBRANCH   4   9
TORSDOF 1
ENDMDL
MODEL 8
REMARK VINA RESULT:      -3.5     11.951     12.677
REMARK  1 active torsions:
REMARK  status: ('A' for Active; 'I' for Inactive)
REMARK    1  A    between atoms: C4_4  and  S9_9 
ROOT
HETATM    1  C1  UNL     1     -35.958  16.806  -2.582  1.00 20.00     0.041 C 
HETATM    2  C2  UNL     1     -33.715  15.699  -2.747  1.00 20.00     0.052 C 
HETATM    3  C3  UNL     1     -36.579  15.691  -3.420  1.00 20.00     0.170 C 
HETATM    4  C4  UNL     1     -34.763  16.288  -1.795  1.00 20.00     0.049 C 
HETATM    5  C5  UNL     1     -34.350  14.877  -3.896  1.00 20.00     0.054 C 
HETATM    6  C6  UNL     1     -33.634  13.524  -4.019  1.00 20.00     0.045 C 
HETATM    7  C7  UNL     1     -34.235  15.603  -5.245  1.00 20.00     0.045 C 
HETATM    8  O8  UNL     1     -35.719  14.569  -3.604  1.00 20.00    -0.381 OA
ENDROOT
BRANCH   4   9
HETATM    9  S9  UNL     1     -34.029  17.615  -0.784  1.00 20.00    -0.177 SA
HETATM   10  H23 UNL     1     -34.801  17.407   0.290  1.00 20.00     0.102 HD
ENDBRANCH   4   9
TORSDOF 1
ENDMDL
MODEL 9
REMARK VINA RESULT:      -3.5     12.014     12.918
REMARK  1 active torsions:
REMARK  status: ('A' for Active; 'I' for Inactive)
REMARK    1  A    between atoms: C4_4  and  S9_9 
ROOT
HETATM    1  C1  UNL     1     -34.420  15.440  -2.856  1.00 20.00     0.041 C 
HETATM    2  C2  UNL     1     -34.483  16.579  -5.087  1.00 20.00     0.052 C 
HETATM    3  C3  UNL     1     -34.347  14.079  -3.544  1.00 20.00     0.170 C 
HETATM    4  C4  UNL     1     -33.786  16.517  -3.723  1.00 20.00     0.049 C 
HETATM    5  C5  UNL     1     -34.816  15.175  -5.649  1.00 20.00     0.054 C 
HETATM    6  C6  UNL     1     -34.352  15.082  -7.111  1.00 20.00     0.045 C 
HETATM    7  C7  UNL     1     -36.325  14.890  -5.608  1.00 20.00     0.045 C 
HETATM    8  O8  UNL     1     -34.091  14.160  -4.944  1.00 20.00    -0.381 OA
ENDROOT
BRANCH   4   9
HETATM    9  S9  UNL     1     -33.860  18.140  -2.896  1.00 20.00    -0.177 SA
HETATM   10  H23 UNL     1     -32.614  18.509  -3.215  1.00 20.00     0.102 HD
ENDBRANCH   4   9
TORSDOF 1
ENDMDL
