MODEL 1
REMARK VINA RESULT:      -3.6      0.000      0.000
REMARK  1 active torsions:
REMARK  status: ('A' for Active; 'I' for Inactive)
REMARK    1  A    between atoms: C4_4  and  S9_9 
ROOT
HETATM    1  C1  UNL     1     -35.014  14.103  -6.041  1.00 20.00     0.041 C 
HETATM    2  C2  UNL     1     -34.825  16.202  -4.686  1.00 20.00     0.052 C 
HETATM    3  C3  UNL     1     -34.843  13.261  -4.780  1.00 20.00     0.170 C 
HETATM    4  C4  UNL     1     -35.625  15.473  -5.771  1.00 20.00     0.049 C 
HETATM    5  C5  UNL     1     -34.303  15.278  -3.556  1.00 20.00     0.054 C 
HETATM    6  C6  UNL     1     -34.631  15.900  -2.192  1.00 20.00     0.045 C 
HETATM    7  C7  UNL     1     -32.780  15.086  -3.640  1.00 20.00     0.045 C 
HETATM    8  O8  UNL     1     -34.966  14.009  -3.573  1.00 20.00    -0.381 OA
ENDROOT
BRANCH   4   9
HETATM    9  S9  UNL     1     -37.391  15.327  -5.303  1.00 20.00    -0.177 SA
HETATM   10  H23 UNL     1     -37.631  14.228  -6.029  1.00 20.00     0.102 HD
ENDBRANCH   4   9
TORSDOF 1
ENDMDL
MODEL 2
REMARK VINA RESULT:      -3.6      2.277      3.088
REMARK  1 active torsions:
REMARK  status: ('A' for Active; 'I' for Inactive)
REMARK    1  A    between atoms: C4_4  and  S9_9 
ROOT
HETATM    1  C1  UNL     1     -34.351  14.408  -3.315  1.00 20.00     0.041 C 
HETATM    2  C2  UNL     1     -35.241  16.559  -4.241  1.00 20.00     0.052 C 
HETATM    3  C3  UNL     1     -32.965  14.733  -3.865  1.00 20.00     0.170 C 
HETATM    4  C4  UNL     1     -35.182  15.648  -3.010  1.00 20.00     0.049 C 
HETATM    5  C5  UNL     1     -33.922  16.612  -5.053  1.00 20.00     0.054 C 
HETATM    6  C6  UNL     1     -33.558  18.074  -5.345  1.00 20.00     0.045 C 
HETATM    7  C7  UNL     1     -34.052  15.874  -6.394  1.00 20.00     0.045 C 
HETATM    8  O8  UNL     1     -32.825  16.083  -4.299  1.00 20.00    -0.381 OA
ENDROOT
BRANCH   4   9
HETATM    9  S9  UNL     1     -34.520  16.545  -1.556  1.00 20.00    -0.177 SA
HETATM   10  H23 UNL     1     -34.907  17.761  -1.960  1.00 20.00     0.102 HD
ENDBRANCH   4   9
TORSDOF 1
ENDMDL
MODEL 3
REMARK VINA RESULT:      -3.6      1.590      1.711
REMARK  1 active torsions:
REMARK  status: ('A' for Active; 'I' for Inactive)
REMARK    1  A    between atoms: C4_4  and  S9_9 
ROOT
HETATM    1  C1  UNL     1     -34.377  15.121  -6.764  1.00 20.00     0.041 C 
HETATM    2  C2  UNL     1     -33.371  16.164  -4.720  1.00 20.00     0.052 C 
HETATM    3  C3  UNL     1     -35.396  14.384  -5.899  1.00 20.00     0.170 C 
HETATM    4  C4  UNL     1     -33.888  16.422  -6.140  1.00 20.00     0.049 C 
HETATM    5  C5  UNL     1     -34.188  15.110  -3.931  1.00 20.00     0.054 C 
HETATM    6  C6  UNL     1     -34.517  15.656  -2.534  1.00 20.00     0.045 C 
HETATM    7  C7  UNL     1     -33.405  13.799  -3.759  1.00 20.00     0.045 C 
HETATM    8  O8  UNL     1     -35.452  14.856  -4.555  1.00 20.00    -0.381 OA
ENDROOT
BRANCH   4   9
HETATM    9  S9  UNL     1     -35.210  17.692  -6.140  1.00 20.00    -0.177 SA
HETATM   10  H23 UNL     1     -35.553  17.528  -4.856  1.00 20.00     0.102 HD
ENDBRANCH   4   9
TORSDOF 1
ENDMDL
MODEL 4
REMARK VINA RESULT:      -3.6     10.893     12.094
REMARK  1 active torsions:
REMARK  status: ('A' for Active; 'I' for Inactive)
REMARK    1  A    between atoms: C4_4  and  S9_9 
ROOT
HETATM    1  C1  UNL     1     -42.458   7.802  -0.928  1.00 20.00     0.041 C 
HETATM    2  C2  UNL     1     -43.344   5.624  -1.795  1.00 20.00     0.052 C 
HETATM    3  C3  UNL     1     -41.049   7.218  -0.872  1.00 20.00     0.170 C 
HETATM    4  C4  UNL     1     -43.339   7.145  -1.984  1.00 20.00     0.049 C 
HETATM    5  C5  UNL     1     -41.978   5.036  -1.358  1.00 20.00     0.054 C 
HETATM    6  C6  UNL     1     -41.635   3.827  -2.238  1.00 20.00     0.045 C 
HETATM    7  C7  UNL     1     -42.005   4.569   0.106  1.00 20.00     0.045 C 
HETATM    8  O8  UNL     1     -40.917   5.977  -1.560  1.00 20.00    -0.381 OA
ENDROOT
BRANCH   4   9
HETATM    9  S9  UNL     1     -42.792   7.598  -3.674  1.00 20.00    -0.177 SA
HETATM   10  H23 UNL     1     -43.163   8.882  -3.594  1.00 20.00     0.102 HD
ENDBRANCH   4   9
TORSDOF 1
ENDMDL
MODEL 5
REMARK VINA RESULT:      -3.6      1.874      2.402
REMARK  1 active torsions:
REMARK  status: ('A' for Active; 'I' for Inactive)
REMARK    1  A    between atoms: C4_4  and  S9_9 
ROOT
HETATM    1  C1  UNL     1     -35.337  13.969  -3.930  1.00 20.00     0.041 C 
HETATM    2  C2  UNL     1     -33.444  15.602  -3.761  1.00 20.00     0.052 C 
HETATM    3  C3  UNL     1     -36.332  15.069  -3.569  1.00 20.00     0.170 C 
HETATM    4  C4  UNL     1     -34.080  14.496  -4.611  1.00 20.00     0.049 C 
HETATM    5  C5  UNL     1     -34.469  16.529  -3.059  1.00 20.00     0.054 C 
HETATM    6  C6  UNL     1     -34.079  17.995  -3.292  1.00 20.00     0.045 C 
HETATM    7  C7  UNL     1     -34.512  16.281  -1.543  1.00 20.00     0.045 C 
HETATM    8  O8  UNL     1     -35.777  16.381  -3.624  1.00 20.00    -0.381 OA
ENDROOT
BRANCH   4   9
HETATM    9  S9  UNL     1     -34.447  15.093  -6.304  1.00 20.00    -0.177 SA
HETATM   10  H23 UNL     1     -34.195  13.929  -6.914  1.00 20.00     0.102 HD
ENDBRANCH   4   9
TORSDOF 1
ENDMDL
MODEL 6
REMARK VINA RESULT:      -3.6      1.708      2.738
REMARK  1 active torsions:
REMARK  status: ('A' for Active; 'I' for Inactive)
REMARK    1  A    between atoms: C4_4  and  S9_9 
ROOT
HETATM    1  C1  UNL     1     -33.661  17.252  -3.817  1.00 20.00     0.041 C 
HETATM    2  C2  UNL     1     -34.949  15.308  -2.900  1.00 20.00     0.052 C 
HETATM    3  C3  UNL     1     -33.315  16.447  -5.067  1.00 20.00     0.170 C 
HETATM    4  C4  UNL     1     -34.968  16.818  -3.165  1.00 20.00     0.049 C 
HETATM    5  C5  UNL     1     -34.248  14.481  -4.008  1.00 20.00     0.054 C 
HETATM    6  C6  UNL     1     -35.138  13.293  -4.402  1.00 20.00     0.045 C 
HETATM    7  C7  UNL     1     -32.896  13.927  -3.531  1.00 20.00     0.045 C 
HETATM    8  O8  UNL     1     -34.077  15.250  -5.203  1.00 20.00    -0.381 OA
ENDROOT
BRANCH   4   9
HETATM    9  S9  UNL     1     -36.408  17.289  -4.195  1.00 20.00    -0.177 SA
HETATM   10  H23 UNL     1     -35.700  17.558  -5.299  1.00 20.00     0.102 HD
ENDBRANCH   4   9
TORSDOF 1
ENDMDL
MODEL 7
REMARK VINA RESULT:      -3.6      1.629      2.998
REMARK  1 active torsions:
REMARK  status: ('A' for Active; 'I' for Inactive)
REMARK    1  A    between atoms: C4_4  and  S9_9 
ROOT
HETATM    1  C1  UNL     1     -34.779  16.056  -2.058  1.00 20.00     0.041 C 
HETATM    2  C2  UNL     1     -35.868  14.692  -3.856  1.00 20.00     0.052 C 
HETATM    3  C3  UNL     1     -33.537  16.231  -2.929  1.00 20.00     0.170 C 
HETATM    4  C4  UNL     1     -36.054  15.847  -2.865  1.00 20.00     0.049 C 
HETATM    5  C5  UNL     1     -34.454  14.623  -4.488  1.00 20.00     0.054 C 
HETATM    6  C6  UNL     1     -34.580  14.460  -6.009  1.00 20.00     0.045 C 
HETATM    7  C7  UNL     1     -33.650  13.431  -3.945  1.00 20.00     0.045 C 
HETATM    8  O8  UNL     1     -33.733  15.843  -4.287  1.00 20.00    -0.381 OA
ENDROOT
BRANCH   4   9
HETATM    9  S9  UNL     1     -36.548  17.386  -3.730  1.00 20.00    -0.177 SA
HETATM   10  H23 UNL     1     -37.718  17.526  -3.096  1.00 20.00     0.102 HD
ENDBRANCH   4   9
TORSDOF 1
ENDMDL
MODEL 8
REMARK VINA RESULT:      -3.5      1.908      2.741
REMARK  1 active torsions:
REMARK  status: ('A' for Active; 'I' for Inactive)
REMARK    1  A    between atoms: C4_4  and  S9_9 
ROOT
HETATM    1  C1  UNL     1     -35.152  17.154  -5.504  1.00 20.00     0.041 C 
HETATM    2  C2  UNL     1     -34.800  14.950  -4.366  1.00 20.00     0.052 C 
HETATM    3  C3  UNL     1     -33.711  17.554  -5.198  1.00 20.00     0.170 C 
HETATM    4  C4  UNL     1     -35.346  15.646  -5.617  1.00 20.00     0.049 C 
HETATM    5  C5  UNL     1     -33.507  15.589  -3.799  1.00 20.00     0.054 C 
HETATM    6  C6  UNL     1     -32.469  14.492  -3.527  1.00 20.00     0.045 C 
HETATM    7  C7  UNL     1     -33.774  16.332  -2.480  1.00 20.00     0.045 C 
HETATM    8  O8  UNL     1     -32.901  16.470  -4.751  1.00 20.00    -0.381 OA
ENDROOT
BRANCH   4   9
HETATM    9  S9  UNL     1     -34.556  14.991  -7.135  1.00 20.00    -0.177 SA
HETATM   10  H23 UNL     1     -33.376  15.592  -6.942  1.00 20.00     0.102 HD
ENDBRANCH   4   9
TORSDOF 1
ENDMDL
MODEL 9
REMARK VINA RESULT:      -3.5      1.984      3.305
REMARK  1 active torsions:
REMARK  status: ('A' for Active; 'I' for Inactive)
REMARK    1  A    between atoms: C4_4  and  S9_9 
ROOT
HETATM    1  C1  UNL     1     -32.965  15.382  -3.851  1.00 20.00     0.041 C 
HETATM    2  C2  UNL     1     -35.294  14.464  -3.969  1.00 20.00     0.052 C 
HETATM    3  C3  UNL     1     -33.309  16.419  -4.916  1.00 20.00     0.170 C 
HETATM    4  C4  UNL     1     -34.173  14.935  -3.036  1.00 20.00     0.049 C 
HETATM    5  C5  UNL     1     -35.421  15.293  -5.273  1.00 20.00     0.054 C 
HETATM    6  C6  UNL     1     -36.890  15.679  -5.494  1.00 20.00     0.045 C 
HETATM    7  C7  UNL     1     -34.946  14.496  -6.499  1.00 20.00     0.045 C 
HETATM    8  O8  UNL     1     -34.706  16.529  -5.176  1.00 20.00    -0.381 OA
ENDROOT
BRANCH   4   9
HETATM    9  S9  UNL     1     -34.755  16.275  -1.929  1.00 20.00    -0.177 SA
HETATM   10  H23 UNL     1     -33.710  16.222  -1.094  1.00 20.00     0.102 HD
ENDBRANCH   4   9
TORSDOF 1
ENDMDL
