MODEL 1
REMARK VINA RESULT:      -4.4      0.000      0.000
REMARK  2 active torsions:
REMARK  status: ('A' for Active; 'I' for Inactive)
REMARK    1  A    between atoms: C5_5  and  C8_8 
REMARK    2  A    between atoms: C8_8  and  C9_9 
ROOT
HETATM    1  C1  UNL     1     -35.668  15.512  -4.779  1.00 20.00     0.046 C 
HETATM    2  C2  UNL     1     -33.668  15.201  -3.304  1.00 20.00     0.052 C 
HETATM    3  C3  UNL     1     -35.969  16.789  -4.008  1.00 20.00     0.169 C 
HETATM    4  C4  UNL     1     -34.908  14.531  -3.893  1.00 20.00     0.086 C 
HETATM    5  C5  UNL     1     -34.005  16.538  -2.633  1.00 20.00     0.123 C 
HETATM    6  O10 UNL     1     -34.780  17.383  -3.493  1.00 20.00    -0.386 OA
HETATM    7 CL11 UNL     1     -34.441  13.086  -4.831  1.00 20.00    -0.125 Cl
ENDROOT
BRANCH   5   8
HETATM    8  C8  UNL     1     -34.652  16.387  -1.284  1.00 20.00     0.035 C 
BRANCH   8   9
HETATM    9  C9  UNL     1     -34.613  17.671  -0.437  1.00 20.00    -0.020 C 
HETATM   10  C6  UNL     1     -35.172  17.457   0.970  1.00 20.00     0.009 C 
HETATM   11  C7  UNL     1     -33.176  18.189  -0.349  1.00 20.00     0.009 C 
ENDBRANCH   8   9
ENDBRANCH   5   8
TORSDOF 2
ENDMDL
MODEL 2
REMARK VINA RESULT:      -4.3      1.923      2.692
REMARK  2 active torsions:
REMARK  status: ('A' for Active; 'I' for Inactive)
REMARK    1  A    between atoms: C5_5  and  C8_8 
REMARK    2  A    between atoms: C8_8  and  C9_9 
ROOT
HETATM    1  C1  UNL     1     -34.957  13.837  -5.723  1.00 20.00     0.046 C 
HETATM    2  C2  UNL     1     -35.054  16.232  -4.999  1.00 20.00     0.052 C 
HETATM    3  C3  UNL     1     -34.829  13.456  -4.254  1.00 20.00     0.169 C 
HETATM    4  C4  UNL     1     -34.397  15.237  -5.952  1.00 20.00     0.086 C 
HETATM    5  C5  UNL     1     -34.998  15.754  -3.544  1.00 20.00     0.123 C 
HETATM    6  O10 UNL     1     -35.472  14.408  -3.409  1.00 20.00    -0.386 OA
HETATM    7 CL11 UNL     1     -34.661  15.736  -7.646  1.00 20.00    -0.125 Cl
ENDROOT
BRANCH   5   8
HETATM    8  C8  UNL     1     -33.647  15.926  -2.906  1.00 20.00     0.035 C 
BRANCH   8   9
HETATM    9  C9  UNL     1     -33.636  16.948  -1.757  1.00 20.00    -0.020 C 
HETATM   10  C6  UNL     1     -33.782  18.387  -2.255  1.00 20.00     0.009 C 
HETATM   11  C7  UNL     1     -34.759  16.627  -0.768  1.00 20.00     0.009 C 
ENDBRANCH   8   9
ENDBRANCH   5   8
TORSDOF 2
ENDMDL
MODEL 3
REMARK VINA RESULT:      -4.2      2.036      2.633
REMARK  2 active torsions:
REMARK  status: ('A' for Active; 'I' for Inactive)
REMARK    1  A    between atoms: C5_5  and  C8_8 
REMARK    2  A    between atoms: C8_8  and  C9_9 
ROOT
HETATM    1  C1  UNL     1     -34.765  14.117  -5.968  1.00 20.00     0.046 C 
HETATM    2  C2  UNL     1     -35.594  16.200  -4.853  1.00 20.00     0.052 C 
HETATM    3  C3  UNL     1     -34.927  13.404  -4.633  1.00 20.00     0.169 C 
HETATM    4  C4  UNL     1     -34.505  15.603  -5.741  1.00 20.00     0.086 C 
HETATM    5  C5  UNL     1     -35.798  15.386  -3.570  1.00 20.00     0.123 C 
HETATM    6  O10 UNL     1     -35.965  13.989  -3.849  1.00 20.00    -0.386 OA
HETATM    7 CL11 UNL     1     -34.442  16.463  -7.304  1.00 20.00    -0.125 Cl
ENDROOT
BRANCH   5   8
HETATM    8  C8  UNL     1     -34.730  15.614  -2.537  1.00 20.00     0.035 C 
BRANCH   8   9
HETATM    9  C9  UNL     1     -34.825  16.987  -1.849  1.00 20.00    -0.020 C 
HETATM   10  C6  UNL     1     -34.735  16.882  -0.326  1.00 20.00     0.009 C 
HETATM   11  C7  UNL     1     -33.716  17.904  -2.370  1.00 20.00     0.009 C 
ENDBRANCH   8   9
ENDBRANCH   5   8
TORSDOF 2
ENDMDL
MODEL 4
REMARK VINA RESULT:      -4.1      1.231      1.705
REMARK  2 active torsions:
REMARK  status: ('A' for Active; 'I' for Inactive)
REMARK    1  A    between atoms: C5_5  and  C8_8 
REMARK    2  A    between atoms: C8_8  and  C9_9 
ROOT
HETATM    1  C1  UNL     1     -34.578  15.418  -5.953  1.00 20.00     0.046 C 
HETATM    2  C2  UNL     1     -33.516  14.955  -3.733  1.00 20.00     0.052 C 
HETATM    3  C3  UNL     1     -34.391  16.902  -5.672  1.00 20.00     0.169 C 
HETATM    4  C4  UNL     1     -34.703  14.647  -4.643  1.00 20.00     0.086 C 
HETATM    5  C5  UNL     1     -33.299  16.464  -3.567  1.00 20.00     0.123 C 
HETATM    6  O10 UNL     1     -33.262  17.137  -4.832  1.00 20.00    -0.386 OA
HETATM    7 CL11 UNL     1     -34.795  12.894  -4.966  1.00 20.00    -0.125 Cl
ENDROOT
BRANCH   5   8
HETATM    8  C8  UNL     1     -34.279  17.112  -2.629  1.00 20.00     0.035 C 
BRANCH   8   9
HETATM    9  C9  UNL     1     -33.729  17.307  -1.205  1.00 20.00    -0.020 C 
HETATM   10  C6  UNL     1     -33.157  18.710  -0.989  1.00 20.00     0.009 C 
HETATM   11  C7  UNL     1     -34.835  17.036  -0.182  1.00 20.00     0.009 C 
ENDBRANCH   8   9
ENDBRANCH   5   8
TORSDOF 2
ENDMDL
MODEL 5
REMARK VINA RESULT:      -4.1      1.940      2.280
REMARK  2 active torsions:
REMARK  status: ('A' for Active; 'I' for Inactive)
REMARK    1  A    between atoms: C5_5  and  C8_8 
REMARK    2  A    between atoms: C8_8  and  C9_9 
ROOT
HETATM    1  C1  UNL     1     -34.130  15.392  -4.973  1.00 20.00     0.046 C 
HETATM    2  C2  UNL     1     -35.079  17.295  -3.650  1.00 20.00     0.052 C 
HETATM    3  C3  UNL     1     -34.525  14.471  -3.828  1.00 20.00     0.169 C 
HETATM    4  C4  UNL     1     -33.874  16.802  -4.449  1.00 20.00     0.086 C 
HETATM    5  C5  UNL     1     -35.508  16.285  -2.580  1.00 20.00     0.123 C 
HETATM    6  O10 UNL     1     -35.662  14.968  -3.125  1.00 20.00    -0.386 OA
HETATM    7 CL11 UNL     1     -33.536  17.912  -5.805  1.00 20.00    -0.125 Cl
ENDROOT
BRANCH   5   8
HETATM    8  C8  UNL     1     -34.618  16.277  -1.369  1.00 20.00     0.035 C 
BRANCH   8   9
HETATM    9  C9  UNL     1     -34.594  17.618  -0.615  1.00 20.00    -0.020 C 
HETATM   10  C6  UNL     1     -35.164  17.501   0.799  1.00 20.00     0.009 C 
HETATM   11  C7  UNL     1     -33.161  18.151  -0.552  1.00 20.00     0.009 C 
ENDBRANCH   8   9
ENDBRANCH   5   8
TORSDOF 2
ENDMDL
MODEL 6
REMARK VINA RESULT:      -4.1      2.590      4.503
REMARK  2 active torsions:
REMARK  status: ('A' for Active; 'I' for Inactive)
REMARK    1  A    between atoms: C5_5  and  C8_8 
REMARK    2  A    between atoms: C8_8  and  C9_9 
ROOT
HETATM    1  C1  UNL     1     -34.472  18.716  -2.116  1.00 20.00     0.046 C 
HETATM    2  C2  UNL     1     -34.593  16.332  -1.361  1.00 20.00     0.052 C 
HETATM    3  C3  UNL     1     -34.696  18.219  -3.538  1.00 20.00     0.169 C 
HETATM    4  C4  UNL     1     -33.797  17.632  -1.282  1.00 20.00     0.086 C 
HETATM    5  C5  UNL     1     -34.890  15.929  -2.810  1.00 20.00     0.123 C 
HETATM    6  O10 UNL     1     -35.457  17.013  -3.557  1.00 20.00    -0.386 OA
HETATM    7 CL11 UNL     1     -33.649  18.164   0.415  1.00 20.00    -0.125 Cl
ENDROOT
BRANCH   5   8
HETATM    8  C8  UNL     1     -33.708  15.332  -3.521  1.00 20.00     0.035 C 
BRANCH   8   9
HETATM    9  C9  UNL     1     -34.091  14.262  -4.559  1.00 20.00    -0.020 C 
HETATM   10  C6  UNL     1     -35.350  13.489  -4.161  1.00 20.00     0.009 C 
HETATM   11  C7  UNL     1     -34.299  14.919  -5.926  1.00 20.00     0.009 C 
ENDBRANCH   8   9
ENDBRANCH   5   8
TORSDOF 2
ENDMDL
MODEL 7
REMARK VINA RESULT:      -3.9      2.336      4.785
REMARK  2 active torsions:
REMARK  status: ('A' for Active; 'I' for Inactive)
REMARK    1  A    between atoms: C5_5  and  C8_8 
REMARK    2  A    between atoms: C8_8  and  C9_9 
ROOT
HETATM    1  C1  UNL     1     -34.374  15.783  -2.520  1.00 20.00     0.046 C 
HETATM    2  C2  UNL     1     -34.703  13.951  -4.195  1.00 20.00     0.052 C 
HETATM    3  C3  UNL     1     -35.812  16.207  -2.784  1.00 20.00     0.169 C 
HETATM    4  C4  UNL     1     -33.795  15.096  -3.752  1.00 20.00     0.086 C 
HETATM    5  C5  UNL     1     -36.161  14.400  -4.342  1.00 20.00     0.123 C 
HETATM    6  O10 UNL     1     -36.620  15.100  -3.178  1.00 20.00    -0.386 OA
HETATM    7 CL11 UNL     1     -32.155  14.485  -3.403  1.00 20.00    -0.125 Cl
ENDROOT
BRANCH   5   8
HETATM    8  C8  UNL     1     -36.423  15.188  -5.595  1.00 20.00     0.035 C 
BRANCH   8   9
HETATM    9  C9  UNL     1     -35.311  15.054  -6.650  1.00 20.00    -0.020 C 
HETATM   10  C6  UNL     1     -35.792  14.342  -7.916  1.00 20.00     0.009 C 
HETATM   11  C7  UNL     1     -34.769  16.439  -7.010  1.00 20.00     0.009 C 
ENDBRANCH   8   9
ENDBRANCH   5   8
TORSDOF 2
ENDMDL
MODEL 8
REMARK VINA RESULT:      -3.9      2.439      4.680
REMARK  2 active torsions:
REMARK  status: ('A' for Active; 'I' for Inactive)
REMARK    1  A    between atoms: C5_5  and  C8_8 
REMARK    2  A    between atoms: C8_8  and  C9_9 
ROOT
HETATM    1  C1  UNL     1     -33.983  18.341  -2.522  1.00 20.00     0.046 C 
HETATM    2  C2  UNL     1     -35.286  16.260  -3.009  1.00 20.00     0.052 C 
HETATM    3  C3  UNL     1     -33.716  18.458  -4.016  1.00 20.00     0.169 C 
HETATM    4  C4  UNL     1     -34.195  16.880  -2.140  1.00 20.00     0.086 C 
HETATM    5  C5  UNL     1     -35.033  16.497  -4.502  1.00 20.00     0.123 C 
HETATM    6  O10 UNL     1     -34.770  17.879  -4.783  1.00 20.00    -0.386 OA
HETATM    7 CL11 UNL     1     -34.634  16.752  -0.414  1.00 20.00    -0.125 Cl
ENDROOT
BRANCH   5   8
HETATM    8  C8  UNL     1     -33.967  15.608  -5.080  1.00 20.00     0.035 C 
BRANCH   8   9
HETATM    9  C9  UNL     1     -34.525  14.378  -5.816  1.00 20.00    -0.020 C 
HETATM   10  C6  UNL     1     -34.731  13.184  -4.882  1.00 20.00     0.009 C 
HETATM   11  C7  UNL     1     -35.849  14.738  -6.495  1.00 20.00     0.009 C 
ENDBRANCH   8   9
ENDBRANCH   5   8
TORSDOF 2
ENDMDL
MODEL 9
REMARK VINA RESULT:      -3.7      2.605      4.257
REMARK  2 active torsions:
REMARK  status: ('A' for Active; 'I' for Inactive)
REMARK    1  A    between atoms: C5_5  and  C8_8 
REMARK    2  A    between atoms: C8_8  and  C9_9 
ROOT
HETATM    1  C1  UNL     1     -34.124  18.887  -3.635  1.00 20.00     0.046 C 
HETATM    2  C2  UNL     1     -33.286  16.750  -4.634  1.00 20.00     0.052 C 
HETATM    3  C3  UNL     1     -34.475  18.100  -2.381  1.00 20.00     0.169 C 
HETATM    4  C4  UNL     1     -34.168  17.976  -4.857  1.00 20.00     0.086 C 
HETATM    5  C5  UNL     1     -33.601  16.051  -3.306  1.00 20.00     0.123 C 
HETATM    6  O10 UNL     1     -33.614  16.976  -2.210  1.00 20.00    -0.386 OA
HETATM    7 CL11 UNL     1     -33.633  18.865  -6.309  1.00 20.00    -0.125 Cl
ENDROOT
BRANCH   5   8
HETATM    8  C8  UNL     1     -34.859  15.229  -3.344  1.00 20.00     0.035 C 
BRANCH   8   9
HETATM    9  C9  UNL     1     -34.631  13.779  -3.805  1.00 20.00    -0.020 C 
HETATM   10  C6  UNL     1     -35.046  13.559  -5.261  1.00 20.00     0.009 C 
HETATM   11  C7  UNL     1     -33.159  13.403  -3.625  1.00 20.00     0.009 C 
ENDBRANCH   8   9
ENDBRANCH   5   8
TORSDOF 2
ENDMDL
