MODEL 1
REMARK VINA RESULT:      -4.3      0.000      0.000
REMARK  1 active torsions:
REMARK  status: ('A' for Active; 'I' for Inactive)
REMARK    1  A    between atoms: C5_5  and  C8_8 
ROOT
HETATM    1  C1  UNL     1     -35.425  13.589  -4.196  1.00 20.00     0.046 C 
HETATM    2  C2  UNL     1     -35.691  15.868  -3.197  1.00 20.00     0.057 C 
HETATM    3  C3  UNL     1     -33.933  13.865  -4.296  1.00 20.00     0.170 C 
HETATM    4  C4  UNL     1     -36.206  14.895  -4.258  1.00 20.00     0.087 C 
HETATM    5  C5  UNL     1     -34.159  16.044  -3.265  1.00 20.00     0.058 C 
HETATM    6  C6  UNL     1     -33.732  16.886  -4.451  1.00 20.00     0.046 C 
HETATM    7  O9  UNL     1     -33.496  14.768  -3.282  1.00 20.00    -0.380 OA
HETATM    8 CL10 UNL     1     -37.947  14.585  -4.016  1.00 20.00    -0.125 Cl
ENDROOT
BRANCH   5   9
HETATM    9  C8  UNL     1     -33.683  16.739  -1.978  1.00 20.00     0.033 C 
HETATM   10  C7  UNL     1     -34.675  16.580  -0.876  1.00 20.00     0.008 C 
ENDBRANCH   5   9
TORSDOF 1
ENDMDL
MODEL 2
REMARK VINA RESULT:      -4.2      2.093      3.557
REMARK  1 active torsions:
REMARK  status: ('A' for Active; 'I' for Inactive)
REMARK    1  A    between atoms: C5_5  and  C8_8 
ROOT
HETATM    1  C1  UNL     1     -33.699  17.439  -3.412  1.00 20.00     0.046 C 
HETATM    2  C2  UNL     1     -34.832  15.392  -2.522  1.00 20.00     0.057 C 
HETATM    3  C3  UNL     1     -33.411  16.661  -4.686  1.00 20.00     0.170 C 
HETATM    4  C4  UNL     1     -33.805  16.486  -2.228  1.00 20.00     0.087 C 
HETATM    5  C5  UNL     1     -34.567  14.694  -3.872  1.00 20.00     0.058 C 
HETATM    6  C6  UNL     1     -33.376  13.759  -3.809  1.00 20.00     0.046 C 
HETATM    7  O9  UNL     1     -34.399  15.660  -4.925  1.00 20.00    -0.380 OA
HETATM    8 CL10 UNL     1     -34.265  17.383  -0.754  1.00 20.00    -0.125 Cl
ENDROOT
BRANCH   5   9
HETATM    9  C8  UNL     1     -35.810  13.874  -4.259  1.00 20.00     0.033 C 
HETATM   10  C7  UNL     1     -37.066  14.618  -3.957  1.00 20.00     0.008 C 
ENDBRANCH   5   9
TORSDOF 1
ENDMDL
MODEL 3
REMARK VINA RESULT:      -4.1     12.320     13.174
REMARK  1 active torsions:
REMARK  status: ('A' for Active; 'I' for Inactive)
REMARK    1  A    between atoms: C5_5  and  C8_8 
ROOT
HETATM    1  C1  UNL     1     -34.350   4.981   6.696  1.00 20.00     0.046 C 
HETATM    2  C2  UNL     1     -33.806   6.428   4.728  1.00 20.00     0.057 C 
HETATM    3  C3  UNL     1     -35.146   4.091   5.754  1.00 20.00     0.170 C 
HETATM    4  C4  UNL     1     -34.319   6.409   6.168  1.00 20.00     0.087 C 
HETATM    5  C5  UNL     1     -34.572   5.438   3.825  1.00 20.00     0.058 C 
HETATM    6  C6  UNL     1     -35.964   5.931   3.487  1.00 20.00     0.046 C 
HETATM    7  O9  UNL     1     -34.626   4.132   4.426  1.00 20.00    -0.380 OA
HETATM    8 CL10 UNL     1     -33.282   7.427   7.204  1.00 20.00    -0.125 Cl
ENDROOT
BRANCH   5   9
HETATM    9  C8  UNL     1     -33.788   5.255   2.514  1.00 20.00     0.033 C 
HETATM   10  C7  UNL     1     -32.500   6.006   2.541  1.00 20.00     0.008 C 
ENDBRANCH   5   9
TORSDOF 1
ENDMDL
MODEL 4
REMARK VINA RESULT:      -4.1      1.849      2.514
REMARK  1 active torsions:
REMARK  status: ('A' for Active; 'I' for Inactive)
REMARK    1  A    between atoms: C5_5  and  C8_8 
ROOT
HETATM    1  C1  UNL     1     -33.488  15.873  -4.935  1.00 20.00     0.046 C 
HETATM    2  C2  UNL     1     -34.707  15.122  -2.882  1.00 20.00     0.057 C 
HETATM    3  C3  UNL     1     -33.684  17.306  -4.463  1.00 20.00     0.170 C 
HETATM    4  C4  UNL     1     -34.606  14.987  -4.402  1.00 20.00     0.087 C 
HETATM    5  C5  UNL     1     -34.802  16.596  -2.435  1.00 20.00     0.058 C 
HETATM    6  C6  UNL     1     -36.164  17.195  -2.723  1.00 20.00     0.046 C 
HETATM    7  O9  UNL     1     -33.763  17.384  -3.041  1.00 20.00    -0.380 OA
HETATM    8 CL10 UNL     1     -34.310  13.284  -4.850  1.00 20.00    -0.125 Cl
ENDROOT
BRANCH   5   9
HETATM    9  C8  UNL     1     -34.547  16.672  -0.920  1.00 20.00     0.033 C 
HETATM   10  C7  UNL     1     -33.639  17.804  -0.578  1.00 20.00     0.008 C 
ENDBRANCH   5   9
TORSDOF 1
ENDMDL
MODEL 5
REMARK VINA RESULT:      -4.1      2.168      2.385
REMARK  1 active torsions:
REMARK  status: ('A' for Active; 'I' for Inactive)
REMARK    1  A    between atoms: C5_5  and  C8_8 
ROOT
HETATM    1  C1  UNL     1     -35.061  14.097  -6.245  1.00 20.00     0.046 C 
HETATM    2  C2  UNL     1     -34.580  16.158  -4.910  1.00 20.00     0.057 C 
HETATM    3  C3  UNL     1     -34.712  13.280  -5.010  1.00 20.00     0.170 C 
HETATM    4  C4  UNL     1     -34.314  15.424  -6.225  1.00 20.00     0.087 C 
HETATM    5  C5  UNL     1     -34.312  15.265  -3.681  1.00 20.00     0.058 C 
HETATM    6  C6  UNL     1     -32.831  15.060  -3.434  1.00 20.00     0.046 C 
HETATM    7  O9  UNL     1     -34.985  14.000  -3.810  1.00 20.00    -0.380 OA
HETATM    8 CL10 UNL     1     -34.817  16.435  -7.607  1.00 20.00    -0.125 Cl
ENDROOT
BRANCH   5   9
HETATM    9  C8  UNL     1     -34.925  15.934  -2.439  1.00 20.00     0.033 C 
HETATM   10  C7  UNL     1     -33.909  16.729  -1.693  1.00 20.00     0.008 C 
ENDBRANCH   5   9
TORSDOF 1
ENDMDL
MODEL 6
REMARK VINA RESULT:      -4.0      2.016      2.540
REMARK  1 active torsions:
REMARK  status: ('A' for Active; 'I' for Inactive)
REMARK    1  A    between atoms: C5_5  and  C8_8 
ROOT
HETATM    1  C1  UNL     1     -36.463  15.140  -5.608  1.00 20.00     0.046 C 
HETATM    2  C2  UNL     1     -34.146  15.878  -5.016  1.00 20.00     0.057 C 
HETATM    3  C3  UNL     1     -36.527  14.439  -4.260  1.00 20.00     0.170 C 
HETATM    4  C4  UNL     1     -35.020  15.225  -6.087  1.00 20.00     0.087 C 
HETATM    5  C5  UNL     1     -34.315  15.205  -3.638  1.00 20.00     0.058 C 
HETATM    6  C6  UNL     1     -33.632  13.853  -3.574  1.00 20.00     0.046 C 
HETATM    7  O9  UNL     1     -35.706  15.088  -3.291  1.00 20.00    -0.380 OA
HETATM    8 CL10 UNL     1     -34.929  16.156  -7.608  1.00 20.00    -0.125 Cl
ENDROOT
BRANCH   5   9
HETATM    9  C8  UNL     1     -33.696  16.114  -2.563  1.00 20.00     0.033 C 
HETATM   10  C7  UNL     1     -34.648  16.354  -1.440  1.00 20.00     0.008 C 
ENDBRANCH   5   9
TORSDOF 1
ENDMDL
MODEL 7
REMARK VINA RESULT:      -4.0      2.194      3.528
REMARK  1 active torsions:
REMARK  status: ('A' for Active; 'I' for Inactive)
REMARK    1  A    between atoms: C5_5  and  C8_8 
ROOT
HETATM    1  C1  UNL     1     -36.002  17.346  -2.746  1.00 20.00     0.046 C 
HETATM    2  C2  UNL     1     -34.253  15.570  -2.969  1.00 20.00     0.057 C 
HETATM    3  C3  UNL     1     -36.019  17.444  -4.264  1.00 20.00     0.170 C 
HETATM    4  C4  UNL     1     -34.636  16.873  -2.267  1.00 20.00     0.087 C 
HETATM    5  C5  UNL     1     -34.381  15.677  -4.503  1.00 20.00     0.058 C 
HETATM    6  C6  UNL     1     -33.266  16.502  -5.114  1.00 20.00     0.046 C 
HETATM    7  O9  UNL     1     -35.666  16.205  -4.875  1.00 20.00    -0.380 OA
HETATM    8 CL10 UNL     1     -34.651  16.637  -0.497  1.00 20.00    -0.125 Cl
ENDROOT
BRANCH   5   9
HETATM    9  C8  UNL     1     -34.326  14.262  -5.105  1.00 20.00     0.033 C 
HETATM   10  C7  UNL     1     -35.096  13.290  -4.277  1.00 20.00     0.008 C 
ENDBRANCH   5   9
TORSDOF 1
ENDMDL
MODEL 8
REMARK VINA RESULT:      -4.0      2.004      3.533
REMARK  1 active torsions:
REMARK  status: ('A' for Active; 'I' for Inactive)
REMARK    1  A    between atoms: C5_5  and  C8_8 
ROOT
HETATM    1  C1  UNL     1     -33.587  16.768  -3.126  1.00 20.00     0.046 C 
HETATM    2  C2  UNL     1     -35.720  15.488  -2.855  1.00 20.00     0.057 C 
HETATM    3  C3  UNL     1     -33.429  16.112  -4.489  1.00 20.00     0.170 C 
HETATM    4  C4  UNL     1     -34.391  15.865  -2.200  1.00 20.00     0.087 C 
HETATM    5  C5  UNL     1     -35.526  14.920  -4.277  1.00 20.00     0.058 C 
HETATM    6  C6  UNL     1     -34.969  13.511  -4.260  1.00 20.00     0.046 C 
HETATM    7  O9  UNL     1     -34.692  15.787  -5.065  1.00 20.00    -0.380 OA
HETATM    8 CL10 UNL     1     -34.684  16.686  -0.641  1.00 20.00    -0.125 Cl
ENDROOT
BRANCH   5   9
HETATM    9  C8  UNL     1     -36.889  14.897  -4.991  1.00 20.00     0.033 C 
HETATM   10  C7  UNL     1     -38.012  14.798  -4.015  1.00 20.00     0.008 C 
ENDBRANCH   5   9
TORSDOF 1
ENDMDL
MODEL 9
REMARK VINA RESULT:      -4.0     11.237     13.012
REMARK  1 active torsions:
REMARK  status: ('A' for Active; 'I' for Inactive)
REMARK    1  A    between atoms: C5_5  and  C8_8 
ROOT
HETATM    1  C1  UNL     1     -41.118   7.033  -1.199  1.00 20.00     0.046 C 
HETATM    2  C2  UNL     1     -42.403   5.461  -2.662  1.00 20.00     0.057 C 
HETATM    3  C3  UNL     1     -40.724   5.835  -0.349  1.00 20.00     0.170 C 
HETATM    4  C4  UNL     1     -42.455   6.775  -1.882  1.00 20.00     0.087 C 
HETATM    5  C5  UNL     1     -41.901   4.289  -1.794  1.00 20.00     0.058 C 
HETATM    6  C6  UNL     1     -42.947   3.823  -0.800  1.00 20.00     0.046 C 
HETATM    7  O9  UNL     1     -40.679   4.636  -1.120  1.00 20.00    -0.380 OA
HETATM    8 CL10 UNL     1     -42.859   8.126  -2.976  1.00 20.00    -0.125 Cl
ENDROOT
BRANCH   5   9
HETATM    9  C8  UNL     1     -41.545   3.108  -2.714  1.00 20.00     0.033 C 
HETATM   10  C7  UNL     1     -42.723   2.224  -2.944  1.00 20.00     0.008 C 
ENDBRANCH   5   9
TORSDOF 1
ENDMDL
