MODEL 1
REMARK VINA RESULT:      -4.5      0.000      0.000
REMARK  0 active torsions:
REMARK  status: ('A' for Active; 'I' for Inactive)
ROOT
HETATM    1  C1  UNL     1     -34.585  13.541  -4.056  1.00 20.00     0.088 C 
HETATM    2  C2  UNL     1     -33.972  15.691  -3.162  1.00 20.00    -0.065 C 
HETATM    3  C3  UNL     1     -34.443  14.451  -2.978  1.00 20.00     0.096 C 
HETATM    4  C4  UNL     1     -33.806  16.685  -2.046  1.00 20.00     0.061 C 
HETATM    5  C5  UNL     1     -33.578  16.234  -4.509  1.00 20.00     0.072 C 
HETATM    6  C6  UNL     1     -34.517  17.982  -2.412  1.00 20.00     0.173 C 
HETATM    7  C7  UNL     1     -34.282  17.580  -4.785  1.00 20.00     0.057 C 
HETATM    8  C8  UNL     1     -35.779  17.403  -5.084  1.00 20.00     0.046 C 
HETATM    9  C9  UNL     1     -33.623  18.252  -5.997  1.00 20.00     0.046 C 
HETATM   10  N10 UNL     1     -34.705  12.790  -4.933  1.00 20.00    -0.192 NA
HETATM   11  O11 UNL     1     -34.081  18.482  -3.679  1.00 20.00    -0.380 OA
ENDROOT
TORSDOF 0
ENDMDL
MODEL 2
REMARK VINA RESULT:      -4.5      2.480      3.782
REMARK  0 active torsions:
REMARK  status: ('A' for Active; 'I' for Inactive)
ROOT
HETATM    1  C1  UNL     1     -34.327  17.056  -1.479  1.00 20.00     0.088 C 
HETATM    2  C2  UNL     1     -33.721  16.632  -3.771  1.00 20.00    -0.065 C 
HETATM    3  C3  UNL     1     -33.941  17.495  -2.770  1.00 20.00     0.096 C 
HETATM    4  C4  UNL     1     -33.311  17.058  -5.152  1.00 20.00     0.061 C 
HETATM    5  C5  UNL     1     -33.884  15.142  -3.628  1.00 20.00     0.072 C 
HETATM    6  C6  UNL     1     -34.262  16.449  -6.175  1.00 20.00     0.173 C 
HETATM    7  C7  UNL     1     -34.804  14.584  -4.734  1.00 20.00     0.057 C 
HETATM    8  C8  UNL     1     -36.278  14.956  -4.509  1.00 20.00     0.046 C 
HETATM    9  C9  UNL     1     -34.690  13.053  -4.756  1.00 20.00     0.046 C 
HETATM   10  N10 UNL     1     -34.644  16.703  -0.419  1.00 20.00    -0.192 NA
HETATM   11  O11 UNL     1     -34.352  15.029  -6.028  1.00 20.00    -0.380 OA
ENDROOT
TORSDOF 0
ENDMDL
MODEL 3
REMARK VINA RESULT:      -4.4      2.998      4.174
REMARK  0 active torsions:
REMARK  status: ('A' for Active; 'I' for Inactive)
ROOT
HETATM    1  C1  UNL     1     -33.708  17.436  -2.839  1.00 20.00     0.088 C 
HETATM    2  C2  UNL     1     -34.341  15.140  -3.197  1.00 20.00    -0.065 C 
HETATM    3  C3  UNL     1     -33.395  16.087  -3.139  1.00 20.00     0.096 C 
HETATM    4  C4  UNL     1     -34.049  13.700  -3.512  1.00 20.00     0.061 C 
HETATM    5  C5  UNL     1     -35.803  15.420  -2.975  1.00 20.00     0.072 C 
HETATM    6  C6  UNL     1     -34.938  13.242  -4.662  1.00 20.00     0.173 C 
HETATM    7  C7  UNL     1     -36.649  14.870  -4.142  1.00 20.00     0.057 C 
HETATM    8  C8  UNL     1     -36.490  15.708  -5.421  1.00 20.00     0.046 C 
HETATM    9  C9  UNL     1     -38.130  14.881  -3.739  1.00 20.00     0.046 C 
HETATM   10  N10 UNL     1     -33.957  18.543  -2.594  1.00 20.00    -0.192 NA
HETATM   11  O11 UNL     1     -36.320  13.488  -4.388  1.00 20.00    -0.380 OA
ENDROOT
TORSDOF 0
ENDMDL
MODEL 4
REMARK VINA RESULT:      -4.4      2.767      3.805
REMARK  0 active torsions:
REMARK  status: ('A' for Active; 'I' for Inactive)
ROOT
HETATM    1  C1  UNL     1     -34.468  17.120  -0.488  1.00 20.00     0.088 C 
HETATM    2  C2  UNL     1     -34.046  16.128  -2.641  1.00 20.00    -0.065 C 
HETATM    3  C3  UNL     1     -33.662  16.930  -1.639  1.00 20.00     0.096 C 
HETATM    4  C4  UNL     1     -33.221  15.900  -3.877  1.00 20.00     0.061 C 
HETATM    5  C5  UNL     1     -35.354  15.384  -2.650  1.00 20.00     0.072 C 
HETATM    6  C6  UNL     1     -34.070  16.177  -5.112  1.00 20.00     0.173 C 
HETATM    7  C7  UNL     1     -36.130  15.656  -3.956  1.00 20.00     0.057 C 
HETATM    8  C8  UNL     1     -36.720  17.074  -3.998  1.00 20.00     0.046 C 
HETATM    9  C9  UNL     1     -37.283  14.649  -4.075  1.00 20.00     0.046 C 
HETATM   10  N10 UNL     1     -35.121  17.280   0.458  1.00 20.00    -0.192 NA
HETATM   11  O11 UNL     1     -35.282  15.417  -5.097  1.00 20.00    -0.380 OA
ENDROOT
TORSDOF 0
ENDMDL
MODEL 5
REMARK VINA RESULT:      -4.4      1.647      2.651
REMARK  0 active torsions:
REMARK  status: ('A' for Active; 'I' for Inactive)
ROOT
HETATM    1  C1  UNL     1     -35.336  13.546  -4.394  1.00 20.00     0.088 C 
HETATM    2  C2  UNL     1     -36.288  15.523  -3.401  1.00 20.00    -0.065 C 
HETATM    3  C3  UNL     1     -36.346  14.537  -4.306  1.00 20.00     0.096 C 
HETATM    4  C4  UNL     1     -37.338  16.591  -3.276  1.00 20.00     0.061 C 
HETATM    5  C5  UNL     1     -35.154  15.682  -2.424  1.00 20.00     0.072 C 
HETATM    6  C6  UNL     1     -36.676  17.962  -3.329  1.00 20.00     0.173 C 
HETATM    7  C7  UNL     1     -34.576  17.111  -2.484  1.00 20.00     0.057 C 
HETATM    8  C8  UNL     1     -33.758  17.355  -3.762  1.00 20.00     0.046 C 
HETATM    9  C9  UNL     1     -33.658  17.333  -1.274  1.00 20.00     0.046 C 
HETATM   10  N10 UNL     1     -34.513  12.732  -4.472  1.00 20.00    -0.192 NA
HETATM   11  O11 UNL     1     -35.634  18.081  -2.356  1.00 20.00    -0.380 OA
ENDROOT
TORSDOF 0
ENDMDL
MODEL 6
REMARK VINA RESULT:      -4.3      2.281      3.282
REMARK  0 active torsions:
REMARK  status: ('A' for Active; 'I' for Inactive)
ROOT
HETATM    1  C1  UNL     1     -38.019  15.304  -3.779  1.00 20.00     0.088 C 
HETATM    2  C2  UNL     1     -35.860  16.349  -3.562  1.00 20.00    -0.065 C 
HETATM    3  C3  UNL     1     -37.175  16.443  -3.801  1.00 20.00     0.096 C 
HETATM    4  C4  UNL     1     -34.933  17.532  -3.577  1.00 20.00     0.061 C 
HETATM    5  C5  UNL     1     -35.163  15.046  -3.276  1.00 20.00     0.072 C 
HETATM    6  C6  UNL     1     -33.763  17.249  -4.512  1.00 20.00     0.173 C 
HETATM    7  C7  UNL     1     -33.951  14.856  -4.213  1.00 20.00     0.057 C 
HETATM    8  C8  UNL     1     -34.374  14.530  -5.654  1.00 20.00     0.046 C 
HETATM    9  C9  UNL     1     -33.088  13.700  -3.690  1.00 20.00     0.046 C 
HETATM   10  N10 UNL     1     -38.716  14.376  -3.763  1.00 20.00    -0.192 NA
HETATM   11  O11 UNL     1     -33.106  16.024  -4.176  1.00 20.00    -0.380 OA
ENDROOT
TORSDOF 0
ENDMDL
MODEL 7
REMARK VINA RESULT:      -4.3      1.178      2.647
REMARK  0 active torsions:
REMARK  status: ('A' for Active; 'I' for Inactive)
ROOT
HETATM    1  C1  UNL     1     -34.651  13.670  -5.009  1.00 20.00     0.088 C 
HETATM    2  C2  UNL     1     -34.613  16.071  -5.190  1.00 20.00    -0.065 C 
HETATM    3  C3  UNL     1     -34.199  14.869  -5.615  1.00 20.00     0.096 C 
HETATM    4  C4  UNL     1     -34.158  17.364  -5.806  1.00 20.00     0.061 C 
HETATM    5  C5  UNL     1     -35.561  16.259  -4.036  1.00 20.00     0.072 C 
HETATM    6  C6  UNL     1     -33.617  18.282  -4.716  1.00 20.00     0.173 C 
HETATM    7  C7  UNL     1     -34.980  17.250  -3.006  1.00 20.00     0.057 C 
HETATM    8  C8  UNL     1     -33.821  16.640  -2.201  1.00 20.00     0.046 C 
HETATM    9  C9  UNL     1     -36.086  17.661  -2.025  1.00 20.00     0.046 C 
HETATM   10  N10 UNL     1     -35.016  12.683  -4.518  1.00 20.00    -0.192 NA
HETATM   11  O11 UNL     1     -34.567  18.465  -3.663  1.00 20.00    -0.380 OA
ENDROOT
TORSDOF 0
ENDMDL
MODEL 8
REMARK VINA RESULT:      -4.2      2.010      3.393
REMARK  0 active torsions:
REMARK  status: ('A' for Active; 'I' for Inactive)
ROOT
HETATM    1  C1  UNL     1     -37.836  14.903  -4.540  1.00 20.00     0.088 C 
HETATM    2  C2  UNL     1     -35.983  16.387  -4.951  1.00 20.00    -0.065 C 
HETATM    3  C3  UNL     1     -36.973  15.611  -5.414  1.00 20.00     0.096 C 
HETATM    4  C4  UNL     1     -35.048  17.152  -5.844  1.00 20.00     0.061 C 
HETATM    5  C5  UNL     1     -35.686  16.558  -3.485  1.00 20.00     0.072 C 
HETATM    6  C6  UNL     1     -33.607  16.822  -5.472  1.00 20.00     0.173 C 
HETATM    7  C7  UNL     1     -34.198  16.274  -3.192  1.00 20.00     0.057 C 
HETATM    8  C8  UNL     1     -33.863  14.777  -3.277  1.00 20.00     0.046 C 
HETATM    9  C9  UNL     1     -33.862  16.764  -1.776  1.00 20.00     0.046 C 
HETATM   10  N10 UNL     1     -38.547  14.321  -3.831  1.00 20.00    -0.192 NA
HETATM   11  O11 UNL     1     -33.360  17.040  -4.081  1.00 20.00    -0.380 OA
ENDROOT
TORSDOF 0
ENDMDL
MODEL 9
REMARK VINA RESULT:      -4.2      2.647      3.962
REMARK  0 active torsions:
REMARK  status: ('A' for Active; 'I' for Inactive)
ROOT
HETATM    1  C1  UNL     1     -34.538  16.961  -7.452  1.00 20.00     0.088 C 
HETATM    2  C2  UNL     1     -34.418  15.117  -5.907  1.00 20.00    -0.065 C 
HETATM    3  C3  UNL     1     -34.750  15.601  -7.112  1.00 20.00     0.096 C 
HETATM    4  C4  UNL     1     -34.628  13.683  -5.509  1.00 20.00     0.061 C 
HETATM    5  C5  UNL     1     -33.819  15.960  -4.814  1.00 20.00     0.072 C 
HETATM    6  C6  UNL     1     -35.408  13.629  -4.201  1.00 20.00     0.173 C 
HETATM    7  C7  UNL     1     -34.618  15.805  -3.503  1.00 20.00     0.057 C 
HETATM    8  C8  UNL     1     -35.979  16.516  -3.563  1.00 20.00     0.046 C 
HETATM    9  C9  UNL     1     -33.809  16.410  -2.347  1.00 20.00     0.046 C 
HETATM   10  N10 UNL     1     -34.366  18.073  -7.738  1.00 20.00    -0.192 NA
HETATM   11  O11 UNL     1     -34.779  14.410  -3.181  1.00 20.00    -0.380 OA
ENDROOT
TORSDOF 0
ENDMDL
