MODEL 1
REMARK VINA RESULT:      -4.3      0.000      0.000
REMARK  2 active torsions:
REMARK  status: ('A' for Active; 'I' for Inactive)
REMARK    1  A    between atoms: C5_5  and  C8_8 
REMARK    2  A    between atoms: C5_5  and  C9_9 
ROOT
HETATM    1  C1  UNL     1     -34.363  16.736  -6.734  1.00 20.00     0.046 C 
HETATM    2  C2  UNL     1     -35.136  14.956  -5.151  1.00 20.00     0.058 C 
HETATM    3  C3  UNL     1     -33.626  17.376  -5.565  1.00 20.00     0.170 C 
HETATM    4  C4  UNL     1     -34.501  15.233  -6.513  1.00 20.00     0.087 C 
HETATM    5  C5  UNL     1     -34.401  15.692  -4.012  1.00 20.00     0.061 C 
HETATM    6  O10 UNL     1     -34.266  17.087  -4.324  1.00 20.00    -0.380 OA
HETATM    7 CL11 UNL     1     -35.487  14.508  -7.813  1.00 20.00    -0.125 Cl
ENDROOT
BRANCH   5   8
HETATM    8  C8  UNL     1     -35.256  15.628  -2.739  1.00 20.00     0.033 C 
HETATM    9  C6  UNL     1     -34.610  16.361  -1.613  1.00 20.00     0.008 C 
ENDBRANCH   5   8
BRANCH   5  10
HETATM   10  C9  UNL     1     -33.033  15.066  -3.706  1.00 20.00     0.033 C 
HETATM   11  C7  UNL     1     -33.117  13.579  -3.645  1.00 20.00     0.008 C 
ENDBRANCH   5  10
TORSDOF 2
ENDMDL
MODEL 2
REMARK VINA RESULT:      -4.2      1.975      3.331
REMARK  2 active torsions:
REMARK  status: ('A' for Active; 'I' for Inactive)
REMARK    1  A    between atoms: C5_5  and  C8_8 
REMARK    2  A    between atoms: C5_5  and  C9_9 
ROOT
HETATM    1  C1  UNL     1     -35.510  13.812  -4.213  1.00 20.00     0.046 C 
HETATM    2  C2  UNL     1     -35.848  16.256  -3.791  1.00 20.00     0.058 C 
HETATM    3  C3  UNL     1     -34.179  13.927  -3.482  1.00 20.00     0.170 C 
HETATM    4  C4  UNL     1     -36.485  14.870  -3.708  1.00 20.00     0.087 C 
HETATM    5  C5  UNL     1     -34.467  16.299  -3.107  1.00 20.00     0.061 C 
HETATM    6  O10 UNL     1     -33.632  15.238  -3.599  1.00 20.00    -0.380 OA
HETATM    7 CL11 UNL     1     -37.992  14.825  -4.663  1.00 20.00    -0.125 Cl
ENDROOT
BRANCH   5   8
HETATM    8  C8  UNL     1     -33.755  17.604  -3.489  1.00 20.00     0.033 C 
HETATM    9  C6  UNL     1     -33.508  17.678  -4.958  1.00 20.00     0.008 C 
ENDBRANCH   5   8
BRANCH   5  10
HETATM   10  C9  UNL     1     -34.577  16.241  -1.576  1.00 20.00     0.033 C 
HETATM   11  C7  UNL     1     -33.860  17.380  -0.936  1.00 20.00     0.008 C 
ENDBRANCH   5  10
TORSDOF 2
ENDMDL
MODEL 3
REMARK VINA RESULT:      -4.1      2.942      4.203
REMARK  2 active torsions:
REMARK  status: ('A' for Active; 'I' for Inactive)
REMARK    1  A    between atoms: C5_5  and  C8_8 
REMARK    2  A    between atoms: C5_5  and  C9_9 
ROOT
HETATM    1  C1  UNL     1     -36.019  17.552  -1.760  1.00 20.00     0.046 C 
HETATM    2  C2  UNL     1     -33.736  16.633  -2.223  1.00 20.00     0.058 C 
HETATM    3  C3  UNL     1     -36.483  16.896  -3.053  1.00 20.00     0.170 C 
HETATM    4  C4  UNL     1     -34.836  16.788  -1.174  1.00 20.00     0.087 C 
HETATM    5  C5  UNL     1     -34.275  16.039  -3.540  1.00 20.00     0.061 C 
HETATM    6  O10 UNL     1     -35.418  16.782  -3.993  1.00 20.00    -0.380 OA
HETATM    7 CL11 UNL     1     -34.204  17.639   0.262  1.00 20.00    -0.125 Cl
ENDROOT
BRANCH   5   8
HETATM    8  C8  UNL     1     -33.211  16.197  -4.636  1.00 20.00     0.033 C 
HETATM    9  C6  UNL     1     -33.497  17.374  -5.506  1.00 20.00     0.008 C 
ENDBRANCH   5   8
BRANCH   5  10
HETATM   10  C9  UNL     1     -34.613  14.547  -3.408  1.00 20.00     0.033 C 
HETATM   11  C7  UNL     1     -33.450  13.692  -3.779  1.00 20.00     0.008 C 
ENDBRANCH   5  10
TORSDOF 2
ENDMDL
MODEL 4
REMARK VINA RESULT:      -4.1      2.143      2.603
REMARK  2 active torsions:
REMARK  status: ('A' for Active; 'I' for Inactive)
REMARK    1  A    between atoms: C5_5  and  C8_8 
REMARK    2  A    between atoms: C5_5  and  C9_9 
ROOT
HETATM    1  C1  UNL     1     -37.127  15.548  -5.565  1.00 20.00     0.046 C 
HETATM    2  C2  UNL     1     -36.328  15.222  -3.215  1.00 20.00     0.058 C 
HETATM    3  C3  UNL     1     -35.674  15.465  -6.011  1.00 20.00     0.170 C 
HETATM    4  C4  UNL     1     -37.330  14.763  -4.273  1.00 20.00     0.087 C 
HETATM    5  C5  UNL     1     -34.879  15.196  -3.743  1.00 20.00     0.061 C 
HETATM    6  O10 UNL     1     -34.788  15.909  -4.987  1.00 20.00    -0.380 OA
HETATM    7 CL11 UNL     1     -38.999  14.979  -3.678  1.00 20.00    -0.125 Cl
ENDROOT
BRANCH   5   8
HETATM    8  C8  UNL     1     -33.972  15.950  -2.760  1.00 20.00     0.033 C 
HETATM    9  C6  UNL     1     -34.708  16.322  -1.518  1.00 20.00     0.008 C 
ENDBRANCH   5   8
BRANCH   5  10
HETATM   10  C9  UNL     1     -34.343  13.765  -3.894  1.00 20.00     0.033 C 
HETATM   11  C7  UNL     1     -32.894  13.690  -3.556  1.00 20.00     0.008 C 
ENDBRANCH   5  10
TORSDOF 2
ENDMDL
MODEL 5
REMARK VINA RESULT:      -4.1      2.729      3.859
REMARK  2 active torsions:
REMARK  status: ('A' for Active; 'I' for Inactive)
REMARK    1  A    between atoms: C5_5  and  C8_8 
REMARK    2  A    between atoms: C5_5  and  C9_9 
ROOT
HETATM    1  C1  UNL     1     -33.917  17.765  -2.845  1.00 20.00     0.046 C 
HETATM    2  C2  UNL     1     -34.806  15.435  -2.628  1.00 20.00     0.058 C 
HETATM    3  C3  UNL     1     -34.097  17.633  -4.351  1.00 20.00     0.170 C 
HETATM    4  C4  UNL     1     -34.910  16.869  -2.112  1.00 20.00     0.087 C 
HETATM    5  C5  UNL     1     -34.914  15.365  -4.165  1.00 20.00     0.061 C 
HETATM    6  O10 UNL     1     -33.985  16.276  -4.773  1.00 20.00    -0.380 OA
HETATM    7 CL11 UNL     1     -34.603  16.917  -0.355  1.00 20.00    -0.125 Cl
ENDROOT
BRANCH   5   8
HETATM    8  C8  UNL     1     -34.496  13.964  -4.635  1.00 20.00     0.033 C 
HETATM    9  C6  UNL     1     -33.367  13.432  -3.820  1.00 20.00     0.008 C 
ENDBRANCH   5   8
BRANCH   5  10
HETATM   10  C9  UNL     1     -36.344  15.633  -4.658  1.00 20.00     0.033 C 
HETATM   11  C7  UNL     1     -37.320  14.702  -4.024  1.00 20.00     0.008 C 
ENDBRANCH   5  10
TORSDOF 2
ENDMDL
MODEL 6
REMARK VINA RESULT:      -4.0      2.046      3.099
REMARK  2 active torsions:
REMARK  status: ('A' for Active; 'I' for Inactive)
REMARK    1  A    between atoms: C5_5  and  C8_8 
REMARK    2  A    between atoms: C5_5  and  C9_9 
ROOT
HETATM    1  C1  UNL     1     -36.306  15.008  -4.074  1.00 20.00     0.046 C 
HETATM    2  C2  UNL     1     -33.984  15.293  -3.185  1.00 20.00     0.058 C 
HETATM    3  C3  UNL     1     -36.579  16.449  -3.667  1.00 20.00     0.170 C 
HETATM    4  C4  UNL     1     -34.823  14.812  -4.368  1.00 20.00     0.087 C 
HETATM    5  C5  UNL     1     -34.354  16.728  -2.762  1.00 20.00     0.061 C 
HETATM    6  O10 UNL     1     -35.772  16.840  -2.559  1.00 20.00    -0.380 OA
HETATM    7 CL11 UNL     1     -34.484  13.092  -4.706  1.00 20.00    -0.125 Cl
ENDROOT
BRANCH   5   8
HETATM    8  C8  UNL     1     -33.711  17.033  -1.401  1.00 20.00     0.033 C 
HETATM    9  C6  UNL     1     -34.711  16.954  -0.298  1.00 20.00     0.008 C 
ENDBRANCH   5   8
BRANCH   5  10
HETATM   10  C9  UNL     1     -33.863  17.776  -3.772  1.00 20.00     0.033 C 
HETATM   11  C7  UNL     1     -33.760  19.125  -3.148  1.00 20.00     0.008 C 
ENDBRANCH   5  10
TORSDOF 2
ENDMDL
MODEL 7
REMARK VINA RESULT:      -4.0      2.604      3.980
REMARK  2 active torsions:
REMARK  status: ('A' for Active; 'I' for Inactive)
REMARK    1  A    between atoms: C5_5  and  C8_8 
REMARK    2  A    between atoms: C5_5  and  C9_9 
ROOT
HETATM    1  C1  UNL     1     -35.936  17.027  -2.319  1.00 20.00     0.046 C 
HETATM    2  C2  UNL     1     -33.739  16.337  -3.301  1.00 20.00     0.058 C 
HETATM    3  C3  UNL     1     -36.616  16.263  -3.446  1.00 20.00     0.170 C 
HETATM    4  C4  UNL     1     -34.567  16.424  -2.020  1.00 20.00     0.087 C 
HETATM    5  C5  UNL     1     -34.504  15.625  -4.435  1.00 20.00     0.061 C 
HETATM    6  O10 UNL     1     -35.800  16.219  -4.613  1.00 20.00    -0.380 OA
HETATM    7 CL11 UNL     1     -33.714  17.407  -0.799  1.00 20.00    -0.125 Cl
ENDROOT
BRANCH   5   8
HETATM    8  C8  UNL     1     -33.757  15.843  -5.759  1.00 20.00     0.033 C 
HETATM    9  C6  UNL     1     -34.453  15.170  -6.893  1.00 20.00     0.008 C 
ENDBRANCH   5   8
BRANCH   5  10
HETATM   10  C9  UNL     1     -34.624  14.113  -4.193  1.00 20.00     0.033 C 
HETATM   11  C7  UNL     1     -33.325  13.528  -3.758  1.00 20.00     0.008 C 
ENDBRANCH   5  10
TORSDOF 2
ENDMDL
MODEL 8
REMARK VINA RESULT:      -4.0      1.696      2.661
REMARK  2 active torsions:
REMARK  status: ('A' for Active; 'I' for Inactive)
REMARK    1  A    between atoms: C5_5  and  C8_8 
REMARK    2  A    between atoms: C5_5  and  C9_9 
ROOT
HETATM    1  C1  UNL     1     -33.788  15.579  -5.208  1.00 20.00     0.046 C 
HETATM    2  C2  UNL     1     -35.409  15.273  -3.325  1.00 20.00     0.058 C 
HETATM    3  C3  UNL     1     -33.470  16.954  -4.637  1.00 20.00     0.170 C 
HETATM    4  C4  UNL     1     -34.255  14.640  -4.100  1.00 20.00     0.087 C 
HETATM    5  C5  UNL     1     -35.064  16.696  -2.838  1.00 20.00     0.061 C 
HETATM    6  O10 UNL     1     -34.583  17.495  -3.930  1.00 20.00    -0.380 OA
HETATM    7 CL11 UNL     1     -34.761  13.075  -4.792  1.00 20.00    -0.125 Cl
ENDROOT
BRANCH   5   8
HETATM    8  C8  UNL     1     -36.347  17.384  -2.349  1.00 20.00     0.033 C 
HETATM    9  C6  UNL     1     -37.534  16.943  -3.135  1.00 20.00     0.008 C 
ENDBRANCH   5   8
BRANCH   5  10
HETATM   10  C9  UNL     1     -34.053  16.684  -1.682  1.00 20.00     0.033 C 
HETATM   11  C7  UNL     1     -34.714  16.975  -0.379  1.00 20.00     0.008 C 
ENDBRANCH   5  10
TORSDOF 2
ENDMDL
MODEL 9
REMARK VINA RESULT:      -4.0      2.204      3.035
REMARK  2 active torsions:
REMARK  status: ('A' for Active; 'I' for Inactive)
REMARK    1  A    between atoms: C5_5  and  C8_8 
REMARK    2  A    between atoms: C5_5  and  C9_9 
ROOT
HETATM    1  C1  UNL     1     -33.800  17.571  -2.954  1.00 20.00     0.046 C 
HETATM    2  C2  UNL     1     -34.987  16.191  -4.672  1.00 20.00     0.058 C 
HETATM    3  C3  UNL     1     -34.147  16.497  -1.933  1.00 20.00     0.170 C 
HETATM    4  C4  UNL     1     -33.710  16.965  -4.350  1.00 20.00     0.087 C 
HETATM    5  C5  UNL     1     -35.338  15.173  -3.568  1.00 20.00     0.061 C 
HETATM    6  O10 UNL     1     -35.348  15.813  -2.282  1.00 20.00    -0.380 OA
HETATM    7 CL11 UNL     1     -33.444  18.248  -5.562  1.00 20.00    -0.125 Cl
ENDROOT
BRANCH   5   8
HETATM    8  C8  UNL     1     -36.768  14.660  -3.792  1.00 20.00     0.033 C 
HETATM    9  C6  UNL     1     -37.478  15.467  -4.826  1.00 20.00     0.008 C 
ENDBRANCH   5   8
BRANCH   5  10
HETATM   10  C9  UNL     1     -34.388  13.966  -3.570  1.00 20.00     0.033 C 
HETATM   11  C7  UNL     1     -34.476  13.207  -4.849  1.00 20.00     0.008 C 
ENDBRANCH   5  10
TORSDOF 2
ENDMDL
