MODEL 1
REMARK VINA RESULT:      -3.9      0.000      0.000
REMARK  3 active torsions:
REMARK  status: ('A' for Active; 'I' for Inactive)
REMARK    1  A    between atoms: C4_4  and  N8_8 
REMARK    2  A    between atoms: C6_6  and  C7_7 
REMARK    3  A    between atoms: C6_6  and  N8_8 
ROOT
HETATM    1  C1  UNL     1     -34.883  14.877  -5.142  1.00 20.00     0.064 C 
HETATM    2  C2  UNL     1     -35.181  13.396  -5.219  1.00 20.00     0.170 C 
HETATM    3  C3  UNL     1     -33.366  13.691  -3.788  1.00 20.00     0.203 C 
HETATM    4  C4  UNL     1     -34.169  14.979  -3.814  1.00 20.00     0.248 C 
HETATM    5  O9  UNL     1     -34.098  12.726  -4.559  1.00 20.00    -0.389 OA
ENDROOT
BRANCH   4   6
HETATM    6  N8  UNL     1     -33.358  16.154  -3.693  1.00 20.00     0.092 N 
HETATM    7  C5  UNL     1     -33.334  16.889  -4.957  1.00 20.00     0.310 C 
BRANCH   6   8
HETATM    8  C6  UNL     1     -33.853  17.007  -2.614  1.00 20.00     0.287 C 
BRANCH   8   9
HETATM    9  C7  UNL     1     -34.758  16.260  -1.649  1.00 20.00     0.144 C 
HETATM   10 CL10 UNL     1     -34.760  17.023  -0.039  1.00 20.00    -0.129 Cl
ENDBRANCH   8   9
ENDBRANCH   6   8
ENDBRANCH   4   6
TORSDOF 3
ENDMDL
MODEL 2
REMARK VINA RESULT:      -3.7      1.425      1.910
REMARK  3 active torsions:
REMARK  status: ('A' for Active; 'I' for Inactive)
REMARK    1  A    between atoms: C4_4  and  N8_8 
REMARK    2  A    between atoms: C6_6  and  C7_7 
REMARK    3  A    between atoms: C6_6  and  N8_8 
ROOT
HETATM    1  C1  UNL     1     -33.573  14.808  -3.733  1.00 20.00     0.064 C 
HETATM    2  C2  UNL     1     -33.551  13.309  -3.933  1.00 20.00     0.170 C 
HETATM    3  C3  UNL     1     -35.716  14.058  -4.354  1.00 20.00     0.203 C 
HETATM    4  C4  UNL     1     -34.758  15.214  -4.579  1.00 20.00     0.248 C 
HETATM    5  O9  UNL     1     -34.916  12.896  -4.088  1.00 20.00    -0.389 OA
ENDROOT
BRANCH   4   6
HETATM    6  N8  UNL     1     -35.309  16.486  -4.214  1.00 20.00     0.092 N 
HETATM    7  C5  UNL     1     -36.107  17.029  -5.312  1.00 20.00     0.310 C 
BRANCH   6   8
HETATM    8  C6  UNL     1     -36.119  16.362  -3.004  1.00 20.00     0.287 C 
BRANCH   8   9
HETATM    9  C7  UNL     1     -35.708  17.347  -1.923  1.00 20.00     0.144 C 
HETATM   10 CL10 UNL     1     -34.630  16.585  -0.727  1.00 20.00    -0.129 Cl
ENDBRANCH   8   9
ENDBRANCH   6   8
ENDBRANCH   4   6
TORSDOF 3
ENDMDL
MODEL 3
REMARK VINA RESULT:      -3.6      2.907      4.158
REMARK  3 active torsions:
REMARK  status: ('A' for Active; 'I' for Inactive)
REMARK    1  A    between atoms: C4_4  and  N8_8 
REMARK    2  A    between atoms: C6_6  and  C7_7 
REMARK    3  A    between atoms: C6_6  and  N8_8 
ROOT
HETATM    1  C1  UNL     1     -34.551  16.254  -1.527  1.00 20.00     0.064 C 
HETATM    2  C2  UNL     1     -34.552  17.413  -0.556  1.00 20.00     0.170 C 
HETATM    3  C3  UNL     1     -33.751  18.189  -2.602  1.00 20.00     0.203 C 
HETATM    4  C4  UNL     1     -34.614  16.966  -2.859  1.00 20.00     0.248 C 
HETATM    5  O9  UNL     1     -33.855  18.488  -1.202  1.00 20.00    -0.389 OA
ENDROOT
BRANCH   4   6
HETATM    6  N8  UNL     1     -34.151  16.166  -3.954  1.00 20.00     0.092 N 
HETATM    7  C5  UNL     1     -33.460  17.000  -4.937  1.00 20.00     0.310 C 
BRANCH   6   8
HETATM    8  C6  UNL     1     -33.269  15.104  -3.473  1.00 20.00     0.287 C 
BRANCH   8   9
HETATM    9  C7  UNL     1     -33.645  13.740  -4.025  1.00 20.00     0.144 C 
HETATM   10 CL10 UNL     1     -35.412  13.564  -4.174  1.00 20.00    -0.129 Cl
ENDBRANCH   8   9
ENDBRANCH   6   8
ENDBRANCH   4   6
TORSDOF 3
ENDMDL
MODEL 4
REMARK VINA RESULT:      -3.6      2.873      4.189
REMARK  3 active torsions:
REMARK  status: ('A' for Active; 'I' for Inactive)
REMARK    1  A    between atoms: C4_4  and  N8_8 
REMARK    2  A    between atoms: C6_6  and  C7_7 
REMARK    3  A    between atoms: C6_6  and  N8_8 
ROOT
HETATM    1  C1  UNL     1     -34.791  16.122  -1.717  1.00 20.00     0.064 C 
HETATM    2  C2  UNL     1     -33.888  17.333  -1.804  1.00 20.00     0.170 C 
HETATM    3  C3  UNL     1     -34.728  16.906  -3.935  1.00 20.00     0.203 C 
HETATM    4  C4  UNL     1     -35.689  16.320  -2.916  1.00 20.00     0.248 C 
HETATM    5  O9  UNL     1     -33.722  17.619  -3.200  1.00 20.00    -0.389 OA
ENDROOT
BRANCH   4   6
HETATM    6  N8  UNL     1     -36.318  15.111  -3.361  1.00 20.00     0.092 N 
HETATM    7  C5  UNL     1     -37.733  15.347  -3.641  1.00 20.00     0.310 C 
BRANCH   6   8
HETATM    8  C6  UNL     1     -35.641  14.591  -4.548  1.00 20.00     0.287 C 
BRANCH   8   9
HETATM    9  C7  UNL     1     -34.922  13.279  -4.282  1.00 20.00     0.144 C 
HETATM   10 CL10 UNL     1     -33.237  13.555  -3.775  1.00 20.00    -0.129 Cl
ENDBRANCH   8   9
ENDBRANCH   6   8
ENDBRANCH   4   6
TORSDOF 3
ENDMDL
MODEL 5
REMARK VINA RESULT:      -3.5      1.484      1.741
REMARK  3 active torsions:
REMARK  status: ('A' for Active; 'I' for Inactive)
REMARK    1  A    between atoms: C4_4  and  N8_8 
REMARK    2  A    between atoms: C6_6  and  C7_7 
REMARK    3  A    between atoms: C6_6  and  N8_8 
ROOT
HETATM    1  C1  UNL     1     -35.883  15.651  -4.982  1.00 20.00     0.064 C 
HETATM    2  C2  UNL     1     -36.231  15.018  -6.311  1.00 20.00     0.170 C 
HETATM    3  C3  UNL     1     -34.590  13.711  -5.299  1.00 20.00     0.203 C 
HETATM    4  C4  UNL     1     -35.330  14.472  -4.215  1.00 20.00     0.248 C 
HETATM    5  O9  UNL     1     -35.263  13.984  -6.537  1.00 20.00    -0.389 OA
ENDROOT
BRANCH   4   6
HETATM    6  N8  UNL     1     -34.492  14.852  -3.116  1.00 20.00     0.092 N 
HETATM    7  C5  UNL     1     -33.165  15.237  -3.597  1.00 20.00     0.310 C 
BRANCH   6   8
HETATM    8  C6  UNL     1     -35.101  15.947  -2.364  1.00 20.00     0.287 C 
BRANCH   8   9
HETATM    9  C7  UNL     1     -34.088  16.726  -1.544  1.00 20.00     0.144 C 
HETATM   10 CL10 UNL     1     -34.726  17.119   0.073  1.00 20.00    -0.129 Cl
ENDBRANCH   8   9
ENDBRANCH   6   8
ENDBRANCH   4   6
TORSDOF 3
ENDMDL
MODEL 6
REMARK VINA RESULT:      -3.5     11.056     12.008
REMARK  3 active torsions:
REMARK  status: ('A' for Active; 'I' for Inactive)
REMARK    1  A    between atoms: C4_4  and  N8_8 
REMARK    2  A    between atoms: C6_6  and  C7_7 
REMARK    3  A    between atoms: C6_6  and  N8_8 
ROOT
HETATM    1  C1  UNL     1     -34.394   5.002   4.212  1.00 20.00     0.064 C 
HETATM    2  C2  UNL     1     -35.277   4.683   5.397  1.00 20.00     0.170 C 
HETATM    3  C3  UNL     1     -33.818   6.387   6.026  1.00 20.00     0.203 C 
HETATM    4  C4  UNL     1     -33.970   6.421   4.516  1.00 20.00     0.248 C 
HETATM    5  O9  UNL     1     -34.733   5.395   6.516  1.00 20.00    -0.389 OA
ENDROOT
BRANCH   4   6
HETATM    6  N8  UNL     1     -32.772   6.816   3.834  1.00 20.00     0.092 N 
HETATM    7  C5  UNL     1     -32.221   5.690   3.081  1.00 20.00     0.310 C 
BRANCH   6   8
HETATM    8  C6  UNL     1     -33.040   7.945   2.946  1.00 20.00     0.287 C 
BRANCH   8   9
HETATM    9  C7  UNL     1     -31.914   8.187   1.955  1.00 20.00     0.144 C 
HETATM   10 CL10 UNL     1     -32.317   9.502   0.824  1.00 20.00    -0.129 Cl
ENDBRANCH   8   9
ENDBRANCH   6   8
ENDBRANCH   4   6
TORSDOF 3
ENDMDL
MODEL 7
REMARK VINA RESULT:      -3.5      2.326      2.962
REMARK  3 active torsions:
REMARK  status: ('A' for Active; 'I' for Inactive)
REMARK    1  A    between atoms: C4_4  and  N8_8 
REMARK    2  A    between atoms: C6_6  and  C7_7 
REMARK    3  A    between atoms: C6_6  and  N8_8 
ROOT
HETATM    1  C1  UNL     1     -33.722  14.609  -3.535  1.00 20.00     0.064 C 
HETATM    2  C2  UNL     1     -33.796  13.274  -4.241  1.00 20.00     0.170 C 
HETATM    3  C3  UNL     1     -35.969  14.075  -3.987  1.00 20.00     0.203 C 
HETATM    4  C4  UNL     1     -35.018  15.258  -3.964  1.00 20.00     0.248 C 
HETATM    5  O9  UNL     1     -35.183  12.911  -4.285  1.00 20.00    -0.389 OA
ENDROOT
BRANCH   4   6
HETATM    6  N8  UNL     1     -35.444  16.311  -3.090  1.00 20.00     0.092 N 
HETATM    7  C5  UNL     1     -34.810  16.172  -1.779  1.00 20.00     0.310 C 
BRANCH   6   8
HETATM    8  C6  UNL     1     -35.135  17.614  -3.673  1.00 20.00     0.287 C 
BRANCH   8   9
HETATM    9  C7  UNL     1     -35.174  17.598  -5.192  1.00 20.00     0.144 C 
HETATM   10 CL10 UNL     1     -33.596  18.047  -5.886  1.00 20.00    -0.129 Cl
ENDBRANCH   8   9
ENDBRANCH   6   8
ENDBRANCH   4   6
TORSDOF 3
ENDMDL
MODEL 8
REMARK VINA RESULT:      -3.4      3.155      4.367
REMARK  3 active torsions:
REMARK  status: ('A' for Active; 'I' for Inactive)
REMARK    1  A    between atoms: C4_4  and  N8_8 
REMARK    2  A    between atoms: C6_6  and  C7_7 
REMARK    3  A    between atoms: C6_6  and  N8_8 
ROOT
HETATM    1  C1  UNL     1     -34.076  17.000  -3.652  1.00 20.00     0.064 C 
HETATM    2  C2  UNL     1     -33.779  18.173  -2.744  1.00 20.00     0.170 C 
HETATM    3  C3  UNL     1     -34.562  16.422  -1.423  1.00 20.00     0.203 C 
HETATM    4  C4  UNL     1     -33.974  15.836  -2.694  1.00 20.00     0.248 C 
HETATM    5  O9  UNL     1     -34.300  17.833  -1.452  1.00 20.00    -0.389 OA
ENDROOT
BRANCH   4   6
HETATM    6  N8  UNL     1     -34.662  14.663  -3.148  1.00 20.00     0.092 N 
HETATM    7  C5  UNL     1     -36.032  14.996  -3.538  1.00 20.00     0.310 C 
BRANCH   6   8
HETATM    8  C6  UNL     1     -33.945  14.052  -4.266  1.00 20.00     0.287 C 
BRANCH   8   9
HETATM    9  C7  UNL     1     -34.839  13.811  -5.470  1.00 20.00     0.144 C 
HETATM   10 CL10 UNL     1     -34.390  14.866  -6.834  1.00 20.00    -0.129 Cl
ENDBRANCH   8   9
ENDBRANCH   6   8
ENDBRANCH   4   6
TORSDOF 3
ENDMDL
MODEL 9
REMARK VINA RESULT:      -3.4      2.887      3.372
REMARK  3 active torsions:
REMARK  status: ('A' for Active; 'I' for Inactive)
REMARK    1  A    between atoms: C4_4  and  N8_8 
REMARK    2  A    between atoms: C6_6  and  C7_7 
REMARK    3  A    between atoms: C6_6  and  N8_8 
ROOT
HETATM    1  C1  UNL     1     -37.196  15.234  -5.967  1.00 20.00     0.064 C 
HETATM    2  C2  UNL     1     -38.431  15.081  -5.107  1.00 20.00     0.170 C 
HETATM    3  C3  UNL     1     -36.601  14.319  -3.882  1.00 20.00     0.203 C 
HETATM    4  C4  UNL     1     -36.102  15.300  -4.927  1.00 20.00     0.248 C 
HETATM    5  O9  UNL     1     -38.035  14.323  -3.955  1.00 20.00    -0.389 OA
ENDROOT
BRANCH   4   6
HETATM    6  N8  UNL     1     -34.806  14.968  -5.442  1.00 20.00     0.092 N 
HETATM    7  C5  UNL     1     -34.849  14.868  -6.900  1.00 20.00     0.310 C 
BRANCH   6   8
HETATM    8  C6  UNL     1     -33.821  15.964  -5.026  1.00 20.00     0.287 C 
BRANCH   8   9
HETATM    9  C7  UNL     1     -32.944  15.477  -3.886  1.00 20.00     0.144 C 
HETATM   10 CL10 UNL     1     -33.054  13.709  -3.693  1.00 20.00    -0.129 Cl
ENDBRANCH   8   9
ENDBRANCH   6   8
ENDBRANCH   4   6
TORSDOF 3
ENDMDL
