MODEL 1
REMARK VINA RESULT:      -4.4      0.000      0.000
REMARK  1 active torsions:
REMARK  status: ('A' for Active; 'I' for Inactive)
REMARK    1  A    between atoms: C6_6  and  C8_8 
ROOT
HETATM    1  C3  UNL     1     -33.819  17.712  -3.002  1.00 20.00     0.046 C 
HETATM    2  C4  UNL     1     -34.426  15.245  -2.944  1.00 20.00     0.058 C 
HETATM    3  C5  UNL     1     -33.854  17.378  -4.483  1.00 20.00     0.170 C 
HETATM    4  C7  UNL     1     -33.838  16.429  -2.170  1.00 20.00     0.087 C 
HETATM    5  C8  UNL     1     -35.481  15.635  -4.007  1.00 20.00     0.062 C 
HETATM    6  C9  UNL     1     -36.816  16.025  -3.355  1.00 20.00     0.046 C 
HETATM    7  O10 UNL     1     -35.084  16.747  -4.828  1.00 20.00    -0.380 OA
HETATM    8 CL11 UNL     1     -34.700  16.701  -0.627  1.00 20.00    -0.125 Cl
ENDROOT
BRANCH   5   9
HETATM    9  C6  UNL     1     -35.712  14.457  -4.934  1.00 20.00     0.020 A 
HETATM   10  C1  UNL     1     -34.814  14.239  -6.120  1.00 20.00     0.008 A 
HETATM   11  C2  UNL     1     -34.749  13.303  -4.945  1.00 20.00     0.008 A 
ENDBRANCH   5   9
TORSDOF 1
ENDMDL
MODEL 2
REMARK VINA RESULT:      -4.4      2.203      3.880
REMARK  1 active torsions:
REMARK  status: ('A' for Active; 'I' for Inactive)
REMARK    1  A    between atoms: C6_6  and  C8_8 
ROOT
HETATM    1  C3  UNL     1     -34.427  15.447  -6.245  1.00 20.00     0.046 C 
HETATM    2  C4  UNL     1     -34.952  15.185  -3.773  1.00 20.00     0.058 C 
HETATM    3  C5  UNL     1     -34.096  16.833  -5.721  1.00 20.00     0.170 C 
HETATM    4  C7  UNL     1     -35.194  14.652  -5.188  1.00 20.00     0.087 C 
HETATM    5  C8  UNL     1     -33.567  15.843  -3.564  1.00 20.00     0.062 C 
HETATM    6  C9  UNL     1     -32.452  14.790  -3.485  1.00 20.00     0.046 C 
HETATM    7  O10 UNL     1     -33.200  16.752  -4.616  1.00 20.00    -0.380 OA
HETATM    8 CL11 UNL     1     -34.800  12.911  -5.312  1.00 20.00    -0.125 Cl
ENDROOT
BRANCH   5   9
HETATM    9  C6  UNL     1     -33.584  16.639  -2.273  1.00 20.00     0.020 A 
HETATM   10  C1  UNL     1     -34.620  17.706  -2.056  1.00 20.00     0.008 A 
HETATM   11  C2  UNL     1     -34.681  16.427  -1.268  1.00 20.00     0.008 A 
ENDBRANCH   5   9
TORSDOF 1
ENDMDL
MODEL 3
REMARK VINA RESULT:      -4.3      2.138      3.987
REMARK  1 active torsions:
REMARK  status: ('A' for Active; 'I' for Inactive)
REMARK    1  A    between atoms: C6_6  and  C8_8 
ROOT
HETATM    1  C3  UNL     1     -36.555  15.215  -4.777  1.00 20.00     0.046 C 
HETATM    2  C4  UNL     1     -34.788  14.705  -3.024  1.00 20.00     0.058 C 
HETATM    3  C5  UNL     1     -36.693  16.415  -3.856  1.00 20.00     0.170 C 
HETATM    4  C7  UNL     1     -35.702  14.135  -4.112  1.00 20.00     0.087 C 
HETATM    5  C8  UNL     1     -34.349  16.170  -3.259  1.00 20.00     0.062 C 
HETATM    6  C9  UNL     1     -33.288  16.267  -4.365  1.00 20.00     0.046 C 
HETATM    7  O10 UNL     1     -35.428  17.037  -3.648  1.00 20.00    -0.380 OA
HETATM    8 CL11 UNL     1     -34.772  13.231  -5.344  1.00 20.00    -0.125 Cl
ENDROOT
BRANCH   5   9
HETATM    9  C6  UNL     1     -33.771  16.729  -1.973  1.00 20.00     0.020 A 
HETATM   10  C1  UNL     1     -34.288  18.023  -1.410  1.00 20.00     0.008 A 
HETATM   11  C2  UNL     1     -34.589  16.726  -0.712  1.00 20.00     0.008 A 
ENDBRANCH   5   9
TORSDOF 1
ENDMDL
MODEL 4
REMARK VINA RESULT:      -4.3      2.405      4.022
REMARK  1 active torsions:
REMARK  status: ('A' for Active; 'I' for Inactive)
REMARK    1  A    between atoms: C6_6  and  C8_8 
ROOT
HETATM    1  C3  UNL     1     -34.454  13.522  -5.129  1.00 20.00     0.046 C 
HETATM    2  C4  UNL     1     -34.806  16.024  -4.856  1.00 20.00     0.058 C 
HETATM    3  C5  UNL     1     -33.845  13.762  -3.758  1.00 20.00     0.170 C 
HETATM    4  C7  UNL     1     -34.698  14.854  -5.839  1.00 20.00     0.087 C 
HETATM    5  C8  UNL     1     -35.360  15.641  -3.463  1.00 20.00     0.062 C 
HETATM    6  C9  UNL     1     -36.874  15.388  -3.512  1.00 20.00     0.046 C 
HETATM    7  O10 UNL     1     -34.762  14.453  -2.915  1.00 20.00    -0.380 OA
HETATM    8 CL11 UNL     1     -36.139  14.743  -6.892  1.00 20.00    -0.125 Cl
ENDROOT
BRANCH   5   9
HETATM    9  C6  UNL     1     -35.081  16.770  -2.489  1.00 20.00     0.020 A 
HETATM   10  C1  UNL     1     -34.705  16.466  -1.066  1.00 20.00     0.008 A 
HETATM   11  C2  UNL     1     -33.680  17.028  -2.011  1.00 20.00     0.008 A 
ENDBRANCH   5   9
TORSDOF 1
ENDMDL
MODEL 5
REMARK VINA RESULT:      -4.2      1.776      2.963
REMARK  1 active torsions:
REMARK  status: ('A' for Active; 'I' for Inactive)
REMARK    1  A    between atoms: C6_6  and  C8_8 
ROOT
HETATM    1  C3  UNL     1     -34.208  13.820  -3.493  1.00 20.00     0.046 C 
HETATM    2  C4  UNL     1     -35.695  15.673  -4.393  1.00 20.00     0.058 C 
HETATM    3  C5  UNL     1     -34.640  13.235  -4.828  1.00 20.00     0.170 C 
HETATM    4  C7  UNL     1     -35.062  15.040  -3.150  1.00 20.00     0.087 C 
HETATM    5  C8  UNL     1     -34.873  15.496  -5.692  1.00 20.00     0.062 C 
HETATM    6  C9  UNL     1     -33.643  16.415  -5.705  1.00 20.00     0.046 C 
HETATM    7  O10 UNL     1     -34.388  14.156  -5.885  1.00 20.00    -0.380 OA
HETATM    8 CL11 UNL     1     -34.102  16.230  -2.222  1.00 20.00    -0.125 Cl
ENDROOT
BRANCH   5   9
HETATM    9  C6  UNL     1     -35.749  15.829  -6.884  1.00 20.00     0.020 A 
HETATM   10  C1  UNL     1     -36.053  14.779  -7.917  1.00 20.00     0.008 A 
HETATM   11  C2  UNL     1     -37.135  15.256  -6.988  1.00 20.00     0.008 A 
ENDBRANCH   5   9
TORSDOF 1
ENDMDL
MODEL 6
REMARK VINA RESULT:      -4.2      2.353      4.047
REMARK  1 active torsions:
REMARK  status: ('A' for Active; 'I' for Inactive)
REMARK    1  A    between atoms: C6_6  and  C8_8 
ROOT
HETATM    1  C3  UNL     1     -36.456  15.808  -5.813  1.00 20.00     0.046 C 
HETATM    2  C4  UNL     1     -34.468  14.869  -4.540  1.00 20.00     0.058 C 
HETATM    3  C5  UNL     1     -36.745  16.298  -4.404  1.00 20.00     0.170 C 
HETATM    4  C7  UNL     1     -35.346  14.757  -5.789  1.00 20.00     0.087 C 
HETATM    5  C8  UNL     1     -34.353  16.300  -3.963  1.00 20.00     0.062 C 
HETATM    6  C9  UNL     1     -33.441  17.182  -4.828  1.00 20.00     0.046 C 
HETATM    7  O10 UNL     1     -35.616  16.983  -3.869  1.00 20.00    -0.380 OA
HETATM    8 CL11 UNL     1     -34.373  14.846  -7.288  1.00 20.00    -0.125 Cl
ENDROOT
BRANCH   5   9
HETATM    9  C6  UNL     1     -33.781  16.228  -2.560  1.00 20.00     0.020 A 
HETATM   10  C1  UNL     1     -33.749  17.454  -1.691  1.00 20.00     0.008 A 
HETATM   11  C2  UNL     1     -34.690  16.327  -1.367  1.00 20.00     0.008 A 
ENDBRANCH   5   9
TORSDOF 1
ENDMDL
MODEL 7
REMARK VINA RESULT:      -4.1      1.324      2.313
REMARK  1 active torsions:
REMARK  status: ('A' for Active; 'I' for Inactive)
REMARK    1  A    between atoms: C6_6  and  C8_8 
ROOT
HETATM    1  C3  UNL     1     -36.624  16.521  -3.063  1.00 20.00     0.046 C 
HETATM    2  C4  UNL     1     -34.393  16.179  -4.230  1.00 20.00     0.058 C 
HETATM    3  C5  UNL     1     -37.073  16.216  -4.482  1.00 20.00     0.170 C 
HETATM    4  C7  UNL     1     -35.121  16.797  -3.033  1.00 20.00     0.087 C 
HETATM    5  C8  UNL     1     -35.054  14.896  -4.789  1.00 20.00     0.062 C 
HETATM    6  C9  UNL     1     -34.808  13.692  -3.867  1.00 20.00     0.046 C 
HETATM    7  O10 UNL     1     -36.479  15.008  -4.948  1.00 20.00    -0.380 OA
HETATM    8 CL11 UNL     1     -34.419  16.248  -1.482  1.00 20.00    -0.125 Cl
ENDROOT
BRANCH   5   9
HETATM    9  C6  UNL     1     -34.475  14.594  -6.158  1.00 20.00     0.020 A 
HETATM   10  C1  UNL     1     -35.381  14.466  -7.351  1.00 20.00     0.008 A 
HETATM   11  C2  UNL     1     -34.466  15.652  -7.225  1.00 20.00     0.008 A 
ENDBRANCH   5   9
TORSDOF 1
ENDMDL
MODEL 8
REMARK VINA RESULT:      -4.1      1.698      2.291
REMARK  1 active torsions:
REMARK  status: ('A' for Active; 'I' for Inactive)
REMARK    1  A    between atoms: C6_6  and  C8_8 
ROOT
HETATM    1  C3  UNL     1     -35.496  18.398  -4.132  1.00 20.00     0.046 C 
HETATM    2  C4  UNL     1     -33.653  16.687  -3.764  1.00 20.00     0.058 C 
HETATM    3  C5  UNL     1     -36.206  17.108  -4.506  1.00 20.00     0.170 C 
HETATM    4  C7  UNL     1     -33.990  18.159  -4.024  1.00 20.00     0.087 C 
HETATM    5  C8  UNL     1     -34.739  15.910  -2.982  1.00 20.00     0.062 C 
HETATM    6  C9  UNL     1     -34.741  16.294  -1.495  1.00 20.00     0.046 C 
HETATM    7  O10 UNL     1     -36.072  16.141  -3.469  1.00 20.00    -0.380 OA
HETATM    8 CL11 UNL     1     -33.279  19.226  -2.777  1.00 20.00    -0.125 Cl
ENDROOT
BRANCH   5   9
HETATM    9  C6  UNL     1     -34.472  14.422  -3.105  1.00 20.00     0.020 A 
HETATM   10  C1  UNL     1     -34.564  13.744  -4.444  1.00 20.00     0.008 A 
HETATM   11  C2  UNL     1     -33.225  13.931  -3.787  1.00 20.00     0.008 A 
ENDBRANCH   5   9
TORSDOF 1
ENDMDL
MODEL 9
REMARK VINA RESULT:      -4.0     12.457     13.660
REMARK  1 active torsions:
REMARK  status: ('A' for Active; 'I' for Inactive)
REMARK    1  A    between atoms: C6_6  and  C8_8 
ROOT
HETATM    1  C3  UNL     1     -42.057   6.770  -1.894  1.00 20.00     0.046 C 
HETATM    2  C4  UNL     1     -41.161   4.402  -1.695  1.00 20.00     0.058 C 
HETATM    3  C5  UNL     1     -42.747   6.091  -3.065  1.00 20.00     0.170 C 
HETATM    4  C7  UNL     1     -40.946   5.877  -1.344  1.00 20.00     0.087 C 
HETATM    5  C8  UNL     1     -42.644   3.988  -1.847  1.00 20.00     0.062 C 
HETATM    6  C9  UNL     1     -43.341   3.888  -0.482  1.00 20.00     0.046 C 
HETATM    7  O10 UNL     1     -43.417   4.909  -2.636  1.00 20.00    -0.380 OA
HETATM    8 CL11 UNL     1     -40.771   6.115   0.420  1.00 20.00    -0.125 Cl
ENDROOT
BRANCH   5   9
HETATM    9  C6  UNL     1     -42.717   2.640  -2.537  1.00 20.00     0.020 A 
HETATM   10  C1  UNL     1     -42.946   2.560  -4.021  1.00 20.00     0.008 A 
HETATM   11  C2  UNL     1     -41.606   2.194  -3.446  1.00 20.00     0.008 A 
ENDBRANCH   5   9
TORSDOF 1
ENDMDL
