MODEL 1
REMARK VINA RESULT:      -4.4      0.000      0.000
REMARK  2 active torsions:
REMARK  status: ('A' for Active; 'I' for Inactive)
REMARK    1  A    between atoms: C5_5  and  C8_8 
REMARK    2  A    between atoms: C8_8  and  C9_9 
ROOT
HETATM    1  C1  UNL     1     -34.758  13.685  -5.636  1.00 20.00     0.046 C 
HETATM    2  C2  UNL     1     -34.426  16.031  -4.826  1.00 20.00     0.057 C 
HETATM    3  C3  UNL     1     -35.124  13.304  -4.208  1.00 20.00     0.170 C 
HETATM    4  C4  UNL     1     -35.083  15.153  -5.892  1.00 20.00     0.087 C 
HETATM    5  C5  UNL     1     -34.761  15.554  -3.399  1.00 20.00     0.058 C 
HETATM    6  C6  UNL     1     -36.217  15.857  -3.013  1.00 20.00     0.046 C 
HETATM    7  O10 UNL     1     -34.480  14.152  -3.260  1.00 20.00    -0.380 OA
HETATM    8 CL11 UNL     1     -34.522  15.634  -7.516  1.00 20.00    -0.125 Cl
ENDROOT
BRANCH   5   9
HETATM    9  C8  UNL     1     -33.841  16.268  -2.399  1.00 20.00     0.037 C 
BRANCH   9  10
HETATM   10  C9  UNL     1     -34.562  16.532  -1.086  1.00 20.00    -0.002 C 
HETATM   11  C7  UNL     1     -33.934  17.701  -0.345  1.00 20.00     0.005 C 
ENDBRANCH   9  10
ENDBRANCH   5   9
TORSDOF 2
ENDMDL
MODEL 2
REMARK VINA RESULT:      -4.4      2.010      2.514
REMARK  2 active torsions:
REMARK  status: ('A' for Active; 'I' for Inactive)
REMARK    1  A    between atoms: C5_5  and  C8_8 
REMARK    2  A    between atoms: C8_8  and  C9_9 
ROOT
HETATM    1  C1  UNL     1     -36.468  15.331  -5.683  1.00 20.00     0.046 C 
HETATM    2  C2  UNL     1     -35.924  15.181  -3.243  1.00 20.00     0.057 C 
HETATM    3  C3  UNL     1     -34.970  15.375  -5.956  1.00 20.00     0.170 C 
HETATM    4  C4  UNL     1     -36.747  14.582  -4.384  1.00 20.00     0.087 C 
HETATM    5  C5  UNL     1     -34.427  15.278  -3.601  1.00 20.00     0.058 C 
HETATM    6  C6  UNL     1     -33.744  13.903  -3.617  1.00 20.00     0.046 C 
HETATM    7  O10 UNL     1     -34.256  15.946  -4.862  1.00 20.00    -0.380 OA
HETATM    8 CL11 UNL     1     -38.487  14.657  -3.992  1.00 20.00    -0.125 Cl
ENDROOT
BRANCH   5   9
HETATM    9  C8  UNL     1     -33.716  16.156  -2.562  1.00 20.00     0.037 C 
BRANCH   9  10
HETATM   10  C9  UNL     1     -34.602  16.389  -1.348  1.00 20.00    -0.002 C 
HETATM   11  C7  UNL     1     -34.056  17.514  -0.483  1.00 20.00     0.005 C 
ENDBRANCH   9  10
ENDBRANCH   5   9
TORSDOF 2
ENDMDL
MODEL 3
REMARK VINA RESULT:      -4.3      1.487      2.196
REMARK  2 active torsions:
REMARK  status: ('A' for Active; 'I' for Inactive)
REMARK    1  A    between atoms: C5_5  and  C8_8 
REMARK    2  A    between atoms: C8_8  and  C9_9 
ROOT
HETATM    1  C1  UNL     1     -34.439  16.339  -6.514  1.00 20.00     0.046 C 
HETATM    2  C2  UNL     1     -35.603  15.005  -4.743  1.00 20.00     0.057 C 
HETATM    3  C3  UNL     1     -33.288  16.529  -5.535  1.00 20.00     0.170 C 
HETATM    4  C4  UNL     1     -35.182  15.041  -6.212  1.00 20.00     0.087 C 
HETATM    5  C5  UNL     1     -34.418  15.284  -3.796  1.00 20.00     0.058 C 
HETATM    6  C6  UNL     1     -33.436  14.104  -3.734  1.00 20.00     0.046 C 
HETATM    7  O10 UNL     1     -33.741  16.490  -4.183  1.00 20.00    -0.380 OA
HETATM    8 CL11 UNL     1     -36.614  14.893  -7.267  1.00 20.00    -0.125 Cl
ENDROOT
BRANCH   5   9
HETATM    9  C8  UNL     1     -34.953  15.539  -2.381  1.00 20.00     0.037 C 
BRANCH   9  10
HETATM   10  C9  UNL     1     -34.122  16.593  -1.666  1.00 20.00    -0.002 C 
HETATM   11  C7  UNL     1     -34.752  16.974  -0.335  1.00 20.00     0.005 C 
ENDBRANCH   9  10
ENDBRANCH   5   9
TORSDOF 2
ENDMDL
MODEL 4
REMARK VINA RESULT:      -4.2      1.835      2.332
REMARK  2 active torsions:
REMARK  status: ('A' for Active; 'I' for Inactive)
REMARK    1  A    between atoms: C5_5  and  C8_8 
REMARK    2  A    between atoms: C8_8  and  C9_9 
ROOT
HETATM    1  C1  UNL     1     -36.261  15.147  -4.739  1.00 20.00     0.046 C 
HETATM    2  C2  UNL     1     -34.030  15.254  -3.607  1.00 20.00     0.057 C 
HETATM    3  C3  UNL     1     -36.420  16.632  -4.442  1.00 20.00     0.170 C 
HETATM    4  C4  UNL     1     -34.784  14.784  -4.852  1.00 20.00     0.087 C 
HETATM    5  C5  UNL     1     -34.288  16.743  -3.304  1.00 20.00     0.058 C 
HETATM    6  C6  UNL     1     -33.583  17.670  -4.306  1.00 20.00     0.046 C 
HETATM    7  O10 UNL     1     -35.699  17.010  -3.270  1.00 20.00    -0.380 OA
HETATM    8 CL11 UNL     1     -34.597  13.021  -5.057  1.00 20.00    -0.125 Cl
ENDROOT
BRANCH   5   9
HETATM    9  C8  UNL     1     -33.766  17.069  -1.898  1.00 20.00     0.037 C 
BRANCH   9  10
HETATM   10  C9  UNL     1     -34.728  16.572  -0.831  1.00 20.00    -0.002 C 
HETATM   11  C7  UNL     1     -34.744  17.508   0.367  1.00 20.00     0.005 C 
ENDBRANCH   9  10
ENDBRANCH   5   9
TORSDOF 2
ENDMDL
MODEL 5
REMARK VINA RESULT:      -4.1      1.416      1.781
REMARK  2 active torsions:
REMARK  status: ('A' for Active; 'I' for Inactive)
REMARK    1  A    between atoms: C5_5  and  C8_8 
REMARK    2  A    between atoms: C8_8  and  C9_9 
ROOT
HETATM    1  C1  UNL     1     -34.381  15.610  -7.109  1.00 20.00     0.046 C 
HETATM    2  C2  UNL     1     -34.490  16.679  -4.847  1.00 20.00     0.057 C 
HETATM    3  C3  UNL     1     -34.941  14.343  -6.475  1.00 20.00     0.170 C 
HETATM    4  C4  UNL     1     -34.836  16.838  -6.328  1.00 20.00     0.087 C 
HETATM    5  C5  UNL     1     -35.008  15.344  -4.274  1.00 20.00     0.058 C 
HETATM    6  C6  UNL     1     -36.535  15.339  -4.106  1.00 20.00     0.046 C 
HETATM    7  O10 UNL     1     -34.583  14.247  -5.098  1.00 20.00    -0.380 OA
HETATM    8 CL11 UNL     1     -34.064  18.307  -6.986  1.00 20.00    -0.125 Cl
ENDROOT
BRANCH   5   9
HETATM    9  C8  UNL     1     -34.373  15.106  -2.898  1.00 20.00     0.037 C 
BRANCH   9  10
HETATM   10  C9  UNL     1     -33.942  16.418  -2.262  1.00 20.00    -0.002 C 
HETATM   11  C7  UNL     1     -34.625  16.623  -0.919  1.00 20.00     0.005 C 
ENDBRANCH   9  10
ENDBRANCH   5   9
TORSDOF 2
ENDMDL
MODEL 6
REMARK VINA RESULT:      -4.1      2.010      2.593
REMARK  2 active torsions:
REMARK  status: ('A' for Active; 'I' for Inactive)
REMARK    1  A    between atoms: C5_5  and  C8_8 
REMARK    2  A    between atoms: C8_8  and  C9_9 
ROOT
HETATM    1  C1  UNL     1     -35.204  16.881  -5.958  1.00 20.00     0.046 C 
HETATM    2  C2  UNL     1     -35.332  15.939  -3.641  1.00 20.00     0.057 C 
HETATM    3  C3  UNL     1     -33.729  17.161  -5.701  1.00 20.00     0.170 C 
HETATM    4  C4  UNL     1     -35.673  15.701  -5.113  1.00 20.00     0.087 C 
HETATM    5  C5  UNL     1     -33.846  16.298  -3.445  1.00 20.00     0.058 C 
HETATM    6  C6  UNL     1     -32.923  15.087  -3.653  1.00 20.00     0.046 C 
HETATM    7  O10 UNL     1     -33.472  17.378  -4.315  1.00 20.00    -0.380 OA
HETATM    8 CL11 UNL     1     -37.432  15.467  -5.307  1.00 20.00    -0.125 Cl
ENDROOT
BRANCH   5   9
HETATM    9  C8  UNL     1     -33.638  16.820  -2.016  1.00 20.00     0.037 C 
BRANCH   9  10
HETATM   10  C9  UNL     1     -34.805  16.434  -1.120  1.00 20.00    -0.002 C 
HETATM   11  C7  UNL     1     -34.824  17.280   0.144  1.00 20.00     0.005 C 
ENDBRANCH   9  10
ENDBRANCH   5   9
TORSDOF 2
ENDMDL
MODEL 7
REMARK VINA RESULT:      -4.1      3.042      4.908
REMARK  2 active torsions:
REMARK  status: ('A' for Active; 'I' for Inactive)
REMARK    1  A    between atoms: C5_5  and  C8_8 
REMARK    2  A    between atoms: C8_8  and  C9_9 
ROOT
HETATM    1  C1  UNL     1     -34.042  18.669  -1.234  1.00 20.00     0.046 C 
HETATM    2  C2  UNL     1     -34.591  16.250  -1.576  1.00 20.00     0.057 C 
HETATM    3  C3  UNL     1     -33.875  18.787  -2.743  1.00 20.00     0.170 C 
HETATM    4  C4  UNL     1     -35.021  17.550  -0.895  1.00 20.00     0.087 C 
HETATM    5  C5  UNL     1     -34.357  16.442  -3.088  1.00 20.00     0.058 C 
HETATM    6  C6  UNL     1     -35.672  16.627  -3.860  1.00 20.00     0.046 C 
HETATM    7  O10 UNL     1     -33.470  17.548  -3.322  1.00 20.00    -0.380 OA
HETATM    8 CL11 UNL     1     -35.104  17.319   0.873  1.00 20.00    -0.125 Cl
ENDROOT
BRANCH   5   9
HETATM    9  C8  UNL     1     -33.641  15.206  -3.648  1.00 20.00     0.037 C 
BRANCH   9  10
HETATM   10  C9  UNL     1     -34.525  13.972  -3.549  1.00 20.00    -0.002 C 
HETATM   11  C7  UNL     1     -34.517  13.190  -4.853  1.00 20.00     0.005 C 
ENDBRANCH   9  10
ENDBRANCH   5   9
TORSDOF 2
ENDMDL
MODEL 8
REMARK VINA RESULT:      -4.0      1.786      2.558
REMARK  2 active torsions:
REMARK  status: ('A' for Active; 'I' for Inactive)
REMARK    1  A    between atoms: C5_5  and  C8_8 
REMARK    2  A    between atoms: C8_8  and  C9_9 
ROOT
HETATM    1  C1  UNL     1     -35.645  16.160  -6.757  1.00 20.00     0.046 C 
HETATM    2  C2  UNL     1     -36.165  15.099  -4.549  1.00 20.00     0.057 C 
HETATM    3  C3  UNL     1     -34.217  15.656  -6.599  1.00 20.00     0.170 C 
HETATM    4  C4  UNL     1     -36.613  15.254  -6.003  1.00 20.00     0.087 C 
HETATM    5  C5  UNL     1     -34.689  14.666  -4.444  1.00 20.00     0.058 C 
HETATM    6  C6  UNL     1     -34.484  13.200  -4.855  1.00 20.00     0.046 C 
HETATM    7  O10 UNL     1     -33.854  15.535  -5.225  1.00 20.00    -0.380 OA
HETATM    8 CL11 UNL     1     -38.265  15.927  -6.070  1.00 20.00    -0.125 Cl
ENDROOT
BRANCH   5   9
HETATM    9  C8  UNL     1     -34.219  14.827  -2.992  1.00 20.00     0.037 C 
BRANCH   9  10
HETATM   10  C9  UNL     1     -34.137  16.296  -2.605  1.00 20.00    -0.002 C 
HETATM   11  C7  UNL     1     -34.609  16.510  -1.176  1.00 20.00     0.005 C 
ENDBRANCH   9  10
ENDBRANCH   5   9
TORSDOF 2
ENDMDL
MODEL 9
REMARK VINA RESULT:      -4.0      2.735      4.601
REMARK  2 active torsions:
REMARK  status: ('A' for Active; 'I' for Inactive)
REMARK    1  A    between atoms: C5_5  and  C8_8 
REMARK    2  A    between atoms: C8_8  and  C9_9 
ROOT
HETATM    1  C1  UNL     1     -35.965  17.499  -1.875  1.00 20.00     0.046 C 
HETATM    2  C2  UNL     1     -33.746  16.481  -2.433  1.00 20.00     0.057 C 
HETATM    3  C3  UNL     1     -36.532  16.798  -3.103  1.00 20.00     0.170 C 
HETATM    4  C4  UNL     1     -34.773  16.723  -1.325  1.00 20.00     0.087 C 
HETATM    5  C5  UNL     1     -34.386  15.846  -3.683  1.00 20.00     0.058 C 
HETATM    6  C6  UNL     1     -34.761  14.373  -3.458  1.00 20.00     0.046 C 
HETATM    7  O10 UNL     1     -35.532  16.604  -4.101  1.00 20.00    -0.380 OA
HETATM    8 CL11 UNL     1     -34.023  17.619   0.024  1.00 20.00    -0.125 Cl
ENDROOT
BRANCH   5   9
HETATM    9  C8  UNL     1     -33.390  15.914  -4.849  1.00 20.00     0.037 C 
BRANCH   9  10
HETATM   10  C9  UNL     1     -34.084  16.338  -6.135  1.00 20.00    -0.002 C 
HETATM   11  C7  UNL     1     -34.291  15.149  -7.059  1.00 20.00     0.005 C 
ENDBRANCH   9  10
ENDBRANCH   5   9
TORSDOF 2
ENDMDL
