MODEL 1
REMARK VINA RESULT:      -4.1      0.000      0.000
REMARK  0 active torsions:
REMARK  status: ('A' for Active; 'I' for Inactive)
ROOT
HETATM    1  C1  UNL     1     -41.538   7.150  -1.034  1.00 20.00     0.046 C 
HETATM    2  C2  UNL     1     -42.538   5.564  -2.692  1.00 20.00     0.057 C 
HETATM    3  C3  UNL     1     -40.681   6.023  -0.461  1.00 20.00     0.170 C 
HETATM    4  C4  UNL     1     -41.834   6.909  -2.505  1.00 20.00     0.087 C 
HETATM    5  C5  UNL     1     -41.921   4.446  -1.817  1.00 20.00     0.055 C 
HETATM    6  C6  UNL     1     -42.873   4.023  -0.686  1.00 20.00     0.045 C 
HETATM    7  C7  UNL     1     -41.628   3.213  -2.683  1.00 20.00     0.045 C 
HETATM    8  O8  UNL     1     -40.656   4.856  -1.280  1.00 20.00    -0.381 OA
HETATM    9 CL9  UNL     1     -42.831   8.230  -3.170  1.00 20.00    -0.125 Cl
ENDROOT
TORSDOF 0
ENDMDL
MODEL 2
REMARK VINA RESULT:      -3.9     12.172     12.907
REMARK  0 active torsions:
REMARK  status: ('A' for Active; 'I' for Inactive)
ROOT
HETATM    1  C1  UNL     1     -34.632  16.456  -6.330  1.00 20.00     0.046 C 
HETATM    2  C2  UNL     1     -34.559  14.131  -5.407  1.00 20.00     0.057 C 
HETATM    3  C3  UNL     1     -33.634  16.917  -5.270  1.00 20.00     0.170 C 
HETATM    4  C4  UNL     1     -34.423  14.989  -6.666  1.00 20.00     0.087 C 
HETATM    5  C5  UNL     1     -33.863  14.768  -4.179  1.00 20.00     0.055 C 
HETATM    6  C6  UNL     1     -34.885  15.257  -3.140  1.00 20.00     0.045 C 
HETATM    7  C7  UNL     1     -32.953  13.732  -3.505  1.00 20.00     0.045 C 
HETATM    8  O8  UNL     1     -33.002  15.842  -4.579  1.00 20.00    -0.381 OA
HETATM    9 CL9  UNL     1     -35.587  14.456  -7.908  1.00 20.00    -0.125 Cl
ENDROOT
TORSDOF 0
ENDMDL
MODEL 3
REMARK VINA RESULT:      -3.9     11.383     12.465
REMARK  0 active torsions:
REMARK  status: ('A' for Active; 'I' for Inactive)
ROOT
HETATM    1  C1  UNL     1     -33.332  15.951  -3.018  1.00 20.00     0.046 C 
HETATM    2  C2  UNL     1     -35.768  15.382  -2.959  1.00 20.00     0.057 C 
HETATM    3  C3  UNL     1     -33.329  15.820  -4.539  1.00 20.00     0.170 C 
HETATM    4  C4  UNL     1     -34.700  16.382  -2.515  1.00 20.00     0.087 C 
HETATM    5  C5  UNL     1     -35.574  14.919  -4.424  1.00 20.00     0.055 C 
HETATM    6  C6  UNL     1     -35.128  13.450  -4.499  1.00 20.00     0.045 C 
HETATM    7  C7  UNL     1     -36.897  15.059  -5.191  1.00 20.00     0.045 C 
HETATM    8  O8  UNL     1     -34.637  15.763  -5.106  1.00 20.00    -0.381 OA
HETATM    9 CL9  UNL     1     -34.696  16.538  -0.738  1.00 20.00    -0.125 Cl
ENDROOT
TORSDOF 0
ENDMDL
MODEL 4
REMARK VINA RESULT:      -3.9      9.064     10.348
REMARK  0 active torsions:
REMARK  status: ('A' for Active; 'I' for Inactive)
ROOT
HETATM    1  C1  UNL     1     -34.834   5.406   6.636  1.00 20.00     0.046 C 
HETATM    2  C2  UNL     1     -33.918   6.598   4.635  1.00 20.00     0.057 C 
HETATM    3  C3  UNL     1     -35.127   4.177   5.779  1.00 20.00     0.170 C 
HETATM    4  C4  UNL     1     -33.650   6.180   6.082  1.00 20.00     0.087 C 
HETATM    5  C5  UNL     1     -34.583   5.471   3.807  1.00 20.00     0.055 C 
HETATM    6  C6  UNL     1     -36.043   5.808   3.464  1.00 20.00     0.045 C 
HETATM    7  C7  UNL     1     -33.816   5.273   2.492  1.00 20.00     0.045 C 
HETATM    8  O8  UNL     1     -34.506   4.217   4.496  1.00 20.00    -0.381 OA
HETATM    9 CL9  UNL     1     -33.308   7.613   7.088  1.00 20.00    -0.125 Cl
ENDROOT
TORSDOF 0
ENDMDL
MODEL 5
REMARK VINA RESULT:      -3.9     12.170     13.214
REMARK  0 active torsions:
REMARK  status: ('A' for Active; 'I' for Inactive)
ROOT
HETATM    1  C1  UNL     1     -33.944  15.736  -5.239  1.00 20.00     0.046 C 
HETATM    2  C2  UNL     1     -34.861  15.005  -3.028  1.00 20.00     0.057 C 
HETATM    3  C3  UNL     1     -33.527  17.074  -4.633  1.00 20.00     0.170 C 
HETATM    4  C4  UNL     1     -33.933  14.640  -4.187  1.00 20.00     0.087 C 
HETATM    5  C5  UNL     1     -34.741  16.493  -2.619  1.00 20.00     0.055 C 
HETATM    6  C6  UNL     1     -36.003  17.287  -2.994  1.00 20.00     0.045 C 
HETATM    7  C7  UNL     1     -34.542  16.599  -1.101  1.00 20.00     0.045 C 
HETATM    8  O8  UNL     1     -33.578  17.093  -3.207  1.00 20.00    -0.381 OA
HETATM    9 CL9  UNL     1     -34.416  13.079  -4.901  1.00 20.00    -0.125 Cl
ENDROOT
TORSDOF 0
ENDMDL
MODEL 6
REMARK VINA RESULT:      -3.8     11.475     12.747
REMARK  0 active torsions:
REMARK  status: ('A' for Active; 'I' for Inactive)
ROOT
HETATM    1  C1  UNL     1     -34.892  14.003  -5.879  1.00 20.00     0.046 C 
HETATM    2  C2  UNL     1     -33.894  16.096  -4.937  1.00 20.00     0.057 C 
HETATM    3  C3  UNL     1     -35.093  13.454  -4.469  1.00 20.00     0.170 C 
HETATM    4  C4  UNL     1     -34.951  15.522  -5.881  1.00 20.00     0.087 C 
HETATM    5  C5  UNL     1     -33.799  15.311  -3.606  1.00 20.00     0.055 C 
HETATM    6  C6  UNL     1     -32.485  14.519  -3.509  1.00 20.00     0.045 C 
HETATM    7  C7  UNL     1     -33.860  16.287  -2.423  1.00 20.00     0.045 C 
HETATM    8  O8  UNL     1     -34.924  14.436  -3.448  1.00 20.00    -0.381 OA
HETATM    9 CL9  UNL     1     -34.721  16.158  -7.531  1.00 20.00    -0.125 Cl
ENDROOT
TORSDOF 0
ENDMDL
MODEL 7
REMARK VINA RESULT:      -3.8     11.551     12.654
REMARK  0 active torsions:
REMARK  status: ('A' for Active; 'I' for Inactive)
ROOT
HETATM    1  C1  UNL     1     -34.508  14.121  -3.452  1.00 20.00     0.046 C 
HETATM    2  C2  UNL     1     -34.591  16.260  -4.748  1.00 20.00     0.057 C 
HETATM    3  C3  UNL     1     -34.590  13.321  -4.751  1.00 20.00     0.170 C 
HETATM    4  C4  UNL     1     -33.834  15.462  -3.686  1.00 20.00     0.087 C 
HETATM    5  C5  UNL     1     -35.037  15.381  -5.942  1.00 20.00     0.055 C 
HETATM    6  C6  UNL     1     -36.562  15.190  -5.966  1.00 20.00     0.045 C 
HETATM    7  C7  UNL     1     -34.617  16.047  -7.260  1.00 20.00     0.045 C 
HETATM    8  O8  UNL     1     -34.372  14.111  -5.919  1.00 20.00    -0.381 OA
HETATM    9 CL9  UNL     1     -33.736  16.390  -2.165  1.00 20.00    -0.125 Cl
ENDROOT
TORSDOF 0
ENDMDL
MODEL 8
REMARK VINA RESULT:      -3.7     11.666     12.391
REMARK  0 active torsions:
REMARK  status: ('A' for Active; 'I' for Inactive)
ROOT
HETATM    1  C1  UNL     1     -35.929  16.637  -2.657  1.00 20.00     0.046 C 
HETATM    2  C2  UNL     1     -33.823  15.374  -3.138  1.00 20.00     0.057 C 
HETATM    3  C3  UNL     1     -36.724  15.653  -3.512  1.00 20.00     0.170 C 
HETATM    4  C4  UNL     1     -34.715  15.960  -2.043  1.00 20.00     0.087 C 
HETATM    5  C5  UNL     1     -34.636  14.675  -4.254  1.00 20.00     0.055 C 
HETATM    6  C6  UNL     1     -34.584  15.465  -5.572  1.00 20.00     0.045 C 
HETATM    7  C7  UNL     1     -34.064  13.274  -4.512  1.00 20.00     0.045 C 
HETATM    8  O8  UNL     1     -35.996  14.473  -3.845  1.00 20.00    -0.381 OA
HETATM    9 CL9  UNL     1     -33.793  17.112  -1.041  1.00 20.00    -0.125 Cl
ENDROOT
TORSDOF 0
ENDMDL
MODEL 9
REMARK VINA RESULT:      -3.7     11.190     12.491
REMARK  0 active torsions:
REMARK  status: ('A' for Active; 'I' for Inactive)
ROOT
HETATM    1  C1  UNL     1     -35.521  13.568  -4.206  1.00 20.00     0.046 C 
HETATM    2  C2  UNL     1     -35.730  15.954  -4.933  1.00 20.00     0.057 C 
HETATM    3  C3  UNL     1     -34.004  13.646  -4.360  1.00 20.00     0.170 C 
HETATM    4  C4  UNL     1     -36.099  14.930  -3.858  1.00 20.00     0.087 C 
HETATM    5  C5  UNL     1     -34.262  15.815  -5.405  1.00 20.00     0.055 C 
HETATM    6  C6  UNL     1     -34.178  15.278  -6.843  1.00 20.00     0.045 C 
HETATM    7  C7  UNL     1     -33.574  17.186  -5.364  1.00 20.00     0.045 C 
HETATM    8  O8  UNL     1     -33.516  14.977  -4.512  1.00 20.00    -0.381 OA
HETATM    9 CL9  UNL     1     -37.870  14.833  -3.674  1.00 20.00    -0.125 Cl
ENDROOT
TORSDOF 0
ENDMDL
