MODEL 1
REMARK VINA RESULT:      -5.0      0.000      0.000
REMARK  2 active torsions:
REMARK  status: ('A' for Active; 'I' for Inactive)
REMARK    1  A    between atoms: C6_6  and  C8_8 
REMARK    2  A    between atoms: C7_7  and  O11_11 
ROOT
HETATM    1  C3  UNL     1     -33.313  13.574  -3.783  1.00 20.00     0.058 C 
HETATM    2  C4  UNL     1     -35.387  14.864  -3.267  1.00 20.00     0.069 C 
HETATM    3  C5  UNL     1     -32.549  14.886  -3.742  1.00 20.00     0.171 C 
HETATM    4  C7  UNL     1     -34.766  13.809  -4.175  1.00 20.00     0.123 C 
HETATM    5  C8  UNL     1     -34.539  16.151  -3.186  1.00 20.00     0.063 C 
HETATM    6  C9  UNL     1     -34.615  16.967  -4.488  1.00 20.00     0.046 C 
HETATM    7  O10 UNL     1     -33.174  15.829  -2.874  1.00 20.00    -0.380 OA
ENDROOT
BRANCH   5   8
HETATM    8  C6  UNL     1     -35.052  17.011  -2.046  1.00 20.00     0.020 A 
HETATM    9  C1  UNL     1     -34.696  16.675  -0.624  1.00 20.00     0.008 A 
HETATM   10  C2  UNL     1     -34.106  17.892  -1.279  1.00 20.00     0.008 A 
ENDBRANCH   5   8
BRANCH   4  11
HETATM   11  O11 UNL     1     -35.503  12.597  -4.047  1.00 20.00    -0.395 OA
HETATM   12  H27 UNL     1     -36.137  12.579  -4.782  1.00 20.00     0.210 HD
ENDBRANCH   4  11
TORSDOF 2
ENDMDL
MODEL 2
REMARK VINA RESULT:      -4.7      1.237      1.757
REMARK  2 active torsions:
REMARK  status: ('A' for Active; 'I' for Inactive)
REMARK    1  A    between atoms: C6_6  and  C8_8 
REMARK    2  A    between atoms: C7_7  and  O11_11 
ROOT
HETATM    1  C3  UNL     1     -34.465  14.728  -5.824  1.00 20.00     0.058 C 
HETATM    2  C4  UNL     1     -34.580  14.392  -3.353  1.00 20.00     0.069 C 
HETATM    3  C5  UNL     1     -34.645  16.216  -5.577  1.00 20.00     0.171 C 
HETATM    4  C7  UNL     1     -35.101  13.915  -4.704  1.00 20.00     0.123 C 
HETATM    5  C8  UNL     1     -34.703  15.919  -3.173  1.00 20.00     0.063 C 
HETATM    6  C9  UNL     1     -36.164  16.352  -2.965  1.00 20.00     0.046 C 
HETATM    7  O10 UNL     1     -34.133  16.600  -4.302  1.00 20.00    -0.380 OA
ENDROOT
BRANCH   5   8
HETATM    8  C6  UNL     1     -33.896  16.342  -1.960  1.00 20.00     0.020 A 
HETATM    9  C1  UNL     1     -33.839  17.790  -1.556  1.00 20.00     0.008 A 
HETATM   10  C2  UNL     1     -34.593  16.802  -0.710  1.00 20.00     0.008 A 
ENDBRANCH   5   8
BRANCH   4  11
HETATM   11  O11 UNL     1     -34.781  12.537  -4.864  1.00 20.00    -0.395 OA
HETATM   12  H27 UNL     1     -35.597  12.041  -4.696  1.00 20.00     0.210 HD
ENDBRANCH   4  11
TORSDOF 2
ENDMDL
MODEL 3
REMARK VINA RESULT:      -4.5      1.475      2.706
REMARK  2 active torsions:
REMARK  status: ('A' for Active; 'I' for Inactive)
REMARK    1  A    between atoms: C6_6  and  C8_8 
REMARK    2  A    between atoms: C7_7  and  O11_11 
ROOT
HETATM    1  C3  UNL     1     -35.186  13.676  -4.238  1.00 20.00     0.058 C 
HETATM    2  C4  UNL     1     -33.348  15.207  -3.525  1.00 20.00     0.069 C 
HETATM    3  C5  UNL     1     -36.174  14.740  -3.792  1.00 20.00     0.171 C 
HETATM    4  C7  UNL     1     -33.887  13.783  -3.449  1.00 20.00     0.123 C 
HETATM    5  C8  UNL     1     -34.405  16.264  -3.147  1.00 20.00     0.063 C 
HETATM    6  C9  UNL     1     -34.697  16.263  -1.636  1.00 20.00     0.046 C 
HETATM    7  O10 UNL     1     -35.615  16.047  -3.892  1.00 20.00    -0.380 OA
ENDROOT
BRANCH   5   8
HETATM    8  C6  UNL     1     -33.896  17.639  -3.540  1.00 20.00     0.020 A 
HETATM    9  C1  UNL     1     -33.668  17.976  -4.987  1.00 20.00     0.008 A 
HETATM   10  C2  UNL     1     -34.805  18.611  -4.237  1.00 20.00     0.008 A 
ENDBRANCH   5   8
BRANCH   4  11
HETATM   11  O11 UNL     1     -32.918  12.892  -3.990  1.00 20.00    -0.395 OA
HETATM   12  H27 UNL     1     -32.093  13.049  -3.503  1.00 20.00     0.210 HD
ENDBRANCH   4  11
TORSDOF 2
ENDMDL
MODEL 4
REMARK VINA RESULT:      -4.4      1.490      1.993
REMARK  2 active torsions:
REMARK  status: ('A' for Active; 'I' for Inactive)
REMARK    1  A    between atoms: C6_6  and  C8_8 
REMARK    2  A    between atoms: C7_7  and  O11_11 
ROOT
HETATM    1  C3  UNL     1     -33.365  16.290  -5.160  1.00 20.00     0.058 C 
HETATM    2  C4  UNL     1     -34.360  15.234  -3.128  1.00 20.00     0.069 C 
HETATM    3  C5  UNL     1     -33.710  17.643  -4.561  1.00 20.00     0.171 C 
HETATM    4  C7  UNL     1     -34.320  15.218  -4.652  1.00 20.00     0.123 C 
HETATM    5  C8  UNL     1     -34.629  16.641  -2.556  1.00 20.00     0.063 C 
HETATM    6  C9  UNL     1     -36.088  17.077  -2.779  1.00 20.00     0.046 C 
HETATM    7  O10 UNL     1     -33.726  17.596  -3.136  1.00 20.00    -0.380 OA
ENDROOT
BRANCH   5   8
HETATM    8  C6  UNL     1     -34.350  16.632  -1.064  1.00 20.00     0.020 A 
HETATM    9  C1  UNL     1     -33.687  17.813  -0.411  1.00 20.00     0.008 A 
HETATM   10  C2  UNL     1     -35.136  17.521  -0.142  1.00 20.00     0.008 A 
ENDBRANCH   5   8
BRANCH   4  11
HETATM   11  O11 UNL     1     -33.883  13.935  -5.089  1.00 20.00    -0.395 OA
HETATM   12  H27 UNL     1     -33.052  13.750  -4.623  1.00 20.00     0.210 HD
ENDBRANCH   4  11
TORSDOF 2
ENDMDL
MODEL 5
REMARK VINA RESULT:      -4.3      2.265      3.969
REMARK  2 active torsions:
REMARK  status: ('A' for Active; 'I' for Inactive)
REMARK    1  A    between atoms: C6_6  and  C8_8 
REMARK    2  A    between atoms: C7_7  and  O11_11 
ROOT
HETATM    1  C3  UNL     1     -36.181  14.690  -3.700  1.00 20.00     0.058 C 
HETATM    2  C4  UNL     1     -34.575  14.377  -5.585  1.00 20.00     0.069 C 
HETATM    3  C5  UNL     1     -36.003  16.189  -3.867  1.00 20.00     0.171 C 
HETATM    4  C7  UNL     1     -34.938  13.945  -4.169  1.00 20.00     0.123 C 
HETATM    5  C8  UNL     1     -34.486  15.910  -5.735  1.00 20.00     0.063 C 
HETATM    6  C9  UNL     1     -33.233  16.478  -5.047  1.00 20.00     0.046 C 
HETATM    7  O10 UNL     1     -35.671  16.530  -5.211  1.00 20.00    -0.380 OA
ENDROOT
BRANCH   5   8
HETATM    8  C6  UNL     1     -34.429  16.262  -7.210  1.00 20.00     0.020 A 
HETATM    9  C1  UNL     1     -35.658  16.762  -7.916  1.00 20.00     0.008 A 
HETATM   10  C2  UNL     1     -34.513  17.697  -7.648  1.00 20.00     0.008 A 
ENDBRANCH   5   8
BRANCH   4  11
HETATM   11  O11 UNL     1     -35.184  12.542  -4.162  1.00 20.00    -0.395 OA
HETATM   12  H27 UNL     1     -34.549  12.152  -3.540  1.00 20.00     0.210 HD
ENDBRANCH   4  11
TORSDOF 2
ENDMDL
MODEL 6
REMARK VINA RESULT:      -4.3      1.776      4.025
REMARK  2 active torsions:
REMARK  status: ('A' for Active; 'I' for Inactive)
REMARK    1  A    between atoms: C6_6  and  C8_8 
REMARK    2  A    between atoms: C7_7  and  O11_11 
ROOT
HETATM    1  C3  UNL     1     -34.388  18.028  -2.098  1.00 20.00     0.058 C 
HETATM    2  C4  UNL     1     -34.902  15.588  -2.220  1.00 20.00     0.069 C 
HETATM    3  C5  UNL     1     -33.787  17.918  -3.489  1.00 20.00     0.171 C 
HETATM    4  C7  UNL     1     -34.297  16.696  -1.365  1.00 20.00     0.123 C 
HETATM    5  C8  UNL     1     -34.327  15.562  -3.652  1.00 20.00     0.063 C 
HETATM    6  C9  UNL     1     -32.881  15.038  -3.675  1.00 20.00     0.046 C 
HETATM    7  O10 UNL     1     -34.397  16.871  -4.240  1.00 20.00    -0.380 OA
ENDROOT
BRANCH   5   8
HETATM    8  C6  UNL     1     -35.184  14.654  -4.514  1.00 20.00     0.020 A 
HETATM    9  C1  UNL     1     -34.782  14.356  -5.932  1.00 20.00     0.008 A 
HETATM   10  C2  UNL     1     -34.696  13.281  -4.884  1.00 20.00     0.008 A 
ENDBRANCH   5   8
BRANCH   4  11
HETATM   11  O11 UNL     1     -35.010  16.772  -0.135  1.00 20.00    -0.395 OA
HETATM   12  H27 UNL     1     -34.369  16.588   0.570  1.00 20.00     0.210 HD
ENDBRANCH   4  11
TORSDOF 2
ENDMDL
MODEL 7
REMARK VINA RESULT:      -4.2      2.033      2.219
REMARK  2 active torsions:
REMARK  status: ('A' for Active; 'I' for Inactive)
REMARK    1  A    between atoms: C6_6  and  C8_8 
REMARK    2  A    between atoms: C7_7  and  O11_11 
ROOT
HETATM    1  C3  UNL     1     -33.637  14.010  -3.512  1.00 20.00     0.058 C 
HETATM    2  C4  UNL     1     -35.577  14.765  -4.889  1.00 20.00     0.069 C 
HETATM    3  C5  UNL     1     -32.917  15.284  -3.921  1.00 20.00     0.171 C 
HETATM    4  C7  UNL     1     -34.648  13.598  -4.573  1.00 20.00     0.123 C 
HETATM    5  C8  UNL     1     -34.810  16.063  -5.218  1.00 20.00     0.063 C 
HETATM    6  C9  UNL     1     -34.134  15.991  -6.599  1.00 20.00     0.046 C 
HETATM    7  O10 UNL     1     -33.837  16.338  -4.197  1.00 20.00    -0.380 OA
ENDROOT
BRANCH   5   8
HETATM    8  C6  UNL     1     -35.782  17.228  -5.215  1.00 20.00     0.020 A 
HETATM    9  C1  UNL     1     -36.607  17.522  -3.994  1.00 20.00     0.008 A 
HETATM   10  C2  UNL     1     -35.494  18.451  -4.389  1.00 20.00     0.008 A 
ENDBRANCH   5   8
BRANCH   4  11
HETATM   11  O11 UNL     1     -35.427  12.503  -4.100  1.00 20.00    -0.395 OA
HETATM   12  H27 UNL     1     -34.804  11.790  -3.890  1.00 20.00     0.210 HD
ENDBRANCH   4  11
TORSDOF 2
ENDMDL
MODEL 8
REMARK VINA RESULT:      -4.2      1.996      3.987
REMARK  2 active torsions:
REMARK  status: ('A' for Active; 'I' for Inactive)
REMARK    1  A    between atoms: C6_6  and  C8_8 
REMARK    2  A    between atoms: C7_7  and  O11_11 
ROOT
HETATM    1  C3  UNL     1     -33.696  16.247  -2.700  1.00 20.00     0.058 C 
HETATM    2  C4  UNL     1     -35.871  15.567  -3.719  1.00 20.00     0.069 C 
HETATM    3  C5  UNL     1     -33.002  15.347  -3.708  1.00 20.00     0.171 C 
HETATM    4  C7  UNL     1     -35.106  15.747  -2.413  1.00 20.00     0.123 C 
HETATM    5  C8  UNL     1     -35.097  14.717  -4.748  1.00 20.00     0.063 C 
HETATM    6  C9  UNL     1     -35.065  13.231  -4.351  1.00 20.00     0.046 C 
HETATM    7  O10 UNL     1     -33.762  15.223  -4.908  1.00 20.00    -0.380 OA
ENDROOT
BRANCH   5   8
HETATM    8  C6  UNL     1     -35.772  14.841  -6.102  1.00 20.00     0.020 A 
HETATM    9  C1  UNL     1     -35.486  16.024  -6.984  1.00 20.00     0.008 A 
HETATM   10  C2  UNL     1     -34.974  14.663  -7.364  1.00 20.00     0.008 A 
ENDBRANCH   5   8
BRANCH   4  11
HETATM   11  O11 UNL     1     -35.797  16.690  -1.599  1.00 20.00    -0.395 OA
HETATM   12  H27 UNL     1     -36.589  16.956  -2.093  1.00 20.00     0.210 HD
ENDBRANCH   4  11
TORSDOF 2
ENDMDL
MODEL 9
REMARK VINA RESULT:      -4.2      2.161      2.980
REMARK  2 active torsions:
REMARK  status: ('A' for Active; 'I' for Inactive)
REMARK    1  A    between atoms: C6_6  and  C8_8 
REMARK    2  A    between atoms: C7_7  and  O11_11 
ROOT
HETATM    1  C3  UNL     1     -36.209  15.133  -5.880  1.00 20.00     0.058 C 
HETATM    2  C4  UNL     1     -33.945  15.828  -5.089  1.00 20.00     0.069 C 
HETATM    3  C5  UNL     1     -36.407  14.442  -4.543  1.00 20.00     0.171 C 
HETATM    4  C7  UNL     1     -34.730  15.203  -6.237  1.00 20.00     0.123 C 
HETATM    5  C8  UNL     1     -34.236  15.152  -3.733  1.00 20.00     0.063 C 
HETATM    6  C9  UNL     1     -33.601  13.754  -3.645  1.00 20.00     0.046 C 
HETATM    7  O10 UNL     1     -35.654  15.074  -3.510  1.00 20.00    -0.380 OA
ENDROOT
BRANCH   5   8
HETATM    8  C6  UNL     1     -33.669  16.012  -2.618  1.00 20.00     0.020 A 
HETATM    9  C1  UNL     1     -34.130  17.433  -2.450  1.00 20.00     0.008 A 
HETATM   10  C2  UNL     1     -34.528  16.390  -1.444  1.00 20.00     0.008 A 
ENDBRANCH   5   8
BRANCH   4  11
HETATM   11  O11 UNL     1     -34.551  15.997  -7.406  1.00 20.00    -0.395 OA
HETATM   12  H27 UNL     1     -33.594  16.107  -7.523  1.00 20.00     0.210 HD
ENDBRANCH   4  11
TORSDOF 2
ENDMDL
