MODEL 1
REMARK VINA RESULT:      -5.1      0.000      0.000
REMARK  0 active torsions:
REMARK  status: ('A' for Active; 'I' for Inactive)
ROOT
HETATM    1  C1  UNL     1     -35.168  14.153  -6.147  1.00 20.00     0.000 C 
HETATM    2  C2  UNL     1     -34.194  15.136  -6.778  1.00 20.00     0.000 C 
HETATM    3  C3  UNL     1     -34.690  13.508  -4.851  1.00 20.00     0.003 C 
HETATM    4  C4  UNL     1     -34.310  16.537  -6.186  1.00 20.00     0.003 C 
HETATM    5  C5  UNL     1     -33.834  14.347  -3.901  1.00 20.00     0.038 C 
HETATM    6  C6  UNL     1     -33.700  16.713  -4.797  1.00 20.00     0.038 C 
HETATM    7  C7  UNL     1     -35.774  17.533  -1.831  1.00 20.00     0.046 C 
HETATM    8  C8  UNL     1     -33.668  16.262  -2.295  1.00 20.00     0.058 C 
HETATM    9  C9  UNL     1     -36.260  17.105  -3.208  1.00 20.00     0.170 C 
HETATM   10  C10 UNL     1     -34.252  17.587  -1.803  1.00 20.00     0.087 C 
HETATM   11  C11 UNL     1     -34.262  15.817  -3.662  1.00 20.00     0.062 C 
HETATM   12  O12 UNL     1     -35.694  15.854  -3.591  1.00 20.00    -0.380 OA
HETATM   13 CL13 UNL     1     -33.679  17.936  -0.147  1.00 20.00    -0.125 Cl
ENDROOT
TORSDOF 0
ENDMDL
MODEL 2
REMARK VINA RESULT:      -4.9      1.389      2.120
REMARK  0 active torsions:
REMARK  status: ('A' for Active; 'I' for Inactive)
ROOT
HETATM    1  C1  UNL     1     -35.844  14.548  -5.772  1.00 20.00     0.000 C 
HETATM    2  C2  UNL     1     -34.931  13.474  -5.199  1.00 20.00     0.000 C 
HETATM    3  C3  UNL     1     -36.886  15.096  -4.806  1.00 20.00     0.003 C 
HETATM    4  C4  UNL     1     -33.741  14.060  -4.447  1.00 20.00     0.003 C 
HETATM    5  C5  UNL     1     -36.506  15.223  -3.330  1.00 20.00     0.038 C 
HETATM    6  C6  UNL     1     -34.056  14.632  -3.065  1.00 20.00     0.038 C 
HETATM    7  C7  UNL     1     -33.674  18.243  -2.301  1.00 20.00     0.046 C 
HETATM    8  C8  UNL     1     -35.150  16.363  -1.558  1.00 20.00     0.058 C 
HETATM    9  C9  UNL     1     -33.623  17.578  -3.669  1.00 20.00     0.170 C 
HETATM   10  C10 UNL     1     -33.917  17.200  -1.217  1.00 20.00     0.087 C 
HETATM   11  C11 UNL     1     -35.098  15.779  -3.000  1.00 20.00     0.062 C 
HETATM   12  O12 UNL     1     -34.811  16.835  -3.928  1.00 20.00    -0.380 OA
HETATM   13 CL13 UNL     1     -34.133  17.998   0.367  1.00 20.00    -0.125 Cl
ENDROOT
TORSDOF 0
ENDMDL
MODEL 3
REMARK VINA RESULT:      -4.7      1.758      2.283
REMARK  0 active torsions:
REMARK  status: ('A' for Active; 'I' for Inactive)
ROOT
HETATM    1  C1  UNL     1     -36.674  15.483  -7.609  1.00 20.00     0.000 C 
HETATM    2  C2  UNL     1     -35.530  14.480  -7.606  1.00 20.00     0.000 C 
HETATM    3  C3  UNL     1     -37.624  15.387  -6.423  1.00 20.00     0.003 C 
HETATM    4  C4  UNL     1     -34.341  14.953  -6.777  1.00 20.00     0.003 C 
HETATM    5  C5  UNL     1     -37.042  15.001  -5.062  1.00 20.00     0.038 C 
HETATM    6  C6  UNL     1     -34.521  14.863  -5.262  1.00 20.00     0.038 C 
HETATM    7  C7  UNL     1     -34.579  17.885  -3.108  1.00 20.00     0.046 C 
HETATM    8  C8  UNL     1     -35.618  15.607  -3.093  1.00 20.00     0.058 C 
HETATM    9  C9  UNL     1     -34.641  17.832  -4.628  1.00 20.00     0.170 C 
HETATM   10  C10 UNL     1     -34.489  16.475  -2.536  1.00 20.00     0.087 C 
HETATM   11  C11 UNL     1     -35.702  15.657  -4.645  1.00 20.00     0.062 C 
HETATM   12  O12 UNL     1     -35.728  17.026  -5.074  1.00 20.00    -0.380 OA
HETATM   13 CL13 UNL     1     -34.575  16.529  -0.753  1.00 20.00    -0.125 Cl
ENDROOT
TORSDOF 0
ENDMDL
MODEL 4
REMARK VINA RESULT:      -4.6      2.645      4.637
REMARK  0 active torsions:
REMARK  status: ('A' for Active; 'I' for Inactive)
ROOT
HETATM    1  C1  UNL     1     -34.404  18.746  -1.700  1.00 20.00     0.000 C 
HETATM    2  C2  UNL     1     -33.851  17.489  -1.045  1.00 20.00     0.000 C 
HETATM    3  C3  UNL     1     -33.878  19.034  -3.100  1.00 20.00     0.003 C 
HETATM    4  C4  UNL     1     -34.615  16.233  -1.453  1.00 20.00     0.003 C 
HETATM    5  C5  UNL     1     -33.580  17.846  -4.017  1.00 20.00     0.038 C 
HETATM    6  C6  UNL     1     -34.321  15.717  -2.861  1.00 20.00     0.038 C 
HETATM    7  C7  UNL     1     -36.921  15.652  -5.509  1.00 20.00     0.046 C 
HETATM    8  C8  UNL     1     -34.436  15.935  -5.391  1.00 20.00     0.058 C 
HETATM    9  C9  UNL     1     -36.999  16.342  -4.155  1.00 20.00     0.170 C 
HETATM   10  C10 UNL     1     -35.576  14.954  -5.667  1.00 20.00     0.087 C 
HETATM   11  C11 UNL     1     -34.606  16.685  -4.039  1.00 20.00     0.062 C 
HETATM   12  O12 UNL     1     -35.920  17.256  -3.976  1.00 20.00    -0.380 OA
HETATM   13 CL13 UNL     1     -35.423  14.280  -7.315  1.00 20.00    -0.125 Cl
ENDROOT
TORSDOF 0
ENDMDL
MODEL 5
REMARK VINA RESULT:      -4.6      3.151      4.515
REMARK  0 active torsions:
REMARK  status: ('A' for Active; 'I' for Inactive)
ROOT
HETATM    1  C1  UNL     1     -33.172  15.682  -3.628  1.00 20.00     0.000 C 
HETATM    2  C2  UNL     1     -33.224  14.170  -3.786  1.00 20.00     0.000 C 
HETATM    3  C3  UNL     1     -33.290  16.474  -4.924  1.00 20.00     0.003 C 
HETATM    4  C4  UNL     1     -34.652  13.637  -3.834  1.00 20.00     0.003 C 
HETATM    5  C5  UNL     1     -34.194  15.922  -6.027  1.00 20.00     0.038 C 
HETATM    6  C6  UNL     1     -35.395  13.872  -5.148  1.00 20.00     0.038 C 
HETATM    7  C7  UNL     1     -38.402  16.039  -5.341  1.00 20.00     0.046 C 
HETATM    8  C8  UNL     1     -36.504  15.406  -6.846  1.00 20.00     0.058 C 
HETATM    9  C9  UNL     1     -37.438  15.899  -4.172  1.00 20.00     0.170 C 
HETATM   10  C10 UNL     1     -37.968  15.140  -6.492  1.00 20.00     0.087 C 
HETATM   11  C11 UNL     1     -35.568  15.344  -5.604  1.00 20.00     0.062 C 
HETATM   12  O12 UNL     1     -36.099  16.183  -4.569  1.00 20.00    -0.380 OA
HETATM   13 CL13 UNL     1     -39.007  15.421  -7.918  1.00 20.00    -0.125 Cl
ENDROOT
TORSDOF 0
ENDMDL
MODEL 6
REMARK VINA RESULT:      -4.6      1.452      2.299
REMARK  0 active torsions:
REMARK  status: ('A' for Active; 'I' for Inactive)
ROOT
HETATM    1  C1  UNL     1     -35.542  14.388  -7.124  1.00 20.00     0.000 C 
HETATM    2  C2  UNL     1     -36.782  15.269  -7.080  1.00 20.00     0.000 C 
HETATM    3  C3  UNL     1     -34.217  15.138  -7.179  1.00 20.00     0.003 C 
HETATM    4  C4  UNL     1     -37.125  15.725  -5.666  1.00 20.00     0.003 C 
HETATM    5  C5  UNL     1     -34.104  16.461  -6.420  1.00 20.00     0.038 C 
HETATM    6  C6  UNL     1     -36.234  16.828  -5.099  1.00 20.00     0.038 C 
HETATM    7  C7  UNL     1     -34.040  16.263  -2.159  1.00 20.00     0.046 C 
HETATM    8  C8  UNL     1     -33.998  17.670  -4.230  1.00 20.00     0.058 C 
HETATM    9  C9  UNL     1     -34.793  15.215  -2.965  1.00 20.00     0.170 C 
HETATM   10  C10 UNL     1     -34.299  17.652  -2.730  1.00 20.00     0.087 C 
HETATM   11  C11 UNL     1     -34.716  16.524  -4.998  1.00 20.00     0.062 C 
HETATM   12  O12 UNL     1     -34.447  15.275  -4.346  1.00 20.00    -0.380 OA
HETATM   13 CL13 UNL     1     -33.293  18.862  -1.885  1.00 20.00    -0.125 Cl
ENDROOT
TORSDOF 0
ENDMDL
MODEL 7
REMARK VINA RESULT:      -4.6      2.590      3.243
REMARK  0 active torsions:
REMARK  status: ('A' for Active; 'I' for Inactive)
ROOT
HETATM    1  C1  UNL     1     -34.825  13.261  -5.066  1.00 20.00     0.000 C 
HETATM    2  C2  UNL     1     -34.748  14.305  -6.171  1.00 20.00     0.000 C 
HETATM    3  C3  UNL     1     -34.651  13.800  -3.652  1.00 20.00     0.003 C 
HETATM    4  C4  UNL     1     -36.082  15.004  -6.408  1.00 20.00     0.003 C 
HETATM    5  C5  UNL     1     -35.207  15.190  -3.336  1.00 20.00     0.038 C 
HETATM    6  C6  UNL     1     -36.475  16.040  -5.357  1.00 20.00     0.038 C 
HETATM    7  C7  UNL     1     -39.450  15.602  -3.182  1.00 20.00     0.046 C 
HETATM    8  C8  UNL     1     -37.196  16.676  -3.003  1.00 20.00     0.058 C 
HETATM    9  C9  UNL     1     -38.813  14.565  -4.095  1.00 20.00     0.170 C 
HETATM   10  C10 UNL     1     -38.683  16.916  -3.263  1.00 20.00     0.087 C 
HETATM   11  C11 UNL     1     -36.609  15.543  -3.894  1.00 20.00     0.062 C 
HETATM   12  O12 UNL     1     -37.435  14.377  -3.783  1.00 20.00    -0.380 OA
HETATM   13 CL13 UNL     1     -39.335  18.082  -2.076  1.00 20.00    -0.125 Cl
ENDROOT
TORSDOF 0
ENDMDL
MODEL 8
REMARK VINA RESULT:      -4.5      1.300      2.574
REMARK  0 active torsions:
REMARK  status: ('A' for Active; 'I' for Inactive)
ROOT
HETATM    1  C1  UNL     1     -34.300  15.364  -7.256  1.00 20.00     0.000 C 
HETATM    2  C2  UNL     1     -35.344  14.319  -6.891  1.00 20.00     0.000 C 
HETATM    3  C3  UNL     1     -34.713  16.809  -7.005  1.00 20.00     0.003 C 
HETATM    4  C4  UNL     1     -35.301  13.942  -5.415  1.00 20.00     0.003 C 
HETATM    5  C5  UNL     1     -35.600  17.105  -5.795  1.00 20.00     0.038 C 
HETATM    6  C6  UNL     1     -35.895  14.974  -4.457  1.00 20.00     0.038 C 
HETATM    7  C7  UNL     1     -33.818  16.736  -1.937  1.00 20.00     0.046 C 
HETATM    8  C8  UNL     1     -35.852  17.240  -3.306  1.00 20.00     0.058 C 
HETATM    9  C9  UNL     1     -33.333  15.872  -3.091  1.00 20.00     0.170 C 
HETATM   10  C10 UNL     1     -35.340  16.805  -1.933  1.00 20.00     0.087 C 
HETATM   11  C11 UNL     1     -35.258  16.388  -4.464  1.00 20.00     0.062 C 
HETATM   12  O12 UNL     1     -33.830  16.349  -4.339  1.00 20.00    -0.380 OA
HETATM   13 CL13 UNL     1     -35.901  17.944  -0.676  1.00 20.00    -0.125 Cl
ENDROOT
TORSDOF 0
ENDMDL
MODEL 9
REMARK VINA RESULT:      -4.4      2.549      4.717
REMARK  0 active torsions:
REMARK  status: ('A' for Active; 'I' for Inactive)
ROOT
HETATM    1  C1  UNL     1     -33.342  17.897  -0.531  1.00 20.00     0.000 C 
HETATM    2  C2  UNL     1     -33.633  19.259  -1.144  1.00 20.00     0.000 C 
HETATM    3  C3  UNL     1     -34.518  16.929  -0.514  1.00 20.00     0.003 C 
HETATM    4  C4  UNL     1     -33.492  19.258  -2.662  1.00 20.00     0.003 C 
HETATM    5  C5  UNL     1     -35.502  16.968  -1.684  1.00 20.00     0.038 C 
HETATM    6  C6  UNL     1     -34.634  18.590  -3.426  1.00 20.00     0.038 C 
HETATM    7  C7  UNL     1     -34.111  15.522  -5.449  1.00 20.00     0.046 C 
HETATM    8  C8  UNL     1     -35.966  16.535  -4.107  1.00 20.00     0.058 C 
HETATM    9  C9  UNL     1     -33.140  16.156  -4.464  1.00 20.00     0.170 C 
HETATM   10  C10 UNL     1     -35.399  16.333  -5.512  1.00 20.00     0.087 C 
HETATM   11  C11 UNL     1     -34.912  17.097  -3.111  1.00 20.00     0.062 C 
HETATM   12  O12 UNL     1     -33.726  16.292  -3.172  1.00 20.00    -0.380 OA
HETATM   13 CL13 UNL     1     -36.597  15.504  -6.547  1.00 20.00    -0.125 Cl
ENDROOT
TORSDOF 0
ENDMDL
