MODEL 1
REMARK VINA RESULT:      -4.6      0.000      0.000
REMARK  2 active torsions:
REMARK  status: ('A' for Active; 'I' for Inactive)
REMARK    1  A    between atoms: C5_5  and  C8_8 
REMARK    2  A    between atoms: C5_5  and  O10_10 
ROOT
HETATM    1  C1  UNL     1     -34.023  14.132  -3.508  1.00 20.00     0.064 C 
HETATM    2  C2  UNL     1     -34.865  16.157  -4.731  1.00 20.00     0.069 C 
HETATM    3  C3  UNL     1     -34.347  13.323  -4.759  1.00 20.00     0.171 C 
HETATM    4  C4  UNL     1     -35.247  15.237  -5.902  1.00 20.00     0.120 C 
HETATM    5  C5  UNL     1     -33.738  15.597  -3.851  1.00 20.00     0.062 C 
HETATM    6  C6  UNL     1     -34.290  15.301  -7.090  1.00 20.00     0.039 C 
HETATM    7  O9  UNL     1     -35.447  13.890  -5.465  1.00 20.00    -0.386 OA
ENDROOT
BRANCH   5   8
HETATM    8  C8  UNL     1     -33.578  16.428  -2.576  1.00 20.00     0.033 C 
HETATM    9  C7  UNL     1     -34.716  16.213  -1.636  1.00 20.00     0.008 C 
ENDBRANCH   5   8
BRANCH   5  10
HETATM   10  O10 UNL     1     -32.497  15.658  -4.557  1.00 20.00    -0.390 OA
HETATM   11  H26 UNL     1     -31.897  16.180  -4.006  1.00 20.00     0.210 HD
ENDBRANCH   5  10
TORSDOF 2
ENDMDL
MODEL 2
REMARK VINA RESULT:      -4.2      1.587      2.548
REMARK  2 active torsions:
REMARK  status: ('A' for Active; 'I' for Inactive)
REMARK    1  A    between atoms: C5_5  and  C8_8 
REMARK    2  A    between atoms: C5_5  and  O10_10 
ROOT
HETATM    1  C1  UNL     1     -34.802  17.115  -4.002  1.00 20.00     0.064 C 
HETATM    2  C2  UNL     1     -33.587  15.052  -3.245  1.00 20.00     0.069 C 
HETATM    3  C3  UNL     1     -35.280  16.311  -5.206  1.00 20.00     0.171 C 
HETATM    4  C4  UNL     1     -34.040  14.362  -4.541  1.00 20.00     0.120 C 
HETATM    5  C5  UNL     1     -34.503  16.204  -2.808  1.00 20.00     0.062 C 
HETATM    6  C6  UNL     1     -35.189  13.374  -4.359  1.00 20.00     0.039 C 
HETATM    7  O9  UNL     1     -34.327  15.315  -5.568  1.00 20.00    -0.386 OA
ENDROOT
BRANCH   5   8
HETATM    8  C8  UNL     1     -33.870  17.003  -1.666  1.00 20.00     0.033 C 
HETATM    9  C7  UNL     1     -34.682  16.911  -0.418  1.00 20.00     0.008 C 
ENDBRANCH   5   8
BRANCH   5  10
HETATM   10  O10 UNL     1     -35.741  15.679  -2.325  1.00 20.00    -0.390 OA
HETATM   11  H26 UNL     1     -35.523  14.871  -1.839  1.00 20.00     0.210 HD
ENDBRANCH   5  10
TORSDOF 2
ENDMDL
MODEL 3
REMARK VINA RESULT:      -4.0     11.687     13.334
REMARK  2 active torsions:
REMARK  status: ('A' for Active; 'I' for Inactive)
REMARK    1  A    between atoms: C5_5  and  C8_8 
REMARK    2  A    between atoms: C5_5  and  O10_10 
ROOT
HETATM    1  C1  UNL     1     -41.056   4.382  -1.470  1.00 20.00     0.064 C 
HETATM    2  C2  UNL     1     -42.535   5.896  -2.821  1.00 20.00     0.069 C 
HETATM    3  C3  UNL     1     -40.679   5.603  -0.638  1.00 20.00     0.171 C 
HETATM    4  C4  UNL     1     -42.015   7.077  -1.987  1.00 20.00     0.120 C 
HETATM    5  C5  UNL     1     -42.443   4.544  -2.099  1.00 20.00     0.062 C 
HETATM    6  C6  UNL     1     -42.995   7.579  -0.929  1.00 20.00     0.039 C 
HETATM    7  O9  UNL     1     -40.734   6.793  -1.420  1.00 20.00    -0.386 OA
ENDROOT
BRANCH   5   8
HETATM    8  C8  UNL     1     -42.737   3.390  -3.060  1.00 20.00     0.033 C 
HETATM    9  C7  UNL     1     -41.558   2.488  -3.209  1.00 20.00     0.008 C 
ENDBRANCH   5   8
BRANCH   5  10
HETATM   10  O10 UNL     1     -43.417   4.486  -1.055  1.00 20.00    -0.390 OA
HETATM   11  H26 UNL     1     -43.105   3.816  -0.430  1.00 20.00     0.210 HD
ENDBRANCH   5  10
TORSDOF 2
ENDMDL
MODEL 4
REMARK VINA RESULT:      -4.0      1.261      3.570
REMARK  2 active torsions:
REMARK  status: ('A' for Active; 'I' for Inactive)
REMARK    1  A    between atoms: C5_5  and  C8_8 
REMARK    2  A    between atoms: C5_5  and  O10_10 
ROOT
HETATM    1  C1  UNL     1     -34.658  13.975  -5.448  1.00 20.00     0.064 C 
HETATM    2  C2  UNL     1     -33.368  16.068  -4.938  1.00 20.00     0.069 C 
HETATM    3  C3  UNL     1     -34.434  13.562  -3.998  1.00 20.00     0.171 C 
HETATM    4  C4  UNL     1     -33.114  15.515  -3.527  1.00 20.00     0.120 C 
HETATM    5  C5  UNL     1     -34.629  15.498  -5.605  1.00 20.00     0.062 C 
HETATM    6  C6  UNL     1     -33.974  16.152  -2.438  1.00 20.00     0.039 C 
HETATM    7  O9  UNL     1     -33.207  14.089  -3.500  1.00 20.00    -0.386 OA
ENDROOT
BRANCH   5   8
HETATM    8  C8  UNL     1     -34.690  15.889  -7.083  1.00 20.00     0.033 C 
HETATM    9  C7  UNL     1     -35.255  14.789  -7.917  1.00 20.00     0.008 C 
ENDBRANCH   5   8
BRANCH   5  10
HETATM   10  O10 UNL     1     -35.793  16.035  -4.974  1.00 20.00    -0.390 OA
HETATM   11  H26 UNL     1     -35.529  16.885  -4.595  1.00 20.00     0.210 HD
ENDBRANCH   5  10
TORSDOF 2
ENDMDL
MODEL 5
REMARK VINA RESULT:      -3.9      1.606      2.881
REMARK  2 active torsions:
REMARK  status: ('A' for Active; 'I' for Inactive)
REMARK    1  A    between atoms: C5_5  and  C8_8 
REMARK    2  A    between atoms: C5_5  and  O10_10 
ROOT
HETATM    1  C1  UNL     1     -34.019  16.962  -3.368  1.00 20.00     0.064 C 
HETATM    2  C2  UNL     1     -34.875  15.761  -5.400  1.00 20.00     0.069 C 
HETATM    3  C3  UNL     1     -34.359  15.710  -2.566  1.00 20.00     0.171 C 
HETATM    4  C4  UNL     1     -35.271  14.590  -4.487  1.00 20.00     0.120 C 
HETATM    5  C5  UNL     1     -33.738  16.624  -4.835  1.00 20.00     0.062 C 
HETATM    6  C6  UNL     1     -34.329  13.391  -4.559  1.00 20.00     0.039 C 
HETATM    7  O9  UNL     1     -35.467  15.021  -3.138  1.00 20.00    -0.386 OA
ENDROOT
BRANCH   5   8
HETATM    8  C8  UNL     1     -33.561  17.903  -5.658  1.00 20.00     0.033 C 
HETATM    9  C7  UNL     1     -34.338  17.847  -6.930  1.00 20.00     0.008 C 
ENDBRANCH   5   8
BRANCH   5  10
HETATM   10  O10 UNL     1     -32.506  15.904  -4.899  1.00 20.00    -0.390 OA
HETATM   11  H26 UNL     1     -31.938  16.275  -4.209  1.00 20.00     0.210 HD
ENDBRANCH   5  10
TORSDOF 2
ENDMDL
MODEL 6
REMARK VINA RESULT:      -3.9     12.281     13.925
REMARK  2 active torsions:
REMARK  status: ('A' for Active; 'I' for Inactive)
REMARK    1  A    between atoms: C5_5  and  C8_8 
REMARK    2  A    between atoms: C5_5  and  O10_10 
ROOT
HETATM    1  C1  UNL     1     -43.190   3.964  -1.047  1.00 20.00     0.064 C 
HETATM    2  C2  UNL     1     -40.772   4.617  -1.228  1.00 20.00     0.069 C 
HETATM    3  C3  UNL     1     -43.373   5.155  -0.113  1.00 20.00     0.171 C 
HETATM    4  C4  UNL     1     -41.040   5.729  -0.201  1.00 20.00     0.120 C 
HETATM    5  C5  UNL     1     -42.021   4.188  -2.011  1.00 20.00     0.062 C 
HETATM    6  C6  UNL     1     -41.141   7.129  -0.802  1.00 20.00     0.039 C 
HETATM    7  O9  UNL     1     -42.177   5.426   0.612  1.00 20.00    -0.386 OA
ENDROOT
BRANCH   5   8
HETATM    8  C8  UNL     1     -41.747   2.923  -2.828  1.00 20.00     0.033 C 
HETATM    9  C7  UNL     1     -42.905   1.984  -2.789  1.00 20.00     0.008 C 
ENDBRANCH   5   8
BRANCH   5  10
HETATM   10  O10 UNL     1     -42.392   5.216  -2.932  1.00 20.00    -0.390 OA
HETATM   11  H26 UNL     1     -42.058   4.939  -3.797  1.00 20.00     0.210 HD
ENDBRANCH   5  10
TORSDOF 2
ENDMDL
MODEL 7
REMARK VINA RESULT:      -3.9      1.697      2.921
REMARK  2 active torsions:
REMARK  status: ('A' for Active; 'I' for Inactive)
REMARK    1  A    between atoms: C5_5  and  C8_8 
REMARK    2  A    between atoms: C5_5  and  O10_10 
ROOT
HETATM    1  C1  UNL     1     -34.321  15.194  -6.176  1.00 20.00     0.064 C 
HETATM    2  C2  UNL     1     -34.598  16.486  -4.040  1.00 20.00     0.069 C 
HETATM    3  C3  UNL     1     -34.434  16.522  -6.916  1.00 20.00     0.171 C 
HETATM    4  C4  UNL     1     -34.799  17.754  -4.885  1.00 20.00     0.120 C 
HETATM    5  C5  UNL     1     -33.789  15.394  -4.753  1.00 20.00     0.062 C 
HETATM    6  C6  UNL     1     -33.587  18.682  -4.924  1.00 20.00     0.039 C 
HETATM    7  O9  UNL     1     -35.259  17.438  -6.202  1.00 20.00    -0.386 OA
ENDROOT
BRANCH   5   8
HETATM    8  C8  UNL     1     -33.837  14.079  -3.971  1.00 20.00     0.033 C 
HETATM    9  C7  UNL     1     -35.074  13.304  -4.278  1.00 20.00     0.008 C 
ENDBRANCH   5   8
BRANCH   5  10
HETATM   10  O10 UNL     1     -32.418  15.787  -4.840  1.00 20.00    -0.390 OA
HETATM   11  H26 UNL     1     -32.341  16.328  -5.638  1.00 20.00     0.210 HD
ENDBRANCH   5  10
TORSDOF 2
ENDMDL
MODEL 8
REMARK VINA RESULT:      -3.9      1.792      3.971
REMARK  2 active torsions:
REMARK  status: ('A' for Active; 'I' for Inactive)
REMARK    1  A    between atoms: C5_5  and  C8_8 
REMARK    2  A    between atoms: C5_5  and  O10_10 
ROOT
HETATM    1  C1  UNL     1     -33.723  17.856  -5.722  1.00 20.00     0.064 C 
HETATM    2  C2  UNL     1     -34.930  16.063  -4.444  1.00 20.00     0.069 C 
HETATM    3  C3  UNL     1     -33.639  18.638  -4.416  1.00 20.00     0.171 C 
HETATM    4  C4  UNL     1     -34.880  16.972  -3.206  1.00 20.00     0.120 C 
HETATM    5  C5  UNL     1     -33.818  16.350  -5.463  1.00 20.00     0.062 C 
HETATM    6  C6  UNL     1     -33.831  16.570  -2.172  1.00 20.00     0.039 C 
HETATM    7  O9  UNL     1     -34.751  18.349  -3.573  1.00 20.00    -0.386 OA
ENDROOT
BRANCH   5   8
HETATM    8  C8  UNL     1     -34.067  15.593  -6.771  1.00 20.00     0.033 C 
HETATM    9  C7  UNL     1     -35.060  14.495  -6.587  1.00 20.00     0.008 C 
ENDBRANCH   5   8
BRANCH   5  10
HETATM   10  O10 UNL     1     -32.562  15.905  -4.948  1.00 20.00    -0.390 OA
HETATM   11  H26 UNL     1     -32.062  16.703  -4.727  1.00 20.00     0.210 HD
ENDBRANCH   5  10
TORSDOF 2
ENDMDL
MODEL 9
REMARK VINA RESULT:      -3.8      1.937      2.522
REMARK  2 active torsions:
REMARK  status: ('A' for Active; 'I' for Inactive)
REMARK    1  A    between atoms: C5_5  and  C8_8 
REMARK    2  A    between atoms: C5_5  and  O10_10 
ROOT
HETATM    1  C1  UNL     1     -36.181  14.552  -4.033  1.00 20.00     0.064 C 
HETATM    2  C2  UNL     1     -34.329  15.075  -5.646  1.00 20.00     0.069 C 
HETATM    3  C3  UNL     1     -37.160  14.898  -5.149  1.00 20.00     0.171 C 
HETATM    4  C4  UNL     1     -35.396  15.495  -6.668  1.00 20.00     0.120 C 
HETATM    5  C5  UNL     1     -34.839  14.076  -4.598  1.00 20.00     0.062 C 
HETATM    6  C6  UNL     1     -35.647  14.470  -7.772  1.00 20.00     0.039 C 
HETATM    7  O9  UNL     1     -36.614  15.880  -6.025  1.00 20.00    -0.386 OA
ENDROOT
BRANCH   5   8
HETATM    8  C8  UNL     1     -33.816  13.892  -3.474  1.00 20.00     0.033 C 
HETATM    9  C7  UNL     1     -32.678  14.847  -3.608  1.00 20.00     0.008 C 
ENDBRANCH   5   8
BRANCH   5  10
HETATM   10  O10 UNL     1     -35.038  12.798  -5.205  1.00 20.00    -0.390 OA
HETATM   11  H26 UNL     1     -34.538  12.163  -4.672  1.00 20.00     0.210 HD
ENDBRANCH   5  10
TORSDOF 2
ENDMDL
