MODEL 1
REMARK VINA RESULT:      -3.9      0.000      0.000
REMARK  0 active torsions:
REMARK  status: ('A' for Active; 'I' for Inactive)
ROOT
HETATM    1  C1  UNL     1     -33.698  13.987  -3.579  1.00 20.00     0.066 C 
HETATM    2  C2  UNL     1     -35.890  15.174  -3.143  1.00 20.00     0.071 C 
HETATM    3  C3  UNL     1     -34.405  13.242  -4.703  1.00 20.00     0.171 C 
HETATM    4  C4  UNL     1     -33.656  16.431  -2.684  1.00 20.00     0.207 A 
HETATM    5  C5  UNL     1     -36.510  14.318  -4.253  1.00 20.00     0.120 C 
HETATM    6  C6  UNL     1     -34.404  15.278  -3.306  1.00 20.00     0.086 A 
HETATM    7  C7  UNL     1     -36.663  15.062  -5.578  1.00 20.00     0.039 C 
HETATM    8  O8  UNL     1     -35.797  13.083  -4.416  1.00 20.00    -0.386 OA
HETATM    9  O9  UNL     1     -33.955  16.390  -4.089  1.00 20.00    -0.375 OA
ENDROOT
TORSDOF 0
ENDMDL
MODEL 2
REMARK VINA RESULT:      -3.9      1.780      2.766
REMARK  0 active torsions:
REMARK  status: ('A' for Active; 'I' for Inactive)
ROOT
HETATM    1  C1  UNL     1     -34.803  13.967  -5.736  1.00 20.00     0.066 C 
HETATM    2  C2  UNL     1     -33.325  15.606  -4.499  1.00 20.00     0.071 C 
HETATM    3  C3  UNL     1     -35.196  13.403  -4.377  1.00 20.00     0.171 C 
HETATM    4  C4  UNL     1     -34.423  16.336  -6.744  1.00 20.00     0.207 A 
HETATM    5  C5  UNL     1     -33.744  14.914  -3.196  1.00 20.00     0.120 C 
HETATM    6  C6  UNL     1     -34.337  15.380  -5.580  1.00 20.00     0.086 A 
HETATM    7  C7  UNL     1     -34.812  15.681  -2.419  1.00 20.00     0.039 C 
HETATM    8  O8  UNL     1     -34.133  13.553  -3.433  1.00 20.00    -0.386 OA
HETATM    9  O9  UNL     1     -35.368  16.370  -5.663  1.00 20.00    -0.375 OA
ENDROOT
TORSDOF 0
ENDMDL
MODEL 3
REMARK VINA RESULT:      -3.8      1.305      1.812
REMARK  0 active torsions:
REMARK  status: ('A' for Active; 'I' for Inactive)
ROOT
HETATM    1  C1  UNL     1     -33.923  15.520  -2.822  1.00 20.00     0.066 C 
HETATM    2  C2  UNL     1     -36.003  14.442  -3.777  1.00 20.00     0.071 C 
HETATM    3  C3  UNL     1     -33.114  14.589  -3.715  1.00 20.00     0.171 C 
HETATM    4  C4  UNL     1     -36.087  16.946  -3.068  1.00 20.00     0.207 A 
HETATM    5  C5  UNL     1     -35.085  13.513  -4.580  1.00 20.00     0.120 C 
HETATM    6  C6  UNL     1     -35.294  15.704  -3.393  1.00 20.00     0.086 A 
HETATM    7  C7  UNL     1     -34.935  13.927  -6.043  1.00 20.00     0.039 C 
HETATM    8  O8  UNL     1     -33.811  13.361  -3.938  1.00 20.00    -0.386 OA
HETATM    9  O9  UNL     1     -35.419  16.780  -4.329  1.00 20.00    -0.375 OA
ENDROOT
TORSDOF 0
ENDMDL
MODEL 4
REMARK VINA RESULT:      -3.8     11.867     12.781
REMARK  0 active torsions:
REMARK  status: ('A' for Active; 'I' for Inactive)
ROOT
HETATM    1  C1  UNL     1     -33.485   7.019   5.390  1.00 20.00     0.066 C 
HETATM    2  C2  UNL     1     -34.868   5.706   3.727  1.00 20.00     0.071 C 
HETATM    3  C3  UNL     1     -33.930   6.017   6.446  1.00 20.00     0.171 C 
HETATM    4  C4  UNL     1     -32.709   6.909   2.908  1.00 20.00     0.207 A 
HETATM    5  C5  UNL     1     -35.300   4.800   4.887  1.00 20.00     0.120 C 
HETATM    6  C6  UNL     1     -33.574   6.396   4.033  1.00 20.00     0.086 A 
HETATM    7  C7  UNL     1     -34.550   3.471   4.927  1.00 20.00     0.039 C 
HETATM    8  O8  UNL     1     -35.225   5.492   6.142  1.00 20.00    -0.386 OA
HETATM    9  O9  UNL     1     -32.398   5.695   3.611  1.00 20.00    -0.375 OA
ENDROOT
TORSDOF 0
ENDMDL
MODEL 5
REMARK VINA RESULT:      -3.8      1.501      3.239
REMARK  0 active torsions:
REMARK  status: ('A' for Active; 'I' for Inactive)
ROOT
HETATM    1  C1  UNL     1     -33.937  15.723  -5.170  1.00 20.00     0.066 C 
HETATM    2  C2  UNL     1     -35.742  15.155  -3.490  1.00 20.00     0.071 C 
HETATM    3  C3  UNL     1     -33.649  16.965  -4.337  1.00 20.00     0.171 C 
HETATM    4  C4  UNL     1     -34.473  13.222  -4.688  1.00 20.00     0.207 A 
HETATM    5  C5  UNL     1     -35.406  16.467  -2.771  1.00 20.00     0.120 C 
HETATM    6  C6  UNL     1     -34.585  14.680  -4.316  1.00 20.00     0.086 A 
HETATM    7  C7  UNL     1     -34.541  16.271  -1.527  1.00 20.00     0.039 C 
HETATM    8  O8  UNL     1     -34.830  17.422  -3.674  1.00 20.00    -0.386 OA
HETATM    9  O9  UNL     1     -33.678  13.802  -3.641  1.00 20.00    -0.375 OA
ENDROOT
TORSDOF 0
ENDMDL
MODEL 6
REMARK VINA RESULT:      -3.7     10.480     11.940
REMARK  0 active torsions:
REMARK  status: ('A' for Active; 'I' for Inactive)
ROOT
HETATM    1  C1  UNL     1     -40.842   4.909  -1.103  1.00 20.00     0.066 C 
HETATM    2  C2  UNL     1     -42.156   6.474  -2.595  1.00 20.00     0.071 C 
HETATM    3  C3  UNL     1     -40.839   6.018  -0.060  1.00 20.00     0.171 C 
HETATM    4  C4  UNL     1     -42.570   3.909  -2.773  1.00 20.00     0.207 A 
HETATM    5  C5  UNL     1     -42.031   7.536  -1.496  1.00 20.00     0.120 C 
HETATM    6  C6  UNL     1     -41.999   5.094  -2.034  1.00 20.00     0.086 A 
HETATM    7  C7  UNL     1     -43.296   7.687  -0.653  1.00 20.00     0.039 C 
HETATM    8  O8  UNL     1     -40.873   7.306  -0.681  1.00 20.00    -0.386 OA
HETATM    9  O9  UNL     1     -43.217   4.466  -1.617  1.00 20.00    -0.375 OA
ENDROOT
TORSDOF 0
ENDMDL
MODEL 7
REMARK VINA RESULT:      -3.7     11.374     12.834
REMARK  0 active torsions:
REMARK  status: ('A' for Active; 'I' for Inactive)
ROOT
HETATM    1  C1  UNL     1     -43.164   3.955  -0.678  1.00 20.00     0.066 C 
HETATM    2  C2  UNL     1     -40.747   4.578  -1.086  1.00 20.00     0.071 C 
HETATM    3  C3  UNL     1     -43.308   5.276   0.066  1.00 20.00     0.171 C 
HETATM    4  C4  UNL     1     -42.003   3.147  -2.862  1.00 20.00     0.207 A 
HETATM    5  C5  UNL     1     -40.993   5.847  -0.261  1.00 20.00     0.120 C 
HETATM    6  C6  UNL     1     -42.028   4.040  -1.646  1.00 20.00     0.086 A 
HETATM    7  C7  UNL     1     -41.195   7.096  -1.117  1.00 20.00     0.039 C 
HETATM    8  O8  UNL     1     -42.070   5.660   0.669  1.00 20.00    -0.386 OA
HETATM    9  O9  UNL     1     -42.376   4.532  -2.945  1.00 20.00    -0.375 OA
ENDROOT
TORSDOF 0
ENDMDL
MODEL 8
REMARK VINA RESULT:      -3.7      1.351      3.093
REMARK  0 active torsions:
REMARK  status: ('A' for Active; 'I' for Inactive)
ROOT
HETATM    1  C1  UNL     1     -34.441  13.793  -5.043  1.00 20.00     0.066 C 
HETATM    2  C2  UNL     1     -34.549  16.292  -4.663  1.00 20.00     0.071 C 
HETATM    3  C3  UNL     1     -33.545  13.715  -3.814  1.00 20.00     0.171 C 
HETATM    4  C4  UNL     1     -36.603  15.080  -5.709  1.00 20.00     0.207 A 
HETATM    5  C5  UNL     1     -33.588  16.098  -3.484  1.00 20.00     0.120 C 
HETATM    6  C6  UNL     1     -35.286  15.025  -4.974  1.00 20.00     0.086 A 
HETATM    7  C7  UNL     1     -34.286  16.117  -2.125  1.00 20.00     0.039 C 
HETATM    8  O8  UNL     1     -32.789  14.918  -3.654  1.00 20.00    -0.386 OA
HETATM    9  O9  UNL     1     -36.534  14.865  -4.290  1.00 20.00    -0.375 OA
ENDROOT
TORSDOF 0
ENDMDL
MODEL 9
REMARK VINA RESULT:      -3.7      2.055      2.868
REMARK  0 active torsions:
REMARK  status: ('A' for Active; 'I' for Inactive)
ROOT
HETATM    1  C1  UNL     1     -33.240  16.432  -4.942  1.00 20.00     0.066 C 
HETATM    2  C2  UNL     1     -35.649  15.661  -5.002  1.00 20.00     0.071 C 
HETATM    3  C3  UNL     1     -33.010  15.401  -3.845  1.00 20.00     0.171 C 
HETATM    4  C4  UNL     1     -34.537  16.514  -7.197  1.00 20.00     0.207 A 
HETATM    5  C5  UNL     1     -35.314  14.708  -3.849  1.00 20.00     0.120 C 
HETATM    6  C6  UNL     1     -34.419  16.032  -5.772  1.00 20.00     0.086 A 
HETATM    7  C7  UNL     1     -35.107  13.263  -4.299  1.00 20.00     0.039 C 
HETATM    8  O8  UNL     1     -34.202  15.191  -3.082  1.00 20.00    -0.386 OA
HETATM    9  O9  UNL     1     -34.116  15.177  -6.881  1.00 20.00    -0.375 OA
ENDROOT
TORSDOF 0
ENDMDL
