MODEL 1
REMARK VINA RESULT:      -4.3      0.000      0.000
REMARK  1 active torsions:
REMARK  status: ('A' for Active; 'I' for Inactive)
REMARK    1  A    between atoms: C4_4  and  C5_5 
ROOT
HETATM    1  C1  UNL     1     -34.996   4.190   4.891  1.00 20.00     0.011 C 
HETATM    2  C2  UNL     1     -35.205   5.324   3.896  1.00 20.00     0.016 C 
HETATM    3  C3  UNL     1     -34.868   4.834   6.260  1.00 20.00     0.074 C 
HETATM    4  C4  UNL     1     -34.134   6.377   4.171  1.00 20.00     0.057 C 
HETATM    5  S6  UNL     1     -33.931   6.362   5.984  1.00 20.00    -0.164 SA
ENDROOT
BRANCH   4   6
HETATM    6  C5  UNL     1     -32.803   6.064   3.497  1.00 20.00     0.100 C 
HETATM    7 BR7  UNL     1     -32.121   7.659   2.624  1.00 20.00    -0.095 Br
ENDBRANCH   4   6
TORSDOF 1
ENDMDL
MODEL 2
REMARK VINA RESULT:      -3.3     12.164     12.740
REMARK  1 active torsions:
REMARK  status: ('A' for Active; 'I' for Inactive)
REMARK    1  A    between atoms: C4_4  and  C5_5 
ROOT
HETATM    1  C1  UNL     1     -34.778  13.280  -4.691  1.00 20.00     0.011 C 
HETATM    2  C2  UNL     1     -33.654  13.753  -3.778  1.00 20.00     0.016 C 
HETATM    3  C3  UNL     1     -34.782  14.213  -5.889  1.00 20.00     0.074 C 
HETATM    4  C4  UNL     1     -33.812  15.261  -3.600  1.00 20.00     0.057 C 
HETATM    5  S6  UNL     1     -34.404  15.855  -5.219  1.00 20.00    -0.164 SA
ENDROOT
BRANCH   4   6
HETATM    6  C5  UNL     1     -34.816  15.630  -2.513  1.00 20.00     0.100 C 
HETATM    7 BR7  UNL     1     -34.058  16.998  -1.361  1.00 20.00    -0.095 Br
ENDBRANCH   4   6
TORSDOF 1
ENDMDL
MODEL 3
REMARK VINA RESULT:      -3.2     11.944     12.645
REMARK  1 active torsions:
REMARK  status: ('A' for Active; 'I' for Inactive)
REMARK    1  A    between atoms: C4_4  and  C5_5 
ROOT
HETATM    1  C1  UNL     1     -33.647  13.670  -3.722  1.00 20.00     0.011 C 
HETATM    2  C2  UNL     1     -33.454  15.181  -3.756  1.00 20.00     0.016 C 
HETATM    3  C3  UNL     1     -34.487  13.314  -4.935  1.00 20.00     0.074 C 
HETATM    4  C4  UNL     1     -34.826  15.813  -3.974  1.00 20.00     0.057 C 
HETATM    5  S6  UNL     1     -35.688  14.665  -5.098  1.00 20.00    -0.164 SA
ENDROOT
BRANCH   4   6
HETATM    6  C5  UNL     1     -35.621  15.969  -2.682  1.00 20.00     0.100 C 
HETATM    7 BR7  UNL     1     -34.469  16.682  -1.289  1.00 20.00    -0.095 Br
ENDBRANCH   4   6
TORSDOF 1
ENDMDL
MODEL 4
REMARK VINA RESULT:      -3.1     12.126     12.709
REMARK  1 active torsions:
REMARK  status: ('A' for Active; 'I' for Inactive)
REMARK    1  A    between atoms: C4_4  and  C5_5 
ROOT
HETATM    1  C1  UNL     1     -32.928  15.158  -3.656  1.00 20.00     0.011 C 
HETATM    2  C2  UNL     1     -33.391  13.710  -3.744  1.00 20.00     0.016 C 
HETATM    3  C3  UNL     1     -33.983  15.902  -2.856  1.00 20.00     0.074 C 
HETATM    4  C4  UNL     1     -34.851  13.723  -4.191  1.00 20.00     0.057 C 
HETATM    5  S6  UNL     1     -35.568  15.189  -3.376  1.00 20.00    -0.164 SA
ENDROOT
BRANCH   4   6
HETATM    6  C5  UNL     1     -35.010  13.839  -5.703  1.00 20.00     0.100 C 
HETATM    7 BR7  UNL     1     -36.135  15.365  -6.126  1.00 20.00    -0.095 Br
ENDBRANCH   4   6
TORSDOF 1
ENDMDL
MODEL 5
REMARK VINA RESULT:      -3.1     12.630     13.196
REMARK  1 active torsions:
REMARK  status: ('A' for Active; 'I' for Inactive)
REMARK    1  A    between atoms: C4_4  and  C5_5 
ROOT
HETATM    1  C1  UNL     1     -33.649  17.398  -1.038  1.00 20.00     0.011 C 
HETATM    2  C2  UNL     1     -34.648  16.374  -1.562  1.00 20.00     0.016 C 
HETATM    3  C3  UNL     1     -33.769  18.617  -1.934  1.00 20.00     0.074 C 
HETATM    4  C4  UNL     1     -34.443  16.264  -3.071  1.00 20.00     0.057 C 
HETATM    5  S6  UNL     1     -34.035  17.960  -3.604  1.00 20.00    -0.164 SA
ENDROOT
BRANCH   4   6
HETATM    6  C5  UNL     1     -33.311  15.315  -3.449  1.00 20.00     0.100 C 
HETATM    7 BR7  UNL     1     -34.051  13.673  -4.175  1.00 20.00    -0.095 Br
ENDBRANCH   4   6
TORSDOF 1
ENDMDL
MODEL 6
REMARK VINA RESULT:      -3.1     12.529     12.989
REMARK  1 active torsions:
REMARK  status: ('A' for Active; 'I' for Inactive)
REMARK    1  A    between atoms: C4_4  and  C5_5 
ROOT
HETATM    1  C1  UNL     1     -35.921  15.337  -3.277  1.00 20.00     0.011 C 
HETATM    2  C2  UNL     1     -34.476  15.415  -2.800  1.00 20.00     0.016 C 
HETATM    3  C3  UNL     1     -36.062  14.014  -4.010  1.00 20.00     0.074 C 
HETATM    4  C4  UNL     1     -33.581  15.077  -3.990  1.00 20.00     0.057 C 
HETATM    5  S6  UNL     1     -34.499  13.794  -4.905  1.00 20.00    -0.164 SA
ENDROOT
BRANCH   4   6
HETATM    6  C5  UNL     1     -33.321  16.275  -4.897  1.00 20.00     0.100 C 
HETATM    7 BR7  UNL     1     -34.175  15.989  -6.618  1.00 20.00    -0.095 Br
ENDBRANCH   4   6
TORSDOF 1
ENDMDL
MODEL 7
REMARK VINA RESULT:      -3.1     12.751     13.442
REMARK  1 active torsions:
REMARK  status: ('A' for Active; 'I' for Inactive)
REMARK    1  A    between atoms: C4_4  and  C5_5 
ROOT
HETATM    1  C1  UNL     1     -34.988  14.561  -6.127  1.00 20.00     0.011 C 
HETATM    2  C2  UNL     1     -34.381  13.930  -4.881  1.00 20.00     0.016 C 
HETATM    3  C3  UNL     1     -34.056  15.686  -6.541  1.00 20.00     0.074 C 
HETATM    4  C4  UNL     1     -34.038  15.062  -3.915  1.00 20.00     0.057 C 
HETATM    5  S6  UNL     1     -33.485  16.429  -4.987  1.00 20.00    -0.164 SA
ENDROOT
BRANCH   4   6
HETATM    6  C5  UNL     1     -35.230  15.509  -3.077  1.00 20.00     0.100 C 
HETATM    7 BR7  UNL     1     -34.602  16.464  -1.506  1.00 20.00    -0.095 Br
ENDBRANCH   4   6
TORSDOF 1
ENDMDL
MODEL 8
REMARK VINA RESULT:      -3.0      9.263      9.969
REMARK  1 active torsions:
REMARK  status: ('A' for Active; 'I' for Inactive)
REMARK    1  A    between atoms: C4_4  and  C5_5 
ROOT
HETATM    1  C1  UNL     1     -41.468   7.285  -1.091  1.00 20.00     0.011 C 
HETATM    2  C2  UNL     1     -40.715   6.354  -0.149  1.00 20.00     0.016 C 
HETATM    3  C3  UNL     1     -42.947   7.068  -0.821  1.00 20.00     0.074 C 
HETATM    4  C4  UNL     1     -41.342   4.968  -0.276  1.00 20.00     0.057 C 
HETATM    5  S6  UNL     1     -43.122   5.289  -0.515  1.00 20.00    -0.164 SA
ENDROOT
BRANCH   4   6
HETATM    6  C5  UNL     1     -40.796   4.174  -1.458  1.00 20.00     0.100 C 
HETATM    7 BR7  UNL     1     -42.265   3.574  -2.577  1.00 20.00    -0.095 Br
ENDBRANCH   4   6
TORSDOF 1
ENDMDL
MODEL 9
REMARK VINA RESULT:      -3.0     12.307     13.211
REMARK  1 active torsions:
REMARK  status: ('A' for Active; 'I' for Inactive)
REMARK    1  A    between atoms: C4_4  and  C5_5 
ROOT
HETATM    1  C1  UNL     1     -33.251  15.249  -3.509  1.00 20.00     0.011 C 
HETATM    2  C2  UNL     1     -33.474  15.971  -4.832  1.00 20.00     0.016 C 
HETATM    3  C3  UNL     1     -33.412  13.767  -3.794  1.00 20.00     0.074 C 
HETATM    4  C4  UNL     1     -34.762  15.423  -5.441  1.00 20.00     0.057 C 
HETATM    5  S6  UNL     1     -34.764  13.654  -4.998  1.00 20.00    -0.164 SA
ENDROOT
BRANCH   4   6
HETATM    6  C5  UNL     1     -36.014  16.097  -4.891  1.00 20.00     0.100 C 
HETATM    7 BR7  UNL     1     -37.132  14.777  -4.009  1.00 20.00    -0.095 Br
ENDBRANCH   4   6
TORSDOF 1
ENDMDL
