MODEL 1
REMARK VINA RESULT:      -4.2      0.000      0.000
REMARK  0 active torsions:
REMARK  status: ('A' for Active; 'I' for Inactive)
ROOT
HETATM    1  C1  UNL     1     -34.204  15.425  -5.316  1.00 20.00     0.066 C 
HETATM    2  C2  UNL     1     -34.791  15.172  -2.865  1.00 20.00     0.071 C 
HETATM    3  C3  UNL     1     -33.160  16.446  -4.877  1.00 20.00     0.171 C 
HETATM    4  C4  UNL     1     -35.027  13.108  -4.444  1.00 20.00     0.207 A 
HETATM    5  C5  UNL     1     -33.702  16.211  -2.578  1.00 20.00     0.120 C 
HETATM    6  C6  UNL     1     -34.513  14.500  -4.178  1.00 20.00     0.086 A 
HETATM    7  C7  UNL     1     -34.038  17.031  -1.340  1.00 20.00     0.039 C 
HETATM    8  O8  UNL     1     -33.584  17.117  -3.686  1.00 20.00    -0.386 OA
HETATM    9  O9  UNL     1     -33.656  13.354  -4.090  1.00 20.00    -0.375 OA
ENDROOT
TORSDOF 0
ENDMDL
MODEL 2
REMARK VINA RESULT:      -4.0     11.640     12.764
REMARK  0 active torsions:
REMARK  status: ('A' for Active; 'I' for Inactive)
ROOT
HETATM    1  C1  UNL     1     -35.328   5.274   3.907  1.00 20.00     0.066 C 
HETATM    2  C2  UNL     1     -33.458   6.533   5.061  1.00 20.00     0.071 C 
HETATM    3  C3  UNL     1     -34.397   5.154   2.706  1.00 20.00     0.171 C 
HETATM    4  C4  UNL     1     -35.070   5.065   6.495  1.00 20.00     0.207 A 
HETATM    5  C5  UNL     1     -32.638   6.329   3.783  1.00 20.00     0.120 C 
HETATM    6  C6  UNL     1     -34.519   5.477   5.152  1.00 20.00     0.086 A 
HETATM    7  C7  UNL     1     -31.661   7.478   3.568  1.00 20.00     0.039 C 
HETATM    8  O8  UNL     1     -33.511   6.276   2.644  1.00 20.00    -0.386 OA
HETATM    9  O9  UNL     1     -34.100   4.266   5.796  1.00 20.00    -0.375 OA
ENDROOT
TORSDOF 0
ENDMDL
MODEL 3
REMARK VINA RESULT:      -3.9      2.186      2.574
REMARK  0 active torsions:
REMARK  status: ('A' for Active; 'I' for Inactive)
ROOT
HETATM    1  C1  UNL     1     -35.537  14.111  -4.853  1.00 20.00     0.066 C 
HETATM    2  C2  UNL     1     -36.059  16.057  -3.318  1.00 20.00     0.071 C 
HETATM    3  C3  UNL     1     -34.511  13.672  -3.814  1.00 20.00     0.171 C 
HETATM    4  C4  UNL     1     -37.968  15.057  -4.790  1.00 20.00     0.207 A 
HETATM    5  C5  UNL     1     -34.999  15.491  -2.368  1.00 20.00     0.120 C 
HETATM    6  C6  UNL     1     -36.584  14.961  -4.199  1.00 20.00     0.086 A 
HETATM    7  C7  UNL     1     -34.322  16.601  -1.576  1.00 20.00     0.039 C 
HETATM    8  O8  UNL     1     -33.984  14.806  -3.119  1.00 20.00    -0.386 OA
HETATM    9  O9  UNL     1     -37.687  14.231  -3.647  1.00 20.00    -0.375 OA
ENDROOT
TORSDOF 0
ENDMDL
MODEL 4
REMARK VINA RESULT:      -3.8      1.601      3.996
REMARK  0 active torsions:
REMARK  status: ('A' for Active; 'I' for Inactive)
ROOT
HETATM    1  C1  UNL     1     -34.364  14.620  -3.710  1.00 20.00     0.066 C 
HETATM    2  C2  UNL     1     -34.903  15.875  -5.842  1.00 20.00     0.071 C 
HETATM    3  C3  UNL     1     -34.207  13.376  -4.576  1.00 20.00     0.171 C 
HETATM    4  C4  UNL     1     -33.680  17.130  -3.908  1.00 20.00     0.207 A 
HETATM    5  C5  UNL     1     -34.707  14.546  -6.580  1.00 20.00     0.120 C 
HETATM    6  C6  UNL     1     -34.150  15.846  -4.545  1.00 20.00     0.086 A 
HETATM    7  C7  UNL     1     -35.589  14.471  -7.819  1.00 20.00     0.039 C 
HETATM    8  O8  UNL     1     -35.062  13.451  -5.721  1.00 20.00    -0.386 OA
HETATM    9  O9  UNL     1     -32.785  16.274  -4.639  1.00 20.00    -0.375 OA
ENDROOT
TORSDOF 0
ENDMDL
MODEL 5
REMARK VINA RESULT:      -3.7      2.416      3.281
REMARK  0 active torsions:
REMARK  status: ('A' for Active; 'I' for Inactive)
ROOT
HETATM    1  C1  UNL     1     -36.649  15.362  -5.657  1.00 20.00     0.066 C 
HETATM    2  C2  UNL     1     -35.501  14.793  -3.472  1.00 20.00     0.071 C 
HETATM    3  C3  UNL     1     -35.688  14.385  -6.324  1.00 20.00     0.171 C 
HETATM    4  C4  UNL     1     -38.040  15.398  -3.450  1.00 20.00     0.207 A 
HETATM    5  C5  UNL     1     -34.610  13.843  -4.279  1.00 20.00     0.120 C 
HETATM    6  C6  UNL     1     -36.791  15.018  -4.205  1.00 20.00     0.086 A 
HETATM    7  C7  UNL     1     -33.227  13.723  -3.653  1.00 20.00     0.039 C 
HETATM    8  O8  UNL     1     -34.445  14.343  -5.616  1.00 20.00    -0.386 OA
HETATM    9  O9  UNL     1     -37.815  14.057  -3.917  1.00 20.00    -0.375 OA
ENDROOT
TORSDOF 0
ENDMDL
MODEL 6
REMARK VINA RESULT:      -3.7     11.407     13.184
REMARK  0 active torsions:
REMARK  status: ('A' for Active; 'I' for Inactive)
ROOT
HETATM    1  C1  UNL     1     -40.992   4.275  -1.352  1.00 20.00     0.066 C 
HETATM    2  C2  UNL     1     -42.647   5.346  -2.942  1.00 20.00     0.071 C 
HETATM    3  C3  UNL     1     -40.738   5.675  -0.802  1.00 20.00     0.171 C 
HETATM    4  C4  UNL     1     -43.091   2.917  -2.098  1.00 20.00     0.207 A 
HETATM    5  C5  UNL     1     -42.291   6.685  -2.286  1.00 20.00     0.120 C 
HETATM    6  C6  UNL     1     -42.346   4.224  -1.993  1.00 20.00     0.086 A 
HETATM    7  C7  UNL     1     -42.423   7.834  -3.276  1.00 20.00     0.039 C 
HETATM    8  O8  UNL     1     -40.932   6.658  -1.824  1.00 20.00    -0.386 OA
HETATM    9  O9  UNL     1     -43.417   3.897  -1.098  1.00 20.00    -0.375 OA
ENDROOT
TORSDOF 0
ENDMDL
MODEL 7
REMARK VINA RESULT:      -3.7     12.238     13.355
REMARK  0 active torsions:
REMARK  status: ('A' for Active; 'I' for Inactive)
ROOT
HETATM    1  C1  UNL     1     -34.739   3.982   4.737  1.00 20.00     0.066 C 
HETATM    2  C2  UNL     1     -33.690   6.287   4.693  1.00 20.00     0.071 C 
HETATM    3  C3  UNL     1     -35.202   4.309   6.153  1.00 20.00     0.171 C 
HETATM    4  C4  UNL     1     -34.612   5.271   2.473  1.00 20.00     0.207 A 
HETATM    5  C5  UNL     1     -34.225   6.472   6.117  1.00 20.00     0.120 C 
HETATM    6  C6  UNL     1     -34.509   5.253   3.977  1.00 20.00     0.086 A 
HETATM    7  C7  UNL     1     -33.320   7.387   6.929  1.00 20.00     0.039 C 
HETATM    8  O8  UNL     1     -34.283   5.204   6.788  1.00 20.00    -0.386 OA
HETATM    9  O9  UNL     1     -35.668   5.769   3.311  1.00 20.00    -0.375 OA
ENDROOT
TORSDOF 0
ENDMDL
MODEL 8
REMARK VINA RESULT:      -3.7      2.426      3.811
REMARK  0 active torsions:
REMARK  status: ('A' for Active; 'I' for Inactive)
ROOT
HETATM    1  C1  UNL     1     -35.894  14.812  -3.661  1.00 20.00     0.066 C 
HETATM    2  C2  UNL     1     -34.712  14.696  -5.898  1.00 20.00     0.071 C 
HETATM    3  C3  UNL     1     -37.201  14.853  -4.445  1.00 20.00     0.171 C 
HETATM    4  C4  UNL     1     -33.652  13.489  -3.841  1.00 20.00     0.207 A 
HETATM    5  C5  UNL     1     -36.100  14.740  -6.546  1.00 20.00     0.120 C 
HETATM    6  C6  UNL     1     -34.826  14.173  -4.496  1.00 20.00     0.086 A 
HETATM    7  C7  UNL     1     -36.051  15.421  -7.906  1.00 20.00     0.039 C 
HETATM    8  O8  UNL     1     -37.005  15.484  -5.715  1.00 20.00    -0.386 OA
HETATM    9  O9  UNL     1     -34.756  12.745  -4.386  1.00 20.00    -0.375 OA
ENDROOT
TORSDOF 0
ENDMDL
MODEL 9
REMARK VINA RESULT:      -3.7     12.216     13.579
REMARK  0 active torsions:
REMARK  status: ('A' for Active; 'I' for Inactive)
ROOT
HETATM    1  C1  UNL     1     -42.005   6.648  -2.340  1.00 20.00     0.066 C 
HETATM    2  C2  UNL     1     -41.334   4.259  -1.834  1.00 20.00     0.071 C 
HETATM    3  C3  UNL     1     -43.249   6.072  -3.008  1.00 20.00     0.171 C 
HETATM    4  C4  UNL     1     -40.655   6.146  -0.165  1.00 20.00     0.207 A 
HETATM    5  C5  UNL     1     -42.629   3.830  -2.533  1.00 20.00     0.120 C 
HETATM    6  C6  UNL     1     -41.472   5.668  -1.339  1.00 20.00     0.086 A 
HETATM    7  C7  UNL     1     -42.470   2.469  -3.196  1.00 20.00     0.039 C 
HETATM    8  O8  UNL     1     -42.971   4.779  -3.556  1.00 20.00    -0.386 OA
HETATM    9  O9  UNL     1     -42.040   5.786  -0.028  1.00 20.00    -0.375 OA
ENDROOT
TORSDOF 0
ENDMDL
