MODEL 1
REMARK VINA RESULT:      -3.8      0.000      0.000
REMARK  1 active torsions:
REMARK  status: ('A' for Active; 'I' for Inactive)
REMARK    1  A    between atoms: C4_4  and  C5_5 
ROOT
HETATM    1  C1  UNL     1     -34.100   6.470   5.761  1.00 20.00     0.016 C 
HETATM    2  C2  UNL     1     -34.079   5.041   6.280  1.00 20.00     0.074 C 
HETATM    3  C3  UNL     1     -35.159   5.386   3.842  1.00 20.00     0.079 C 
HETATM    4  C4  UNL     1     -34.101   6.417   4.232  1.00 20.00     0.005 C 
HETATM    5  S6  UNL     1     -35.112   4.100   5.127  1.00 20.00    -0.169 SA
ENDROOT
BRANCH   4   6
HETATM    6  C5  UNL     1     -32.742   6.100   3.660  1.00 20.00     0.090 C 
HETATM    7 BR7  UNL     1     -32.113   7.616   2.627  1.00 20.00    -0.096 Br
ENDBRANCH   4   6
TORSDOF 1
ENDMDL
MODEL 2
REMARK VINA RESULT:      -3.2     12.439     13.044
REMARK  1 active torsions:
REMARK  status: ('A' for Active; 'I' for Inactive)
REMARK    1  A    between atoms: C4_4  and  C5_5 
ROOT
HETATM    1  C1  UNL     1     -33.069  15.442  -3.777  1.00 20.00     0.016 C 
HETATM    2  C2  UNL     1     -33.341  16.264  -5.027  1.00 20.00     0.074 C 
HETATM    3  C3  UNL     1     -34.833  14.046  -4.734  1.00 20.00     0.079 C 
HETATM    4  C4  UNL     1     -34.346  14.674  -3.430  1.00 20.00     0.005 C 
HETATM    5  S6  UNL     1     -34.418  15.228  -6.052  1.00 20.00    -0.169 SA
ENDROOT
BRANCH   4   6
HETATM    6  C5  UNL     1     -35.390  15.545  -2.778  1.00 20.00     0.090 C 
HETATM    7 BR7  UNL     1     -34.575  16.552  -1.336  1.00 20.00    -0.096 Br
ENDBRANCH   4   6
TORSDOF 1
ENDMDL
MODEL 3
REMARK VINA RESULT:      -3.2     12.152     12.744
REMARK  1 active torsions:
REMARK  status: ('A' for Active; 'I' for Inactive)
REMARK    1  A    between atoms: C4_4  and  C5_5 
ROOT
HETATM    1  C1  UNL     1     -33.507  13.696  -3.833  1.00 20.00     0.016 C 
HETATM    2  C2  UNL     1     -34.662  13.363  -4.766  1.00 20.00     0.074 C 
HETATM    3  C3  UNL     1     -35.071  15.421  -3.085  1.00 20.00     0.079 C 
HETATM    4  C4  UNL     1     -33.612  15.177  -3.465  1.00 20.00     0.005 C 
HETATM    5  S6  UNL     1     -36.062  14.338  -4.158  1.00 20.00    -0.169 SA
ENDROOT
BRANCH   4   6
HETATM    6  C5  UNL     1     -33.140  16.087  -4.572  1.00 20.00     0.090 C 
HETATM    7 BR7  UNL     1     -33.876  17.860  -4.303  1.00 20.00    -0.096 Br
ENDBRANCH   4   6
TORSDOF 1
ENDMDL
MODEL 4
REMARK VINA RESULT:      -3.2     12.232     12.803
REMARK  1 active torsions:
REMARK  status: ('A' for Active; 'I' for Inactive)
REMARK    1  A    between atoms: C4_4  and  C5_5 
ROOT
HETATM    1  C1  UNL     1     -34.673  13.320  -5.088  1.00 20.00     0.016 C 
HETATM    2  C2  UNL     1     -35.015  14.300  -6.200  1.00 20.00     0.074 C 
HETATM    3  C3  UNL     1     -36.343  14.644  -3.888  1.00 20.00     0.079 C 
HETATM    4  C4  UNL     1     -34.962  14.007  -3.751  1.00 20.00     0.005 C 
HETATM    5  S6  UNL     1     -36.480  15.192  -5.616  1.00 20.00    -0.169 SA
ENDROOT
BRANCH   4   6
HETATM    6  C5  UNL     1     -33.897  15.003  -3.367  1.00 20.00     0.090 C 
HETATM    7 BR7  UNL     1     -34.587  16.181  -1.991  1.00 20.00    -0.096 Br
ENDBRANCH   4   6
TORSDOF 1
ENDMDL
MODEL 5
REMARK VINA RESULT:      -3.1     12.509     13.234
REMARK  1 active torsions:
REMARK  status: ('A' for Active; 'I' for Inactive)
REMARK    1  A    between atoms: C4_4  and  C5_5 
ROOT
HETATM    1  C1  UNL     1     -33.947  15.738  -5.811  1.00 20.00     0.016 C 
HETATM    2  C2  UNL     1     -34.919  14.570  -5.773  1.00 20.00     0.074 C 
HETATM    3  C3  UNL     1     -33.209  14.736  -3.706  1.00 20.00     0.079 C 
HETATM    4  C4  UNL     1     -33.551  16.068  -4.370  1.00 20.00     0.005 C 
HETATM    5  S6  UNL     1     -34.332  13.504  -4.431  1.00 20.00    -0.169 SA
ENDROOT
BRANCH   4   6
HETATM    6  C5  UNL     1     -34.624  16.828  -3.631  1.00 20.00     0.090 C 
HETATM    7 BR7  UNL     1     -34.577  16.342  -1.755  1.00 20.00    -0.096 Br
ENDBRANCH   4   6
TORSDOF 1
ENDMDL
MODEL 6
REMARK VINA RESULT:      -3.0     12.713     13.244
REMARK  1 active torsions:
REMARK  status: ('A' for Active; 'I' for Inactive)
REMARK    1  A    between atoms: C4_4  and  C5_5 
ROOT
HETATM    1  C1  UNL     1     -33.280  15.421  -3.477  1.00 20.00     0.016 C 
HETATM    2  C2  UNL     1     -33.404  16.380  -4.651  1.00 20.00     0.074 C 
HETATM    3  C3  UNL     1     -35.591  16.127  -3.108  1.00 20.00     0.079 C 
HETATM    4  C4  UNL     1     -34.265  15.869  -2.396  1.00 20.00     0.005 C 
HETATM    5  S6  UNL     1     -35.167  16.788  -4.748  1.00 20.00    -0.169 SA
ENDROOT
BRANCH   4   6
HETATM    6  C5  UNL     1     -33.776  17.069  -1.624  1.00 20.00     0.090 C 
HETATM    7 BR7  UNL     1     -34.855  17.288  -0.029  1.00 20.00    -0.096 Br
ENDBRANCH   4   6
TORSDOF 1
ENDMDL
MODEL 7
REMARK VINA RESULT:      -3.0     12.592     13.051
REMARK  1 active torsions:
REMARK  status: ('A' for Active; 'I' for Inactive)
REMARK    1  A    between atoms: C4_4  and  C5_5 
ROOT
HETATM    1  C1  UNL     1     -34.628  16.376  -1.446  1.00 20.00     0.016 C 
HETATM    2  C2  UNL     1     -35.197  17.720  -1.874  1.00 20.00     0.074 C 
HETATM    3  C3  UNL     1     -33.534  16.540  -3.627  1.00 20.00     0.079 C 
HETATM    4  C4  UNL     1     -34.292  15.582  -2.710  1.00 20.00     0.005 C 
HETATM    5  S6  UNL     1     -34.259  18.185  -3.353  1.00 20.00    -0.169 SA
ENDROOT
BRANCH   4   6
HETATM    6  C5  UNL     1     -35.514  14.992  -3.369  1.00 20.00     0.090 C 
HETATM    7 BR7  UNL     1     -35.001  13.420  -4.380  1.00 20.00    -0.096 Br
ENDBRANCH   4   6
TORSDOF 1
ENDMDL
MODEL 8
REMARK VINA RESULT:      -2.9      9.521      9.988
REMARK  1 active torsions:
REMARK  status: ('A' for Active; 'I' for Inactive)
REMARK    1  A    between atoms: C4_4  and  C5_5 
ROOT
HETATM    1  C1  UNL     1     -40.651   4.810  -0.943  1.00 20.00     0.016 C 
HETATM    2  C2  UNL     1     -41.647   4.149  -1.883  1.00 20.00     0.074 C 
HETATM    3  C3  UNL     1     -42.704   5.423   0.236  1.00 20.00     0.079 C 
HETATM    4  C4  UNL     1     -41.361   5.971  -0.244  1.00 20.00     0.005 C 
HETATM    5  S6  UNL     1     -43.237   4.219  -1.017  1.00 20.00    -0.169 SA
ENDROOT
BRANCH   4   6
HETATM    6  C5  UNL     1     -41.510   7.181  -1.131  1.00 20.00     0.090 C 
HETATM    7 BR7  UNL     1     -43.225   8.019  -0.791  1.00 20.00    -0.096 Br
ENDBRANCH   4   6
TORSDOF 1
ENDMDL
MODEL 9
REMARK VINA RESULT:      -2.9     12.452     12.941
REMARK  1 active torsions:
REMARK  status: ('A' for Active; 'I' for Inactive)
REMARK    1  A    between atoms: C4_4  and  C5_5 
ROOT
HETATM    1  C1  UNL     1     -35.948  15.009  -3.402  1.00 20.00     0.016 C 
HETATM    2  C2  UNL     1     -34.500  15.233  -2.997  1.00 20.00     0.074 C 
HETATM    3  C3  UNL     1     -34.905  13.410  -4.931  1.00 20.00     0.079 C 
HETATM    4  C4  UNL     1     -35.960  14.511  -4.849  1.00 20.00     0.005 C 
HETATM    5  S6  UNL     1     -33.568  13.904  -3.802  1.00 20.00    -0.169 SA
ENDROOT
BRANCH   4   6
HETATM    6  C5  UNL     1     -35.725  15.618  -5.847  1.00 20.00     0.090 C 
HETATM    7 BR7  UNL     1     -34.823  14.896  -7.404  1.00 20.00    -0.096 Br
ENDBRANCH   4   6
TORSDOF 1
ENDMDL
