MODEL 1
REMARK VINA RESULT:      -5.0      0.000      0.000
REMARK  3 active torsions:
REMARK  status: ('A' for Active; 'I' for Inactive)
REMARK    1  A    between atoms: C1_1  and  C7_7 
REMARK    2  A    between atoms: C1_1  and  C9_9 
REMARK    3  A    between atoms: C8_8  and  C9_9 
ROOT
HETATM    1  C1  UNL     1     -32.549   6.473   3.407  1.00 20.00     0.141 C 
HETATM    2  O10 UNL     1     -32.081   5.421   2.971  1.00 20.00    -0.297 OA
ENDROOT
BRANCH   1   3
HETATM    3  C7  UNL     1     -33.728   6.470   4.312  1.00 20.00     0.116 C 
HETATM    4  C3  UNL     1     -33.370   6.338   5.790  1.00 20.00     0.024 C 
HETATM    5  C2  UNL     1     -34.627   5.843   6.490  1.00 20.00     0.012 C 
HETATM    6  C6  UNL     1     -35.102   4.629   5.712  1.00 20.00     0.075 C 
HETATM    7  S11 UNL     1     -34.791   5.034   3.970  1.00 20.00    -0.157 SA
ENDBRANCH   1   3
BRANCH   1   8
HETATM    8  C9  UNL     1     -31.972   7.834   3.064  1.00 20.00     0.084 C 
BRANCH   8   9
HETATM    9  C8  UNL     1     -32.567   8.419   1.796  1.00 20.00    -0.007 A 
HETATM   10  C4  UNL     1     -32.401   9.880   1.485  1.00 20.00     0.005 A 
HETATM   11  C5  UNL     1     -31.671   8.851   0.669  1.00 20.00     0.005 A 
ENDBRANCH   8   9
ENDBRANCH   1   8
TORSDOF 3
ENDMDL
MODEL 2
REMARK VINA RESULT:      -4.6     11.101     12.688
REMARK  3 active torsions:
REMARK  status: ('A' for Active; 'I' for Inactive)
REMARK    1  A    between atoms: C1_1  and  C7_7 
REMARK    2  A    between atoms: C1_1  and  C9_9 
REMARK    3  A    between atoms: C8_8  and  C9_9 
ROOT
HETATM    1  C1  UNL     1     -34.604  13.824  -4.675  1.00 20.00     0.141 C 
HETATM    2  O10 UNL     1     -34.962  12.660  -4.495  1.00 20.00    -0.297 OA
ENDROOT
BRANCH   1   3
HETATM    3  C7  UNL     1     -34.804  14.493  -5.987  1.00 20.00     0.116 C 
HETATM    4  C3  UNL     1     -33.927  15.726  -6.189  1.00 20.00     0.024 C 
HETATM    5  C2  UNL     1     -34.593  16.549  -7.281  1.00 20.00     0.012 C 
HETATM    6  C6  UNL     1     -36.047  16.709  -6.872  1.00 20.00     0.075 C 
HETATM    7  S11 UNL     1     -36.506  15.115  -6.133  1.00 20.00    -0.157 SA
ENDBRANCH   1   3
BRANCH   1   8
HETATM    8  C9  UNL     1     -33.940  14.656  -3.594  1.00 20.00     0.084 C 
BRANCH   8   9
HETATM    9  C8  UNL     1     -34.943  15.324  -2.670  1.00 20.00    -0.007 A 
HETATM   10  C4  UNL     1     -34.478  16.295  -1.621  1.00 20.00     0.005 A 
HETATM   11  C5  UNL     1     -35.246  16.789  -2.815  1.00 20.00     0.005 A 
ENDBRANCH   8   9
ENDBRANCH   1   8
TORSDOF 3
ENDMDL
MODEL 3
REMARK VINA RESULT:      -4.5     11.496     12.832
REMARK  3 active torsions:
REMARK  status: ('A' for Active; 'I' for Inactive)
REMARK    1  A    between atoms: C1_1  and  C7_7 
REMARK    2  A    between atoms: C1_1  and  C9_9 
REMARK    3  A    between atoms: C8_8  and  C9_9 
ROOT
HETATM    1  C1  UNL     1     -36.831  15.030  -4.117  1.00 20.00     0.141 C 
HETATM    2  O10 UNL     1     -37.593  14.135  -3.750  1.00 20.00    -0.297 OA
ENDROOT
BRANCH   1   3
HETATM    3  C7  UNL     1     -36.374  15.116  -5.529  1.00 20.00     0.116 C 
HETATM    4  C3  UNL     1     -35.127  14.286  -5.823  1.00 20.00     0.024 C 
HETATM    5  C2  UNL     1     -34.517  14.868  -7.090  1.00 20.00     0.012 C 
HETATM    6  C6  UNL     1     -34.397  16.364  -6.861  1.00 20.00     0.075 C 
HETATM    7  S11 UNL     1     -35.894  16.821  -5.941  1.00 20.00    -0.157 SA
ENDBRANCH   1   3
BRANCH   1   8
HETATM    8  C9  UNL     1     -36.305  16.098  -3.176  1.00 20.00     0.084 C 
BRANCH   8   9
HETATM    9  C8  UNL     1     -35.106  15.630  -2.370  1.00 20.00    -0.007 A 
HETATM   10  C4  UNL     1     -33.787  16.339  -2.492  1.00 20.00     0.005 A 
HETATM   11  C5  UNL     1     -34.591  16.460  -1.228  1.00 20.00     0.005 A 
ENDBRANCH   8   9
ENDBRANCH   1   8
TORSDOF 3
ENDMDL
MODEL 4
REMARK VINA RESULT:      -4.4     10.789     12.090
REMARK  3 active torsions:
REMARK  status: ('A' for Active; 'I' for Inactive)
REMARK    1  A    between atoms: C1_1  and  C7_7 
REMARK    2  A    between atoms: C1_1  and  C9_9 
REMARK    3  A    between atoms: C8_8  and  C9_9 
ROOT
HETATM    1  C1  UNL     1     -35.049  13.668  -4.686  1.00 20.00     0.141 C 
HETATM    2  O10 UNL     1     -34.736  12.494  -4.880  1.00 20.00    -0.297 OA
ENDROOT
BRANCH   1   3
HETATM    3  C7  UNL     1     -34.708  14.351  -3.410  1.00 20.00     0.116 C 
HETATM    4  C3  UNL     1     -35.692  15.452  -3.020  1.00 20.00     0.024 C 
HETATM    5  C2  UNL     1     -34.956  16.353  -2.039  1.00 20.00     0.012 C 
HETATM    6  C6  UNL     1     -33.634  16.712  -2.694  1.00 20.00     0.075 C 
HETATM    7  S11 UNL     1     -33.106  15.200  -3.549  1.00 20.00    -0.157 SA
ENDBRANCH   1   3
BRANCH   1   8
HETATM    8  C9  UNL     1     -35.796  14.500  -5.711  1.00 20.00     0.084 C 
BRANCH   8   9
HETATM    9  C8  UNL     1     -34.939  14.856  -6.913  1.00 20.00    -0.007 A 
HETATM   10  C4  UNL     1     -35.422  15.865  -7.917  1.00 20.00     0.005 A 
HETATM   11  C5  UNL     1     -34.281  16.204  -7.000  1.00 20.00     0.005 A 
ENDBRANCH   8   9
ENDBRANCH   1   8
TORSDOF 3
ENDMDL
MODEL 5
REMARK VINA RESULT:      -4.4     10.858     11.930
REMARK  3 active torsions:
REMARK  status: ('A' for Active; 'I' for Inactive)
REMARK    1  A    between atoms: C1_1  and  C7_7 
REMARK    2  A    between atoms: C1_1  and  C9_9 
REMARK    3  A    between atoms: C8_8  and  C9_9 
ROOT
HETATM    1  C1  UNL     1     -33.823  17.273  -3.223  1.00 20.00     0.141 C 
HETATM    2  O10 UNL     1     -33.552  17.701  -4.345  1.00 20.00    -0.297 OA
ENDROOT
BRANCH   1   3
HETATM    3  C7  UNL     1     -33.943  15.814  -2.967  1.00 20.00     0.116 C 
HETATM    4  C3  UNL     1     -32.953  14.966  -3.762  1.00 20.00     0.024 C 
HETATM    5  C2  UNL     1     -33.527  13.557  -3.792  1.00 20.00     0.012 C 
HETATM    6  C6  UNL     1     -34.965  13.689  -4.263  1.00 20.00     0.075 C 
HETATM    7  S11 UNL     1     -35.579  15.208  -3.482  1.00 20.00    -0.157 SA
ENDBRANCH   1   3
BRANCH   1   8
HETATM    8  C9  UNL     1     -34.053  18.183  -2.030  1.00 20.00     0.084 C 
BRANCH   8   9
HETATM    9  C8  UNL     1     -33.825  17.478  -0.705  1.00 20.00    -0.007 A 
HETATM   10  C4  UNL     1     -33.838  18.258   0.580  1.00 20.00     0.005 A 
HETATM   11  C5  UNL     1     -34.960  17.309   0.266  1.00 20.00     0.005 A 
ENDBRANCH   8   9
ENDBRANCH   1   8
TORSDOF 3
ENDMDL
MODEL 6
REMARK VINA RESULT:      -4.3     11.378     12.379
REMARK  3 active torsions:
REMARK  status: ('A' for Active; 'I' for Inactive)
REMARK    1  A    between atoms: C1_1  and  C7_7 
REMARK    2  A    between atoms: C1_1  and  C9_9 
REMARK    3  A    between atoms: C8_8  and  C9_9 
ROOT
HETATM    1  C1  UNL     1     -33.323  15.407  -3.545  1.00 20.00     0.141 C 
HETATM    2  O10 UNL     1     -32.382  14.613  -3.542  1.00 20.00    -0.297 OA
ENDROOT
BRANCH   1   3
HETATM    3  C7  UNL     1     -34.389  15.329  -4.578  1.00 20.00     0.116 C 
HETATM    4  C3  UNL     1     -34.526  13.950  -5.217  1.00 20.00     0.024 C 
HETATM    5  C2  UNL     1     -35.245  14.163  -6.541  1.00 20.00     0.012 C 
HETATM    6  C6  UNL     1     -34.494  15.266  -7.265  1.00 20.00     0.075 C 
HETATM    7  S11 UNL     1     -34.015  16.441  -5.967  1.00 20.00    -0.157 SA
ENDBRANCH   1   3
BRANCH   1   8
HETATM    8  C9  UNL     1     -33.470  16.511  -2.514  1.00 20.00     0.084 C 
BRANCH   8   9
HETATM    9  C8  UNL     1     -34.694  16.331  -1.634  1.00 20.00    -0.007 A 
HETATM   10  C4  UNL     1     -34.745  16.958  -0.269  1.00 20.00     0.005 A 
HETATM   11  C5  UNL     1     -35.615  17.490  -1.373  1.00 20.00     0.005 A 
ENDBRANCH   8   9
ENDBRANCH   1   8
TORSDOF 3
ENDMDL
MODEL 7
REMARK VINA RESULT:      -4.3     11.331     12.277
REMARK  3 active torsions:
REMARK  status: ('A' for Active; 'I' for Inactive)
REMARK    1  A    between atoms: C1_1  and  C7_7 
REMARK    2  A    between atoms: C1_1  and  C9_9 
REMARK    3  A    between atoms: C8_8  and  C9_9 
ROOT
HETATM    1  C1  UNL     1     -33.728  16.755  -3.580  1.00 20.00     0.141 C 
HETATM    2  O10 UNL     1     -33.561  17.936  -3.884  1.00 20.00    -0.297 OA
ENDROOT
BRANCH   1   3
HETATM    3  C7  UNL     1     -33.634  15.680  -4.602  1.00 20.00     0.116 C 
HETATM    4  C3  UNL     1     -34.802  15.662  -5.585  1.00 20.00     0.024 C 
HETATM    5  C2  UNL     1     -34.827  14.267  -6.192  1.00 20.00     0.012 C 
HETATM    6  C6  UNL     1     -34.797  13.292  -5.028  1.00 20.00     0.075 C 
HETATM    7  S11 UNL     1     -33.676  14.043  -3.813  1.00 20.00    -0.157 SA
ENDBRANCH   1   3
BRANCH   1   8
HETATM    8  C9  UNL     1     -34.039  16.306  -2.164  1.00 20.00     0.084 C 
BRANCH   8   9
HETATM    9  C8  UNL     1     -34.539  17.440  -1.287  1.00 20.00    -0.007 A 
HETATM   10  C4  UNL     1     -34.852  17.196   0.163  1.00 20.00     0.005 A 
HETATM   11  C5  UNL     1     -33.652  18.017  -0.218  1.00 20.00     0.005 A 
ENDBRANCH   8   9
ENDBRANCH   1   8
TORSDOF 3
ENDMDL
MODEL 8
REMARK VINA RESULT:      -4.2      0.907      1.151
REMARK  3 active torsions:
REMARK  status: ('A' for Active; 'I' for Inactive)
REMARK    1  A    between atoms: C1_1  and  C7_7 
REMARK    2  A    between atoms: C1_1  and  C9_9 
REMARK    3  A    between atoms: C8_8  and  C9_9 
ROOT
HETATM    1  C1  UNL     1     -33.376   5.978   2.968  1.00 20.00     0.141 C 
HETATM    2  O10 UNL     1     -33.800   5.300   2.033  1.00 20.00    -0.297 OA
ENDROOT
BRANCH   1   3
HETATM    3  C7  UNL     1     -34.210   6.228   4.173  1.00 20.00     0.116 C 
HETATM    4  C3  UNL     1     -33.399   6.446   5.448  1.00 20.00     0.024 C 
HETATM    5  C2  UNL     1     -34.346   6.171   6.607  1.00 20.00     0.012 C 
HETATM    6  C6  UNL     1     -34.981   4.820   6.332  1.00 20.00     0.075 C 
HETATM    7  S11 UNL     1     -35.254   4.784   4.537  1.00 20.00    -0.157 SA
ENDBRANCH   1   3
BRANCH   1   8
HETATM    8  C9  UNL     1     -31.995   6.606   2.969  1.00 20.00     0.084 C 
BRANCH   8   9
HETATM    9  C8  UNL     1     -32.023   8.085   2.629  1.00 20.00    -0.007 A 
HETATM   10  C4  UNL     1     -31.569   8.562   1.278  1.00 20.00     0.005 A 
HETATM   11  C5  UNL     1     -33.026   8.616   1.643  1.00 20.00     0.005 A 
ENDBRANCH   8   9
ENDBRANCH   1   8
TORSDOF 3
ENDMDL
MODEL 9
REMARK VINA RESULT:      -4.2     11.290     12.429
REMARK  3 active torsions:
REMARK  status: ('A' for Active; 'I' for Inactive)
REMARK    1  A    between atoms: C1_1  and  C7_7 
REMARK    2  A    between atoms: C1_1  and  C9_9 
REMARK    3  A    between atoms: C8_8  and  C9_9 
ROOT
HETATM    1  C1  UNL     1     -33.811  16.602  -4.380  1.00 20.00     0.141 C 
HETATM    2  O10 UNL     1     -32.735  16.284  -4.885  1.00 20.00    -0.297 OA
ENDROOT
BRANCH   1   3
HETATM    3  C7  UNL     1     -35.093  16.053  -4.897  1.00 20.00     0.116 C 
HETATM    4  C3  UNL     1     -36.315  16.885  -4.518  1.00 20.00     0.024 C 
HETATM    5  C2  UNL     1     -37.517  15.962  -4.656  1.00 20.00     0.012 C 
HETATM    6  C6  UNL     1     -37.183  14.702  -3.876  1.00 20.00     0.075 C 
HETATM    7  S11 UNL     1     -35.418  14.412  -4.184  1.00 20.00    -0.157 SA
ENDBRANCH   1   3
BRANCH   1   8
HETATM    8  C9  UNL     1     -33.919  17.563  -3.211  1.00 20.00     0.084 C 
BRANCH   8   9
HETATM    9  C8  UNL     1     -33.646  16.894  -1.875  1.00 20.00    -0.007 A 
HETATM   10  C4  UNL     1     -33.864  17.645  -0.592  1.00 20.00     0.005 A 
HETATM   11  C5  UNL     1     -34.786  16.519  -0.970  1.00 20.00     0.005 A 
ENDBRANCH   8   9
ENDBRANCH   1   8
TORSDOF 3
ENDMDL
