MODEL 1
REMARK VINA RESULT:      -5.2      0.000      0.000
REMARK  2 active torsions:
REMARK  status: ('A' for Active; 'I' for Inactive)
REMARK    1  A    between atoms: C3_3  and  C7_7 
REMARK    2  A    between atoms: C3_3  and  C10_10 
ROOT
HETATM    1  C1  UNL     1     -32.228   9.830   1.168  1.00 20.00     0.012 C 
HETATM    2  C2  UNL     1     -32.218   8.668   1.470  1.00 20.00    -0.110 C 
HETATM    3  C10 UNL     1     -32.208   7.247   1.832  1.00 20.00     0.171 C 
ENDROOT
BRANCH   3   4
HETATM    4  C3  UNL     1     -32.052   7.028   3.324  1.00 20.00     0.144 C 
HETATM    5  O11 UNL     1     -31.342   7.736   4.037  1.00 20.00    -0.297 OA
BRANCH   4   6
HETATM    6  C7  UNL     1     -32.821   5.880   3.904  1.00 20.00     0.087 C 
HETATM    7  C6  UNL     1     -33.820   5.320   2.886  1.00 20.00     0.046 C 
HETATM    8  C8  UNL     1     -35.152   5.517   3.611  1.00 20.00     0.122 C 
HETATM    9  C4  UNL     1     -35.275   4.557   4.794  1.00 20.00     0.034 C 
HETATM   10  O12 UNL     1     -34.918   6.772   4.289  1.00 20.00    -0.380 OA
HETATM   11  C5  UNL     1     -34.296   5.163   5.803  1.00 20.00     0.035 C 
HETATM   12  C9  UNL     1     -33.743   6.359   5.030  1.00 20.00     0.133 C 
ENDBRANCH   4   6
ENDBRANCH   3   4
TORSDOF 2
ENDMDL
MODEL 2
REMARK VINA RESULT:      -4.9     10.978     11.927
REMARK  2 active torsions:
REMARK  status: ('A' for Active; 'I' for Inactive)
REMARK    1  A    between atoms: C3_3  and  C7_7 
REMARK    2  A    between atoms: C3_3  and  C10_10 
ROOT
HETATM    1  C1  UNL     1     -34.106  18.408   1.024  1.00 20.00     0.012 C 
HETATM    2  C2  UNL     1     -34.374  17.585   0.190  1.00 20.00    -0.110 C 
HETATM    3  C10 UNL     1     -34.704  16.577  -0.822  1.00 20.00     0.171 C 
ENDROOT
BRANCH   3   4
HETATM    4  C3  UNL     1     -33.997  16.823  -2.140  1.00 20.00     0.144 C 
HETATM    5  O11 UNL     1     -33.568  17.926  -2.478  1.00 20.00    -0.297 OA
BRANCH   4   6
HETATM    6  C7  UNL     1     -33.841  15.631  -3.035  1.00 20.00     0.087 C 
HETATM    7  C6  UNL     1     -33.350  16.050  -4.425  1.00 20.00     0.046 C 
HETATM    8  C8  UNL     1     -34.484  15.552  -5.322  1.00 20.00     0.122 C 
HETATM    9  C4  UNL     1     -34.491  14.025  -5.394  1.00 20.00     0.034 C 
HETATM   10  O12 UNL     1     -35.634  15.801  -4.483  1.00 20.00    -0.380 OA
HETATM   11  C5  UNL     1     -35.019  13.641  -4.009  1.00 20.00     0.035 C 
HETATM   12  C9  UNL     1     -35.204  15.006  -3.350  1.00 20.00     0.133 C 
ENDBRANCH   4   6
ENDBRANCH   3   4
TORSDOF 2
ENDMDL
MODEL 3
REMARK VINA RESULT:      -4.9     10.516     11.769
REMARK  2 active torsions:
REMARK  status: ('A' for Active; 'I' for Inactive)
REMARK    1  A    between atoms: C3_3  and  C7_7 
REMARK    2  A    between atoms: C3_3  and  C10_10 
ROOT
HETATM    1  C1  UNL     1     -34.379  15.078  -7.212  1.00 20.00     0.012 C 
HETATM    2  C2  UNL     1     -34.709  14.425  -6.259  1.00 20.00    -0.110 C 
HETATM    3  C10 UNL     1     -35.120  13.625  -5.100  1.00 20.00     0.171 C 
ENDROOT
BRANCH   3   4
HETATM    4  C3  UNL     1     -34.201  13.814  -3.909  1.00 20.00     0.144 C 
HETATM    5  O11 UNL     1     -33.118  13.240  -3.797  1.00 20.00    -0.297 OA
BRANCH   4   6
HETATM    6  C7  UNL     1     -34.685  14.755  -2.849  1.00 20.00     0.087 C 
HETATM    7  C6  UNL     1     -36.035  15.369  -3.235  1.00 20.00     0.046 C 
HETATM    8  C8  UNL     1     -35.706  16.862  -3.262  1.00 20.00     0.122 C 
HETATM    9  C4  UNL     1     -35.467  17.392  -1.848  1.00 20.00     0.034 C 
HETATM   10  O12 UNL     1     -34.360  16.842  -3.787  1.00 20.00    -0.380 OA
HETATM   11  C5  UNL     1     -34.100  16.794  -1.507  1.00 20.00     0.035 C 
HETATM   12  C9  UNL     1     -33.781  15.990  -2.767  1.00 20.00     0.133 C 
ENDBRANCH   4   6
ENDBRANCH   3   4
TORSDOF 2
ENDMDL
MODEL 4
REMARK VINA RESULT:      -4.8     11.468     12.775
REMARK  2 active torsions:
REMARK  status: ('A' for Active; 'I' for Inactive)
REMARK    1  A    between atoms: C3_3  and  C7_7 
REMARK    2  A    between atoms: C3_3  and  C10_10 
ROOT
HETATM    1  C1  UNL     1     -34.780  17.456   0.318  1.00 20.00     0.012 C 
HETATM    2  C2  UNL     1     -34.680  16.795  -0.679  1.00 20.00    -0.110 C 
HETATM    3  C10 UNL     1     -34.562  15.981  -1.894  1.00 20.00     0.171 C 
ENDROOT
BRANCH   3   4
HETATM    4  C3  UNL     1     -33.925  16.738  -3.041  1.00 20.00     0.144 C 
HETATM    5  O11 UNL     1     -33.603  17.924  -2.969  1.00 20.00    -0.297 OA
BRANCH   4   6
HETATM    6  C7  UNL     1     -33.699  15.958  -4.300  1.00 20.00     0.087 C 
HETATM    7  C6  UNL     1     -33.471  16.894  -5.492  1.00 20.00     0.046 C 
HETATM    8  C8  UNL     1     -34.619  16.503  -6.423  1.00 20.00     0.122 C 
HETATM    9  C4  UNL     1     -34.391  15.113  -7.016  1.00 20.00     0.034 C 
HETATM   10  O12 UNL     1     -35.673  16.235  -5.471  1.00 20.00    -0.380 OA
HETATM   11  C5  UNL     1     -34.662  14.203  -5.814  1.00 20.00     0.035 C 
HETATM   12  C9  UNL     1     -34.975  15.215  -4.714  1.00 20.00     0.133 C 
ENDBRANCH   4   6
ENDBRANCH   3   4
TORSDOF 2
ENDMDL
MODEL 5
REMARK VINA RESULT:      -4.8     10.929     12.905
REMARK  2 active torsions:
REMARK  status: ('A' for Active; 'I' for Inactive)
REMARK    1  A    between atoms: C3_3  and  C7_7 
REMARK    2  A    between atoms: C3_3  and  C10_10 
ROOT
HETATM    1  C1  UNL     1     -34.617  16.128  -1.906  1.00 20.00     0.012 C 
HETATM    2  C2  UNL     1     -34.097  15.469  -2.765  1.00 20.00    -0.110 C 
HETATM    3  C10 UNL     1     -33.454  14.667  -3.812  1.00 20.00     0.171 C 
ENDROOT
BRANCH   3   4
HETATM    4  C3  UNL     1     -34.450  13.851  -4.612  1.00 20.00     0.144 C 
HETATM    5  O11 UNL     1     -34.999  12.841  -4.174  1.00 20.00    -0.297 OA
BRANCH   4   6
HETATM    6  C7  UNL     1     -34.742  14.344  -5.996  1.00 20.00     0.087 C 
HETATM    7  C6  UNL     1     -33.921  15.599  -6.315  1.00 20.00     0.046 C 
HETATM    8  C8  UNL     1     -35.017  16.628  -6.597  1.00 20.00     0.122 C 
HETATM    9  C4  UNL     1     -35.725  16.322  -7.917  1.00 20.00     0.034 C 
HETATM   10  O12 UNL     1     -36.024  16.234  -5.639  1.00 20.00    -0.380 OA
HETATM   11  C5  UNL     1     -36.561  15.092  -7.556  1.00 20.00     0.035 C 
HETATM   12  C9  UNL     1     -36.180  14.867  -6.094  1.00 20.00     0.133 C 
ENDBRANCH   4   6
ENDBRANCH   3   4
TORSDOF 2
ENDMDL
MODEL 6
REMARK VINA RESULT:      -4.7     11.331     12.197
REMARK  2 active torsions:
REMARK  status: ('A' for Active; 'I' for Inactive)
REMARK    1  A    between atoms: C3_3  and  C7_7 
REMARK    2  A    between atoms: C3_3  and  C10_10 
ROOT
HETATM    1  C1  UNL     1     -34.916  14.891  -7.524  1.00 20.00     0.012 C 
HETATM    2  C2  UNL     1     -34.586  14.725  -6.381  1.00 20.00    -0.110 C 
HETATM    3  C10 UNL     1     -34.187  14.514  -4.985  1.00 20.00     0.171 C 
ENDROOT
BRANCH   3   4
HETATM    4  C3  UNL     1     -33.467  15.713  -4.400  1.00 20.00     0.144 C 
HETATM    5  O11 UNL     1     -32.803  16.497  -5.078  1.00 20.00    -0.297 OA
BRANCH   4   6
HETATM    6  C7  UNL     1     -33.604  15.904  -2.920  1.00 20.00     0.087 C 
HETATM    7  C6  UNL     1     -34.980  15.433  -2.433  1.00 20.00     0.046 C 
HETATM    8  C8  UNL     1     -35.554  16.715  -1.828  1.00 20.00     0.122 C 
HETATM    9  C4  UNL     1     -34.826  17.082  -0.535  1.00 20.00     0.034 C 
HETATM   10  O12 UNL     1     -35.034  17.711  -2.738  1.00 20.00    -0.380 OA
HETATM   11  C5  UNL     1     -33.476  17.581  -1.057  1.00 20.00     0.035 C 
HETATM   12  C9  UNL     1     -33.630  17.395  -2.566  1.00 20.00     0.133 C 
ENDBRANCH   4   6
ENDBRANCH   3   4
TORSDOF 2
ENDMDL
MODEL 7
REMARK VINA RESULT:      -4.6     10.745     12.048
REMARK  2 active torsions:
REMARK  status: ('A' for Active; 'I' for Inactive)
REMARK    1  A    between atoms: C3_3  and  C7_7 
REMARK    2  A    between atoms: C3_3  and  C10_10 
ROOT
HETATM    1  C1  UNL     1     -33.761  18.520   0.813  1.00 20.00     0.012 C 
HETATM    2  C2  UNL     1     -34.058  17.715  -0.028  1.00 20.00    -0.110 C 
HETATM    3  C10 UNL     1     -34.422  16.727  -1.049  1.00 20.00     0.171 C 
ENDROOT
BRANCH   3   4
HETATM    4  C3  UNL     1     -34.155  17.220  -2.457  1.00 20.00     0.144 C 
HETATM    5  O11 UNL     1     -33.564  18.271  -2.701  1.00 20.00    -0.297 OA
BRANCH   4   6
HETATM    6  C7  UNL     1     -34.656  16.346  -3.566  1.00 20.00     0.087 C 
HETATM    7  C6  UNL     1     -35.119  14.987  -3.026  1.00 20.00     0.046 C 
HETATM    8  C8  UNL     1     -34.202  14.022  -3.778  1.00 20.00     0.122 C 
HETATM    9  C4  UNL     1     -34.573  13.960  -5.259  1.00 20.00     0.034 C 
HETATM   10  O12 UNL     1     -32.974  14.782  -3.826  1.00 20.00    -0.380 OA
HETATM   11  C5  UNL     1     -34.067  15.309  -5.774  1.00 20.00     0.035 C 
HETATM   12  C9  UNL     1     -33.510  15.946  -4.502  1.00 20.00     0.133 C 
ENDBRANCH   4   6
ENDBRANCH   3   4
TORSDOF 2
ENDMDL
MODEL 8
REMARK VINA RESULT:      -4.5     11.077     12.546
REMARK  2 active torsions:
REMARK  status: ('A' for Active; 'I' for Inactive)
REMARK    1  A    between atoms: C3_3  and  C7_7 
REMARK    2  A    between atoms: C3_3  and  C10_10 
ROOT
HETATM    1  C1  UNL     1     -34.169  17.214  -0.675  1.00 20.00     0.012 C 
HETATM    2  C2  UNL     1     -34.474  16.421  -1.524  1.00 20.00    -0.110 C 
HETATM    3  C10 UNL     1     -34.852  15.449  -2.556  1.00 20.00     0.171 C 
ENDROOT
BRANCH   3   4
HETATM    4  C3  UNL     1     -33.842  15.376  -3.684  1.00 20.00     0.144 C 
HETATM    5  O11 UNL     1     -32.672  15.032  -3.518  1.00 20.00    -0.297 OA
BRANCH   4   6
HETATM    6  C7  UNL     1     -34.346  15.752  -5.044  1.00 20.00     0.087 C 
HETATM    7  C6  UNL     1     -35.816  16.184  -4.983  1.00 20.00     0.046 C 
HETATM    8  C8  UNL     1     -36.481  15.169  -5.912  1.00 20.00     0.122 C 
HETATM    9  C4  UNL     1     -36.094  15.428  -7.369  1.00 20.00     0.034 C 
HETATM   10  O12 UNL     1     -35.712  13.980  -5.624  1.00 20.00    -0.380 OA
HETATM   11  C5  UNL     1     -34.640  14.954  -7.405  1.00 20.00     0.035 C 
HETATM   12  C9  UNL     1     -34.410  14.523  -5.957  1.00 20.00     0.133 C 
ENDBRANCH   4   6
ENDBRANCH   3   4
TORSDOF 2
ENDMDL
MODEL 9
REMARK VINA RESULT:      -4.4     10.930     12.472
REMARK  2 active torsions:
REMARK  status: ('A' for Active; 'I' for Inactive)
REMARK    1  A    between atoms: C3_3  and  C7_7 
REMARK    2  A    between atoms: C3_3  and  C10_10 
ROOT
HETATM    1  C1  UNL     1     -37.666  15.219  -7.622  1.00 20.00     0.012 C 
HETATM    2  C2  UNL     1     -36.560  14.839  -7.347  1.00 20.00    -0.110 C 
HETATM    3  C10 UNL     1     -35.207  14.376  -7.019  1.00 20.00     0.171 C 
ENDROOT
BRANCH   3   4
HETATM    4  C3  UNL     1     -35.060  14.001  -5.558  1.00 20.00     0.144 C 
HETATM    5  O11 UNL     1     -34.904  12.842  -5.173  1.00 20.00    -0.297 OA
BRANCH   4   6
HETATM    6  C7  UNL     1     -35.114  15.135  -4.580  1.00 20.00     0.087 C 
HETATM    7  C6  UNL     1     -34.309  16.336  -5.089  1.00 20.00     0.046 C 
HETATM    8  C8  UNL     1     -33.266  16.507  -3.985  1.00 20.00     0.122 C 
HETATM    9  C4  UNL     1     -33.911  17.030  -2.702  1.00 20.00     0.034 C 
HETATM   10  O12 UNL     1     -33.007  15.130  -3.628  1.00 20.00    -0.380 OA
HETATM   11  C5  UNL     1     -34.674  15.801  -2.201  1.00 20.00     0.035 C 
HETATM   12  C9  UNL     1     -34.370  14.773  -3.289  1.00 20.00     0.133 C 
ENDBRANCH   4   6
ENDBRANCH   3   4
TORSDOF 2
ENDMDL
