MODEL 1
REMARK VINA RESULT:      -4.0      0.000      0.000
REMARK  4 active torsions:
REMARK  status: ('A' for Active; 'I' for Inactive)
REMARK    1  A    between atoms: C1_1  and  C3_3 
REMARK    2  A    between atoms: C1_1  and  C7_7 
REMARK    3  A    between atoms: C7_7  and  C8_8 
REMARK    4  A    between atoms: C8_8  and  S10_10 
ROOT
HETATM    1  C1  UNL     1     -33.503  15.118  -3.595  1.00 20.00     0.132 C 
HETATM    2  O9  UNL     1     -32.599  15.807  -4.067  1.00 20.00    -0.298 OA
ENDROOT
BRANCH   1   3
HETATM    3  C3  UNL     1     -34.529  15.710  -2.663  1.00 20.00     0.059 A 
HETATM    4  C2  UNL     1     -35.014  17.087  -2.942  1.00 20.00     0.017 A 
HETATM    5  C4  UNL     1     -34.097  16.834  -1.774  1.00 20.00    -0.007 A 
HETATM    6  C5  UNL     1     -34.621  16.899  -0.381  1.00 20.00     0.011 C 
ENDBRANCH   1   3
BRANCH   1   7
HETATM    7  C7  UNL     1     -33.617  13.640  -3.916  1.00 20.00     0.088 C 
BRANCH   7   8
HETATM    8  C8  UNL     1     -34.878  13.280  -4.688  1.00 20.00     0.081 C 
BRANCH   8   9
HETATM    9  S10 UNL     1     -35.062  14.276  -6.199  1.00 20.00    -0.173 SA
HETATM   10  C6  UNL     1     -36.595  15.126  -5.765  1.00 20.00     0.089 C 
ENDBRANCH   8   9
ENDBRANCH   7   8
ENDBRANCH   1   7
TORSDOF 4
ENDMDL
MODEL 2
REMARK VINA RESULT:      -4.0     11.177     11.977
REMARK  4 active torsions:
REMARK  status: ('A' for Active; 'I' for Inactive)
REMARK    1  A    between atoms: C1_1  and  C3_3 
REMARK    2  A    between atoms: C1_1  and  C7_7 
REMARK    3  A    between atoms: C7_7  and  C8_8 
REMARK    4  A    between atoms: C8_8  and  S10_10 
ROOT
HETATM    1  C1  UNL     1     -33.641   5.780   3.250  1.00 20.00     0.132 C 
HETATM    2  O9  UNL     1     -34.110   5.344   2.198  1.00 20.00    -0.298 OA
ENDROOT
BRANCH   1   3
HETATM    3  C3  UNL     1     -34.479   5.872   4.498  1.00 20.00     0.059 A 
HETATM    4  C2  UNL     1     -33.836   6.390   5.735  1.00 20.00     0.017 A 
HETATM    5  C4  UNL     1     -34.170   4.926   5.617  1.00 20.00    -0.007 A 
HETATM    6  C5  UNL     1     -35.291   4.346   6.407  1.00 20.00     0.011 C 
ENDBRANCH   1   3
BRANCH   1   7
HETATM    7  C7  UNL     1     -32.204   6.258   3.332  1.00 20.00     0.088 C 
BRANCH   7   8
HETATM    8  C8  UNL     1     -32.052   7.762   3.144  1.00 20.00     0.081 C 
BRANCH   8   9
HETATM    9  S10 UNL     1     -31.912   8.220   1.390  1.00 20.00    -0.173 SA
HETATM   10  C6  UNL     1     -32.538   9.910   1.512  1.00 20.00     0.089 C 
ENDBRANCH   8   9
ENDBRANCH   7   8
ENDBRANCH   1   7
TORSDOF 4
ENDMDL
MODEL 3
REMARK VINA RESULT:      -4.0      2.525      4.353
REMARK  4 active torsions:
REMARK  status: ('A' for Active; 'I' for Inactive)
REMARK    1  A    between atoms: C1_1  and  C3_3 
REMARK    2  A    between atoms: C1_1  and  C7_7 
REMARK    3  A    between atoms: C7_7  and  C8_8 
REMARK    4  A    between atoms: C8_8  and  S10_10 
ROOT
HETATM    1  C1  UNL     1     -34.783  13.751  -4.755  1.00 20.00     0.132 C 
HETATM    2  O9  UNL     1     -34.829  12.544  -4.995  1.00 20.00    -0.298 OA
ENDROOT
BRANCH   1   3
HETATM    3  C3  UNL     1     -35.251  14.765  -5.767  1.00 20.00     0.059 A 
HETATM    4  C2  UNL     1     -35.037  14.466  -7.207  1.00 20.00     0.017 A 
HETATM    5  C4  UNL     1     -34.208  15.523  -6.527  1.00 20.00    -0.007 A 
HETATM    6  C5  UNL     1     -34.435  16.964  -6.829  1.00 20.00     0.011 C 
ENDBRANCH   1   3
BRANCH   1   7
HETATM    7  C7  UNL     1     -34.239  14.272  -3.439  1.00 20.00     0.088 C 
BRANCH   7   8
HETATM    8  C8  UNL     1     -35.032  15.441  -2.873  1.00 20.00     0.081 C 
BRANCH   8   9
HETATM    9  S10 UNL     1     -33.950  16.754  -2.229  1.00 20.00    -0.173 SA
HETATM   10  C6  UNL     1     -34.627  16.853  -0.558  1.00 20.00     0.089 C 
ENDBRANCH   8   9
ENDBRANCH   7   8
ENDBRANCH   1   7
TORSDOF 4
ENDMDL
MODEL 4
REMARK VINA RESULT:      -3.9     11.662     12.403
REMARK  4 active torsions:
REMARK  status: ('A' for Active; 'I' for Inactive)
REMARK    1  A    between atoms: C1_1  and  C3_3 
REMARK    2  A    between atoms: C1_1  and  C7_7 
REMARK    3  A    between atoms: C7_7  and  C8_8 
REMARK    4  A    between atoms: C8_8  and  S10_10 
ROOT
HETATM    1  C1  UNL     1     -34.580   5.512   3.871  1.00 20.00     0.132 C 
HETATM    2  O9  UNL     1     -35.790   5.329   3.735  1.00 20.00    -0.298 OA
ENDROOT
BRANCH   1   3
HETATM    3  C3  UNL     1     -33.940   5.518   5.235  1.00 20.00     0.059 A 
HETATM    4  C2  UNL     1     -34.793   5.195   6.408  1.00 20.00     0.017 A 
HETATM    5  C4  UNL     1     -34.329   6.609   6.183  1.00 20.00    -0.007 A 
HETATM    6  C5  UNL     1     -33.289   7.207   7.065  1.00 20.00     0.011 C 
ENDBRANCH   1   3
BRANCH   1   7
HETATM    7  C7  UNL     1     -33.682   5.756   2.673  1.00 20.00     0.088 C 
BRANCH   7   8
HETATM    8  C8  UNL     1     -32.216   5.947   3.040  1.00 20.00     0.081 C 
BRANCH   8   9
HETATM    9  S10 UNL     1     -31.810   7.693   3.348  1.00 20.00    -0.173 SA
HETATM   10  C6  UNL     1     -32.030   8.311   1.665  1.00 20.00     0.089 C 
ENDBRANCH   8   9
ENDBRANCH   7   8
ENDBRANCH   1   7
TORSDOF 4
ENDMDL
MODEL 5
REMARK VINA RESULT:      -3.9      1.133      1.338
REMARK  4 active torsions:
REMARK  status: ('A' for Active; 'I' for Inactive)
REMARK    1  A    between atoms: C1_1  and  C3_3 
REMARK    2  A    between atoms: C1_1  and  C7_7 
REMARK    3  A    between atoms: C7_7  and  C8_8 
REMARK    4  A    between atoms: C8_8  and  S10_10 
ROOT
HETATM    1  C1  UNL     1     -33.319  16.229  -4.005  1.00 20.00     0.132 C 
HETATM    2  O9  UNL     1     -32.980  16.787  -5.048  1.00 20.00    -0.298 OA
ENDROOT
BRANCH   1   3
HETATM    3  C3  UNL     1     -34.205  16.921  -3.002  1.00 20.00     0.059 A 
HETATM    4  C2  UNL     1     -33.758  18.232  -2.463  1.00 20.00     0.017 A 
HETATM    5  C4  UNL     1     -33.721  17.008  -1.588  1.00 20.00    -0.007 A 
HETATM    6  C5  UNL     1     -34.699  16.851  -0.475  1.00 20.00     0.011 C 
ENDBRANCH   1   3
BRANCH   1   7
HETATM    7  C7  UNL     1     -32.848  14.825  -3.674  1.00 20.00     0.088 C 
BRANCH   7   8
HETATM    8  C8  UNL     1     -33.985  13.828  -3.494  1.00 20.00     0.081 C 
BRANCH   8   9
HETATM    9  S10 UNL     1     -35.046  13.727  -4.968  1.00 20.00    -0.173 SA
HETATM   10  C6  UNL     1     -36.576  14.342  -4.230  1.00 20.00     0.089 C 
ENDBRANCH   8   9
ENDBRANCH   7   8
ENDBRANCH   1   7
TORSDOF 4
ENDMDL
MODEL 6
REMARK VINA RESULT:      -3.9      1.874      1.945
REMARK  4 active torsions:
REMARK  status: ('A' for Active; 'I' for Inactive)
REMARK    1  A    between atoms: C1_1  and  C3_3 
REMARK    2  A    between atoms: C1_1  and  C7_7 
REMARK    3  A    between atoms: C7_7  and  C8_8 
REMARK    4  A    between atoms: C8_8  and  S10_10 
ROOT
HETATM    1  C1  UNL     1     -35.908  14.819  -3.399  1.00 20.00     0.132 C 
HETATM    2  O9  UNL     1     -37.064  14.484  -3.659  1.00 20.00    -0.298 OA
ENDROOT
BRANCH   1   3
HETATM    3  C3  UNL     1     -35.611  16.122  -2.704  1.00 20.00     0.059 A 
HETATM    4  C2  UNL     1     -34.329  16.805  -3.019  1.00 20.00     0.017 A 
HETATM    5  C4  UNL     1     -34.514  16.134  -1.684  1.00 20.00    -0.007 A 
HETATM    6  C5  UNL     1     -34.681  16.950  -0.450  1.00 20.00     0.011 C 
ENDBRANCH   1   3
BRANCH   1   7
HETATM    7  C7  UNL     1     -34.730  13.943  -3.782  1.00 20.00     0.088 C 
BRANCH   7   8
HETATM    8  C8  UNL     1     -34.731  13.528  -5.247  1.00 20.00     0.081 C 
BRANCH   8   9
HETATM    9  S10 UNL     1     -34.503  14.949  -6.359  1.00 20.00    -0.173 SA
HETATM   10  C6  UNL     1     -35.647  14.444  -7.663  1.00 20.00     0.089 C 
ENDBRANCH   8   9
ENDBRANCH   7   8
ENDBRANCH   1   7
TORSDOF 4
ENDMDL
MODEL 7
REMARK VINA RESULT:      -3.8      1.965      2.395
REMARK  4 active torsions:
REMARK  status: ('A' for Active; 'I' for Inactive)
REMARK    1  A    between atoms: C1_1  and  C3_3 
REMARK    2  A    between atoms: C1_1  and  C7_7 
REMARK    3  A    between atoms: C7_7  and  C8_8 
REMARK    4  A    between atoms: C8_8  and  S10_10 
ROOT
HETATM    1  C1  UNL     1     -34.674  13.764  -4.775  1.00 20.00     0.132 C 
HETATM    2  O9  UNL     1     -34.778  12.543  -4.896  1.00 20.00    -0.298 OA
ENDROOT
BRANCH   1   3
HETATM    3  C3  UNL     1     -34.787  14.426  -3.426  1.00 20.00     0.059 A 
HETATM    4  C2  UNL     1     -35.954  15.312  -3.179  1.00 20.00     0.017 A 
HETATM    5  C4  UNL     1     -34.583  15.907  -3.357  1.00 20.00    -0.007 A 
HETATM    6  C5  UNL     1     -33.858  16.486  -2.192  1.00 20.00     0.011 C 
ENDBRANCH   1   3
BRANCH   1   7
HETATM    7  C7  UNL     1     -34.443  14.658  -5.978  1.00 20.00     0.088 C 
BRANCH   7   8
HETATM    8  C8  UNL     1     -35.415  14.402  -7.122  1.00 20.00     0.081 C 
BRANCH   8   9
HETATM    9  S10 UNL     1     -36.982  15.299  -6.900  1.00 20.00    -0.173 SA
HETATM   10  C6  UNL     1     -36.299  16.937  -6.567  1.00 20.00     0.089 C 
ENDBRANCH   8   9
ENDBRANCH   7   8
ENDBRANCH   1   7
TORSDOF 4
ENDMDL
MODEL 8
REMARK VINA RESULT:      -3.7     11.201     12.155
REMARK  4 active torsions:
REMARK  status: ('A' for Active; 'I' for Inactive)
REMARK    1  A    between atoms: C1_1  and  C3_3 
REMARK    2  A    between atoms: C1_1  and  C7_7 
REMARK    3  A    between atoms: C7_7  and  C8_8 
REMARK    4  A    between atoms: C8_8  and  S10_10 
ROOT
HETATM    1  C1  UNL     1     -33.590   5.749   2.782  1.00 20.00     0.132 C 
HETATM    2  O9  UNL     1     -33.887   4.756   2.117  1.00 20.00    -0.298 OA
ENDROOT
BRANCH   1   3
HETATM    3  C3  UNL     1     -32.338   6.535   2.494  1.00 20.00     0.059 A 
HETATM    4  C2  UNL     1     -31.826   7.446   3.552  1.00 20.00     0.017 A 
HETATM    5  C4  UNL     1     -32.469   8.016   2.316  1.00 20.00    -0.007 A 
HETATM    6  C5  UNL     1     -31.640   8.699   1.285  1.00 20.00     0.011 C 
ENDBRANCH   1   3
BRANCH   1   7
HETATM    7  C7  UNL     1     -34.464   6.216   3.931  1.00 20.00     0.088 C 
BRANCH   7   8
HETATM    8  C8  UNL     1     -35.203   5.085   4.632  1.00 20.00     0.081 C 
BRANCH   8   9
HETATM    9  S10 UNL     1     -34.721   4.933   6.379  1.00 20.00    -0.173 SA
HETATM   10  C6  UNL     1     -33.937   6.548   6.574  1.00 20.00     0.089 C 
ENDBRANCH   8   9
ENDBRANCH   7   8
ENDBRANCH   1   7
TORSDOF 4
ENDMDL
MODEL 9
REMARK VINA RESULT:      -3.7      2.261      3.077
REMARK  4 active torsions:
REMARK  status: ('A' for Active; 'I' for Inactive)
REMARK    1  A    between atoms: C1_1  and  C3_3 
REMARK    2  A    between atoms: C1_1  and  C7_7 
REMARK    3  A    between atoms: C7_7  and  C8_8 
REMARK    4  A    between atoms: C8_8  and  S10_10 
ROOT
HETATM    1  C1  UNL     1     -34.672  13.750  -5.266  1.00 20.00     0.132 C 
HETATM    2  O9  UNL     1     -34.897  12.613  -4.850  1.00 20.00    -0.298 OA
ENDROOT
BRANCH   1   3
HETATM    3  C3  UNL     1     -33.804  14.707  -4.491  1.00 20.00     0.059 A 
HETATM    4  C2  UNL     1     -32.889  14.143  -3.463  1.00 20.00     0.017 A 
HETATM    5  C4  UNL     1     -34.113  14.910  -3.040  1.00 20.00    -0.007 A 
HETATM    6  C5  UNL     1     -33.980  16.273  -2.455  1.00 20.00     0.011 C 
ENDBRANCH   1   3
BRANCH   1   7
HETATM    7  C7  UNL     1     -35.273  14.246  -6.568  1.00 20.00     0.088 C 
BRANCH   7   8
HETATM    8  C8  UNL     1     -34.489  15.385  -7.205  1.00 20.00     0.081 C 
BRANCH   8   9
HETATM    9  S10 UNL     1     -35.382  16.966  -7.111  1.00 20.00    -0.173 SA
HETATM   10  C6  UNL     1     -34.086  17.951  -6.329  1.00 20.00     0.089 C 
ENDBRANCH   8   9
ENDBRANCH   7   8
ENDBRANCH   1   7
TORSDOF 4
ENDMDL
