MODEL 1
REMARK VINA RESULT:      -4.0      0.000      0.000
REMARK  1 active torsions:
REMARK  status: ('A' for Active; 'I' for Inactive)
REMARK    1  A    between atoms: C4_4  and  C5_5 
ROOT
HETATM    1  C1  UNL     1     -35.280   5.523   3.789  1.00 20.00     0.016 C 
HETATM    2  C2  UNL     1     -35.114   4.215   4.547  1.00 20.00     0.074 C 
HETATM    3  C3  UNL     1     -34.066   6.397   5.717  1.00 20.00     0.079 C 
HETATM    4  C4  UNL     1     -34.131   6.449   4.192  1.00 20.00     0.009 C 
HETATM    5  S6  UNL     1     -34.493   4.692   6.182  1.00 20.00    -0.169 SA
ENDROOT
BRANCH   4   6
HETATM    6  C5  UNL     1     -32.804   6.061   3.537  1.00 20.00     0.120 C 
HETATM    7 CL7  UNL     1     -32.138   7.436   2.637  1.00 20.00    -0.130 Cl
ENDBRANCH   4   6
TORSDOF 1
ENDMDL
MODEL 2
REMARK VINA RESULT:      -3.4     12.074     12.642
REMARK  1 active torsions:
REMARK  status: ('A' for Active; 'I' for Inactive)
REMARK    1  A    between atoms: C4_4  and  C5_5 
ROOT
HETATM    1  C1  UNL     1     -33.641  13.666  -3.788  1.00 20.00     0.016 C 
HETATM    2  C2  UNL     1     -34.639  13.299  -4.873  1.00 20.00     0.074 C 
HETATM    3  C3  UNL     1     -33.742  15.833  -4.906  1.00 20.00     0.079 C 
HETATM    4  C4  UNL     1     -33.757  15.169  -3.530  1.00 20.00     0.009 C 
HETATM    5  S6  UNL     1     -34.629  14.702  -6.020  1.00 20.00    -0.169 SA
ENDROOT
BRANCH   4   6
HETATM    6  C5  UNL     1     -35.003  15.533  -2.719  1.00 20.00     0.120 C 
HETATM    7 CL7  UNL     1     -34.539  16.356  -1.218  1.00 20.00    -0.130 Cl
ENDBRANCH   4   6
TORSDOF 1
ENDMDL
MODEL 3
REMARK VINA RESULT:      -3.2     12.153     12.692
REMARK  1 active torsions:
REMARK  status: ('A' for Active; 'I' for Inactive)
REMARK    1  A    between atoms: C4_4  and  C5_5 
ROOT
HETATM    1  C1  UNL     1     -34.679  15.578  -2.695  1.00 20.00     0.016 C 
HETATM    2  C2  UNL     1     -35.821  14.997  -3.513  1.00 20.00     0.074 C 
HETATM    3  C3  UNL     1     -33.415  13.853  -3.869  1.00 20.00     0.079 C 
HETATM    4  C4  UNL     1     -33.378  15.323  -3.456  1.00 20.00     0.009 C 
HETATM    5  S6  UNL     1     -35.154  13.479  -4.245  1.00 20.00    -0.169 SA
ENDROOT
BRANCH   4   6
HETATM    6  C5  UNL     1     -33.200  16.262  -4.651  1.00 20.00     0.120 C 
HETATM    7 CL7  UNL     1     -33.638  17.921  -4.199  1.00 20.00    -0.130 Cl
ENDBRANCH   4   6
TORSDOF 1
ENDMDL
MODEL 4
REMARK VINA RESULT:      -3.1     12.150     12.655
REMARK  1 active torsions:
REMARK  status: ('A' for Active; 'I' for Inactive)
REMARK    1  A    between atoms: C4_4  and  C5_5 
ROOT
HETATM    1  C1  UNL     1     -36.272  14.595  -3.843  1.00 20.00     0.016 C 
HETATM    2  C2  UNL     1     -36.289  15.240  -5.220  1.00 20.00     0.074 C 
HETATM    3  C3  UNL     1     -34.265  13.536  -4.742  1.00 20.00     0.079 C 
HETATM    4  C4  UNL     1     -34.823  14.242  -3.507  1.00 20.00     0.009 C 
HETATM    5  S6  UNL     1     -35.033  14.348  -6.176  1.00 20.00    -0.169 SA
ENDROOT
BRANCH   4   6
HETATM    6  C5  UNL     1     -33.995  15.467  -3.110  1.00 20.00     0.120 C 
HETATM    7 CL7  UNL     1     -34.601  16.151  -1.591  1.00 20.00    -0.130 Cl
ENDBRANCH   4   6
TORSDOF 1
ENDMDL
MODEL 5
REMARK VINA RESULT:      -3.1     12.593     13.128
REMARK  1 active torsions:
REMARK  status: ('A' for Active; 'I' for Inactive)
REMARK    1  A    between atoms: C4_4  and  C5_5 
ROOT
HETATM    1  C1  UNL     1     -34.718  14.883  -3.145  1.00 20.00     0.016 C 
HETATM    2  C2  UNL     1     -35.766  15.480  -4.070  1.00 20.00     0.074 C 
HETATM    3  C3  UNL     1     -33.227  16.244  -4.517  1.00 20.00     0.079 C 
HETATM    4  C4  UNL     1     -33.543  15.859  -3.072  1.00 20.00     0.009 C 
HETATM    5  S6  UNL     1     -34.825  16.303  -5.382  1.00 20.00    -0.169 SA
ENDROOT
BRANCH   4   6
HETATM    6  C5  UNL     1     -33.842  17.077  -2.195  1.00 20.00     0.120 C 
HETATM    7 CL7  UNL     1     -34.645  16.571  -0.696  1.00 20.00    -0.130 Cl
ENDBRANCH   4   6
TORSDOF 1
ENDMDL
MODEL 6
REMARK VINA RESULT:      -3.0     12.142     12.704
REMARK  1 active torsions:
REMARK  status: ('A' for Active; 'I' for Inactive)
REMARK    1  A    between atoms: C4_4  and  C5_5 
ROOT
HETATM    1  C1  UNL     1     -33.501  13.671  -3.791  1.00 20.00     0.016 C 
HETATM    2  C2  UNL     1     -32.990  15.099  -3.688  1.00 20.00     0.074 C 
HETATM    3  C3  UNL     1     -35.655  14.786  -3.529  1.00 20.00     0.079 C 
HETATM    4  C4  UNL     1     -34.926  13.719  -4.344  1.00 20.00     0.009 C 
HETATM    5  S6  UNL     1     -34.427  16.080  -3.178  1.00 20.00    -0.169 SA
ENDROOT
BRANCH   4   6
HETATM    6  C5  UNL     1     -34.965  14.003  -5.847  1.00 20.00     0.120 C 
HETATM    7 CL7  UNL     1     -36.377  15.000  -6.247  1.00 20.00    -0.130 Cl
ENDBRANCH   4   6
TORSDOF 1
ENDMDL
MODEL 7
REMARK VINA RESULT:      -3.0      9.499      9.945
REMARK  1 active torsions:
REMARK  status: ('A' for Active; 'I' for Inactive)
REMARK    1  A    between atoms: C4_4  and  C5_5 
ROOT
HETATM    1  C1  UNL     1     -41.065   6.411  -1.150  1.00 20.00     0.016 C 
HETATM    2  C2  UNL     1     -42.396   7.010  -0.728  1.00 20.00     0.074 C 
HETATM    3  C3  UNL     1     -41.901   4.513   0.135  1.00 20.00     0.079 C 
HETATM    4  C4  UNL     1     -41.221   4.890  -1.180  1.00 20.00     0.009 C 
HETATM    5  S6  UNL     1     -43.061   5.862   0.508  1.00 20.00    -0.169 SA
ENDROOT
BRANCH   4   6
HETATM    6  C5  UNL     1     -42.001   4.402  -2.403  1.00 20.00     0.120 C 
HETATM    7 CL7  UNL     1     -41.380   2.830  -2.940  1.00 20.00    -0.130 Cl
ENDBRANCH   4   6
TORSDOF 1
ENDMDL
MODEL 8
REMARK VINA RESULT:      -3.0      9.260      9.910
REMARK  1 active torsions:
REMARK  status: ('A' for Active; 'I' for Inactive)
REMARK    1  A    between atoms: C4_4  and  C5_5 
ROOT
HETATM    1  C1  UNL     1     -41.513   4.715   0.046  1.00 20.00     0.016 C 
HETATM    2  C2  UNL     1     -43.003   4.437   0.168  1.00 20.00     0.074 C 
HETATM    3  C3  UNL     1     -41.866   3.768  -2.175  1.00 20.00     0.079 C 
HETATM    4  C4  UNL     1     -41.192   4.922  -1.434  1.00 20.00     0.009 C 
HETATM    5  S6  UNL     1     -43.417   3.437  -1.286  1.00 20.00    -0.169 SA
ENDROOT
BRANCH   4   6
HETATM    6  C5  UNL     1     -41.643   6.290  -1.950  1.00 20.00     0.120 C 
HETATM    7 CL7  UNL     1     -41.162   7.564  -0.813  1.00 20.00    -0.130 Cl
ENDBRANCH   4   6
TORSDOF 1
ENDMDL
MODEL 9
REMARK VINA RESULT:      -2.9     12.609     13.111
REMARK  1 active torsions:
REMARK  status: ('A' for Active; 'I' for Inactive)
REMARK    1  A    between atoms: C4_4  and  C5_5 
ROOT
HETATM    1  C1  UNL     1     -35.337  13.450  -4.132  1.00 20.00     0.016 C 
HETATM    2  C2  UNL     1     -36.510  14.417  -4.137  1.00 20.00     0.074 C 
HETATM    3  C3  UNL     1     -34.799  14.628  -6.200  1.00 20.00     0.079 C 
HETATM    4  C4  UNL     1     -34.188  14.100  -4.903  1.00 20.00     0.009 C 
HETATM    5  S6  UNL     1     -36.472  15.198  -5.773  1.00 20.00    -0.169 SA
ENDROOT
BRANCH   4   6
HETATM    6  C5  UNL     1     -33.485  15.197  -4.099  1.00 20.00     0.120 C 
HETATM    7 CL7  UNL     1     -33.134  16.590  -5.139  1.00 20.00    -0.130 Cl
ENDBRANCH   4   6
TORSDOF 1
ENDMDL
