MODEL 1
REMARK VINA RESULT:      -5.0      0.000      0.000
REMARK  3 active torsions:
REMARK  status: ('A' for Active; 'I' for Inactive)
REMARK    1  A    between atoms: C1_1  and  C7_7 
REMARK    2  A    between atoms: C1_1  and  C9_9 
REMARK    3  A    between atoms: C8_8  and  C9_9 
ROOT
HETATM    1  C1  UNL     1     -32.454   6.504   3.401  1.00 20.00     0.141 C 
HETATM    2  O10 UNL     1     -31.783   5.490   3.219  1.00 20.00    -0.297 OA
ENDROOT
BRANCH   1   3
HETATM    3  C7  UNL     1     -33.829   6.423   3.972  1.00 20.00     0.116 C 
HETATM    4  C3  UNL     1     -34.556   5.151   3.559  1.00 20.00     0.024 C 
HETATM    5  C2  UNL     1     -35.589   4.872   4.641  1.00 20.00     0.012 C 
HETATM    6  C6  UNL     1     -34.853   4.947   5.968  1.00 20.00     0.075 C 
HETATM    7  S11 UNL     1     -33.698   6.333   5.781  1.00 20.00    -0.157 SA
ENDBRANCH   1   3
BRANCH   1   8
HETATM    8  C9  UNL     1     -31.952   7.897   3.068  1.00 20.00     0.084 C 
BRANCH   8   9
HETATM    9  C8  UNL     1     -32.552   8.443   1.786  1.00 20.00    -0.007 A 
HETATM   10  C4  UNL     1     -32.394   9.895   1.432  1.00 20.00     0.005 A 
HETATM   11  C5  UNL     1     -31.660   8.847   0.644  1.00 20.00     0.005 A 
ENDBRANCH   8   9
ENDBRANCH   1   8
TORSDOF 3
ENDMDL
MODEL 2
REMARK VINA RESULT:      -4.5     11.067     11.915
REMARK  3 active torsions:
REMARK  status: ('A' for Active; 'I' for Inactive)
REMARK    1  A    between atoms: C1_1  and  C7_7 
REMARK    2  A    between atoms: C1_1  and  C9_9 
REMARK    3  A    between atoms: C8_8  and  C9_9 
ROOT
HETATM    1  C1  UNL     1     -33.886  16.566  -2.992  1.00 20.00     0.141 C 
HETATM    2  O10 UNL     1     -33.674  17.717  -3.369  1.00 20.00    -0.297 OA
ENDROOT
BRANCH   1   3
HETATM    3  C7  UNL     1     -33.556  15.400  -3.862  1.00 20.00     0.116 C 
HETATM    4  C3  UNL     1     -34.335  14.151  -3.479  1.00 20.00     0.024 C 
HETATM    5  C2  UNL     1     -34.422  13.294  -4.734  1.00 20.00     0.012 C 
HETATM    6  C6  UNL     1     -34.917  14.205  -5.844  1.00 20.00     0.075 C 
HETATM    7  S11 UNL     1     -34.072  15.784  -5.560  1.00 20.00    -0.157 SA
ENDBRANCH   1   3
BRANCH   1   8
HETATM    8  C9  UNL     1     -34.487  16.239  -1.638  1.00 20.00     0.084 C 
BRANCH   8   9
HETATM    9  C8  UNL     1     -34.813  17.481  -0.829  1.00 20.00    -0.007 A 
HETATM   10  C4  UNL     1     -35.066  17.378   0.650  1.00 20.00     0.005 A 
HETATM   11  C5  UNL     1     -33.811  18.033   0.147  1.00 20.00     0.005 A 
ENDBRANCH   8   9
ENDBRANCH   1   8
TORSDOF 3
ENDMDL
MODEL 3
REMARK VINA RESULT:      -4.5     10.780     12.105
REMARK  3 active torsions:
REMARK  status: ('A' for Active; 'I' for Inactive)
REMARK    1  A    between atoms: C1_1  and  C7_7 
REMARK    2  A    between atoms: C1_1  and  C9_9 
REMARK    3  A    between atoms: C8_8  and  C9_9 
ROOT
HETATM    1  C1  UNL     1     -34.926  13.698  -4.739  1.00 20.00     0.141 C 
HETATM    2  O10 UNL     1     -34.461  12.564  -4.846  1.00 20.00    -0.297 OA
ENDROOT
BRANCH   1   3
HETATM    3  C7  UNL     1     -34.858  14.436  -3.445  1.00 20.00     0.116 C 
HETATM    4  C3  UNL     1     -33.570  15.232  -3.296  1.00 20.00     0.024 C 
HETATM    5  C2  UNL     1     -33.876  16.375  -2.339  1.00 20.00     0.012 C 
HETATM    6  C6  UNL     1     -35.142  17.039  -2.852  1.00 20.00     0.075 C 
HETATM    7  S11 UNL     1     -36.190  15.670  -3.414  1.00 20.00    -0.157 SA
ENDBRANCH   1   3
BRANCH   1   8
HETATM    8  C9  UNL     1     -35.594  14.428  -5.889  1.00 20.00     0.084 C 
BRANCH   8   9
HETATM    9  C8  UNL     1     -34.593  15.029  -6.859  1.00 20.00    -0.007 A 
HETATM   10  C4  UNL     1     -35.046  16.005  -7.909  1.00 20.00     0.005 A 
HETATM   11  C5  UNL     1     -34.212  16.480  -6.753  1.00 20.00     0.005 A 
ENDBRANCH   8   9
ENDBRANCH   1   8
TORSDOF 3
ENDMDL
MODEL 4
REMARK VINA RESULT:      -4.5     11.170     12.033
REMARK  3 active torsions:
REMARK  status: ('A' for Active; 'I' for Inactive)
REMARK    1  A    between atoms: C1_1  and  C7_7 
REMARK    2  A    between atoms: C1_1  and  C9_9 
REMARK    3  A    between atoms: C8_8  and  C9_9 
ROOT
HETATM    1  C1  UNL     1     -33.681  16.710  -3.830  1.00 20.00     0.141 C 
HETATM    2  O10 UNL     1     -33.369  17.428  -4.779  1.00 20.00    -0.297 OA
ENDROOT
BRANCH   1   3
HETATM    3  C7  UNL     1     -34.453  17.255  -2.676  1.00 20.00     0.116 C 
HETATM    4  C3  UNL     1     -34.559  16.263  -1.528  1.00 20.00     0.024 C 
HETATM    5  C2  UNL     1     -34.757  17.085  -0.263  1.00 20.00     0.012 C 
HETATM    6  C6  UNL     1     -33.675  18.151  -0.268  1.00 20.00     0.075 C 
HETATM    7  S11 UNL     1     -33.549  18.676  -1.999  1.00 20.00    -0.157 SA
ENDBRANCH   1   3
BRANCH   1   8
HETATM    8  C9  UNL     1     -33.317  15.239  -3.755  1.00 20.00     0.084 C 
BRANCH   8   9
HETATM    9  C8  UNL     1     -34.086  14.395  -4.755  1.00 20.00    -0.007 A 
HETATM   10  C4  UNL     1     -35.026  13.322  -4.278  1.00 20.00     0.005 A 
HETATM   11  C5  UNL     1     -35.572  14.571  -4.910  1.00 20.00     0.005 A 
ENDBRANCH   8   9
ENDBRANCH   1   8
TORSDOF 3
ENDMDL
MODEL 5
REMARK VINA RESULT:      -4.5      1.400      1.752
REMARK  3 active torsions:
REMARK  status: ('A' for Active; 'I' for Inactive)
REMARK    1  A    between atoms: C1_1  and  C7_7 
REMARK    2  A    between atoms: C1_1  and  C9_9 
REMARK    3  A    between atoms: C8_8  and  C9_9 
ROOT
HETATM    1  C1  UNL     1     -32.197   7.039   3.558  1.00 20.00     0.141 C 
HETATM    2  O10 UNL     1     -31.331   7.671   4.162  1.00 20.00    -0.297 OA
ENDROOT
BRANCH   1   3
HETATM    3  C7  UNL     1     -32.913   5.904   4.208  1.00 20.00     0.116 C 
HETATM    4  C3  UNL     1     -33.700   6.340   5.435  1.00 20.00     0.024 C 
HETATM    5  C2  UNL     1     -34.829   5.333   5.605  1.00 20.00     0.012 C 
HETATM    6  C6  UNL     1     -35.507   5.214   4.251  1.00 20.00     0.075 C 
HETATM    7  S11 UNL     1     -34.152   5.263   3.046  1.00 20.00    -0.157 SA
ENDBRANCH   1   3
BRANCH   1   8
HETATM    8  C9  UNL     1     -32.603   7.354   2.130  1.00 20.00     0.084 C 
BRANCH   8   9
HETATM    9  C8  UNL     1     -31.892   8.576   1.577  1.00 20.00    -0.007 A 
HETATM   10  C4  UNL     1     -32.368   9.220   0.305  1.00 20.00     0.005 A 
HETATM   11  C5  UNL     1     -32.559   9.923   1.619  1.00 20.00     0.005 A 
ENDBRANCH   8   9
ENDBRANCH   1   8
TORSDOF 3
ENDMDL
MODEL 6
REMARK VINA RESULT:      -4.4     10.770     12.345
REMARK  3 active torsions:
REMARK  status: ('A' for Active; 'I' for Inactive)
REMARK    1  A    between atoms: C1_1  and  C7_7 
REMARK    2  A    between atoms: C1_1  and  C9_9 
REMARK    3  A    between atoms: C8_8  and  C9_9 
ROOT
HETATM    1  C1  UNL     1     -34.745  13.973  -4.422  1.00 20.00     0.141 C 
HETATM    2  O10 UNL     1     -34.979  12.781  -4.622  1.00 20.00    -0.297 OA
ENDROOT
BRANCH   1   3
HETATM    3  C7  UNL     1     -35.055  15.000  -5.458  1.00 20.00     0.116 C 
HETATM    4  C3  UNL     1     -34.510  14.627  -6.828  1.00 20.00     0.024 C 
HETATM    5  C2  UNL     1     -35.383  15.340  -7.850  1.00 20.00     0.012 C 
HETATM    6  C6  UNL     1     -36.822  15.028  -7.479  1.00 20.00     0.075 C 
HETATM    7  S11 UNL     1     -36.857  15.083  -5.666  1.00 20.00    -0.157 SA
ENDBRANCH   1   3
BRANCH   1   8
HETATM    8  C9  UNL     1     -34.135  14.488  -3.133  1.00 20.00     0.084 C 
BRANCH   8   9
HETATM    9  C8  UNL     1     -34.623  15.879  -2.771  1.00 20.00    -0.007 A 
HETATM   10  C4  UNL     1     -34.717  16.299  -1.330  1.00 20.00     0.005 A 
HETATM   11  C5  UNL     1     -33.665  16.898  -2.219  1.00 20.00     0.005 A 
ENDBRANCH   8   9
ENDBRANCH   1   8
TORSDOF 3
ENDMDL
MODEL 7
REMARK VINA RESULT:      -4.3     11.119     12.474
REMARK  3 active torsions:
REMARK  status: ('A' for Active; 'I' for Inactive)
REMARK    1  A    between atoms: C1_1  and  C7_7 
REMARK    2  A    between atoms: C1_1  and  C9_9 
REMARK    3  A    between atoms: C8_8  and  C9_9 
ROOT
HETATM    1  C1  UNL     1     -35.847  14.688  -3.928  1.00 20.00     0.141 C 
HETATM    2  O10 UNL     1     -36.863  14.005  -3.803  1.00 20.00    -0.297 OA
ENDROOT
BRANCH   1   3
HETATM    3  C7  UNL     1     -35.506  15.326  -5.232  1.00 20.00     0.116 C 
HETATM    4  C3  UNL     1     -34.590  14.459  -6.082  1.00 20.00     0.024 C 
HETATM    5  C2  UNL     1     -34.832  14.861  -7.529  1.00 20.00     0.012 C 
HETATM    6  C6  UNL     1     -36.337  14.833  -7.737  1.00 20.00     0.075 C 
HETATM    7  S11 UNL     1     -37.030  15.506  -6.202  1.00 20.00    -0.157 SA
ENDBRANCH   1   3
BRANCH   1   8
HETATM    8  C9  UNL     1     -34.875  14.935  -2.790  1.00 20.00     0.084 C 
BRANCH   8   9
HETATM    9  C8  UNL     1     -34.985  16.339  -2.222  1.00 20.00    -0.007 A 
HETATM   10  C4  UNL     1     -34.677  16.597  -0.773  1.00 20.00     0.005 A 
HETATM   11  C5  UNL     1     -33.745  17.099  -1.839  1.00 20.00     0.005 A 
ENDBRANCH   8   9
ENDBRANCH   1   8
TORSDOF 3
ENDMDL
MODEL 8
REMARK VINA RESULT:      -4.3     11.022     12.558
REMARK  3 active torsions:
REMARK  status: ('A' for Active; 'I' for Inactive)
REMARK    1  A    between atoms: C1_1  and  C7_7 
REMARK    2  A    between atoms: C1_1  and  C9_9 
REMARK    3  A    between atoms: C8_8  and  C9_9 
ROOT
HETATM    1  C1  UNL     1     -33.875  15.439  -3.655  1.00 20.00     0.141 C 
HETATM    2  O10 UNL     1     -32.679  15.161  -3.745  1.00 20.00    -0.297 OA
ENDROOT
BRANCH   1   3
HETATM    3  C7  UNL     1     -34.673  15.795  -4.864  1.00 20.00     0.116 C 
HETATM    4  C3  UNL     1     -33.887  16.646  -5.849  1.00 20.00     0.024 C 
HETATM    5  C2  UNL     1     -34.504  16.404  -7.219  1.00 20.00     0.012 C 
HETATM    6  C6  UNL     1     -34.587  14.897  -7.393  1.00 20.00     0.075 C 
HETATM    7  S11 UNL     1     -35.070  14.268  -5.762  1.00 20.00    -0.157 SA
ENDBRANCH   1   3
BRANCH   1   8
HETATM    8  C9  UNL     1     -34.623  15.444  -2.336  1.00 20.00     0.084 C 
BRANCH   8   9
HETATM    9  C8  UNL     1     -34.764  16.837  -1.750  1.00 20.00    -0.007 A 
HETATM   10  C4  UNL     1     -34.776  17.035  -0.259  1.00 20.00     0.005 A 
HETATM   11  C5  UNL     1     -33.595  17.493  -1.068  1.00 20.00     0.005 A 
ENDBRANCH   8   9
ENDBRANCH   1   8
TORSDOF 3
ENDMDL
MODEL 9
REMARK VINA RESULT:      -4.2     10.372     11.795
REMARK  3 active torsions:
REMARK  status: ('A' for Active; 'I' for Inactive)
REMARK    1  A    between atoms: C1_1  and  C7_7 
REMARK    2  A    between atoms: C1_1  and  C9_9 
REMARK    3  A    between atoms: C8_8  and  C9_9 
ROOT
HETATM    1  C1  UNL     1     -42.507   3.906  -2.850  1.00 20.00     0.141 C 
HETATM    2  O10 UNL     1     -43.371   4.228  -3.665  1.00 20.00    -0.297 OA
ENDROOT
BRANCH   1   3
HETATM    3  C7  UNL     1     -42.316   4.677  -1.588  1.00 20.00     0.116 C 
HETATM    4  C3  UNL     1     -40.871   4.665  -1.112  1.00 20.00     0.024 C 
HETATM    5  C2  UNL     1     -40.680   5.921  -0.276  1.00 20.00     0.012 C 
HETATM    6  C6  UNL     1     -41.212   7.076  -1.107  1.00 20.00     0.075 C 
HETATM    7  S11 UNL     1     -42.697   6.421  -1.916  1.00 20.00    -0.157 SA
ENDBRANCH   1   3
BRANCH   1   8
HETATM    8  C9  UNL     1     -41.582   2.721  -3.054  1.00 20.00     0.084 C 
BRANCH   8   9
HETATM    9  C8  UNL     1     -42.220   1.618  -3.880  1.00 20.00    -0.007 A 
HETATM   10  C4  UNL     1     -41.557   0.272  -3.989  1.00 20.00     0.005 A 
HETATM   11  C5  UNL     1     -42.829   0.421  -3.203  1.00 20.00     0.005 A 
ENDBRANCH   8   9
ENDBRANCH   1   8
TORSDOF 3
ENDMDL
