MODEL 1
REMARK VINA RESULT:      -4.0      0.000      0.000
REMARK  1 active torsions:
REMARK  status: ('A' for Active; 'I' for Inactive)
REMARK    1  A    between atoms: C4_4  and  C5_5 
ROOT
HETATM    1  C1  UNL     1     -34.042   5.013   6.312  1.00 20.00     0.011 C 
HETATM    2  C2  UNL     1     -33.929   6.466   5.877  1.00 20.00     0.017 C 
HETATM    3  C3  UNL     1     -35.225   4.426   5.563  1.00 20.00     0.074 C 
HETATM    4  C4  UNL     1     -33.983   6.493   4.351  1.00 20.00     0.061 C 
HETATM    5  S6  UNL     1     -35.161   5.171   3.910  1.00 20.00    -0.163 SA
ENDROOT
BRANCH   4   6
HETATM    6  C5  UNL     1     -32.631   6.220   3.703  1.00 20.00     0.129 C 
HETATM    7 CL7  UNL     1     -32.158   7.578   2.662  1.00 20.00    -0.129 Cl
ENDBRANCH   4   6
TORSDOF 1
ENDMDL
MODEL 2
REMARK VINA RESULT:      -3.2     12.136     13.002
REMARK  1 active torsions:
REMARK  status: ('A' for Active; 'I' for Inactive)
REMARK    1  A    between atoms: C4_4  and  C5_5 
ROOT
HETATM    1  C1  UNL     1     -34.147  15.827  -5.569  1.00 20.00     0.011 C 
HETATM    2  C2  UNL     1     -33.358  15.770  -4.270  1.00 20.00     0.017 C 
HETATM    3  C3  UNL     1     -34.574  14.403  -5.880  1.00 20.00     0.074 C 
HETATM    4  C4  UNL     1     -34.180  14.962  -3.269  1.00 20.00     0.061 C 
HETATM    5  S6  UNL     1     -34.978  13.665  -4.273  1.00 20.00    -0.163 SA
ENDROOT
BRANCH   4   6
HETATM    6  C5  UNL     1     -35.240  15.795  -2.559  1.00 20.00     0.129 C 
HETATM    7 CL7  UNL     1     -34.606  16.424  -1.024  1.00 20.00    -0.129 Cl
ENDBRANCH   4   6
TORSDOF 1
ENDMDL
MODEL 3
REMARK VINA RESULT:      -3.2     12.368     13.126
REMARK  1 active torsions:
REMARK  status: ('A' for Active; 'I' for Inactive)
REMARK    1  A    between atoms: C4_4  and  C5_5 
ROOT
HETATM    1  C1  UNL     1     -33.678  13.704  -3.876  1.00 20.00     0.011 C 
HETATM    2  C2  UNL     1     -33.713  15.132  -3.353  1.00 20.00     0.017 C 
HETATM    3  C3  UNL     1     -35.107  13.340  -4.240  1.00 20.00     0.074 C 
HETATM    4  C4  UNL     1     -34.504  15.968  -4.357  1.00 20.00     0.061 C 
HETATM    5  S6  UNL     1     -35.818  14.849  -4.950  1.00 20.00    -0.163 SA
ENDROOT
BRANCH   4   6
HETATM    6  C5  UNL     1     -33.659  16.445  -5.531  1.00 20.00     0.129 C 
HETATM    7 CL7  UNL     1     -34.110  15.576  -7.012  1.00 20.00    -0.129 Cl
ENDBRANCH   4   6
TORSDOF 1
ENDMDL
MODEL 4
REMARK VINA RESULT:      -3.2     11.996     12.692
REMARK  1 active torsions:
REMARK  status: ('A' for Active; 'I' for Inactive)
REMARK    1  A    between atoms: C4_4  and  C5_5 
ROOT
HETATM    1  C1  UNL     1     -35.174  13.553  -4.097  1.00 20.00     0.011 C 
HETATM    2  C2  UNL     1     -35.661  14.833  -4.759  1.00 20.00     0.017 C 
HETATM    3  C3  UNL     1     -33.661  13.659  -4.011  1.00 20.00     0.074 C 
HETATM    4  C4  UNL     1     -34.997  16.004  -4.038  1.00 20.00     0.061 C 
HETATM    5  S6  UNL     1     -33.325  15.399  -3.626  1.00 20.00    -0.163 SA
ENDROOT
BRANCH   4   6
HETATM    6  C5  UNL     1     -35.729  16.412  -2.765  1.00 20.00     0.129 C 
HETATM    7 CL7  UNL     1     -34.659  16.254  -1.357  1.00 20.00    -0.129 Cl
ENDBRANCH   4   6
TORSDOF 1
ENDMDL
MODEL 5
REMARK VINA RESULT:      -3.1     12.360     13.190
REMARK  1 active torsions:
REMARK  status: ('A' for Active; 'I' for Inactive)
REMARK    1  A    between atoms: C4_4  and  C5_5 
ROOT
HETATM    1  C1  UNL     1     -35.291  14.719  -5.703  1.00 20.00     0.011 C 
HETATM    2  C2  UNL     1     -34.084  15.638  -5.820  1.00 20.00     0.017 C 
HETATM    3  C3  UNL     1     -34.806  13.450  -5.024  1.00 20.00     0.074 C 
HETATM    4  C4  UNL     1     -33.412  15.689  -4.450  1.00 20.00     0.061 C 
HETATM    5  S6  UNL     1     -33.606  14.003  -3.781  1.00 20.00    -0.163 SA
ENDROOT
BRANCH   4   6
HETATM    6  C5  UNL     1     -34.058  16.698  -3.508  1.00 20.00     0.129 C 
HETATM    7 CL7  UNL     1     -34.625  15.892  -2.031  1.00 20.00    -0.129 Cl
ENDBRANCH   4   6
TORSDOF 1
ENDMDL
MODEL 6
REMARK VINA RESULT:      -3.1      9.362      9.888
REMARK  1 active torsions:
REMARK  status: ('A' for Active; 'I' for Inactive)
REMARK    1  A    between atoms: C4_4  and  C5_5 
ROOT
HETATM    1  C1  UNL     1     -41.975   4.148  -1.794  1.00 20.00     0.011 C 
HETATM    2  C2  UNL     1     -40.696   4.573  -1.089  1.00 20.00     0.017 C 
HETATM    3  C3  UNL     1     -43.032   3.989  -0.715  1.00 20.00     0.074 C 
HETATM    4  C4  UNL     1     -41.047   5.732  -0.159  1.00 20.00     0.061 C 
HETATM    5  S6  UNL     1     -42.713   5.327   0.467  1.00 20.00    -0.163 SA
ENDROOT
BRANCH   4   6
HETATM    6  C5  UNL     1     -41.073   7.079  -0.871  1.00 20.00     0.129 C 
HETATM    7 CL7  UNL     1     -42.716   7.751  -0.864  1.00 20.00    -0.129 Cl
ENDBRANCH   4   6
TORSDOF 1
ENDMDL
MODEL 7
REMARK VINA RESULT:      -3.1     12.121     12.753
REMARK  1 active torsions:
REMARK  status: ('A' for Active; 'I' for Inactive)
REMARK    1  A    between atoms: C4_4  and  C5_5 
ROOT
HETATM    1  C1  UNL     1     -35.174  16.110  -2.247  1.00 20.00     0.011 C 
HETATM    2  C2  UNL     1     -33.689  16.080  -2.576  1.00 20.00     0.017 C 
HETATM    3  C3  UNL     1     -35.882  16.633  -3.484  1.00 20.00     0.074 C 
HETATM    4  C4  UNL     1     -33.532  15.381  -3.925  1.00 20.00     0.061 C 
HETATM    5  S6  UNL     1     -34.988  15.910  -4.887  1.00 20.00    -0.163 SA
ENDROOT
BRANCH   4   6
HETATM    6  C5  UNL     1     -33.511  13.862  -3.808  1.00 20.00     0.129 C 
HETATM    7 CL7  UNL     1     -35.037  13.174  -4.400  1.00 20.00    -0.129 Cl
ENDBRANCH   4   6
TORSDOF 1
ENDMDL
MODEL 8
REMARK VINA RESULT:      -3.0     12.498     13.154
REMARK  1 active torsions:
REMARK  status: ('A' for Active; 'I' for Inactive)
REMARK    1  A    between atoms: C4_4  and  C5_5 
ROOT
HETATM    1  C1  UNL     1     -33.266  15.469  -3.442  1.00 20.00     0.011 C 
HETATM    2  C2  UNL     1     -33.362  13.996  -3.811  1.00 20.00     0.017 C 
HETATM    3  C3  UNL     1     -33.198  16.240  -4.749  1.00 20.00     0.074 C 
HETATM    4  C4  UNL     1     -34.461  13.857  -4.862  1.00 20.00     0.061 C 
HETATM    5  S6  UNL     1     -34.317  15.366  -5.877  1.00 20.00    -0.163 SA
ENDROOT
BRANCH   4   6
HETATM    6  C5  UNL     1     -35.856  13.770  -4.256  1.00 20.00     0.129 C 
HETATM    7 CL7  UNL     1     -36.849  15.143  -4.788  1.00 20.00    -0.129 Cl
ENDBRANCH   4   6
TORSDOF 1
ENDMDL
MODEL 9
REMARK VINA RESULT:      -3.0     12.774     13.874
REMARK  1 active torsions:
REMARK  status: ('A' for Active; 'I' for Inactive)
REMARK    1  A    between atoms: C4_4  and  C5_5 
ROOT
HETATM    1  C1  UNL     1     -34.227  15.315  -7.102  1.00 20.00     0.011 C 
HETATM    2  C2  UNL     1     -35.474  14.510  -6.766  1.00 20.00     0.017 C 
HETATM    3  C3  UNL     1     -34.230  16.524  -6.182  1.00 20.00     0.074 C 
HETATM    4  C4  UNL     1     -35.516  14.342  -5.249  1.00 20.00     0.061 C 
HETATM    5  S6  UNL     1     -34.861  15.914  -4.595  1.00 20.00    -0.163 SA
ENDROOT
BRANCH   4   6
HETATM    6  C5  UNL     1     -34.663  13.179  -4.756  1.00 20.00     0.129 C 
HETATM    7 CL7  UNL     1     -33.320  13.776  -3.760  1.00 20.00    -0.129 Cl
ENDBRANCH   4   6
TORSDOF 1
ENDMDL
