MODEL 1
REMARK VINA RESULT:      -3.6      0.000      0.000
REMARK  4 active torsions:
REMARK  status: ('A' for Active; 'I' for Inactive)
REMARK    1  A    between atoms: C5_5  and  C7_7 
REMARK    2  A    between atoms: C5_5  and  S9_9 
REMARK    3  A    between atoms: C6_6  and  C7_7 
REMARK    4  A    between atoms: C8_8  and  S9_9 
ROOT
HETATM    1  C5  UNL     1     -33.284  15.511  -3.510  1.00 20.00     0.080 C 
ENDROOT
BRANCH   1   2
HETATM    2  C7  UNL     1     -33.668  16.599  -2.489  1.00 20.00     0.004 C 
HETATM    3  C1  UNL     1     -34.021  17.893  -3.234  1.00 20.00     0.012 C 
BRANCH   2   4
HETATM    4  C6  UNL     1     -34.786  16.200  -1.512  1.00 20.00     0.119 C 
HETATM    5 CL10 UNL     1     -34.753  17.108   0.019  1.00 20.00    -0.130 Cl
ENDBRANCH   2   4
ENDBRANCH   1   2
BRANCH   1   6
HETATM    6  S9  UNL     1     -33.732  15.935  -5.220  1.00 20.00    -0.160 SA
BRANCH   6   7
HETATM    7  C8  UNL     1     -35.002  14.675  -5.476  1.00 20.00    -0.003 C 
HETATM    8  C2  UNL     1     -36.317  15.173  -4.867  1.00 20.00     0.026 C 
HETATM    9  C3  UNL     1     -35.164  14.452  -6.982  1.00 20.00     0.026 C 
HETATM   10  C4  UNL     1     -34.554  13.380  -4.793  1.00 20.00     0.026 C 
ENDBRANCH   6   7
ENDBRANCH   1   6
TORSDOF 4
ENDMDL
MODEL 2
REMARK VINA RESULT:      -3.6      1.481      1.912
REMARK  4 active torsions:
REMARK  status: ('A' for Active; 'I' for Inactive)
REMARK    1  A    between atoms: C5_5  and  C7_7 
REMARK    2  A    between atoms: C5_5  and  S9_9 
REMARK    3  A    between atoms: C6_6  and  C7_7 
REMARK    4  A    between atoms: C8_8  and  S9_9 
ROOT
HETATM    1  C5  UNL     1     -33.631  16.306  -2.487  1.00 20.00     0.080 C 
ENDROOT
BRANCH   1   2
HETATM    2  C7  UNL     1     -34.272  17.459  -1.692  1.00 20.00     0.004 C 
HETATM    3  C1  UNL     1     -34.740  16.937  -0.326  1.00 20.00     0.012 C 
BRANCH   2   4
HETATM    4  C6  UNL     1     -33.385  18.705  -1.535  1.00 20.00     0.119 C 
HETATM    5 CL10 UNL     1     -32.398  18.696  -0.053  1.00 20.00    -0.130 Cl
ENDBRANCH   2   4
ENDBRANCH   1   2
BRANCH   1   6
HETATM    6  S9  UNL     1     -33.940  16.401  -4.276  1.00 20.00    -0.160 SA
BRANCH   6   7
HETATM    7  C8  UNL     1     -34.553  14.720  -4.524  1.00 20.00    -0.003 C 
HETATM    8  C2  UNL     1     -35.935  14.601  -3.874  1.00 20.00     0.026 C 
HETATM    9  C3  UNL     1     -34.650  14.459  -6.030  1.00 20.00     0.026 C 
HETATM   10  C4  UNL     1     -33.573  13.739  -3.876  1.00 20.00     0.026 C 
ENDBRANCH   6   7
ENDBRANCH   1   6
TORSDOF 4
ENDMDL
MODEL 3
REMARK VINA RESULT:      -3.6      1.481      2.357
REMARK  4 active torsions:
REMARK  status: ('A' for Active; 'I' for Inactive)
REMARK    1  A    between atoms: C5_5  and  C7_7 
REMARK    2  A    between atoms: C5_5  and  S9_9 
REMARK    3  A    between atoms: C6_6  and  C7_7 
REMARK    4  A    between atoms: C8_8  and  S9_9 
ROOT
HETATM    1  C5  UNL     1     -33.657  16.291  -2.476  1.00 20.00     0.080 C 
ENDROOT
BRANCH   1   2
HETATM    2  C7  UNL     1     -34.289  17.452  -1.685  1.00 20.00     0.004 C 
HETATM    3  C1  UNL     1     -34.743  16.944  -0.310  1.00 20.00     0.012 C 
BRANCH   2   4
HETATM    4  C6  UNL     1     -33.397  18.699  -1.548  1.00 20.00     0.119 C 
HETATM    5 CL10 UNL     1     -32.400  18.703  -0.073  1.00 20.00    -0.130 Cl
ENDBRANCH   2   4
ENDBRANCH   1   2
BRANCH   1   6
HETATM    6  S9  UNL     1     -33.949  16.394  -4.267  1.00 20.00    -0.160 SA
BRANCH   6   7
HETATM    7  C8  UNL     1     -34.557  14.713  -4.529  1.00 20.00    -0.003 C 
HETATM    8  C2  UNL     1     -33.579  13.730  -3.877  1.00 20.00     0.026 C 
HETATM    9  C3  UNL     1     -35.940  14.594  -3.881  1.00 20.00     0.026 C 
HETATM   10  C4  UNL     1     -34.651  14.453  -6.034  1.00 20.00     0.026 C 
ENDBRANCH   6   7
ENDBRANCH   1   6
TORSDOF 4
ENDMDL
MODEL 4
REMARK VINA RESULT:      -3.6      1.387      2.364
REMARK  4 active torsions:
REMARK  status: ('A' for Active; 'I' for Inactive)
REMARK    1  A    between atoms: C5_5  and  C7_7 
REMARK    2  A    between atoms: C5_5  and  S9_9 
REMARK    3  A    between atoms: C6_6  and  C7_7 
REMARK    4  A    between atoms: C8_8  and  S9_9 
ROOT
HETATM    1  C5  UNL     1     -35.454  14.462  -3.861  1.00 20.00     0.080 C 
ENDROOT
BRANCH   1   2
HETATM    2  C7  UNL     1     -34.337  14.969  -2.931  1.00 20.00     0.004 C 
HETATM    3  C1  UNL     1     -32.975  14.748  -3.604  1.00 20.00     0.012 C 
BRANCH   2   4
HETATM    4  C6  UNL     1     -34.495  16.427  -2.467  1.00 20.00     0.119 C 
HETATM    5 CL10 UNL     1     -34.640  16.602  -0.701  1.00 20.00    -0.130 Cl
ENDBRANCH   2   4
ENDBRANCH   1   2
BRANCH   1   6
HETATM    6  S9  UNL     1     -34.836  13.780  -5.428  1.00 20.00    -0.160 SA
BRANCH   6   7
HETATM    7  C8  UNL     1     -35.433  15.080  -6.532  1.00 20.00    -0.003 C 
HETATM    8  C2  UNL     1     -35.677  14.473  -7.918  1.00 20.00     0.026 C 
HETATM    9  C3  UNL     1     -36.739  15.637  -5.958  1.00 20.00     0.026 C 
HETATM   10  C4  UNL     1     -34.374  16.182  -6.611  1.00 20.00     0.026 C 
ENDBRANCH   6   7
ENDBRANCH   1   6
TORSDOF 4
ENDMDL
MODEL 5
REMARK VINA RESULT:      -3.6      2.370      2.733
REMARK  4 active torsions:
REMARK  status: ('A' for Active; 'I' for Inactive)
REMARK    1  A    between atoms: C5_5  and  C7_7 
REMARK    2  A    between atoms: C5_5  and  S9_9 
REMARK    3  A    between atoms: C6_6  and  C7_7 
REMARK    4  A    between atoms: C8_8  and  S9_9 
ROOT
HETATM    1  C5  UNL     1     -34.582  17.122  -3.779  1.00 20.00     0.080 C 
ENDROOT
BRANCH   1   2
HETATM    2  C7  UNL     1     -34.139  16.026  -2.792  1.00 20.00     0.004 C 
HETATM    3  C1  UNL     1     -34.635  16.380  -1.383  1.00 20.00     0.012 C 
BRANCH   2   4
HETATM    4  C6  UNL     1     -34.558  14.598  -3.183  1.00 20.00     0.119 C 
HETATM    5 CL10 UNL     1     -33.210  13.595  -3.772  1.00 20.00    -0.130 Cl
ENDBRANCH   2   4
ENDBRANCH   1   2
BRANCH   1   6
HETATM    6  S9  UNL     1     -33.510  17.252  -5.242  1.00 20.00    -0.160 SA
BRANCH   6   7
HETATM    7  C8  UNL     1     -34.693  16.683  -6.483  1.00 20.00    -0.003 C 
HETATM    8  C2  UNL     1     -36.102  16.747  -5.884  1.00 20.00     0.026 C 
HETATM    9  C3  UNL     1     -34.592  17.602  -7.703  1.00 20.00     0.026 C 
HETATM   10  C4  UNL     1     -34.343  15.244  -6.871  1.00 20.00     0.026 C 
ENDBRANCH   6   7
ENDBRANCH   1   6
TORSDOF 4
ENDMDL
MODEL 6
REMARK VINA RESULT:      -3.6      1.683      2.468
REMARK  4 active torsions:
REMARK  status: ('A' for Active; 'I' for Inactive)
REMARK    1  A    between atoms: C5_5  and  C7_7 
REMARK    2  A    between atoms: C5_5  and  S9_9 
REMARK    3  A    between atoms: C6_6  and  C7_7 
REMARK    4  A    between atoms: C8_8  and  S9_9 
ROOT
HETATM    1  C5  UNL     1     -34.872  16.256  -1.758  1.00 20.00     0.080 C 
ENDROOT
BRANCH   1   2
HETATM    2  C7  UNL     1     -34.385  17.021  -0.513  1.00 20.00     0.004 C 
HETATM    3  C1  UNL     1     -33.283  18.009  -0.922  1.00 20.00     0.012 C 
BRANCH   2   4
HETATM    4  C6  UNL     1     -35.495  17.730   0.283  1.00 20.00     0.119 C 
HETATM    5 CL10 UNL     1     -35.389  17.468   2.041  1.00 20.00    -0.130 Cl
ENDBRANCH   2   4
ENDBRANCH   1   2
BRANCH   1   6
HETATM    6  S9  UNL     1     -33.708  16.331  -3.153  1.00 20.00    -0.160 SA
BRANCH   6   7
HETATM    7  C8  UNL     1     -34.363  14.947  -4.112  1.00 20.00    -0.003 C 
HETATM    8  C2  UNL     1     -33.518  13.703  -3.819  1.00 20.00     0.026 C 
HETATM    9  C3  UNL     1     -35.817  14.713  -3.691  1.00 20.00     0.026 C 
HETATM   10  C4  UNL     1     -34.291  15.303  -5.599  1.00 20.00     0.026 C 
ENDBRANCH   6   7
ENDBRANCH   1   6
TORSDOF 4
ENDMDL
MODEL 7
REMARK VINA RESULT:      -3.5      1.940      2.758
REMARK  4 active torsions:
REMARK  status: ('A' for Active; 'I' for Inactive)
REMARK    1  A    between atoms: C5_5  and  C7_7 
REMARK    2  A    between atoms: C5_5  and  S9_9 
REMARK    3  A    between atoms: C6_6  and  C7_7 
REMARK    4  A    between atoms: C8_8  and  S9_9 
ROOT
HETATM    1  C5  UNL     1     -34.565  15.882  -1.941  1.00 20.00     0.080 C 
ENDROOT
BRANCH   1   2
HETATM    2  C7  UNL     1     -34.763  17.313  -1.408  1.00 20.00     0.004 C 
HETATM    3  C1  UNL     1     -34.903  17.272   0.120  1.00 20.00     0.012 C 
BRANCH   2   4
HETATM    4  C6  UNL     1     -33.680  18.317  -1.837  1.00 20.00     0.119 C 
HETATM    5 CL10 UNL     1     -33.701  18.688  -3.579  1.00 20.00    -0.130 Cl
ENDBRANCH   2   4
ENDBRANCH   1   2
BRANCH   1   6
HETATM    6  S9  UNL     1     -35.562  15.516  -3.416  1.00 20.00    -0.160 SA
BRANCH   6   7
HETATM    7  C8  UNL     1     -34.252  14.824  -4.450  1.00 20.00    -0.003 C 
HETATM    8  C2  UNL     1     -32.914  14.988  -3.723  1.00 20.00     0.026 C 
HETATM    9  C3  UNL     1     -34.553  13.340  -4.681  1.00 20.00     0.026 C 
HETATM   10  C4  UNL     1     -34.231  15.576  -5.784  1.00 20.00     0.026 C 
ENDBRANCH   6   7
ENDBRANCH   1   6
TORSDOF 4
ENDMDL
MODEL 8
REMARK VINA RESULT:      -3.4      2.148      4.432
REMARK  4 active torsions:
REMARK  status: ('A' for Active; 'I' for Inactive)
REMARK    1  A    between atoms: C5_5  and  C7_7 
REMARK    2  A    between atoms: C5_5  and  S9_9 
REMARK    3  A    between atoms: C6_6  and  C7_7 
REMARK    4  A    between atoms: C8_8  and  S9_9 
ROOT
HETATM    1  C5  UNL     1     -35.108  15.797  -4.836  1.00 20.00     0.080 C 
ENDROOT
BRANCH   1   2
HETATM    2  C7  UNL     1     -35.342  14.437  -5.518  1.00 20.00     0.004 C 
HETATM    3  C1  UNL     1     -34.954  14.537  -7.000  1.00 20.00     0.012 C 
BRANCH   2   4
HETATM    4  C6  UNL     1     -34.641  13.246  -4.841  1.00 20.00     0.119 C 
HETATM    5 CL10 UNL     1     -33.299  13.723  -3.772  1.00 20.00    -0.130 Cl
ENDBRANCH   2   4
ENDBRANCH   1   2
BRANCH   1   6
HETATM    6  S9  UNL     1     -36.147  16.057  -3.367  1.00 20.00    -0.160 SA
BRANCH   6   7
HETATM    7  C8  UNL     1     -35.040  17.157  -2.456  1.00 20.00    -0.003 C 
HETATM    8  C2  UNL     1     -35.788  18.457  -2.143  1.00 20.00     0.026 C 
HETATM    9  C3  UNL     1     -34.624  16.457  -1.159  1.00 20.00     0.026 C 
HETATM   10  C4  UNL     1     -33.811  17.444  -3.323  1.00 20.00     0.026 C 
ENDBRANCH   6   7
ENDBRANCH   1   6
TORSDOF 4
ENDMDL
MODEL 9
REMARK VINA RESULT:      -3.4      2.841      4.379
REMARK  4 active torsions:
REMARK  status: ('A' for Active; 'I' for Inactive)
REMARK    1  A    between atoms: C5_5  and  C7_7 
REMARK    2  A    between atoms: C5_5  and  S9_9 
REMARK    3  A    between atoms: C6_6  and  C7_7 
REMARK    4  A    between atoms: C8_8  and  S9_9 
ROOT
HETATM    1  C5  UNL     1     -33.658  16.877  -5.531  1.00 20.00     0.080 C 
ENDROOT
BRANCH   1   2
HETATM    2  C7  UNL     1     -34.482  16.527  -6.784  1.00 20.00     0.004 C 
HETATM    3  C1  UNL     1     -34.363  15.024  -7.069  1.00 20.00     0.012 C 
BRANCH   2   4
HETATM    4  C6  UNL     1     -35.956  16.965  -6.730  1.00 20.00     0.119 C 
HETATM    5 CL10 UNL     1     -37.105  15.605  -6.742  1.00 20.00    -0.130 Cl
ENDBRANCH   2   4
ENDBRANCH   1   2
BRANCH   1   6
HETATM    6  S9  UNL     1     -34.679  17.377  -4.112  1.00 20.00    -0.160 SA
BRANCH   6   7
HETATM    7  C8  UNL     1     -34.510  15.871  -3.127  1.00 20.00    -0.003 C 
HETATM    8  C2  UNL     1     -33.179  15.201  -3.481  1.00 20.00     0.026 C 
HETATM    9  C3  UNL     1     -34.534  16.258  -1.646  1.00 20.00     0.026 C 
HETATM   10  C4  UNL     1     -35.680  14.939  -3.452  1.00 20.00     0.026 C 
ENDBRANCH   6   7
ENDBRANCH   1   6
TORSDOF 4
ENDMDL
