MODEL 1
REMARK VINA RESULT:      -3.7      0.000      0.000
REMARK  1 active torsions:
REMARK  status: ('A' for Active; 'I' for Inactive)
REMARK    1  A    between atoms: C1_1  and  C5_5 
ROOT
HETATM    1  C2  UNL     1     -34.746   5.397   3.541  1.00 20.00     0.022 C 
HETATM    2  C3  UNL     1     -35.234   4.480   4.649  1.00 20.00     0.075 C 
HETATM    3  C4  UNL     1     -33.543   6.431   5.396  1.00 20.00     0.085 C 
HETATM    4  C5  UNL     1     -33.379   5.911   3.975  1.00 20.00     0.057 C 
HETATM    5  S7  UNL     1     -34.713   5.290   6.186  1.00 20.00    -0.168 SA
ENDROOT
BRANCH   4   6
HETATM    6  C1  UNL     1     -32.905   7.005   3.073  1.00 20.00     0.236 C 
HETATM    7  O6  UNL     1     -31.773   7.476   3.120  1.00 20.00    -0.306 OA
ENDBRANCH   4   6
TORSDOF 1
ENDMDL
MODEL 2
REMARK VINA RESULT:      -3.5      0.883      1.675
REMARK  1 active torsions:
REMARK  status: ('A' for Active; 'I' for Inactive)
REMARK    1  A    between atoms: C1_1  and  C5_5 
ROOT
HETATM    1  C2  UNL     1     -33.467   6.387   5.523  1.00 20.00     0.022 C 
HETATM    2  C3  UNL     1     -34.558   5.720   6.343  1.00 20.00     0.075 C 
HETATM    3  C4  UNL     1     -34.440   5.018   3.752  1.00 20.00     0.085 C 
HETATM    4  C5  UNL     1     -33.971   6.426   4.085  1.00 20.00     0.057 C 
HETATM    5  S7  UNL     1     -35.196   4.395   5.281  1.00 20.00    -0.168 SA
ENDROOT
BRANCH   4   6
HETATM    6  C1  UNL     1     -32.885   6.848   3.148  1.00 20.00     0.236 C 
HETATM    7  O6  UNL     1     -31.792   7.260   3.521  1.00 20.00    -0.306 OA
ENDBRANCH   4   6
TORSDOF 1
ENDMDL
MODEL 3
REMARK VINA RESULT:      -3.3     11.951     12.692
REMARK  1 active torsions:
REMARK  status: ('A' for Active; 'I' for Inactive)
REMARK    1  A    between atoms: C1_1  and  C5_5 
ROOT
HETATM    1  C2  UNL     1     -34.680  15.504  -2.675  1.00 20.00     0.022 C 
HETATM    2  C3  UNL     1     -33.819  16.755  -2.660  1.00 20.00     0.075 C 
HETATM    3  C4  UNL     1     -34.109  15.557  -5.048  1.00 20.00     0.085 C 
HETATM    4  C5  UNL     1     -34.177  14.646  -3.830  1.00 20.00     0.057 C 
HETATM    5  S7  UNL     1     -33.562  17.165  -4.409  1.00 20.00    -0.168 SA
ENDROOT
BRANCH   4   6
HETATM    6  C1  UNL     1     -35.100  13.500  -4.089  1.00 20.00     0.236 C 
HETATM    7  O6  UNL     1     -34.803  12.537  -4.788  1.00 20.00    -0.306 OA
ENDBRANCH   4   6
TORSDOF 1
ENDMDL
MODEL 4
REMARK VINA RESULT:      -3.3     12.432     13.552
REMARK  1 active torsions:
REMARK  status: ('A' for Active; 'I' for Inactive)
REMARK    1  A    between atoms: C1_1  and  C5_5 
ROOT
HETATM    1  C2  UNL     1     -34.420  15.103  -6.450  1.00 20.00     0.022 C 
HETATM    2  C3  UNL     1     -34.501  16.605  -6.656  1.00 20.00     0.075 C 
HETATM    3  C4  UNL     1     -33.481  15.794  -4.305  1.00 20.00     0.085 C 
HETATM    4  C5  UNL     1     -34.504  14.867  -4.947  1.00 20.00     0.057 C 
HETATM    5  S7  UNL     1     -33.533  17.315  -5.295  1.00 20.00    -0.168 SA
ENDROOT
BRANCH   4   6
HETATM    6  C1  UNL     1     -34.198  13.443  -4.609  1.00 20.00     0.236 C 
HETATM    7  O6  UNL     1     -35.061  12.603  -4.375  1.00 20.00    -0.306 OA
ENDBRANCH   4   6
TORSDOF 1
ENDMDL
MODEL 5
REMARK VINA RESULT:      -3.2     11.629     12.736
REMARK  1 active torsions:
REMARK  status: ('A' for Active; 'I' for Inactive)
REMARK    1  A    between atoms: C1_1  and  C5_5 
ROOT
HETATM    1  C2  UNL     1     -33.364  15.843  -4.581  1.00 20.00     0.022 C 
HETATM    2  C3  UNL     1     -33.628  17.328  -4.402  1.00 20.00     0.075 C 
HETATM    3  C4  UNL     1     -34.564  15.725  -2.459  1.00 20.00     0.085 C 
HETATM    4  C5  UNL     1     -34.485  15.113  -3.850  1.00 20.00     0.057 C 
HETATM    5  S7  UNL     1     -34.227  17.493  -2.698  1.00 20.00    -0.168 SA
ENDROOT
BRANCH   4   6
HETATM    6  C1  UNL     1     -34.200  13.648  -3.758  1.00 20.00     0.236 C 
HETATM    7  O6  UNL     1     -34.943  12.786  -4.215  1.00 20.00    -0.306 OA
ENDBRANCH   4   6
TORSDOF 1
ENDMDL
MODEL 6
REMARK VINA RESULT:      -3.1     11.744     12.406
REMARK  1 active torsions:
REMARK  status: ('A' for Active; 'I' for Inactive)
REMARK    1  A    between atoms: C1_1  and  C5_5 
ROOT
HETATM    1  C2  UNL     1     -34.155  13.858  -3.569  1.00 20.00     0.022 C 
HETATM    2  C3  UNL     1     -34.696  13.185  -4.818  1.00 20.00     0.075 C 
HETATM    3  C4  UNL     1     -34.747  15.872  -4.815  1.00 20.00     0.085 C 
HETATM    4  C5  UNL     1     -34.871  15.199  -3.456  1.00 20.00     0.057 C 
HETATM    5  S7  UNL     1     -34.885  14.526  -6.025  1.00 20.00    -0.168 SA
ENDROOT
BRANCH   4   6
HETATM    6  C1  UNL     1     -34.250  16.051  -2.396  1.00 20.00     0.236 C 
HETATM    7  O6  UNL     1     -34.691  16.138  -1.255  1.00 20.00    -0.306 OA
ENDBRANCH   4   6
TORSDOF 1
ENDMDL
MODEL 7
REMARK VINA RESULT:      -3.0     11.722     12.067
REMARK  1 active torsions:
REMARK  status: ('A' for Active; 'I' for Inactive)
REMARK    1  A    between atoms: C1_1  and  C5_5 
ROOT
HETATM    1  C2  UNL     1     -35.998  15.255  -3.155  1.00 20.00     0.022 C 
HETATM    2  C3  UNL     1     -36.310  14.371  -4.349  1.00 20.00     0.075 C 
HETATM    3  C4  UNL     1     -33.738  14.433  -3.572  1.00 20.00     0.085 C 
HETATM    4  C5  UNL     1     -34.546  15.695  -3.310  1.00 20.00     0.057 C 
HETATM    5  S7  UNL     1     -34.803  13.394  -4.611  1.00 20.00    -0.168 SA
ENDROOT
BRANCH   4   6
HETATM    6  C1  UNL     1     -34.057  16.377  -2.072  1.00 20.00     0.236 C 
HETATM    7  O6  UNL     1     -34.634  16.311  -0.992  1.00 20.00    -0.306 OA
ENDBRANCH   4   6
TORSDOF 1
ENDMDL
MODEL 8
REMARK VINA RESULT:      -3.0      2.285      2.802
REMARK  1 active torsions:
REMARK  status: ('A' for Active; 'I' for Inactive)
REMARK    1  A    between atoms: C1_1  and  C5_5 
ROOT
HETATM    1  C2  UNL     1     -34.481   4.876   5.980  1.00 20.00     0.022 C 
HETATM    2  C3  UNL     1     -35.273   4.338   4.801  1.00 20.00     0.075 C 
HETATM    3  C4  UNL     1     -33.739   6.488   4.304  1.00 20.00     0.085 C 
HETATM    4  C5  UNL     1     -34.278   6.364   5.722  1.00 20.00     0.057 C 
HETATM    5  S7  UNL     1     -34.600   5.203   3.355  1.00 20.00    -0.168 SA
ENDROOT
BRANCH   4   6
HETATM    6  C1  UNL     1     -33.311   6.952   6.699  1.00 20.00     0.236 C 
HETATM    7  O6  UNL     1     -33.578   7.904   7.424  1.00 20.00    -0.306 OA
ENDBRANCH   4   6
TORSDOF 1
ENDMDL
MODEL 9
REMARK VINA RESULT:      -3.0     11.723     12.749
REMARK  1 active torsions:
REMARK  status: ('A' for Active; 'I' for Inactive)
REMARK    1  A    between atoms: C1_1  and  C5_5 
ROOT
HETATM    1  C2  UNL     1     -34.659  14.365  -5.924  1.00 20.00     0.022 C 
HETATM    2  C3  UNL     1     -35.821  14.684  -6.848  1.00 20.00     0.075 C 
HETATM    3  C4  UNL     1     -36.352  14.778  -4.215  1.00 20.00     0.085 C 
HETATM    4  C5  UNL     1     -35.266  13.802  -4.644  1.00 20.00     0.057 C 
HETATM    5  S7  UNL     1     -37.109  15.355  -5.761  1.00 20.00    -0.168 SA
ENDROOT
BRANCH   4   6
HETATM    6  C1  UNL     1     -34.232  13.671  -3.572  1.00 20.00     0.236 C 
HETATM    7  O6  UNL     1     -33.145  13.130  -3.744  1.00 20.00    -0.306 OA
ENDBRANCH   4   6
TORSDOF 1
ENDMDL
