MODEL 1
REMARK VINA RESULT:      -3.9      0.000      0.000
REMARK  3 active torsions:
REMARK  status: ('A' for Active; 'I' for Inactive)
REMARK    1  A    between atoms: C3_3  and  C5_5 
REMARK    2  A    between atoms: C3_3  and  O6_6 
REMARK    3  A    between atoms: C4_4  and  C5_5 
ROOT
HETATM    1  C1  UNL     1     -33.726   6.536   5.757  1.00 20.00     0.013 C 
HETATM    2  C5  UNL     1     -34.143   6.224   4.319  1.00 20.00     0.019 C 
ENDROOT
BRANCH   2   3
HETATM    3  C3  UNL     1     -32.905   6.052   3.429  1.00 20.00     0.172 C 
BRANCH   3   4
HETATM    4  O6  UNL     1     -32.046   7.181   3.530  1.00 20.00    -0.396 OA
HETATM    5  C2  UNL     1     -32.074   7.964   2.345  1.00 20.00     0.201 C 
ENDBRANCH   3   4
ENDBRANCH   2   3
BRANCH   2   6
HETATM    6  C4  UNL     1     -35.109   5.030   4.237  1.00 20.00     0.121 C 
HETATM    7 CL7  UNL     1     -35.011   3.936   5.639  1.00 20.00    -0.130 Cl
ENDBRANCH   2   6
TORSDOF 3
ENDMDL
MODEL 2
REMARK VINA RESULT:      -3.9      1.935      2.460
REMARK  3 active torsions:
REMARK  status: ('A' for Active; 'I' for Inactive)
REMARK    1  A    between atoms: C3_3  and  C5_5 
REMARK    2  A    between atoms: C3_3  and  O6_6 
REMARK    3  A    between atoms: C4_4  and  C5_5 
ROOT
HETATM    1  C1  UNL     1     -35.078   3.911   5.123  1.00 20.00     0.013 C 
HETATM    2  C5  UNL     1     -34.232   5.183   5.194  1.00 20.00     0.019 C 
ENDROOT
BRANCH   2   3
HETATM    3  C3  UNL     1     -34.455   6.044   3.944  1.00 20.00     0.172 C 
BRANCH   3   4
HETATM    4  O6  UNL     1     -33.423   5.832   2.989  1.00 20.00    -0.396 OA
HETATM    5  C2  UNL     1     -32.260   6.585   3.303  1.00 20.00     0.201 C 
ENDBRANCH   3   4
ENDBRANCH   2   3
BRANCH   2   6
HETATM    6  C4  UNL     1     -34.453   5.959   6.503  1.00 20.00     0.121 C 
HETATM    7 CL7  UNL     1     -33.292   7.286   6.750  1.00 20.00    -0.130 Cl
ENDBRANCH   2   6
TORSDOF 3
ENDMDL
MODEL 3
REMARK VINA RESULT:      -3.6      1.561      1.940
REMARK  3 active torsions:
REMARK  status: ('A' for Active; 'I' for Inactive)
REMARK    1  A    between atoms: C3_3  and  C5_5 
REMARK    2  A    between atoms: C3_3  and  O6_6 
REMARK    3  A    between atoms: C4_4  and  C5_5 
ROOT
HETATM    1  C1  UNL     1     -35.243   5.560   3.519  1.00 20.00     0.013 C 
HETATM    2  C5  UNL     1     -34.065   5.478   4.490  1.00 20.00     0.019 C 
ENDROOT
BRANCH   2   3
HETATM    3  C3  UNL     1     -33.021   6.551   4.156  1.00 20.00     0.172 C 
BRANCH   3   4
HETATM    4  O6  UNL     1     -32.768   6.596   2.758  1.00 20.00    -0.396 OA
HETATM    5  C2  UNL     1     -32.148   7.818   2.379  1.00 20.00     0.201 C 
ENDBRANCH   3   4
ENDBRANCH   2   3
BRANCH   2   6
HETATM    6  C4  UNL     1     -34.516   5.519   5.960  1.00 20.00     0.121 C 
HETATM    7 CL7  UNL     1     -33.902   6.929   6.855  1.00 20.00    -0.130 Cl
ENDBRANCH   2   6
TORSDOF 3
ENDMDL
MODEL 4
REMARK VINA RESULT:      -3.5      3.015      4.126
REMARK  3 active torsions:
REMARK  status: ('A' for Active; 'I' for Inactive)
REMARK    1  A    between atoms: C3_3  and  C5_5 
REMARK    2  A    between atoms: C3_3  and  O6_6 
REMARK    3  A    between atoms: C4_4  and  C5_5 
ROOT
HETATM    1  C1  UNL     1     -34.111   5.332   2.663  1.00 20.00     0.013 C 
HETATM    2  C5  UNL     1     -33.676   6.448   3.614  1.00 20.00     0.019 C 
ENDROOT
BRANCH   2   3
HETATM    3  C3  UNL     1     -33.986   6.063   5.067  1.00 20.00     0.172 C 
BRANCH   3   4
HETATM    4  O6  UNL     1     -35.142   5.238   5.138  1.00 20.00    -0.396 OA
HETATM    5  C2  UNL     1     -34.946   4.142   6.021  1.00 20.00     0.201 C 
ENDBRANCH   3   4
ENDBRANCH   2   3
BRANCH   2   6
HETATM    6  C4  UNL     1     -32.208   6.856   3.403  1.00 20.00     0.121 C 
HETATM    7 CL7  UNL     1     -31.980   8.047   2.100  1.00 20.00    -0.130 Cl
ENDBRANCH   2   6
TORSDOF 3
ENDMDL
MODEL 5
REMARK VINA RESULT:      -3.3      2.660      3.488
REMARK  3 active torsions:
REMARK  status: ('A' for Active; 'I' for Inactive)
REMARK    1  A    between atoms: C3_3  and  C5_5 
REMARK    2  A    between atoms: C3_3  and  O6_6 
REMARK    3  A    between atoms: C4_4  and  C5_5 
ROOT
HETATM    1  C1  UNL     1     -35.642   5.594   3.496  1.00 20.00     0.013 C 
HETATM    2  C5  UNL     1     -34.326   6.036   4.137  1.00 20.00     0.019 C 
ENDROOT
BRANCH   2   3
HETATM    3  C3  UNL     1     -34.059   5.233   5.417  1.00 20.00     0.172 C 
BRANCH   3   4
HETATM    4  O6  UNL     1     -34.445   5.971   6.570  1.00 20.00    -0.396 OA
HETATM    5  C2  UNL     1     -33.667   7.150   6.719  1.00 20.00     0.201 C 
ENDBRANCH   3   4
ENDBRANCH   2   3
BRANCH   2   6
HETATM    6  C4  UNL     1     -33.151   5.992   3.147  1.00 20.00     0.121 C 
HETATM    7 CL7  UNL     1     -31.844   7.136   3.538  1.00 20.00    -0.130 Cl
ENDBRANCH   2   6
TORSDOF 3
ENDMDL
MODEL 6
REMARK VINA RESULT:      -3.2     11.379     12.263
REMARK  3 active torsions:
REMARK  status: ('A' for Active; 'I' for Inactive)
REMARK    1  A    between atoms: C3_3  and  C5_5 
REMARK    2  A    between atoms: C3_3  and  O6_6 
REMARK    3  A    between atoms: C4_4  and  C5_5 
ROOT
HETATM    1  C1  UNL     1     -33.295  16.454  -5.144  1.00 20.00     0.013 C 
HETATM    2  C5  UNL     1     -33.792  15.759  -3.875  1.00 20.00     0.019 C 
ENDROOT
BRANCH   2   3
HETATM    3  C3  UNL     1     -33.119  14.389  -3.718  1.00 20.00     0.172 C 
BRANCH   3   4
HETATM    4  O6  UNL     1     -34.074  13.388  -3.390  1.00 20.00    -0.396 OA
HETATM    5  C2  UNL     1     -35.118  13.329  -4.352  1.00 20.00     0.201 C 
ENDBRANCH   3   4
ENDBRANCH   2   3
BRANCH   2   6
HETATM    6  C4  UNL     1     -33.642  16.646  -2.628  1.00 20.00     0.121 C 
HETATM    7 CL7  UNL     1     -34.747  16.205  -1.303  1.00 20.00    -0.130 Cl
ENDBRANCH   2   6
TORSDOF 3
ENDMDL
MODEL 7
REMARK VINA RESULT:      -3.1     12.054     12.488
REMARK  3 active torsions:
REMARK  status: ('A' for Active; 'I' for Inactive)
REMARK    1  A    between atoms: C3_3  and  C5_5 
REMARK    2  A    between atoms: C3_3  and  O6_6 
REMARK    3  A    between atoms: C4_4  and  C5_5 
ROOT
HETATM    1  C1  UNL     1     -34.608  16.493  -1.196  1.00 20.00     0.013 C 
HETATM    2  C5  UNL     1     -34.072  16.010  -2.544  1.00 20.00     0.019 C 
ENDROOT
BRANCH   2   3
HETATM    3  C3  UNL     1     -35.040  14.999  -3.172  1.00 20.00     0.172 C 
BRANCH   3   4
HETATM    4  O6  UNL     1     -34.384  13.766  -3.441  1.00 20.00    -0.396 OA
HETATM    5  C2  UNL     1     -34.651  13.311  -4.760  1.00 20.00     0.201 C 
ENDBRANCH   3   4
ENDBRANCH   2   3
BRANCH   2   6
HETATM    6  C4  UNL     1     -33.728  17.175  -3.487  1.00 20.00     0.121 C 
HETATM    7 CL7  UNL     1     -33.158  16.651  -5.090  1.00 20.00    -0.130 Cl
ENDBRANCH   2   6
TORSDOF 3
ENDMDL
MODEL 8
REMARK VINA RESULT:      -3.1      2.816      3.818
REMARK  3 active torsions:
REMARK  status: ('A' for Active; 'I' for Inactive)
REMARK    1  A    between atoms: C3_3  and  C5_5 
REMARK    2  A    between atoms: C3_3  and  O6_6 
REMARK    3  A    between atoms: C4_4  and  C5_5 
ROOT
HETATM    1  C1  UNL     1     -33.716   6.833   5.460  1.00 20.00     0.013 C 
HETATM    2  C5  UNL     1     -33.684   5.772   4.359  1.00 20.00     0.019 C 
ENDROOT
BRANCH   2   3
HETATM    3  C3  UNL     1     -35.103   5.276   4.054  1.00 20.00     0.172 C 
BRANCH   3   4
HETATM    4  O6  UNL     1     -35.297   3.956   4.545  1.00 20.00    -0.396 OA
HETATM    5  C2  UNL     1     -34.912   3.845   5.909  1.00 20.00     0.201 C 
ENDBRANCH   3   4
ENDBRANCH   2   3
BRANCH   2   6
HETATM    6  C4  UNL     1     -32.936   6.255   3.105  1.00 20.00     0.121 C 
HETATM    7 CL7  UNL     1     -31.702   7.492   3.443  1.00 20.00    -0.130 Cl
ENDBRANCH   2   6
TORSDOF 3
ENDMDL
MODEL 9
REMARK VINA RESULT:      -3.0     11.954     12.396
REMARK  3 active torsions:
REMARK  status: ('A' for Active; 'I' for Inactive)
REMARK    1  A    between atoms: C3_3  and  C5_5 
REMARK    2  A    between atoms: C3_3  and  O6_6 
REMARK    3  A    between atoms: C4_4  and  C5_5 
ROOT
HETATM    1  C1  UNL     1     -34.638  16.275  -1.588  1.00 20.00     0.013 C 
HETATM    2  C5  UNL     1     -34.594  15.961  -3.084  1.00 20.00     0.019 C 
ENDROOT
BRANCH   2   3
HETATM    3  C3  UNL     1     -33.160  15.629  -3.517  1.00 20.00     0.172 C 
BRANCH   3   4
HETATM    4  O6  UNL     1     -32.856  16.227  -4.771  1.00 20.00    -0.396 OA
HETATM    5  C2  UNL     1     -33.483  17.494  -4.909  1.00 20.00     0.201 C 
ENDBRANCH   3   4
ENDBRANCH   2   3
BRANCH   2   6
HETATM    6  C4  UNL     1     -35.606  14.874  -3.482  1.00 20.00     0.121 C 
HETATM    7 CL7  UNL     1     -34.848  13.364  -4.041  1.00 20.00    -0.130 Cl
ENDBRANCH   2   6
TORSDOF 3
ENDMDL
