MODEL 1
REMARK VINA RESULT:      -5.0      0.000      0.000
REMARK  0 active torsions:
REMARK  status: ('A' for Active; 'I' for Inactive)
ROOT
HETATM    1  C1  UNL     1     -32.127   7.062   3.303  1.00 20.00     0.088 C 
HETATM    2  C2  UNL     1     -34.058   5.893   4.143  1.00 20.00    -0.046 C 
HETATM    3  C3  UNL     1     -33.192   6.139   3.150  1.00 20.00     0.098 C 
HETATM    4  C4  UNL     1     -35.197   4.919   4.006  1.00 20.00     0.039 C 
HETATM    5  C5  UNL     1     -33.955   6.544   5.494  1.00 20.00     0.202 C 
HETATM    6  C6  UNL     1     -35.205   3.962   5.198  1.00 20.00     0.030 C 
HETATM    7  C7  UNL     1     -35.098   4.727   6.515  1.00 20.00     0.168 C 
HETATM    8  N8  UNL     1     -31.253   7.815   3.420  1.00 20.00    -0.192 NA
HETATM    9  O9  UNL     1     -33.926   5.548   6.521  1.00 20.00    -0.387 OA
ENDROOT
TORSDOF 0
ENDMDL
MODEL 2
REMARK VINA RESULT:      -4.1     12.187     13.123
REMARK  0 active torsions:
REMARK  status: ('A' for Active; 'I' for Inactive)
ROOT
HETATM    1  C1  UNL     1     -34.341  13.528  -4.161  1.00 20.00     0.088 C 
HETATM    2  C2  UNL     1     -34.502  15.524  -2.823  1.00 20.00    -0.046 C 
HETATM    3  C3  UNL     1     -33.763  14.539  -3.353  1.00 20.00     0.098 C 
HETATM    4  C4  UNL     1     -33.914  16.609  -1.962  1.00 20.00     0.039 C 
HETATM    5  C5  UNL     1     -35.980  15.654  -3.062  1.00 20.00     0.202 C 
HETATM    6  C6  UNL     1     -34.381  17.976  -2.461  1.00 20.00     0.030 C 
HETATM    7  C7  UNL     1     -35.894  17.996  -2.669  1.00 20.00     0.168 C 
HETATM    8  N8  UNL     1     -34.806  12.697  -4.824  1.00 20.00    -0.192 NA
HETATM    9  O9  UNL     1     -36.287  16.956  -3.569  1.00 20.00    -0.387 OA
ENDROOT
TORSDOF 0
ENDMDL
MODEL 3
REMARK VINA RESULT:      -4.1     11.926     12.946
REMARK  0 active torsions:
REMARK  status: ('A' for Active; 'I' for Inactive)
ROOT
HETATM    1  C1  UNL     1     -37.795  14.904  -3.975  1.00 20.00     0.088 C 
HETATM    2  C2  UNL     1     -35.420  15.048  -4.349  1.00 20.00    -0.046 C 
HETATM    3  C3  UNL     1     -36.603  15.649  -4.165  1.00 20.00     0.098 C 
HETATM    4  C4  UNL     1     -34.141  15.815  -4.552  1.00 20.00     0.039 C 
HETATM    5  C5  UNL     1     -35.254  13.554  -4.339  1.00 20.00     0.202 C 
HETATM    6  C6  UNL     1     -33.061  15.280  -3.612  1.00 20.00     0.030 C 
HETATM    7  C7  UNL     1     -32.978  13.757  -3.683  1.00 20.00     0.168 C 
HETATM    8  N8  UNL     1     -38.773  14.302  -3.819  1.00 20.00    -0.192 NA
HETATM    9  O9  UNL     1     -34.252  13.174  -3.391  1.00 20.00    -0.387 OA
ENDROOT
TORSDOF 0
ENDMDL
MODEL 4
REMARK VINA RESULT:      -4.1      1.617      2.169
REMARK  0 active torsions:
REMARK  status: ('A' for Active; 'I' for Inactive)
ROOT
HETATM    1  C1  UNL     1     -32.108   7.826   2.495  1.00 20.00     0.088 C 
HETATM    2  C2  UNL     1     -33.097   6.231   4.004  1.00 20.00    -0.046 C 
HETATM    3  C3  UNL     1     -32.280   7.271   3.788  1.00 20.00     0.098 C 
HETATM    4  C4  UNL     1     -33.297   5.623   5.365  1.00 20.00     0.039 C 
HETATM    5  C5  UNL     1     -33.911   5.594   2.912  1.00 20.00     0.202 C 
HETATM    6  C6  UNL     1     -34.792   5.486   5.656  1.00 20.00     0.030 C 
HETATM    7  C7  UNL     1     -35.519   4.827   4.486  1.00 20.00     0.168 C 
HETATM    8  N8  UNL     1     -31.961   8.286   1.440  1.00 20.00    -0.192 NA
HETATM    9  O9  UNL     1     -35.293   5.563   3.280  1.00 20.00    -0.387 OA
ENDROOT
TORSDOF 0
ENDMDL
MODEL 5
REMARK VINA RESULT:      -4.0     12.003     12.672
REMARK  0 active torsions:
REMARK  status: ('A' for Active; 'I' for Inactive)
ROOT
HETATM    1  C1  UNL     1     -35.029  17.366  -0.789  1.00 20.00     0.088 C 
HETATM    2  C2  UNL     1     -34.495  15.945  -2.659  1.00 20.00    -0.046 C 
HETATM    3  C3  UNL     1     -34.120  16.575  -1.537  1.00 20.00     0.098 C 
HETATM    4  C4  UNL     1     -33.552  15.100  -3.471  1.00 20.00     0.039 C 
HETATM    5  C5  UNL     1     -35.899  15.999  -3.194  1.00 20.00     0.202 C 
HETATM    6  C6  UNL     1     -34.194  13.745  -3.767  1.00 20.00     0.030 C 
HETATM    7  C7  UNL     1     -35.613  13.917  -4.305  1.00 20.00     0.168 C 
HETATM    8  N8  UNL     1     -35.766  18.014  -0.171  1.00 20.00    -0.192 NA
HETATM    9  O9  UNL     1     -36.406  14.675  -3.387  1.00 20.00    -0.387 OA
ENDROOT
TORSDOF 0
ENDMDL
MODEL 6
REMARK VINA RESULT:      -3.9     13.279     14.803
REMARK  0 active torsions:
REMARK  status: ('A' for Active; 'I' for Inactive)
ROOT
HETATM    1  C1  UNL     1     -34.835  13.572  -5.101  1.00 20.00     0.088 C 
HETATM    2  C2  UNL     1     -34.256  15.679  -6.113  1.00 20.00    -0.046 C 
HETATM    3  C3  UNL     1     -34.957  14.536  -6.133  1.00 20.00     0.098 C 
HETATM    4  C4  UNL     1     -34.367  16.719  -7.194  1.00 20.00     0.039 C 
HETATM    5  C5  UNL     1     -33.318  16.041  -4.996  1.00 20.00     0.202 C 
HETATM    6  C6  UNL     1     -34.592  18.095  -6.568  1.00 20.00     0.030 C 
HETATM    7  C7  UNL     1     -33.587  18.359  -5.449  1.00 20.00     0.168 C 
HETATM    8  N8  UNL     1     -34.741  12.777  -4.261  1.00 20.00    -0.192 NA
HETATM    9  O9  UNL     1     -33.656  17.325  -4.463  1.00 20.00    -0.387 OA
ENDROOT
TORSDOF 0
ENDMDL
MODEL 7
REMARK VINA RESULT:      -3.9     12.542     13.226
REMARK  0 active torsions:
REMARK  status: ('A' for Active; 'I' for Inactive)
ROOT
HETATM    1  C1  UNL     1     -33.996  16.944  -1.360  1.00 20.00     0.088 C 
HETATM    2  C2  UNL     1     -34.456  15.375  -3.129  1.00 20.00    -0.046 C 
HETATM    3  C3  UNL     1     -34.780  15.918  -1.947  1.00 20.00     0.098 C 
HETATM    4  C4  UNL     1     -35.270  14.287  -3.774  1.00 20.00     0.039 C 
HETATM    5  C5  UNL     1     -33.267  15.823  -3.933  1.00 20.00     0.202 C 
HETATM    6  C6  UNL     1     -35.561  14.652  -5.230  1.00 20.00     0.030 C 
HETATM    7  C7  UNL     1     -34.288  15.089  -5.950  1.00 20.00     0.168 C 
HETATM    8  N8  UNL     1     -33.361  17.783  -0.872  1.00 20.00    -0.192 NA
HETATM    9  O9  UNL     1     -33.673  16.179  -5.258  1.00 20.00    -0.387 OA
ENDROOT
TORSDOF 0
ENDMDL
MODEL 8
REMARK VINA RESULT:      -3.8     11.037     12.062
REMARK  0 active torsions:
REMARK  status: ('A' for Active; 'I' for Inactive)
ROOT
HETATM    1  C1  UNL     1     -41.874   1.798  -4.213  1.00 20.00     0.088 C 
HETATM    2  C2  UNL     1     -41.994   3.607  -2.628  1.00 20.00    -0.046 C 
HETATM    3  C3  UNL     1     -41.353   2.539  -3.123  1.00 20.00     0.098 C 
HETATM    4  C4  UNL     1     -41.463   4.411  -1.472  1.00 20.00     0.039 C 
HETATM    5  C5  UNL     1     -43.287   4.118  -3.199  1.00 20.00     0.202 C 
HETATM    6  C6  UNL     1     -41.483   5.898  -1.824  1.00 20.00     0.030 C 
HETATM    7  C7  UNL     1     -42.839   6.309  -2.392  1.00 20.00     0.168 C 
HETATM    8  N8  UNL     1     -42.293   1.186  -5.105  1.00 20.00    -0.192 NA
HETATM    9  O9  UNL     1     -43.167   5.505  -3.529  1.00 20.00    -0.387 OA
ENDROOT
TORSDOF 0
ENDMDL
MODEL 9
REMARK VINA RESULT:      -3.8     12.455     13.424
REMARK  0 active torsions:
REMARK  status: ('A' for Active; 'I' for Inactive)
ROOT
HETATM    1  C1  UNL     1     -34.460  13.685  -4.879  1.00 20.00     0.088 C 
HETATM    2  C2  UNL     1     -36.491  14.937  -5.209  1.00 20.00    -0.046 C 
HETATM    3  C3  UNL     1     -35.359  14.414  -5.699  1.00 20.00     0.098 C 
HETATM    4  C4  UNL     1     -37.461  15.714  -6.057  1.00 20.00     0.039 C 
HETATM    5  C5  UNL     1     -36.912  14.772  -3.775  1.00 20.00     0.202 C 
HETATM    6  C6  UNL     1     -38.877  15.178  -5.846  1.00 20.00     0.030 C 
HETATM    7  C7  UNL     1     -39.199  15.052  -4.359  1.00 20.00     0.168 C 
HETATM    8  N8  UNL     1     -33.720  13.088  -4.215  1.00 20.00    -0.192 NA
HETATM    9  O9  UNL     1     -38.232  14.224  -3.708  1.00 20.00    -0.387 OA
ENDROOT
TORSDOF 0
ENDMDL
