MODEL 1
REMARK VINA RESULT:      -4.2      0.000      0.000
REMARK  0 active torsions:
REMARK  status: ('A' for Active; 'I' for Inactive)
ROOT
HETATM    1  C1  UNL     1     -37.203  14.527  -3.939  1.00 20.00     0.087 C 
HETATM    2  C2  UNL     1     -33.483  15.306  -3.481  1.00 20.00     0.029 C 
HETATM    3  C3  UNL     1     -34.993  15.432  -3.292  1.00 20.00     0.045 C 
HETATM    4  C4  UNL     1     -33.071  13.843  -3.544  1.00 20.00     0.167 C 
HETATM    5  C5  UNL     1     -35.194  13.147  -4.344  1.00 20.00     0.208 C 
HETATM    6  C6  UNL     1     -35.775  14.565  -4.290  1.00 20.00     0.146 C 
HETATM    7  N7  UNL     1     -38.329  14.498  -3.663  1.00 20.00    -0.195 NA
HETATM    8  O8  UNL     1     -33.783  13.162  -4.575  1.00 20.00    -0.388 OA
HETATM    9 CL9  UNL     1     -35.681  15.299  -5.932  1.00 20.00    -0.101 Cl
ENDROOT
TORSDOF 0
ENDMDL
MODEL 2
REMARK VINA RESULT:      -4.1      1.815      2.226
REMARK  0 active torsions:
REMARK  status: ('A' for Active; 'I' for Inactive)
ROOT
HETATM    1  C1  UNL     1     -36.835  14.499  -4.047  1.00 20.00     0.087 C 
HETATM    2  C2  UNL     1     -33.972  15.976  -6.114  1.00 20.00     0.029 C 
HETATM    3  C3  UNL     1     -35.393  15.539  -5.767  1.00 20.00     0.045 C 
HETATM    4  C4  UNL     1     -33.292  16.600  -4.904  1.00 20.00     0.167 C 
HETATM    5  C5  UNL     1     -34.631  15.385  -3.367  1.00 20.00     0.208 C 
HETATM    6  C6  UNL     1     -35.443  14.708  -4.476  1.00 20.00     0.146 C 
HETATM    7  N7  UNL     1     -37.932  14.333  -3.708  1.00 20.00    -0.195 NA
HETATM    8  O8  UNL     1     -33.305  15.699  -3.798  1.00 20.00    -0.388 OA
HETATM    9 CL9  UNL     1     -34.762  13.070  -4.785  1.00 20.00    -0.101 Cl
ENDROOT
TORSDOF 0
ENDMDL
MODEL 3
REMARK VINA RESULT:      -4.0      2.805      3.373
REMARK  0 active torsions:
REMARK  status: ('A' for Active; 'I' for Inactive)
ROOT
HETATM    1  C1  UNL     1     -34.554  13.721  -4.276  1.00 20.00     0.087 C 
HETATM    2  C2  UNL     1     -33.437  17.290  -5.093  1.00 20.00     0.029 C 
HETATM    3  C3  UNL     1     -33.890  15.853  -5.340  1.00 20.00     0.045 C 
HETATM    4  C4  UNL     1     -34.198  17.898  -3.924  1.00 20.00     0.167 C 
HETATM    5  C5  UNL     1     -34.596  15.786  -2.920  1.00 20.00     0.208 C 
HETATM    6  C6  UNL     1     -33.900  15.020  -4.051  1.00 20.00     0.146 C 
HETATM    7  N7  UNL     1     -35.068  12.697  -4.453  1.00 20.00    -0.195 NA
HETATM    8  O8  UNL     1     -34.050  17.096  -2.755  1.00 20.00    -0.388 OA
HETATM    9 CL9  UNL     1     -32.209  14.651  -3.555  1.00 20.00    -0.101 Cl
ENDROOT
TORSDOF 0
ENDMDL
MODEL 4
REMARK VINA RESULT:      -4.0      2.568      3.249
REMARK  0 active torsions:
REMARK  status: ('A' for Active; 'I' for Inactive)
ROOT
HETATM    1  C1  UNL     1     -34.414  15.810  -2.336  1.00 20.00     0.087 C 
HETATM    2  C2  UNL     1     -34.765  13.283  -5.190  1.00 20.00     0.029 C 
HETATM    3  C3  UNL     1     -34.902  13.865  -3.785  1.00 20.00     0.045 C 
HETATM    4  C4  UNL     1     -34.999  14.358  -6.241  1.00 20.00     0.167 C 
HETATM    5  C5  UNL     1     -34.321  16.107  -4.787  1.00 20.00     0.208 C 
HETATM    6  C6  UNL     1     -34.083  15.153  -3.610  1.00 20.00     0.146 C 
HETATM    7  N7  UNL     1     -34.673  16.328  -1.331  1.00 20.00    -0.195 NA
HETATM    8  O8  UNL     1     -34.113  15.458  -6.043  1.00 20.00    -0.388 OA
HETATM    9 CL9  UNL     1     -32.331  14.750  -3.527  1.00 20.00    -0.101 Cl
ENDROOT
TORSDOF 0
ENDMDL
MODEL 5
REMARK VINA RESULT:      -3.9      2.614      3.200
REMARK  0 active torsions:
REMARK  status: ('A' for Active; 'I' for Inactive)
ROOT
HETATM    1  C1  UNL     1     -34.747  13.827  -4.810  1.00 20.00     0.087 C 
HETATM    2  C2  UNL     1     -35.425  17.560  -5.320  1.00 20.00     0.029 C 
HETATM    3  C3  UNL     1     -35.722  16.089  -5.040  1.00 20.00     0.045 C 
HETATM    4  C4  UNL     1     -34.135  17.986  -4.634  1.00 20.00     0.167 C 
HETATM    5  C5  UNL     1     -33.248  15.786  -4.654  1.00 20.00     0.208 C 
HETATM    6  C6  UNL     1     -34.504  15.192  -5.303  1.00 20.00     0.146 C 
HETATM    7  N7  UNL     1     -34.938  12.751  -4.422  1.00 20.00    -0.195 NA
HETATM    8  O8  UNL     1     -33.052  17.150  -5.033  1.00 20.00    -0.388 OA
HETATM    9 CL9  UNL     1     -34.233  15.044  -7.077  1.00 20.00    -0.101 Cl
ENDROOT
TORSDOF 0
ENDMDL
MODEL 6
REMARK VINA RESULT:      -3.9     11.438     12.188
REMARK  0 active torsions:
REMARK  status: ('A' for Active; 'I' for Inactive)
ROOT
HETATM    1  C1  UNL     1     -41.685   3.196  -2.681  1.00 20.00     0.087 C 
HETATM    2  C2  UNL     1     -40.800   5.989  -0.217  1.00 20.00     0.029 C 
HETATM    3  C3  UNL     1     -40.663   4.674  -0.981  1.00 20.00     0.045 C 
HETATM    4  C4  UNL     1     -41.308   7.091  -1.136  1.00 20.00     0.167 C 
HETATM    5  C5  UNL     1     -42.403   5.558  -2.579  1.00 20.00     0.208 C 
HETATM    6  C6  UNL     1     -41.928   4.337  -1.784  1.00 20.00     0.146 C 
HETATM    7  N7  UNL     1     -41.495   2.297  -3.388  1.00 20.00    -0.195 NA
HETATM    8  O8  UNL     1     -42.540   6.711  -1.745  1.00 20.00    -0.388 OA
HETATM    9 CL9  UNL     1     -43.238   3.822  -0.662  1.00 20.00    -0.101 Cl
ENDROOT
TORSDOF 0
ENDMDL
MODEL 7
REMARK VINA RESULT:      -3.9      2.693      3.385
REMARK  0 active torsions:
REMARK  status: ('A' for Active; 'I' for Inactive)
ROOT
HETATM    1  C1  UNL     1     -33.890  17.265  -3.873  1.00 20.00     0.087 C 
HETATM    2  C2  UNL     1     -36.164  14.193  -4.073  1.00 20.00     0.029 C 
HETATM    3  C3  UNL     1     -35.718  15.642  -4.251  1.00 20.00     0.045 C 
HETATM    4  C4  UNL     1     -35.012  13.238  -4.350  1.00 20.00     0.167 C 
HETATM    5  C5  UNL     1     -33.370  14.851  -3.773  1.00 20.00     0.208 C 
HETATM    6  C6  UNL     1     -34.413  15.941  -3.499  1.00 20.00     0.146 C 
HETATM    7  N7  UNL     1     -33.477  18.308  -4.166  1.00 20.00    -0.195 NA
HETATM    8  O8  UNL     1     -33.893  13.545  -3.521  1.00 20.00    -0.388 OA
HETATM    9 CL9  UNL     1     -34.737  16.012  -1.729  1.00 20.00    -0.101 Cl
ENDROOT
TORSDOF 0
ENDMDL
MODEL 8
REMARK VINA RESULT:      -3.9      2.167      2.514
REMARK  0 active torsions:
REMARK  status: ('A' for Active; 'I' for Inactive)
ROOT
HETATM    1  C1  UNL     1     -36.812  14.881  -3.554  1.00 20.00     0.087 C 
HETATM    2  C2  UNL     1     -32.995  15.071  -3.766  1.00 20.00     0.029 C 
HETATM    3  C3  UNL     1     -34.379  14.443  -3.618  1.00 20.00     0.045 C 
HETATM    4  C4  UNL     1     -33.013  16.162  -4.827  1.00 20.00     0.167 C 
HETATM    5  C5  UNL     1     -35.324  16.600  -4.520  1.00 20.00     0.208 C 
HETATM    6  C6  UNL     1     -35.481  15.501  -3.463  1.00 20.00     0.146 C 
HETATM    7  N7  UNL     1     -37.862  14.393  -3.624  1.00 20.00    -0.195 NA
HETATM    8  O8  UNL     1     -34.002  17.143  -4.526  1.00 20.00    -0.388 OA
HETATM    9 CL9  UNL     1     -35.384  16.243  -1.826  1.00 20.00    -0.101 Cl
ENDROOT
TORSDOF 0
ENDMDL
MODEL 9
REMARK VINA RESULT:      -3.9      2.574      3.020
REMARK  0 active torsions:
REMARK  status: ('A' for Active; 'I' for Inactive)
ROOT
HETATM    1  C1  UNL     1     -34.942  13.748  -4.345  1.00 20.00     0.087 C 
HETATM    2  C2  UNL     1     -34.183  16.861  -2.251  1.00 20.00     0.029 C 
HETATM    3  C3  UNL     1     -34.215  15.385  -2.639  1.00 20.00     0.045 C 
HETATM    4  C4  UNL     1     -33.902  17.730  -3.469  1.00 20.00     0.167 C 
HETATM    5  C5  UNL     1     -34.808  16.134  -4.973  1.00 20.00     0.208 C 
HETATM    6  C6  UNL     1     -35.111  15.127  -3.859  1.00 20.00     0.146 C 
HETATM    7  N7  UNL     1     -34.810  12.662  -4.729  1.00 20.00    -0.195 NA
HETATM    8  O8  UNL     1     -34.858  17.481  -4.497  1.00 20.00    -0.388 OA
HETATM    9 CL9  UNL     1     -36.841  15.281  -3.382  1.00 20.00    -0.101 Cl
ENDROOT
TORSDOF 0
ENDMDL
