MODEL 1
REMARK VINA RESULT:      -4.3      0.000      0.000
REMARK  0 active torsions:
REMARK  status: ('A' for Active; 'I' for Inactive)
ROOT
HETATM    1  C1  UNL     1     -34.534  13.748  -4.156  1.00 20.00     0.087 C 
HETATM    2  C2  UNL     1     -33.945  17.030  -2.276  1.00 20.00     0.029 C 
HETATM    3  C3  UNL     1     -34.468  15.619  -2.541  1.00 20.00     0.045 C 
HETATM    4  C4  UNL     1     -34.034  17.879  -3.536  1.00 20.00     0.167 C 
HETATM    5  C5  UNL     1     -33.901  15.993  -4.970  1.00 20.00     0.208 C 
HETATM    6  C6  UNL     1     -33.849  15.001  -3.803  1.00 20.00     0.146 C 
HETATM    7  N7  UNL     1     -35.074  12.760  -4.436  1.00 20.00    -0.195 NA
HETATM    8  O8  UNL     1     -33.337  17.258  -4.614  1.00 20.00    -0.388 OA
HETATM    9 CL9  UNL     1     -32.133  14.561  -3.483  1.00 20.00    -0.101 Cl
ENDROOT
TORSDOF 0
ENDMDL
MODEL 2
REMARK VINA RESULT:      -4.3      2.087      2.263
REMARK  0 active torsions:
REMARK  status: ('A' for Active; 'I' for Inactive)
ROOT
HETATM    1  C1  UNL     1     -36.916  14.500  -3.984  1.00 20.00     0.087 C 
HETATM    2  C2  UNL     1     -33.305  15.632  -3.409  1.00 20.00     0.029 C 
HETATM    3  C3  UNL     1     -34.734  15.215  -3.067  1.00 20.00     0.045 C 
HETATM    4  C4  UNL     1     -33.289  16.528  -4.639  1.00 20.00     0.167 C 
HETATM    5  C5  UNL     1     -35.304  15.611  -5.492  1.00 20.00     0.208 C 
HETATM    6  C6  UNL     1     -35.489  14.676  -4.291  1.00 20.00     0.146 C 
HETATM    7  N7  UNL     1     -38.042  14.361  -3.744  1.00 20.00    -0.195 NA
HETATM    8  O8  UNL     1     -33.923  15.884  -5.742  1.00 20.00    -0.388 OA
HETATM    9 CL9  UNL     1     -34.862  13.043  -4.717  1.00 20.00    -0.101 Cl
ENDROOT
TORSDOF 0
ENDMDL
MODEL 3
REMARK VINA RESULT:      -4.1      2.374      2.862
REMARK  0 active torsions:
REMARK  status: ('A' for Active; 'I' for Inactive)
ROOT
HETATM    1  C1  UNL     1     -37.064  14.503  -4.066  1.00 20.00     0.087 C 
HETATM    2  C2  UNL     1     -33.298  13.830  -3.931  1.00 20.00     0.029 C 
HETATM    3  C3  UNL     1     -34.793  13.575  -3.752  1.00 20.00     0.045 C 
HETATM    4  C4  UNL     1     -32.956  15.272  -3.584  1.00 20.00     0.167 C 
HETATM    5  C5  UNL     1     -35.137  16.049  -4.103  1.00 20.00     0.208 C 
HETATM    6  C6  UNL     1     -35.650  14.645  -4.444  1.00 20.00     0.146 C 
HETATM    7  N7  UNL     1     -38.179  14.391  -3.769  1.00 20.00    -0.195 NA
HETATM    8  O8  UNL     1     -33.737  16.177  -4.361  1.00 20.00    -0.388 OA
HETATM    9 CL9  UNL     1     -35.582  14.414  -6.228  1.00 20.00    -0.101 Cl
ENDROOT
TORSDOF 0
ENDMDL
MODEL 4
REMARK VINA RESULT:      -4.0      2.784      3.660
REMARK  0 active torsions:
REMARK  status: ('A' for Active; 'I' for Inactive)
ROOT
HETATM    1  C1  UNL     1     -33.912  17.475  -3.847  1.00 20.00     0.087 C 
HETATM    2  C2  UNL     1     -33.504  13.673  -3.680  1.00 20.00     0.029 C 
HETATM    3  C3  UNL     1     -33.102  15.139  -3.826  1.00 20.00     0.045 C 
HETATM    4  C4  UNL     1     -34.818  13.405  -4.401  1.00 20.00     0.167 C 
HETATM    5  C5  UNL     1     -35.546  15.652  -4.182  1.00 20.00     0.208 C 
HETATM    6  C6  UNL     1     -34.255  16.093  -3.482  1.00 20.00     0.146 C 
HETATM    7  N7  UNL     1     -33.643  18.566  -4.135  1.00 20.00    -0.195 NA
HETATM    8  O8  UNL     1     -35.842  14.276  -3.928  1.00 20.00    -0.388 OA
HETATM    9 CL9  UNL     1     -34.526  16.097  -1.702  1.00 20.00    -0.101 Cl
ENDROOT
TORSDOF 0
ENDMDL
MODEL 5
REMARK VINA RESULT:      -4.0      2.298      3.338
REMARK  0 active torsions:
REMARK  status: ('A' for Active; 'I' for Inactive)
ROOT
HETATM    1  C1  UNL     1     -34.462  15.767  -2.415  1.00 20.00     0.087 C 
HETATM    2  C2  UNL     1     -34.244  15.414  -6.220  1.00 20.00     0.029 C 
HETATM    3  C3  UNL     1     -34.341  16.104  -4.862  1.00 20.00     0.045 C 
HETATM    4  C4  UNL     1     -35.118  14.168  -6.251  1.00 20.00     0.167 C 
HETATM    5  C5  UNL     1     -34.989  13.864  -3.901  1.00 20.00     0.208 C 
HETATM    6  C6  UNL     1     -34.139  15.124  -3.698  1.00 20.00     0.146 C 
HETATM    7  N7  UNL     1     -34.716  16.273  -1.403  1.00 20.00    -0.195 NA
HETATM    8  O8  UNL     1     -34.772  13.282  -5.188  1.00 20.00    -0.388 OA
HETATM    9 CL9  UNL     1     -32.405  14.651  -3.600  1.00 20.00    -0.101 Cl
ENDROOT
TORSDOF 0
ENDMDL
MODEL 6
REMARK VINA RESULT:      -3.9      1.914      2.150
REMARK  0 active torsions:
REMARK  status: ('A' for Active; 'I' for Inactive)
ROOT
HETATM    1  C1  UNL     1     -34.785  13.744  -4.447  1.00 20.00     0.087 C 
HETATM    2  C2  UNL     1     -33.746  16.714  -2.268  1.00 20.00     0.029 C 
HETATM    3  C3  UNL     1     -33.626  15.378  -2.997  1.00 20.00     0.045 C 
HETATM    4  C4  UNL     1     -35.126  16.861  -1.642  1.00 20.00     0.167 C 
HETATM    5  C5  UNL     1     -36.138  15.411  -3.224  1.00 20.00     0.208 C 
HETATM    6  C6  UNL     1     -34.812  15.124  -3.938  1.00 20.00     0.146 C 
HETATM    7  N7  UNL     1     -34.765  12.656  -4.849  1.00 20.00    -0.195 NA
HETATM    8  O8  UNL     1     -36.146  16.710  -2.627  1.00 20.00    -0.388 OA
HETATM    9 CL9  UNL     1     -34.679  16.193  -5.381  1.00 20.00    -0.101 Cl
ENDROOT
TORSDOF 0
ENDMDL
MODEL 7
REMARK VINA RESULT:      -3.9      2.286      2.439
REMARK  0 active torsions:
REMARK  status: ('A' for Active; 'I' for Inactive)
ROOT
HETATM    1  C1  UNL     1     -34.758  13.805  -4.942  1.00 20.00     0.087 C 
HETATM    2  C2  UNL     1     -33.460  17.395  -5.220  1.00 20.00     0.029 C 
HETATM    3  C3  UNL     1     -33.471  15.914  -4.847  1.00 20.00     0.045 C 
HETATM    4  C4  UNL     1     -34.836  18.011  -5.008  1.00 20.00     0.167 C 
HETATM    5  C5  UNL     1     -35.951  15.938  -5.308  1.00 20.00     0.208 C 
HETATM    6  C6  UNL     1     -34.642  15.162  -5.496  1.00 20.00     0.146 C 
HETATM    7  N7  UNL     1     -34.852  12.734  -4.506  1.00 20.00    -0.195 NA
HETATM    8  O8  UNL     1     -35.828  17.295  -5.741  1.00 20.00    -0.388 OA
HETATM    9 CL9  UNL     1     -34.329  14.960  -7.257  1.00 20.00    -0.101 Cl
ENDROOT
TORSDOF 0
ENDMDL
MODEL 8
REMARK VINA RESULT:      -3.9      1.598      1.835
REMARK  0 active torsions:
REMARK  status: ('A' for Active; 'I' for Inactive)
ROOT
HETATM    1  C1  UNL     1     -34.807  13.925  -4.189  1.00 20.00     0.087 C 
HETATM    2  C2  UNL     1     -35.398  17.645  -4.871  1.00 20.00     0.029 C 
HETATM    3  C3  UNL     1     -35.705  16.152  -4.782  1.00 20.00     0.045 C 
HETATM    4  C4  UNL     1     -33.987  17.871  -5.397  1.00 20.00     0.167 C 
HETATM    5  C5  UNL     1     -33.218  15.771  -4.603  1.00 20.00     0.208 C 
HETATM    6  C6  UNL     1     -34.595  15.375  -4.059  1.00 20.00     0.146 C 
HETATM    7  N7  UNL     1     -34.973  12.782  -4.291  1.00 20.00    -0.195 NA
HETATM    8  O8  UNL     1     -33.031  17.189  -4.588  1.00 20.00    -0.388 OA
HETATM    9 CL9  UNL     1     -34.654  15.735  -2.296  1.00 20.00    -0.101 Cl
ENDROOT
TORSDOF 0
ENDMDL
MODEL 9
REMARK VINA RESULT:      -3.8      2.797      3.393
REMARK  0 active torsions:
REMARK  status: ('A' for Active; 'I' for Inactive)
ROOT
HETATM    1  C1  UNL     1     -35.705  14.633  -6.668  1.00 20.00     0.087 C 
HETATM    2  C2  UNL     1     -33.291  15.464  -3.815  1.00 20.00     0.029 C 
HETATM    3  C3  UNL     1     -34.011  15.610  -5.154  1.00 20.00     0.045 C 
HETATM    4  C4  UNL     1     -32.960  14.003  -3.543  1.00 20.00     0.167 C 
HETATM    5  C5  UNL     1     -34.749  13.213  -4.886  1.00 20.00     0.208 C 
HETATM    6  C6  UNL     1     -35.181  14.627  -5.293  1.00 20.00     0.146 C 
HETATM    7  N7  UNL     1     -36.119  14.638  -7.751  1.00 20.00    -0.195 NA
HETATM    8  O8  UNL     1     -34.137  13.200  -3.594  1.00 20.00    -0.388 OA
HETATM    9 CL9  UNL     1     -36.541  15.151  -4.236  1.00 20.00    -0.101 Cl
ENDROOT
TORSDOF 0
ENDMDL
