MODEL 1
REMARK VINA RESULT:      -4.1      0.000      0.000
REMARK  1 active torsions:
REMARK  status: ('A' for Active; 'I' for Inactive)
REMARK    1  A    between atoms: C4_4  and  C6_6 
ROOT
HETATM    1  C1  UNL     1     -35.157  13.229  -4.550  1.00 20.00     0.135 A 
HETATM    2  C2  UNL     1     -36.034  14.205  -4.129  1.00 20.00     0.136 A 
HETATM    3  C3  UNL     1     -33.442  14.320  -3.503  1.00 20.00     0.144 A 
HETATM    4  C4  UNL     1     -34.319  15.295  -3.083  1.00 20.00     0.069 A 
HETATM    5  N7  UNL     1     -33.846  13.269  -4.245  1.00 20.00    -0.270 NA
HETATM    6  N8  UNL     1     -35.631  15.255  -3.388  1.00 20.00    -0.261 NA
ENDROOT
BRANCH   4   7
HETATM    7  C6  UNL     1     -33.837  16.443  -2.265  1.00 20.00     0.131 C 
HETATM    8  C5  UNL     1     -34.574  16.628  -0.931  1.00 20.00     0.033 C 
HETATM    9 CL9  UNL     1     -33.941  17.968  -3.210  1.00 20.00    -0.119 Cl
ENDBRANCH   4   7
TORSDOF 1
ENDMDL
MODEL 2
REMARK VINA RESULT:      -3.9      1.191      1.241
REMARK  1 active torsions:
REMARK  status: ('A' for Active; 'I' for Inactive)
REMARK    1  A    between atoms: C4_4  and  C6_6 
ROOT
HETATM    1  C1  UNL     1     -34.843  13.305  -5.539  1.00 20.00     0.135 A 
HETATM    2  C2  UNL     1     -34.720  14.623  -5.923  1.00 20.00     0.136 A 
HETATM    3  C3  UNL     1     -34.262  13.874  -3.402  1.00 20.00     0.144 A 
HETATM    4  C4  UNL     1     -34.139  15.191  -3.787  1.00 20.00     0.069 A 
HETATM    5  N7  UNL     1     -34.616  12.907  -4.272  1.00 20.00    -0.270 NA
HETATM    6  N8  UNL     1     -34.366  15.589  -5.054  1.00 20.00    -0.261 NA
ENDROOT
BRANCH   4   7
HETATM    7  C6  UNL     1     -33.745  16.233  -2.798  1.00 20.00     0.131 C 
HETATM    8  C5  UNL     1     -34.636  16.294  -1.549  1.00 20.00     0.033 C 
HETATM    9 CL9  UNL     1     -33.716  17.851  -3.577  1.00 20.00    -0.119 Cl
ENDBRANCH   4   7
TORSDOF 1
ENDMDL
MODEL 3
REMARK VINA RESULT:      -3.8      0.925      1.600
REMARK  1 active torsions:
REMARK  status: ('A' for Active; 'I' for Inactive)
REMARK    1  A    between atoms: C4_4  and  C6_6 
ROOT
HETATM    1  C1  UNL     1     -35.176  13.407  -4.443  1.00 20.00     0.135 A 
HETATM    2  C2  UNL     1     -33.835  13.628  -4.212  1.00 20.00     0.136 A 
HETATM    3  C3  UNL     1     -35.693  15.263  -3.212  1.00 20.00     0.144 A 
HETATM    4  C4  UNL     1     -34.353  15.483  -2.980  1.00 20.00     0.069 A 
HETATM    5  N7  UNL     1     -36.128  14.221  -3.948  1.00 20.00    -0.270 NA
HETATM    6  N8  UNL     1     -33.401  14.669  -3.476  1.00 20.00    -0.261 NA
ENDROOT
BRANCH   4   7
HETATM    7  C6  UNL     1     -33.909  16.645  -2.162  1.00 20.00     0.131 C 
HETATM    8  C5  UNL     1     -34.607  16.769  -0.800  1.00 20.00     0.033 C 
HETATM    9 CL9  UNL     1     -34.135  18.174  -3.078  1.00 20.00    -0.119 Cl
ENDBRANCH   4   7
TORSDOF 1
ENDMDL
MODEL 4
REMARK VINA RESULT:      -3.7      3.034      3.941
REMARK  1 active torsions:
REMARK  status: ('A' for Active; 'I' for Inactive)
REMARK    1  A    between atoms: C4_4  and  C6_6 
ROOT
HETATM    1  C1  UNL     1     -34.105  13.739  -3.442  1.00 20.00     0.135 A 
HETATM    2  C2  UNL     1     -33.646  14.987  -3.800  1.00 20.00     0.136 A 
HETATM    3  C3  UNL     1     -34.932  13.438  -5.552  1.00 20.00     0.144 A 
HETATM    4  C4  UNL     1     -34.474  14.687  -5.909  1.00 20.00     0.069 A 
HETATM    5  N7  UNL     1     -34.756  12.942  -4.311  1.00 20.00    -0.270 NA
HETATM    6  N8  UNL     1     -33.822  15.483  -5.040  1.00 20.00    -0.261 NA
ENDROOT
BRANCH   4   7
HETATM    7  C6  UNL     1     -34.687  15.203  -7.290  1.00 20.00     0.131 C 
HETATM    8  C5  UNL     1     -34.588  16.729  -7.422  1.00 20.00     0.033 C 
HETATM    9 CL9  UNL     1     -36.282  14.662  -7.917  1.00 20.00    -0.119 Cl
ENDBRANCH   4   7
TORSDOF 1
ENDMDL
MODEL 5
REMARK VINA RESULT:      -3.6     12.008     12.431
REMARK  1 active torsions:
REMARK  status: ('A' for Active; 'I' for Inactive)
REMARK    1  A    between atoms: C4_4  and  C6_6 
ROOT
HETATM    1  C1  UNL     1     -35.187   4.797   6.090  1.00 20.00     0.135 A 
HETATM    2  C2  UNL     1     -34.355   5.824   6.480  1.00 20.00     0.136 A 
HETATM    3  C3  UNL     1     -34.540   5.100   3.918  1.00 20.00     0.144 A 
HETATM    4  C4  UNL     1     -33.710   6.127   4.309  1.00 20.00     0.069 A 
HETATM    5  N7  UNL     1     -35.294   4.416   4.802  1.00 20.00    -0.270 NA
HETATM    6  N8  UNL     1     -33.603   6.507   5.597  1.00 20.00    -0.261 NA
ENDROOT
BRANCH   4   7
HETATM    7  C6  UNL     1     -32.892   6.860   3.303  1.00 20.00     0.131 C 
HETATM    8  C5  UNL     1     -32.376   5.992   2.147  1.00 20.00     0.033 C 
HETATM    9 CL9  UNL     1     -31.497   7.664   4.102  1.00 20.00    -0.119 Cl
ENDBRANCH   4   7
TORSDOF 1
ENDMDL
MODEL 6
REMARK VINA RESULT:      -3.6     12.013     12.432
REMARK  1 active torsions:
REMARK  status: ('A' for Active; 'I' for Inactive)
REMARK    1  A    between atoms: C4_4  and  C6_6 
ROOT
HETATM    1  C1  UNL     1     -35.166   4.855   6.156  1.00 20.00     0.135 A 
HETATM    2  C2  UNL     1     -35.190   4.474   4.832  1.00 20.00     0.136 A 
HETATM    3  C3  UNL     1     -33.684   6.520   5.649  1.00 20.00     0.144 A 
HETATM    4  C4  UNL     1     -33.707   6.138   4.326  1.00 20.00     0.069 A 
HETATM    5  N7  UNL     1     -34.413   5.885   6.588  1.00 20.00    -0.270 NA
HETATM    6  N8  UNL     1     -34.461   5.108   3.894  1.00 20.00    -0.261 NA
ENDROOT
BRANCH   4   7
HETATM    7  C6  UNL     1     -32.887   6.863   3.316  1.00 20.00     0.131 C 
HETATM    8  C5  UNL     1     -32.385   5.990   2.158  1.00 20.00     0.033 C 
HETATM    9 CL9  UNL     1     -31.481   7.654   4.107  1.00 20.00    -0.119 Cl
ENDBRANCH   4   7
TORSDOF 1
ENDMDL
MODEL 7
REMARK VINA RESULT:      -3.5     12.080     13.267
REMARK  1 active torsions:
REMARK  status: ('A' for Active; 'I' for Inactive)
REMARK    1  A    between atoms: C4_4  and  C6_6 
ROOT
HETATM    1  C1  UNL     1     -41.082   6.866  -1.198  1.00 20.00     0.135 A 
HETATM    2  C2  UNL     1     -42.046   6.897  -2.182  1.00 20.00     0.136 A 
HETATM    3  C3  UNL     1     -41.036   4.583  -1.316  1.00 20.00     0.144 A 
HETATM    4  C4  UNL     1     -42.000   4.614  -2.298  1.00 20.00     0.069 A 
HETATM    5  N7  UNL     1     -40.559   5.709  -0.747  1.00 20.00    -0.270 NA
HETATM    6  N8  UNL     1     -42.522   5.771  -2.749  1.00 20.00    -0.261 NA
ENDROOT
BRANCH   4   7
HETATM    7  C6  UNL     1     -42.503   3.350  -2.903  1.00 20.00     0.131 C 
HETATM    8  C5  UNL     1     -43.380   2.503  -1.970  1.00 20.00     0.033 C 
HETATM    9 CL9  UNL     1     -41.129   2.349  -3.486  1.00 20.00    -0.119 Cl
ENDBRANCH   4   7
TORSDOF 1
ENDMDL
MODEL 8
REMARK VINA RESULT:      -3.5      2.788      3.858
REMARK  1 active torsions:
REMARK  status: ('A' for Active; 'I' for Inactive)
REMARK    1  A    between atoms: C4_4  and  C6_6 
ROOT
HETATM    1  C1  UNL     1     -38.393  16.473  -3.199  1.00 20.00     0.135 A 
HETATM    2  C2  UNL     1     -38.728  15.169  -3.492  1.00 20.00     0.136 A 
HETATM    3  C3  UNL     1     -36.199  16.010  -3.645  1.00 20.00     0.144 A 
HETATM    4  C4  UNL     1     -36.534  14.707  -3.937  1.00 20.00     0.069 A 
HETATM    5  N7  UNL     1     -37.123  16.917  -3.270  1.00 20.00    -0.270 NA
HETATM    6  N8  UNL     1     -37.804  14.263  -3.866  1.00 20.00    -0.261 NA
ENDROOT
BRANCH   4   7
HETATM    7  C6  UNL     1     -35.485  13.732  -4.347  1.00 20.00     0.131 C 
HETATM    8  C5  UNL     1     -34.187  13.811  -3.531  1.00 20.00     0.033 C 
HETATM    9 CL9  UNL     1     -35.096  13.933  -6.090  1.00 20.00    -0.119 Cl
ENDBRANCH   4   7
TORSDOF 1
ENDMDL
MODEL 9
REMARK VINA RESULT:      -3.5     11.728     12.739
REMARK  1 active torsions:
REMARK  status: ('A' for Active; 'I' for Inactive)
REMARK    1  A    between atoms: C4_4  and  C6_6 
ROOT
HETATM    1  C1  UNL     1     -42.781   3.218  -3.544  1.00 20.00     0.135 A 
HETATM    2  C2  UNL     1     -41.639   3.025  -2.798  1.00 20.00     0.136 A 
HETATM    3  C3  UNL     1     -42.871   5.392  -2.842  1.00 20.00     0.144 A 
HETATM    4  C4  UNL     1     -41.730   5.198  -2.095  1.00 20.00     0.069 A 
HETATM    5  N7  UNL     1     -43.417   4.405  -3.580  1.00 20.00    -0.270 NA
HETATM    6  N8  UNL     1     -41.094   4.011  -2.060  1.00 20.00    -0.261 NA
ENDROOT
BRANCH   4   7
HETATM    7  C6  UNL     1     -41.156   6.312  -1.291  1.00 20.00     0.131 C 
HETATM    8  C5  UNL     1     -40.950   5.984   0.195  1.00 20.00     0.033 C 
HETATM    9 CL9  UNL     1     -42.186   7.777  -1.431  1.00 20.00    -0.119 Cl
ENDBRANCH   4   7
TORSDOF 1
ENDMDL
