MODEL 1
REMARK VINA RESULT:      -4.1      0.000      0.000
REMARK  4 active torsions:
REMARK  status: ('A' for Active; 'I' for Inactive)
REMARK    1  A    between atoms: C4_4  and  C6_6 
REMARK    2  A    between atoms: C4_4  and  O8_8 
REMARK    3  A    between atoms: C5_5  and  C6_6 
REMARK    4  A    between atoms: C7_7  and  O8_8 
ROOT
HETATM    1  C4  UNL     1     -33.893   6.812   4.001  1.00 20.00     0.173 C 
ENDROOT
BRANCH   1   2
HETATM    2  C6  UNL     1     -32.862   6.699   2.869  1.00 20.00     0.019 C 
HETATM    3  C1  UNL     1     -32.055   5.407   3.011  1.00 20.00     0.013 C 
BRANCH   2   4
HETATM    4  C5  UNL     1     -31.962   7.940   2.753  1.00 20.00     0.121 C 
HETATM    5 CL9  UNL     1     -32.045   8.735   1.162  1.00 20.00    -0.130 Cl
ENDBRANCH   2   4
ENDBRANCH   1   2
BRANCH   1   6
HETATM    6  O8  UNL     1     -34.715   5.654   4.056  1.00 20.00    -0.386 OA
BRANCH   6   7
HETATM    7  C7  UNL     1     -35.028   5.301   5.396  1.00 20.00     0.113 C 
HETATM    8  C2  UNL     1     -34.770   3.815   5.596  1.00 20.00     0.039 C 
HETATM    9  C3  UNL     1     -34.200   6.153   6.346  1.00 20.00     0.039 C 
ENDBRANCH   6   7
ENDBRANCH   1   6
TORSDOF 4
ENDMDL
MODEL 2
REMARK VINA RESULT:      -4.0      2.789      4.670
REMARK  4 active torsions:
REMARK  status: ('A' for Active; 'I' for Inactive)
REMARK    1  A    between atoms: C4_4  and  C6_6 
REMARK    2  A    between atoms: C4_4  and  O8_8 
REMARK    3  A    between atoms: C5_5  and  C6_6 
REMARK    4  A    between atoms: C7_7  and  O8_8 
ROOT
HETATM    1  C4  UNL     1     -32.996   6.179   3.893  1.00 20.00     0.173 C 
ENDROOT
BRANCH   1   2
HETATM    2  C6  UNL     1     -34.287   6.225   4.722  1.00 20.00     0.019 C 
HETATM    3  C1  UNL     1     -33.965   6.496   6.193  1.00 20.00     0.013 C 
BRANCH   2   4
HETATM    4  C5  UNL     1     -35.163   4.975   4.537  1.00 20.00     0.121 C 
HETATM    5 CL9  UNL     1     -35.055   3.822   5.889  1.00 20.00    -0.130 Cl
ENDBRANCH   2   4
ENDBRANCH   1   2
BRANCH   1   6
HETATM    6  O8  UNL     1     -33.126   6.951   2.707  1.00 20.00    -0.386 OA
BRANCH   6   7
HETATM    7  C7  UNL     1     -31.948   7.699   2.440  1.00 20.00     0.113 C 
HETATM    8  C2  UNL     1     -32.327   8.996   1.741  1.00 20.00     0.039 C 
HETATM    9  C3  UNL     1     -31.209   7.953   3.745  1.00 20.00     0.039 C 
ENDBRANCH   6   7
ENDBRANCH   1   6
TORSDOF 4
ENDMDL
MODEL 3
REMARK VINA RESULT:      -3.9      2.456      4.370
REMARK  4 active torsions:
REMARK  status: ('A' for Active; 'I' for Inactive)
REMARK    1  A    between atoms: C4_4  and  C6_6 
REMARK    2  A    between atoms: C4_4  and  O8_8 
REMARK    3  A    between atoms: C5_5  and  C6_6 
REMARK    4  A    between atoms: C7_7  and  O8_8 
ROOT
HETATM    1  C4  UNL     1     -33.021   6.051   4.077  1.00 20.00     0.173 C 
ENDROOT
BRANCH   1   2
HETATM    2  C6  UNL     1     -34.296   5.268   4.423  1.00 20.00     0.019 C 
HETATM    3  C1  UNL     1     -35.437   5.668   3.486  1.00 20.00     0.013 C 
BRANCH   2   4
HETATM    4  C5  UNL     1     -34.688   5.388   5.905  1.00 20.00     0.121 C 
HETATM    5 CL9  UNL     1     -33.966   6.796   6.722  1.00 20.00    -0.130 Cl
ENDBRANCH   2   4
ENDBRANCH   1   2
BRANCH   1   6
HETATM    6  O8  UNL     1     -33.181   6.770   2.862  1.00 20.00    -0.386 OA
BRANCH   6   7
HETATM    7  C7  UNL     1     -32.006   7.496   2.527  1.00 20.00     0.113 C 
HETATM    8  C2  UNL     1     -32.393   8.738   1.739  1.00 20.00     0.039 C 
HETATM    9  C3  UNL     1     -31.252   7.844   3.802  1.00 20.00     0.039 C 
ENDBRANCH   6   7
ENDBRANCH   1   6
TORSDOF 4
ENDMDL
MODEL 4
REMARK VINA RESULT:      -3.7      2.887      4.785
REMARK  4 active torsions:
REMARK  status: ('A' for Active; 'I' for Inactive)
REMARK    1  A    between atoms: C4_4  and  C6_6 
REMARK    2  A    between atoms: C4_4  and  O8_8 
REMARK    3  A    between atoms: C5_5  and  C6_6 
REMARK    4  A    between atoms: C7_7  and  O8_8 
ROOT
HETATM    1  C4  UNL     1     -32.340   6.981   3.547  1.00 20.00     0.173 C 
ENDROOT
BRANCH   1   2
HETATM    2  C6  UNL     1     -33.311   5.910   4.062  1.00 20.00     0.019 C 
HETATM    3  C1  UNL     1     -34.338   5.559   2.984  1.00 20.00     0.013 C 
BRANCH   2   4
HETATM    4  C5  UNL     1     -33.972   6.293   5.397  1.00 20.00     0.121 C 
HETATM    5 CL9  UNL     1     -34.873   4.958   6.155  1.00 20.00    -0.130 Cl
ENDBRANCH   2   4
ENDBRANCH   1   2
BRANCH   1   6
HETATM    6  O8  UNL     1     -32.801   7.537   2.322  1.00 20.00    -0.386 OA
BRANCH   6   7
HETATM    7  C7  UNL     1     -31.997   8.634   1.913  1.00 20.00     0.113 C 
HETATM    8  C2  UNL     1     -31.537   8.411   0.480  1.00 20.00     0.039 C 
HETATM    9  C3  UNL     1     -32.794   9.922   2.059  1.00 20.00     0.039 C 
ENDBRANCH   6   7
ENDBRANCH   1   6
TORSDOF 4
ENDMDL
MODEL 5
REMARK VINA RESULT:      -3.6     11.578     12.313
REMARK  4 active torsions:
REMARK  status: ('A' for Active; 'I' for Inactive)
REMARK    1  A    between atoms: C4_4  and  C6_6 
REMARK    2  A    between atoms: C4_4  and  O8_8 
REMARK    3  A    between atoms: C5_5  and  C6_6 
REMARK    4  A    between atoms: C7_7  and  O8_8 
ROOT
HETATM    1  C4  UNL     1     -34.273  14.943  -2.972  1.00 20.00     0.173 C 
ENDROOT
BRANCH   1   2
HETATM    2  C6  UNL     1     -33.807  16.286  -2.394  1.00 20.00     0.019 C 
HETATM    3  C1  UNL     1     -34.588  16.618  -1.122  1.00 20.00     0.013 C 
BRANCH   2   4
HETATM    4  C5  UNL     1     -33.853  17.428  -3.423  1.00 20.00     0.121 C 
HETATM    5 CL9  UNL     1     -33.295  16.950  -5.044  1.00 20.00    -0.130 Cl
ENDBRANCH   2   4
ENDBRANCH   1   2
BRANCH   1   6
HETATM    6  O8  UNL     1     -35.668  14.963  -3.244  1.00 20.00    -0.386 OA
BRANCH   6   7
HETATM    7  C7  UNL     1     -35.994  14.148  -4.361  1.00 20.00     0.113 C 
HETATM    8  C2  UNL     1     -36.400  15.035  -5.528  1.00 20.00     0.039 C 
HETATM    9  C3  UNL     1     -34.800  13.269  -4.705  1.00 20.00     0.039 C 
ENDBRANCH   6   7
ENDBRANCH   1   6
TORSDOF 4
ENDMDL
MODEL 6
REMARK VINA RESULT:      -3.5     11.464     13.420
REMARK  4 active torsions:
REMARK  status: ('A' for Active; 'I' for Inactive)
REMARK    1  A    between atoms: C4_4  and  C6_6 
REMARK    2  A    between atoms: C4_4  and  O8_8 
REMARK    3  A    between atoms: C5_5  and  C6_6 
REMARK    4  A    between atoms: C7_7  and  O8_8 
ROOT
HETATM    1  C4  UNL     1     -33.265  16.144  -4.616  1.00 20.00     0.173 C 
ENDROOT
BRANCH   1   2
HETATM    2  C6  UNL     1     -33.527  15.259  -3.390  1.00 20.00     0.019 C 
HETATM    3  C1  UNL     1     -33.472  13.781  -3.779  1.00 20.00     0.013 C 
BRANCH   2   4
HETATM    4  C5  UNL     1     -34.830  15.622  -2.657  1.00 20.00     0.121 C 
HETATM    5 CL9  UNL     1     -34.565  16.417  -1.085  1.00 20.00    -0.130 Cl
ENDBRANCH   2   4
ENDBRANCH   1   2
BRANCH   1   6
HETATM    6  O8  UNL     1     -34.438  16.275  -5.408  1.00 20.00    -0.386 OA
BRANCH   6   7
HETATM    7  C7  UNL     1     -34.184  15.966  -6.771  1.00 20.00     0.113 C 
HETATM    8  C2  UNL     1     -34.897  14.671  -7.132  1.00 20.00     0.039 C 
HETATM    9  C3  UNL     1     -34.642  17.127  -7.642  1.00 20.00     0.039 C 
ENDBRANCH   6   7
ENDBRANCH   1   6
TORSDOF 4
ENDMDL
MODEL 7
REMARK VINA RESULT:      -3.4     11.483     12.346
REMARK  4 active torsions:
REMARK  status: ('A' for Active; 'I' for Inactive)
REMARK    1  A    between atoms: C4_4  and  C6_6 
REMARK    2  A    between atoms: C4_4  and  O8_8 
REMARK    3  A    between atoms: C5_5  and  C6_6 
REMARK    4  A    between atoms: C7_7  and  O8_8 
ROOT
HETATM    1  C4  UNL     1     -34.234  17.157  -2.609  1.00 20.00     0.173 C 
ENDROOT
BRANCH   1   2
HETATM    2  C6  UNL     1     -33.702  17.384  -1.188  1.00 20.00     0.019 C 
HETATM    3  C1  UNL     1     -34.781  17.054  -0.155  1.00 20.00     0.013 C 
BRANCH   2   4
HETATM    4  C5  UNL     1     -33.112  18.791  -0.987  1.00 20.00     0.121 C 
HETATM    5 CL9  UNL     1     -31.875  18.869   0.291  1.00 20.00    -0.130 Cl
ENDBRANCH   2   4
ENDBRANCH   1   2
BRANCH   1   6
HETATM    6  O8  UNL     1     -33.561  16.074  -3.236  1.00 20.00    -0.386 OA
BRANCH   6   7
HETATM    7  C7  UNL     1     -34.273  14.855  -3.077  1.00 20.00     0.113 C 
HETATM    8  C2  UNL     1     -35.721  15.062  -3.496  1.00 20.00     0.039 C 
HETATM    9  C3  UNL     1     -33.595  13.767  -3.898  1.00 20.00     0.039 C 
ENDBRANCH   6   7
ENDBRANCH   1   6
TORSDOF 4
ENDMDL
MODEL 8
REMARK VINA RESULT:      -3.4     11.262     12.078
REMARK  4 active torsions:
REMARK  status: ('A' for Active; 'I' for Inactive)
REMARK    1  A    between atoms: C4_4  and  C6_6 
REMARK    2  A    between atoms: C4_4  and  O8_8 
REMARK    3  A    between atoms: C5_5  and  C6_6 
REMARK    4  A    between atoms: C7_7  and  O8_8 
ROOT
HETATM    1  C4  UNL     1     -35.619  14.921  -3.464  1.00 20.00     0.173 C 
ENDROOT
BRANCH   1   2
HETATM    2  C6  UNL     1     -34.958  13.826  -4.312  1.00 20.00     0.019 C 
HETATM    3  C1  UNL     1     -33.511  13.609  -3.868  1.00 20.00     0.013 C 
BRANCH   2   4
HETATM    4  C5  UNL     1     -35.073  14.087  -5.823  1.00 20.00     0.121 C 
HETATM    5 CL9  UNL     1     -34.118  15.483  -6.379  1.00 20.00    -0.130 Cl
ENDBRANCH   2   4
ENDBRANCH   1   2
BRANCH   1   6
HETATM    6  O8  UNL     1     -34.805  15.261  -2.349  1.00 20.00    -0.386 OA
BRANCH   6   7
HETATM    7  C7  UNL     1     -34.886  16.647  -2.048  1.00 20.00     0.113 C 
HETATM    8  C2  UNL     1     -34.652  16.849  -0.558  1.00 20.00     0.039 C 
HETATM    9  C3  UNL     1     -33.870  17.404  -2.889  1.00 20.00     0.039 C 
ENDBRANCH   6   7
ENDBRANCH   1   6
TORSDOF 4
ENDMDL
MODEL 9
REMARK VINA RESULT:      -3.4     11.098     11.965
REMARK  4 active torsions:
REMARK  status: ('A' for Active; 'I' for Inactive)
REMARK    1  A    between atoms: C4_4  and  C6_6 
REMARK    2  A    between atoms: C4_4  and  O8_8 
REMARK    3  A    between atoms: C5_5  and  C6_6 
REMARK    4  A    between atoms: C7_7  and  O8_8 
ROOT
HETATM    1  C4  UNL     1     -34.757  16.046  -2.611  1.00 20.00     0.173 C 
ENDROOT
BRANCH   1   2
HETATM    2  C6  UNL     1     -33.588  15.350  -3.322  1.00 20.00     0.019 C 
HETATM    3  C1  UNL     1     -33.163  16.150  -4.555  1.00 20.00     0.013 C 
BRANCH   2   4
HETATM    4  C5  UNL     1     -33.879  13.877  -3.653  1.00 20.00     0.121 C 
HETATM    5 CL9  UNL     1     -35.533  13.595  -4.251  1.00 20.00    -0.130 Cl
ENDBRANCH   2   4
ENDBRANCH   1   2
BRANCH   1   6
HETATM    6  O8  UNL     1     -34.535  16.105  -1.208  1.00 20.00    -0.386 OA
BRANCH   6   7
HETATM    7  C7  UNL     1     -34.638  17.435  -0.720  1.00 20.00     0.113 C 
HETATM    8  C2  UNL     1     -35.130  17.403   0.720  1.00 20.00     0.039 C 
HETATM    9  C3  UNL     1     -33.286  18.121  -0.842  1.00 20.00     0.039 C 
ENDBRANCH   6   7
ENDBRANCH   1   6
TORSDOF 4
ENDMDL
