MODEL 1
REMARK VINA RESULT:      -3.8      0.000      0.000
REMARK  1 active torsions:
REMARK  status: ('A' for Active; 'I' for Inactive)
REMARK    1  A    between atoms: C1_1  and  C5_5 
ROOT
HETATM    1  C2  UNL     1     -35.269   5.506   3.771  1.00 20.00     0.022 C 
HETATM    2  C3  UNL     1     -35.123   4.216   4.563  1.00 20.00     0.075 C 
HETATM    3  C4  UNL     1     -34.053   6.406   5.702  1.00 20.00     0.085 C 
HETATM    4  C5  UNL     1     -34.142   6.443   4.184  1.00 20.00     0.057 C 
HETATM    5  S7  UNL     1     -34.523   4.721   6.197  1.00 20.00    -0.168 SA
ENDROOT
BRANCH   4   6
HETATM    6  C1  UNL     1     -32.832   6.065   3.551  1.00 20.00     0.236 C 
HETATM    7  O6  UNL     1     -32.162   6.836   2.875  1.00 20.00    -0.306 OA
ENDBRANCH   4   6
TORSDOF 1
ENDMDL
MODEL 2
REMARK VINA RESULT:      -3.5     12.164     12.763
REMARK  1 active torsions:
REMARK  status: ('A' for Active; 'I' for Inactive)
REMARK    1  A    between atoms: C1_1  and  C5_5 
ROOT
HETATM    1  C2  UNL     1     -33.069  14.961  -3.721  1.00 20.00     0.022 C 
HETATM    2  C3  UNL     1     -33.266  16.162  -4.633  1.00 20.00     0.075 C 
HETATM    3  C4  UNL     1     -35.185  15.781  -2.787  1.00 20.00     0.085 C 
HETATM    4  C5  UNL     1     -34.438  14.526  -3.214  1.00 20.00     0.057 C 
HETATM    5  S7  UNL     1     -34.627  17.106  -3.899  1.00 20.00    -0.168 SA
ENDROOT
BRANCH   4   6
HETATM    6  C1  UNL     1     -35.208  13.760  -4.253  1.00 20.00     0.236 C 
HETATM    7  O6  UNL     1     -34.942  12.608  -4.578  1.00 20.00    -0.306 OA
ENDBRANCH   4   6
TORSDOF 1
ENDMDL
MODEL 3
REMARK VINA RESULT:      -3.3     12.198     12.677
REMARK  1 active torsions:
REMARK  status: ('A' for Active; 'I' for Inactive)
REMARK    1  A    between atoms: C1_1  and  C5_5 
ROOT
HETATM    1  C2  UNL     1     -35.173  15.460  -2.640  1.00 20.00     0.022 C 
HETATM    2  C3  UNL     1     -36.037  14.812  -3.711  1.00 20.00     0.075 C 
HETATM    3  C4  UNL     1     -33.439  14.117  -3.742  1.00 20.00     0.085 C 
HETATM    4  C5  UNL     1     -33.736  15.486  -3.148  1.00 20.00     0.057 C 
HETATM    5  S7  UNL     1     -35.004  13.520  -4.448  1.00 20.00    -0.168 SA
ENDROOT
BRANCH   4   6
HETATM    6  C1  UNL     1     -33.513  16.578  -4.154  1.00 20.00     0.236 C 
HETATM    7  O6  UNL     1     -32.813  16.445  -5.152  1.00 20.00    -0.306 OA
ENDBRANCH   4   6
TORSDOF 1
ENDMDL
MODEL 4
REMARK VINA RESULT:      -3.3     12.311     12.871
REMARK  1 active torsions:
REMARK  status: ('A' for Active; 'I' for Inactive)
REMARK    1  A    between atoms: C1_1  and  C5_5 
ROOT
HETATM    1  C2  UNL     1     -34.976  14.328  -5.771  1.00 20.00     0.022 C 
HETATM    2  C3  UNL     1     -34.165  15.591  -5.526  1.00 20.00     0.075 C 
HETATM    3  C4  UNL     1     -34.283  13.869  -3.463  1.00 20.00     0.085 C 
HETATM    4  C5  UNL     1     -35.462  13.812  -4.423  1.00 20.00     0.057 C 
HETATM    5  S7  UNL     1     -33.288  15.304  -3.967  1.00 20.00    -0.168 SA
ENDROOT
BRANCH   4   6
HETATM    6  C1  UNL     1     -36.629  14.601  -3.902  1.00 20.00     0.236 C 
HETATM    7  O6  UNL     1     -37.757  14.138  -3.781  1.00 20.00    -0.306 OA
ENDBRANCH   4   6
TORSDOF 1
ENDMDL
MODEL 5
REMARK VINA RESULT:      -3.2     12.148     12.713
REMARK  1 active torsions:
REMARK  status: ('A' for Active; 'I' for Inactive)
REMARK    1  A    between atoms: C1_1  and  C5_5 
ROOT
HETATM    1  C2  UNL     1     -33.549  13.717  -3.763  1.00 20.00     0.022 C 
HETATM    2  C3  UNL     1     -34.613  13.413  -4.806  1.00 20.00     0.075 C 
HETATM    3  C4  UNL     1     -33.631  15.918  -4.846  1.00 20.00     0.085 C 
HETATM    4  C5  UNL     1     -33.565  15.217  -3.496  1.00 20.00     0.057 C 
HETATM    5  S7  UNL     1     -34.598  14.831  -5.935  1.00 20.00    -0.168 SA
ENDROOT
BRANCH   4   6
HETATM    6  C1  UNL     1     -34.712  15.622  -2.615  1.00 20.00     0.236 C 
HETATM    7  O6  UNL     1     -34.568  16.115  -1.502  1.00 20.00    -0.306 OA
ENDBRANCH   4   6
TORSDOF 1
ENDMDL
MODEL 6
REMARK VINA RESULT:      -3.2     12.074     12.602
REMARK  1 active torsions:
REMARK  status: ('A' for Active; 'I' for Inactive)
REMARK    1  A    between atoms: C1_1  and  C5_5 
ROOT
HETATM    1  C2  UNL     1     -35.605  15.424  -4.563  1.00 20.00     0.022 C 
HETATM    2  C3  UNL     1     -35.834  15.679  -3.082  1.00 20.00     0.075 C 
HETATM    3  C4  UNL     1     -33.268  15.741  -3.886  1.00 20.00     0.085 C 
HETATM    4  C5  UNL     1     -34.192  14.880  -4.735  1.00 20.00     0.057 C 
HETATM    5  S7  UNL     1     -34.241  16.259  -2.442  1.00 20.00    -0.168 SA
ENDROOT
BRANCH   4   6
HETATM    6  C1  UNL     1     -34.094  13.431  -4.350  1.00 20.00     0.236 C 
HETATM    7  O6  UNL     1     -34.976  12.611  -4.576  1.00 20.00    -0.306 OA
ENDBRANCH   4   6
TORSDOF 1
ENDMDL
MODEL 7
REMARK VINA RESULT:      -3.2     12.320     12.892
REMARK  1 active torsions:
REMARK  status: ('A' for Active; 'I' for Inactive)
REMARK    1  A    between atoms: C1_1  and  C5_5 
ROOT
HETATM    1  C2  UNL     1     -34.783  15.480  -2.776  1.00 20.00     0.022 C 
HETATM    2  C3  UNL     1     -33.372  15.845  -3.211  1.00 20.00     0.075 C 
HETATM    3  C4  UNL     1     -35.161  15.557  -5.199  1.00 20.00     0.085 C 
HETATM    4  C5  UNL     1     -35.463  14.764  -3.936  1.00 20.00     0.057 C 
HETATM    5  S7  UNL     1     -33.504  16.268  -4.968  1.00 20.00    -0.168 SA
ENDROOT
BRANCH   4   6
HETATM    6  C1  UNL     1     -35.008  13.338  -4.064  1.00 20.00     0.236 C 
HETATM    7  O6  UNL     1     -34.794  12.792  -5.141  1.00 20.00    -0.306 OA
ENDBRANCH   4   6
TORSDOF 1
ENDMDL
MODEL 8
REMARK VINA RESULT:      -3.1     12.498     13.051
REMARK  1 active torsions:
REMARK  status: ('A' for Active; 'I' for Inactive)
REMARK    1  A    between atoms: C1_1  and  C5_5 
ROOT
HETATM    1  C2  UNL     1     -34.209  15.365  -5.544  1.00 20.00     0.022 C 
HETATM    2  C3  UNL     1     -35.345  16.311  -5.192  1.00 20.00     0.075 C 
HETATM    3  C4  UNL     1     -33.589  15.821  -3.214  1.00 20.00     0.085 C 
HETATM    4  C5  UNL     1     -33.717  14.718  -4.255  1.00 20.00     0.057 C 
HETATM    5  S7  UNL     1     -34.897  17.027  -3.589  1.00 20.00    -0.168 SA
ENDROOT
BRANCH   4   6
HETATM    6  C1  UNL     1     -34.636  13.627  -3.784  1.00 20.00     0.236 C 
HETATM    7  O6  UNL     1     -34.959  12.669  -4.478  1.00 20.00    -0.306 OA
ENDBRANCH   4   6
TORSDOF 1
ENDMDL
MODEL 9
REMARK VINA RESULT:      -3.1     13.313     13.866
REMARK  1 active torsions:
REMARK  status: ('A' for Active; 'I' for Inactive)
REMARK    1  A    between atoms: C1_1  and  C5_5 
ROOT
HETATM    1  C2  UNL     1     -34.044  15.453  -6.458  1.00 20.00     0.022 C 
HETATM    2  C3  UNL     1     -34.869  15.004  -7.654  1.00 20.00     0.075 C 
HETATM    3  C4  UNL     1     -36.199  15.166  -5.321  1.00 20.00     0.085 C 
HETATM    4  C5  UNL     1     -34.705  14.908  -5.198  1.00 20.00     0.057 C 
HETATM    5  S7  UNL     1     -36.591  15.043  -7.092  1.00 20.00    -0.168 SA
ENDROOT
BRANCH   4   6
HETATM    6  C1  UNL     1     -34.418  13.447  -4.996  1.00 20.00     0.236 C 
HETATM    7  O6  UNL     1     -35.113  12.711  -4.306  1.00 20.00    -0.306 OA
ENDBRANCH   4   6
TORSDOF 1
ENDMDL
