MODEL 1
REMARK VINA RESULT:      -4.1      0.000      0.000
REMARK  4 active torsions:
REMARK  status: ('A' for Active; 'I' for Inactive)
REMARK    1  A    between atoms: C5_5  and  C7_7 
REMARK    2  A    between atoms: C5_5  and  O9_9 
REMARK    3  A    between atoms: C6_6  and  C7_7 
REMARK    4  A    between atoms: C8_8  and  O9_9 
ROOT
HETATM    1  C5  UNL     1     -33.323   6.222   3.118  1.00 20.00     0.174 C 
ENDROOT
BRANCH   1   2
HETATM    2  C7  UNL     1     -32.138   7.150   2.822  1.00 20.00     0.019 C 
HETATM    3  C1  UNL     1     -31.415   7.521   4.118  1.00 20.00     0.013 C 
BRANCH   2   4
HETATM    4  C6  UNL     1     -32.536   8.388   2.001  1.00 20.00     0.121 C 
HETATM    5 CL10 UNL     1     -31.482   8.682   0.597  1.00 20.00    -0.130 Cl
ENDBRANCH   2   4
ENDBRANCH   1   2
BRANCH   1   6
HETATM    6  O9  UNL     1     -33.124   5.515   4.334  1.00 20.00    -0.381 OA
BRANCH   6   7
HETATM    7  C8  UNL     1     -34.332   5.394   5.072  1.00 20.00     0.050 C 
HETATM    8  C2  UNL     1     -34.299   6.393   6.227  1.00 20.00     0.045 C 
HETATM    9  C3  UNL     1     -35.486   5.711   4.121  1.00 20.00     0.045 C 
HETATM   10  C4  UNL     1     -34.445   3.962   5.593  1.00 20.00     0.045 C 
ENDBRANCH   6   7
ENDBRANCH   1   6
TORSDOF 4
ENDMDL
MODEL 2
REMARK VINA RESULT:      -3.8     11.171     12.243
REMARK  4 active torsions:
REMARK  status: ('A' for Active; 'I' for Inactive)
REMARK    1  A    between atoms: C5_5  and  C7_7 
REMARK    2  A    between atoms: C5_5  and  O9_9 
REMARK    3  A    between atoms: C6_6  and  C7_7 
REMARK    4  A    between atoms: C8_8  and  O9_9 
ROOT
HETATM    1  C5  UNL     1     -34.059  17.009  -2.631  1.00 20.00     0.174 C 
ENDROOT
BRANCH   1   2
HETATM    2  C7  UNL     1     -33.660  17.362  -1.192  1.00 20.00     0.019 C 
HETATM    3  C1  UNL     1     -34.791  17.010  -0.223  1.00 20.00     0.013 C 
BRANCH   2   4
HETATM    4  C6  UNL     1     -33.194  18.819  -1.039  1.00 20.00     0.121 C 
HETATM    5 CL10 UNL     1     -31.901  19.032   0.165  1.00 20.00    -0.130 Cl
ENDBRANCH   2   4
ENDBRANCH   1   2
BRANCH   1   6
HETATM    6  O9  UNL     1     -33.323  15.888  -3.102  1.00 20.00    -0.381 OA
BRANCH   6   7
HETATM    7  C8  UNL     1     -34.122  15.047  -3.923  1.00 20.00     0.050 C 
HETATM    8  C2  UNL     1     -35.559  15.084  -3.404  1.00 20.00     0.045 C 
HETATM    9  C3  UNL     1     -34.052  15.593  -5.348  1.00 20.00     0.045 C 
HETATM   10  C4  UNL     1     -33.558  13.629  -3.863  1.00 20.00     0.045 C 
ENDBRANCH   6   7
ENDBRANCH   1   6
TORSDOF 4
ENDMDL
MODEL 3
REMARK VINA RESULT:      -3.7     11.014     12.033
REMARK  4 active torsions:
REMARK  status: ('A' for Active; 'I' for Inactive)
REMARK    1  A    between atoms: C5_5  and  C7_7 
REMARK    2  A    between atoms: C5_5  and  O9_9 
REMARK    3  A    between atoms: C6_6  and  C7_7 
REMARK    4  A    between atoms: C8_8  and  O9_9 
ROOT
HETATM    1  C5  UNL     1     -35.600  14.882  -3.481  1.00 20.00     0.174 C 
ENDROOT
BRANCH   1   2
HETATM    2  C7  UNL     1     -34.959  13.790  -4.347  1.00 20.00     0.019 C 
HETATM    3  C1  UNL     1     -33.527  13.513  -3.883  1.00 20.00     0.013 C 
BRANCH   2   4
HETATM    4  C6  UNL     1     -35.034  14.099  -5.852  1.00 20.00     0.121 C 
HETATM    5 CL10 UNL     1     -34.148  15.569  -6.323  1.00 20.00    -0.130 Cl
ENDBRANCH   2   4
ENDBRANCH   1   2
BRANCH   1   6
HETATM    6  O9  UNL     1     -34.720  15.286  -2.440  1.00 20.00    -0.381 OA
BRANCH   6   7
HETATM    7  C8  UNL     1     -34.861  16.669  -2.146  1.00 20.00     0.050 C 
HETATM    8  C2  UNL     1     -34.685  16.867  -0.641  1.00 20.00     0.045 C 
HETATM    9  C3  UNL     1     -33.774  17.417  -2.916  1.00 20.00     0.045 C 
HETATM   10  C4  UNL     1     -36.248  17.125  -2.597  1.00 20.00     0.045 C 
ENDBRANCH   6   7
ENDBRANCH   1   6
TORSDOF 4
ENDMDL
MODEL 4
REMARK VINA RESULT:      -3.7      2.656      4.523
REMARK  4 active torsions:
REMARK  status: ('A' for Active; 'I' for Inactive)
REMARK    1  A    between atoms: C5_5  and  C7_7 
REMARK    2  A    between atoms: C5_5  and  O9_9 
REMARK    3  A    between atoms: C6_6  and  C7_7 
REMARK    4  A    between atoms: C8_8  and  O9_9 
ROOT
HETATM    1  C5  UNL     1     -33.880   6.137   4.297  1.00 20.00     0.174 C 
ENDROOT
BRANCH   1   2
HETATM    2  C7  UNL     1     -34.467   6.289   5.707  1.00 20.00     0.019 C 
HETATM    3  C1  UNL     1     -33.499   7.059   6.607  1.00 20.00     0.013 C 
BRANCH   2   4
HETATM    4  C6  UNL     1     -34.896   4.947   6.324  1.00 20.00     0.121 C 
HETATM    5 CL10 UNL     1     -34.937   3.606   5.155  1.00 20.00    -0.130 Cl
ENDBRANCH   2   4
ENDBRANCH   1   2
BRANCH   1   6
HETATM    6  O9  UNL     1     -33.461   7.395   3.783  1.00 20.00    -0.381 OA
BRANCH   6   7
HETATM    7  C8  UNL     1     -32.213   7.295   3.111  1.00 20.00     0.050 C 
HETATM    8  C2  UNL     1     -31.107   7.727   4.073  1.00 20.00     0.045 C 
HETATM    9  C3  UNL     1     -32.027   5.834   2.701  1.00 20.00     0.045 C 
HETATM   10  C4  UNL     1     -32.248   8.198   1.880  1.00 20.00     0.045 C 
ENDBRANCH   6   7
ENDBRANCH   1   6
TORSDOF 4
ENDMDL
MODEL 5
REMARK VINA RESULT:      -3.7     10.911     11.907
REMARK  4 active torsions:
REMARK  status: ('A' for Active; 'I' for Inactive)
REMARK    1  A    between atoms: C5_5  and  C7_7 
REMARK    2  A    between atoms: C5_5  and  O9_9 
REMARK    3  A    between atoms: C6_6  and  C7_7 
REMARK    4  A    between atoms: C8_8  and  O9_9 
ROOT
HETATM    1  C5  UNL     1     -34.815  15.942  -2.574  1.00 20.00     0.174 C 
ENDROOT
BRANCH   1   2
HETATM    2  C7  UNL     1     -33.587  15.377  -3.301  1.00 20.00     0.019 C 
HETATM    3  C1  UNL     1     -33.229  16.254  -4.502  1.00 20.00     0.013 C 
BRANCH   2   4
HETATM    4  C6  UNL     1     -33.748  13.897  -3.686  1.00 20.00     0.121 C 
HETATM    5 CL10 UNL     1     -35.397  13.470  -4.203  1.00 20.00    -0.130 Cl
ENDBRANCH   2   4
ENDBRANCH   1   2
BRANCH   1   6
HETATM    6  O9  UNL     1     -34.569  16.060  -1.178  1.00 20.00    -0.381 OA
BRANCH   6   7
HETATM    7  C8  UNL     1     -34.675  17.409  -0.743  1.00 20.00     0.050 C 
HETATM    8  C2  UNL     1     -33.299  18.065  -0.855  1.00 20.00     0.045 C 
HETATM    9  C3  UNL     1     -35.680  18.110  -1.656  1.00 20.00     0.045 C 
HETATM   10  C4  UNL     1     -35.166  17.417   0.703  1.00 20.00     0.045 C 
ENDBRANCH   6   7
ENDBRANCH   1   6
TORSDOF 4
ENDMDL
MODEL 6
REMARK VINA RESULT:      -3.6     11.193     12.325
REMARK  4 active torsions:
REMARK  status: ('A' for Active; 'I' for Inactive)
REMARK    1  A    between atoms: C5_5  and  C7_7 
REMARK    2  A    between atoms: C5_5  and  O9_9 
REMARK    3  A    between atoms: C6_6  and  C7_7 
REMARK    4  A    between atoms: C8_8  and  O9_9 
ROOT
HETATM    1  C5  UNL     1     -34.120  17.007  -2.368  1.00 20.00     0.174 C 
ENDROOT
BRANCH   1   2
HETATM    2  C7  UNL     1     -33.718  17.426  -0.948  1.00 20.00     0.019 C 
HETATM    3  C1  UNL     1     -34.880  17.205   0.022  1.00 20.00     0.013 C 
BRANCH   2   4
HETATM    4  C6  UNL     1     -33.167  18.860  -0.880  1.00 20.00     0.121 C 
HETATM    5 CL10 UNL     1     -31.812  19.049   0.258  1.00 20.00    -0.130 Cl
ENDBRANCH   2   4
ENDBRANCH   1   2
BRANCH   1   6
HETATM    6  O9  UNL     1     -34.127  15.591  -2.498  1.00 20.00    -0.381 OA
BRANCH   6   7
HETATM    7  C8  UNL     1     -34.126  15.192  -3.862  1.00 20.00     0.050 C 
HETATM    8  C2  UNL     1     -33.163  16.095  -4.632  1.00 20.00     0.045 C 
HETATM    9  C3  UNL     1     -33.659  13.738  -3.916  1.00 20.00     0.045 C 
HETATM   10  C4  UNL     1     -35.547  15.321  -4.408  1.00 20.00     0.045 C 
ENDBRANCH   6   7
ENDBRANCH   1   6
TORSDOF 4
ENDMDL
MODEL 7
REMARK VINA RESULT:      -3.6     11.339     12.230
REMARK  4 active torsions:
REMARK  status: ('A' for Active; 'I' for Inactive)
REMARK    1  A    between atoms: C5_5  and  C7_7 
REMARK    2  A    between atoms: C5_5  and  O9_9 
REMARK    3  A    between atoms: C6_6  and  C7_7 
REMARK    4  A    between atoms: C8_8  and  O9_9 
ROOT
HETATM    1  C5  UNL     1     -33.709  16.173  -2.982  1.00 20.00     0.174 C 
ENDROOT
BRANCH   1   2
HETATM    2  C7  UNL     1     -33.645  17.049  -1.725  1.00 20.00     0.019 C 
HETATM    3  C1  UNL     1     -34.753  16.657  -0.745  1.00 20.00     0.013 C 
BRANCH   2   4
HETATM    4  C6  UNL     1     -33.653  18.554  -2.043  1.00 20.00     0.121 C 
HETATM    5 CL10 UNL     1     -33.678  18.914  -3.785  1.00 20.00    -0.130 Cl
ENDBRANCH   2   4
ENDBRANCH   1   2
BRANCH   1   6
HETATM    6  O9  UNL     1     -34.557  15.050  -2.777  1.00 20.00    -0.381 OA
BRANCH   6   7
HETATM    7  C8  UNL     1     -35.304  14.741  -3.946  1.00 20.00     0.050 C 
HETATM    8  C2  UNL     1     -35.028  13.287  -4.329  1.00 20.00     0.045 C 
HETATM    9  C3  UNL     1     -36.782  14.937  -3.613  1.00 20.00     0.045 C 
HETATM   10  C4  UNL     1     -34.875  15.690  -5.064  1.00 20.00     0.045 C 
ENDBRANCH   6   7
ENDBRANCH   1   6
TORSDOF 4
ENDMDL
MODEL 8
REMARK VINA RESULT:      -3.6     11.250     12.181
REMARK  4 active torsions:
REMARK  status: ('A' for Active; 'I' for Inactive)
REMARK    1  A    between atoms: C5_5  and  C7_7 
REMARK    2  A    between atoms: C5_5  and  O9_9 
REMARK    3  A    between atoms: C6_6  and  C7_7 
REMARK    4  A    between atoms: C8_8  and  O9_9 
ROOT
HETATM    1  C5  UNL     1     -33.944  15.942  -2.721  1.00 20.00     0.174 C 
ENDROOT
BRANCH   1   2
HETATM    2  C7  UNL     1     -34.902  16.483  -1.652  1.00 20.00     0.019 C 
HETATM    3  C1  UNL     1     -36.004  17.324  -2.301  1.00 20.00     0.013 C 
BRANCH   2   4
HETATM    4  C6  UNL     1     -34.178  17.238  -0.526  1.00 20.00     0.121 C 
HETATM    5 CL10 UNL     1     -35.149  17.409   0.956  1.00 20.00    -0.130 Cl
ENDBRANCH   2   4
ENDBRANCH   1   2
BRANCH   1   6
HETATM    6  O9  UNL     1     -34.562  15.933  -4.001  1.00 20.00    -0.381 OA
BRANCH   6   7
HETATM    7  C8  UNL     1     -34.641  14.617  -4.533  1.00 20.00     0.050 C 
HETATM    8  C2  UNL     1     -33.555  13.763  -3.882  1.00 20.00     0.045 C 
HETATM    9  C3  UNL     1     -36.028  14.069  -4.199  1.00 20.00     0.045 C 
HETATM   10  C4  UNL     1     -34.443  14.690  -6.046  1.00 20.00     0.045 C 
ENDBRANCH   6   7
ENDBRANCH   1   6
TORSDOF 4
ENDMDL
MODEL 9
REMARK VINA RESULT:      -3.5      2.282      4.364
REMARK  4 active torsions:
REMARK  status: ('A' for Active; 'I' for Inactive)
REMARK    1  A    between atoms: C5_5  and  C7_7 
REMARK    2  A    between atoms: C5_5  and  O9_9 
REMARK    3  A    between atoms: C6_6  and  C7_7 
REMARK    4  A    between atoms: C8_8  and  O9_9 
ROOT
HETATM    1  C5  UNL     1     -34.212   5.840   3.845  1.00 20.00     0.174 C 
ENDROOT
BRANCH   1   2
HETATM    2  C7  UNL     1     -34.111   5.276   5.268  1.00 20.00     0.019 C 
HETATM    3  C1  UNL     1     -34.890   3.964   5.378  1.00 20.00     0.013 C 
BRANCH   2   4
HETATM    4  C6  UNL     1     -34.525   6.292   6.346  1.00 20.00     0.121 C 
HETATM    5 CL10 UNL     1     -33.179   7.301   6.929  1.00 20.00    -0.130 Cl
ENDBRANCH   2   4
ENDBRANCH   1   2
BRANCH   1   6
HETATM    6  O9  UNL     1     -33.654   7.146   3.775  1.00 20.00    -0.381 OA
BRANCH   6   7
HETATM    7  C8  UNL     1     -32.422   7.150   3.066  1.00 20.00     0.050 C 
HETATM    8  C2  UNL     1     -31.299   7.489   4.045  1.00 20.00     0.045 C 
HETATM    9  C3  UNL     1     -32.222   5.751   2.484  1.00 20.00     0.045 C 
HETATM   10  C4  UNL     1     -32.505   8.189   1.950  1.00 20.00     0.045 C 
ENDBRANCH   6   7
ENDBRANCH   1   6
TORSDOF 4
ENDMDL
