MODEL 1
REMARK VINA RESULT:      -4.8      0.000      0.000
REMARK  3 active torsions:
REMARK  status: ('A' for Active; 'I' for Inactive)
REMARK    1  A    between atoms: C2_2  and  C5_5 
REMARK    2  A    between atoms: C5_5  and  N7_7 
REMARK    3  A    between atoms: C6_6  and  N7_7 
ROOT
HETATM    1  C1  UNL     1     -34.995   5.962   3.852  1.00 20.00     0.052 A 
HETATM    2  C2  UNL     1     -33.556   5.528   3.808  1.00 20.00     0.055 A 
HETATM    3  C3  UNL     1     -34.323   5.469   5.110  1.00 20.00     0.119 A 
HETATM    4 CL8  UNL     1     -34.005   6.634   6.388  1.00 20.00    -0.101 Cl
HETATM    5 CL9  UNL     1     -34.781   3.879   5.717  1.00 20.00    -0.101 Cl
ENDROOT
BRANCH   2   6
HETATM    6  C5  UNL     1     -32.484   6.532   3.547  1.00 20.00     0.277 C 
BRANCH   6   7
HETATM    7  N7  UNL     1     -32.952   7.575   2.678  1.00 20.00     0.083 N 
HETATM    8  H20 UNL     1     -33.426   8.305   3.222  1.00 20.00     0.315 HD
BRANCH   7   9
HETATM    9  C6  UNL     1     -31.853   8.196   1.936  1.00 20.00     0.265 C 
HETATM   10  C4  UNL     1     -32.313   9.417   1.214  1.00 20.00     0.037 C 
ENDBRANCH   7   9
ENDBRANCH   6   7
ENDBRANCH   2   6
TORSDOF 3
ENDMDL
MODEL 2
REMARK VINA RESULT:      -4.2      2.751      4.566
REMARK  3 active torsions:
REMARK  status: ('A' for Active; 'I' for Inactive)
REMARK    1  A    between atoms: C2_2  and  C5_5 
REMARK    2  A    between atoms: C5_5  and  N7_7 
REMARK    3  A    between atoms: C6_6  and  N7_7 
ROOT
HETATM    1  C1  UNL     1     -32.121   5.791   2.767  1.00 20.00     0.052 A 
HETATM    2  C2  UNL     1     -33.422   6.494   3.038  1.00 20.00     0.055 A 
HETATM    3  C3  UNL     1     -32.135   7.285   2.978  1.00 20.00     0.119 A 
HETATM    4 CL8  UNL     1     -31.407   7.920   4.447  1.00 20.00    -0.101 Cl
HETATM    5 CL9  UNL     1     -31.873   8.316   1.572  1.00 20.00    -0.101 Cl
ENDROOT
BRANCH   2   6
HETATM    6  C5  UNL     1     -34.155   6.240   4.311  1.00 20.00     0.277 C 
BRANCH   6   7
HETATM    7  N7  UNL     1     -35.151   5.219   4.140  1.00 20.00     0.083 N 
HETATM    8  H20 UNL     1     -34.999   4.717   3.258  1.00 20.00     0.315 HD
BRANCH   7   9
HETATM    9  C6  UNL     1     -35.124   4.247   5.234  1.00 20.00     0.265 C 
HETATM   10  C4  UNL     1     -34.500   4.829   6.457  1.00 20.00     0.037 C 
ENDBRANCH   7   9
ENDBRANCH   6   7
ENDBRANCH   2   6
TORSDOF 3
ENDMDL
MODEL 3
REMARK VINA RESULT:      -3.8     11.136     11.846
REMARK  3 active torsions:
REMARK  status: ('A' for Active; 'I' for Inactive)
REMARK    1  A    between atoms: C2_2  and  C5_5 
REMARK    2  A    between atoms: C5_5  and  N7_7 
REMARK    3  A    between atoms: C6_6  and  N7_7 
ROOT
HETATM    1  C1  UNL     1     -35.626  16.219  -2.786  1.00 20.00     0.052 A 
HETATM    2  C2  UNL     1     -34.340  15.459  -2.614  1.00 20.00     0.055 A 
HETATM    3  C3  UNL     1     -34.508  16.816  -1.968  1.00 20.00     0.119 A 
HETATM    4 CL8  UNL     1     -33.673  18.223  -2.612  1.00 20.00    -0.101 Cl
HETATM    5 CL9  UNL     1     -34.708  16.869  -0.217  1.00 20.00    -0.101 Cl
ENDROOT
BRANCH   2   6
HETATM    6  C5  UNL     1     -33.450  15.229  -3.788  1.00 20.00     0.277 C 
BRANCH   6   7
HETATM    7  N7  UNL     1     -33.320  13.827  -4.073  1.00 20.00     0.083 N 
HETATM    8  H20 UNL     1     -33.234  13.293  -3.201  1.00 20.00     0.315 HD
BRANCH   7   9
HETATM    9  C6  UNL     1     -34.476  13.316  -4.813  1.00 20.00     0.265 C 
HETATM   10  C4  UNL     1     -34.798  14.190  -5.978  1.00 20.00     0.037 C 
ENDBRANCH   7   9
ENDBRANCH   6   7
ENDBRANCH   2   6
TORSDOF 3
ENDMDL
MODEL 4
REMARK VINA RESULT:      -3.8     11.296     12.512
REMARK  3 active torsions:
REMARK  status: ('A' for Active; 'I' for Inactive)
REMARK    1  A    between atoms: C2_2  and  C5_5 
REMARK    2  A    between atoms: C5_5  and  N7_7 
REMARK    3  A    between atoms: C6_6  and  N7_7 
ROOT
HETATM    1  C1  UNL     1     -34.300  14.910  -3.029  1.00 20.00     0.052 A 
HETATM    2  C2  UNL     1     -33.561  16.189  -3.308  1.00 20.00     0.055 A 
HETATM    3  C3  UNL     1     -34.831  16.215  -2.489  1.00 20.00     0.119 A 
HETATM    4 CL8  UNL     1     -36.323  16.847  -3.171  1.00 20.00    -0.101 Cl
HETATM    5 CL9  UNL     1     -34.681  16.509  -0.757  1.00 20.00    -0.101 Cl
ENDROOT
BRANCH   2   6
HETATM    6  C5  UNL     1     -33.488  16.718  -4.701  1.00 20.00     0.277 C 
BRANCH   6   7
HETATM    7  N7  UNL     1     -33.250  15.660  -5.644  1.00 20.00     0.083 N 
HETATM    8  H20 UNL     1     -33.316  14.748  -5.180  1.00 20.00     0.315 HD
BRANCH   7   9
HETATM    9  C6  UNL     1     -34.216  15.688  -6.744  1.00 20.00     0.265 C 
HETATM   10  C4  UNL     1     -35.112  14.497  -6.703  1.00 20.00     0.037 C 
ENDBRANCH   7   9
ENDBRANCH   6   7
ENDBRANCH   2   6
TORSDOF 3
ENDMDL
MODEL 5
REMARK VINA RESULT:      -3.8     11.577     12.228
REMARK  3 active torsions:
REMARK  status: ('A' for Active; 'I' for Inactive)
REMARK    1  A    between atoms: C2_2  and  C5_5 
REMARK    2  A    between atoms: C5_5  and  N7_7 
REMARK    3  A    between atoms: C6_6  and  N7_7 
ROOT
HETATM    1  C1  UNL     1     -32.918  14.578  -3.633  1.00 20.00     0.052 A 
HETATM    2  C2  UNL     1     -34.188  15.212  -3.138  1.00 20.00     0.055 A 
HETATM    3  C3  UNL     1     -33.857  15.237  -4.613  1.00 20.00     0.119 A 
HETATM    4 CL8  UNL     1     -33.334  16.727  -5.386  1.00 20.00    -0.101 Cl
HETATM    5 CL9  UNL     1     -34.795  14.193  -5.680  1.00 20.00    -0.101 Cl
ENDROOT
BRANCH   2   6
HETATM    6  C5  UNL     1     -34.127  16.427  -2.276  1.00 20.00     0.277 C 
BRANCH   6   7
HETATM    7  N7  UNL     1     -34.894  16.248  -1.075  1.00 20.00     0.083 N 
HETATM    8  H20 UNL     1     -34.645  15.362  -0.622  1.00 20.00     0.315 HD
BRANCH   7   9
HETATM    9  C6  UNL     1     -34.665  17.334  -0.119  1.00 20.00     0.265 C 
HETATM   10  C4  UNL     1     -33.385  18.043  -0.408  1.00 20.00     0.037 C 
ENDBRANCH   7   9
ENDBRANCH   6   7
ENDBRANCH   2   6
TORSDOF 3
ENDMDL
MODEL 6
REMARK VINA RESULT:      -3.7      3.069      4.713
REMARK  3 active torsions:
REMARK  status: ('A' for Active; 'I' for Inactive)
REMARK    1  A    between atoms: C2_2  and  C5_5 
REMARK    2  A    between atoms: C5_5  and  N7_7 
REMARK    3  A    between atoms: C6_6  and  N7_7 
ROOT
HETATM    1  C1  UNL     1     -31.397   7.659   3.406  1.00 20.00     0.052 A 
HETATM    2  C2  UNL     1     -32.552   6.853   2.879  1.00 20.00     0.055 A 
HETATM    3  C3  UNL     1     -32.187   8.167   2.225  1.00 20.00     0.119 A 
HETATM    4 CL8  UNL     1     -33.194   9.589   2.455  1.00 20.00    -0.101 Cl
HETATM    5 CL9  UNL     1     -31.423   8.106   0.637  1.00 20.00    -0.101 Cl
ENDROOT
BRANCH   2   6
HETATM    6  C5  UNL     1     -33.778   6.678   3.710  1.00 20.00     0.277 C 
BRANCH   6   7
HETATM    7  N7  UNL     1     -34.461   5.459   3.376  1.00 20.00     0.083 N 
HETATM    8  H20 UNL     1     -33.791   4.754   3.050  1.00 20.00     0.315 HD
BRANCH   7   9
HETATM    9  C6  UNL     1     -35.184   4.911   4.524  1.00 20.00     0.265 C 
HETATM   10  C4  UNL     1     -34.561   5.343   5.809  1.00 20.00     0.037 C 
ENDBRANCH   7   9
ENDBRANCH   6   7
ENDBRANCH   2   6
TORSDOF 3
ENDMDL
MODEL 7
REMARK VINA RESULT:      -3.7      9.864     10.998
REMARK  3 active torsions:
REMARK  status: ('A' for Active; 'I' for Inactive)
REMARK    1  A    between atoms: C2_2  and  C5_5 
REMARK    2  A    between atoms: C5_5  and  N7_7 
REMARK    3  A    between atoms: C6_6  and  N7_7 
ROOT
HETATM    1  C1  UNL     1     -40.703   4.565  -1.083  1.00 20.00     0.052 A 
HETATM    2  C2  UNL     1     -41.876   4.913  -1.957  1.00 20.00     0.055 A 
HETATM    3  C3  UNL     1     -41.627   5.687  -0.682  1.00 20.00     0.119 A 
HETATM    4 CL8  UNL     1     -42.657   5.449   0.723  1.00 20.00    -0.101 Cl
HETATM    5 CL9  UNL     1     -41.028   7.339  -0.832  1.00 20.00    -0.101 Cl
ENDROOT
BRANCH   2   6
HETATM    6  C5  UNL     1     -43.002   3.949  -2.110  1.00 20.00     0.277 C 
BRANCH   6   7
HETATM    7  N7  UNL     1     -42.541   2.592  -2.003  1.00 20.00     0.083 N 
HETATM    8  H20 UNL     1     -43.094   2.082  -1.306  1.00 20.00     0.315 HD
BRANCH   7   9
HETATM    9  C6  UNL     1     -42.643   1.883  -3.280  1.00 20.00     0.265 C 
HETATM   10  C4  UNL     1     -41.308   1.750  -3.930  1.00 20.00     0.037 C 
ENDBRANCH   7   9
ENDBRANCH   6   7
ENDBRANCH   2   6
TORSDOF 3
ENDMDL
MODEL 8
REMARK VINA RESULT:      -3.6     11.663     12.159
REMARK  3 active torsions:
REMARK  status: ('A' for Active; 'I' for Inactive)
REMARK    1  A    between atoms: C2_2  and  C5_5 
REMARK    2  A    between atoms: C5_5  and  N7_7 
REMARK    3  A    between atoms: C6_6  and  N7_7 
ROOT
HETATM    1  C1  UNL     1     -35.006  13.447  -4.290  1.00 20.00     0.052 A 
HETATM    2  C2  UNL     1     -34.847  14.834  -3.729  1.00 20.00     0.055 A 
HETATM    3  C3  UNL     1     -35.369  14.643  -5.136  1.00 20.00     0.119 A 
HETATM    4 CL8  UNL     1     -34.356  15.013  -6.523  1.00 20.00    -0.101 Cl
HETATM    5 CL9  UNL     1     -37.081  14.958  -5.421  1.00 20.00    -0.101 Cl
ENDROOT
BRANCH   2   6
HETATM    6  C5  UNL     1     -33.485  15.367  -3.440  1.00 20.00     0.277 C 
BRANCH   6   7
HETATM    7  N7  UNL     1     -33.525  16.347  -2.390  1.00 20.00     0.083 N 
HETATM    8  H20 UNL     1     -33.380  17.287  -2.774  1.00 20.00     0.315 HD
BRANCH   7   9
HETATM    9  C6  UNL     1     -34.808  16.332  -1.683  1.00 20.00     0.265 C 
HETATM   10  C4  UNL     1     -34.687  16.959  -0.336  1.00 20.00     0.037 C 
ENDBRANCH   7   9
ENDBRANCH   6   7
ENDBRANCH   2   6
TORSDOF 3
ENDMDL
MODEL 9
REMARK VINA RESULT:      -3.6     11.609     12.250
REMARK  3 active torsions:
REMARK  status: ('A' for Active; 'I' for Inactive)
REMARK    1  A    between atoms: C2_2  and  C5_5 
REMARK    2  A    between atoms: C5_5  and  N7_7 
REMARK    3  A    between atoms: C6_6  and  N7_7 
ROOT
HETATM    1  C1  UNL     1     -35.587  16.699  -3.635  1.00 20.00     0.052 A 
HETATM    2  C2  UNL     1     -35.998  15.318  -3.204  1.00 20.00     0.055 A 
HETATM    3  C3  UNL     1     -34.692  15.904  -2.717  1.00 20.00     0.119 A 
HETATM    4 CL8  UNL     1     -33.160  15.324  -3.356  1.00 20.00    -0.101 Cl
HETATM    5 CL9  UNL     1     -34.598  16.400  -1.028  1.00 20.00    -0.101 Cl
ENDROOT
BRANCH   2   6
HETATM    6  C5  UNL     1     -36.065  14.216  -4.206  1.00 20.00     0.277 C 
BRANCH   6   7
HETATM    7  N7  UNL     1     -36.172  14.735  -5.541  1.00 20.00     0.083 N 
HETATM    8  H20 UNL     1     -36.110  15.759  -5.531  1.00 20.00     0.315 HD
BRANCH   7   9
HETATM    9  C6  UNL     1     -35.112  14.219  -6.410  1.00 20.00     0.265 C 
HETATM   10  C4  UNL     1     -34.311  15.331  -7.000  1.00 20.00     0.037 C 
ENDBRANCH   7   9
ENDBRANCH   6   7
ENDBRANCH   2   6
TORSDOF 3
ENDMDL
