MODEL 1
REMARK VINA RESULT:      -4.2      0.000      0.000
REMARK  6 active torsions:
REMARK  status: ('A' for Active; 'I' for Inactive)
REMARK    1  A    between atoms: C5_5  and  C8_8 
REMARK    2  A    between atoms: C6_6  and  C9_9 
REMARK    3  A    between atoms: C7_7  and  C10_10 
REMARK    4  A    between atoms: C8_8  and  N11_11 
REMARK    5  A    between atoms: C9_9  and  N11_11 
REMARK    6  A    between atoms: C10_10  and  N11_11 
ROOT
HETATM    1  C1  UNL     1     -34.730  17.733   0.566  1.00 20.00     0.012 C 
HETATM    2  C2  UNL     1     -34.717  17.061  -0.429  1.00 20.00    -0.116 C 
HETATM    3  C5  UNL     1     -34.705  16.235  -1.646  1.00 20.00     0.123 C 
ENDROOT
BRANCH   3   4
HETATM    4  C8  UNL     1     -33.885  16.875  -2.763  1.00 20.00     0.284 C 
BRANCH   4   5
HETATM    5  N11 UNL     1     -33.756  15.966  -3.900  1.00 20.00     0.089 N 
BRANCH   5   6
HETATM    6  C9  UNL     1     -32.830  14.879  -3.582  1.00 20.00     0.272 C 
BRANCH   6   7
HETATM    7  C6  UNL     1     -33.415  13.507  -3.898  1.00 20.00     0.026 C 
HETATM    8  C3  UNL     1     -34.929  13.535  -4.053  1.00 20.00     0.007 C 
ENDBRANCH   6   7
ENDBRANCH   5   6
BRANCH   5   9
HETATM    9  C10 UNL     1     -33.303  16.692  -5.087  1.00 20.00     0.272 C 
BRANCH   9  10
HETATM   10  C7  UNL     1     -34.367  16.743  -6.177  1.00 20.00     0.026 C 
HETATM   11  C4  UNL     1     -34.323  15.533  -7.099  1.00 20.00     0.007 C 
ENDBRANCH   9  10
ENDBRANCH   5   9
ENDBRANCH   4   5
ENDBRANCH   3   4
TORSDOF 6
ENDMDL
MODEL 2
REMARK VINA RESULT:      -4.2      0.501      4.567
REMARK  6 active torsions:
REMARK  status: ('A' for Active; 'I' for Inactive)
REMARK    1  A    between atoms: C5_5  and  C8_8 
REMARK    2  A    between atoms: C6_6  and  C9_9 
REMARK    3  A    between atoms: C7_7  and  C10_10 
REMARK    4  A    between atoms: C8_8  and  N11_11 
REMARK    5  A    between atoms: C9_9  and  N11_11 
REMARK    6  A    between atoms: C10_10  and  N11_11 
ROOT
HETATM    1  C1  UNL     1     -34.603  14.804  -7.561  1.00 20.00     0.012 C 
HETATM    2  C2  UNL     1     -34.424  15.834  -6.972  1.00 20.00    -0.116 C 
HETATM    3  C5  UNL     1     -34.210  17.100  -6.253  1.00 20.00     0.123 C 
ENDROOT
BRANCH   3   4
HETATM    4  C8  UNL     1     -33.372  16.906  -4.993  1.00 20.00     0.284 C 
BRANCH   4   5
HETATM    5  N11 UNL     1     -34.086  16.088  -4.014  1.00 20.00     0.089 N 
BRANCH   5   6
HETATM    6  C9  UNL     1     -34.642  16.929  -2.954  1.00 20.00     0.272 C 
BRANCH   6   7
HETATM    7  C6  UNL     1     -34.659  16.224  -1.603  1.00 20.00     0.026 C 
HETATM    8  C3  UNL     1     -34.501  17.187  -0.436  1.00 20.00     0.007 C 
ENDBRANCH   6   7
ENDBRANCH   5   6
BRANCH   5   9
HETATM    9  C10 UNL     1     -33.198  15.072  -3.449  1.00 20.00     0.272 C 
BRANCH   9  10
HETATM   10  C7  UNL     1     -33.528  13.671  -3.947  1.00 20.00     0.026 C 
HETATM   11  C4  UNL     1     -35.023  13.444  -4.120  1.00 20.00     0.007 C 
ENDBRANCH   9  10
ENDBRANCH   5   9
ENDBRANCH   4   5
ENDBRANCH   3   4
TORSDOF 6
ENDMDL
MODEL 3
REMARK VINA RESULT:      -4.0      1.109      4.174
REMARK  6 active torsions:
REMARK  status: ('A' for Active; 'I' for Inactive)
REMARK    1  A    between atoms: C5_5  and  C8_8 
REMARK    2  A    between atoms: C6_6  and  C9_9 
REMARK    3  A    between atoms: C7_7  and  C10_10 
REMARK    4  A    between atoms: C8_8  and  N11_11 
REMARK    5  A    between atoms: C9_9  and  N11_11 
REMARK    6  A    between atoms: C10_10  and  N11_11 
ROOT
HETATM    1  C1  UNL     1     -37.448  14.919  -3.919  1.00 20.00     0.012 C 
HETATM    2  C2  UNL     1     -36.411  14.321  -4.013  1.00 20.00    -0.116 C 
HETATM    3  C5  UNL     1     -35.143  13.584  -4.132  1.00 20.00     0.123 C 
ENDROOT
BRANCH   3   4
HETATM    4  C8  UNL     1     -33.990  14.322  -3.458  1.00 20.00     0.284 C 
BRANCH   4   5
HETATM    5  N11 UNL     1     -34.084  15.762  -3.695  1.00 20.00     0.089 N 
BRANCH   5   6
HETATM    6  C9  UNL     1     -33.220  16.153  -4.808  1.00 20.00     0.272 C 
BRANCH   6   7
HETATM    7  C6  UNL     1     -34.012  16.649  -6.013  1.00 20.00     0.026 C 
HETATM    8  C3  UNL     1     -34.264  15.556  -7.040  1.00 20.00     0.007 C 
ENDBRANCH   6   7
ENDBRANCH   5   6
BRANCH   5   9
HETATM    9  C10 UNL     1     -33.729  16.505  -2.486  1.00 20.00     0.272 C 
BRANCH   9  10
HETATM   10  C7  UNL     1     -34.740  16.305  -1.364  1.00 20.00     0.026 C 
HETATM   11  C4  UNL     1     -34.538  17.277  -0.211  1.00 20.00     0.007 C 
ENDBRANCH   9  10
ENDBRANCH   5   9
ENDBRANCH   4   5
ENDBRANCH   3   4
TORSDOF 6
ENDMDL
MODEL 4
REMARK VINA RESULT:      -4.0      0.886      2.797
REMARK  6 active torsions:
REMARK  status: ('A' for Active; 'I' for Inactive)
REMARK    1  A    between atoms: C5_5  and  C8_8 
REMARK    2  A    between atoms: C6_6  and  C9_9 
REMARK    3  A    between atoms: C7_7  and  C10_10 
REMARK    4  A    between atoms: C8_8  and  N11_11 
REMARK    5  A    between atoms: C9_9  and  N11_11 
REMARK    6  A    between atoms: C10_10  and  N11_11 
ROOT
HETATM    1  C1  UNL     1     -35.131  17.574   0.543  1.00 20.00     0.012 C 
HETATM    2  C2  UNL     1     -34.812  16.971  -0.445  1.00 20.00    -0.116 C 
HETATM    3  C5  UNL     1     -34.419  16.228  -1.653  1.00 20.00     0.123 C 
ENDROOT
BRANCH   3   4
HETATM    4  C8  UNL     1     -35.101  16.772  -2.905  1.00 20.00     0.284 C 
BRANCH   4   5
HETATM    5  N11 UNL     1     -34.929  15.856  -4.031  1.00 20.00     0.089 N 
BRANCH   5   6
HETATM    6  C9  UNL     1     -35.254  16.526  -5.289  1.00 20.00     0.272 C 
BRANCH   6   7
HETATM    7  C6  UNL     1     -34.192  16.301  -6.359  1.00 20.00     0.026 C 
HETATM    8  C3  UNL     1     -34.589  15.230  -7.364  1.00 20.00     0.007 C 
ENDBRANCH   6   7
ENDBRANCH   5   6
BRANCH   5   9
HETATM    9  C10 UNL     1     -35.762  14.667  -3.855  1.00 20.00     0.272 C 
BRANCH   9  10
HETATM   10  C7  UNL     1     -34.990  13.376  -4.099  1.00 20.00     0.026 C 
HETATM   11  C4  UNL     1     -33.496  13.530  -3.858  1.00 20.00     0.007 C 
ENDBRANCH   9  10
ENDBRANCH   5   9
ENDBRANCH   4   5
ENDBRANCH   3   4
TORSDOF 6
ENDMDL
MODEL 5
REMARK VINA RESULT:      -3.9      1.098      3.704
REMARK  6 active torsions:
REMARK  status: ('A' for Active; 'I' for Inactive)
REMARK    1  A    between atoms: C5_5  and  C8_8 
REMARK    2  A    between atoms: C6_6  and  C9_9 
REMARK    3  A    between atoms: C7_7  and  C10_10 
REMARK    4  A    between atoms: C8_8  and  N11_11 
REMARK    5  A    between atoms: C9_9  and  N11_11 
REMARK    6  A    between atoms: C10_10  and  N11_11 
ROOT
HETATM    1  C1  UNL     1     -32.936  13.669  -3.557  1.00 20.00     0.012 C 
HETATM    2  C2  UNL     1     -34.102  13.656  -3.843  1.00 20.00    -0.116 C 
HETATM    3  C5  UNL     1     -35.530  13.635  -4.195  1.00 20.00     0.123 C 
ENDROOT
BRANCH   3   4
HETATM    4  C8  UNL     1     -36.258  14.882  -3.701  1.00 20.00     0.284 C 
BRANCH   4   5
HETATM    5  N11 UNL     1     -35.362  16.038  -3.693  1.00 20.00     0.089 N 
BRANCH   5   6
HETATM    6  C9  UNL     1     -35.556  16.826  -2.476  1.00 20.00     0.272 C 
BRANCH   6   7
HETATM    7  C6  UNL     1     -34.583  16.434  -1.370  1.00 20.00     0.026 C 
HETATM    8  C3  UNL     1     -34.860  17.158  -0.061  1.00 20.00     0.007 C 
ENDBRANCH   6   7
ENDBRANCH   5   6
BRANCH   5   9
HETATM    9  C10 UNL     1     -35.584  16.866  -4.879  1.00 20.00     0.272 C 
BRANCH   9  10
HETATM   10  C7  UNL     1     -34.344  16.963  -5.759  1.00 20.00     0.026 C 
HETATM   11  C4  UNL     1     -34.322  15.916  -6.862  1.00 20.00     0.007 C 
ENDBRANCH   9  10
ENDBRANCH   5   9
ENDBRANCH   4   5
ENDBRANCH   3   4
TORSDOF 6
ENDMDL
MODEL 6
REMARK VINA RESULT:      -3.9      0.865      4.733
REMARK  6 active torsions:
REMARK  status: ('A' for Active; 'I' for Inactive)
REMARK    1  A    between atoms: C5_5  and  C8_8 
REMARK    2  A    between atoms: C6_6  and  C9_9 
REMARK    3  A    between atoms: C7_7  and  C10_10 
REMARK    4  A    between atoms: C8_8  and  N11_11 
REMARK    5  A    between atoms: C9_9  and  N11_11 
REMARK    6  A    between atoms: C10_10  and  N11_11 
ROOT
HETATM    1  C1  UNL     1     -35.188  14.605  -7.741  1.00 20.00     0.012 C 
HETATM    2  C2  UNL     1     -34.668  15.428  -7.039  1.00 20.00    -0.116 C 
HETATM    3  C5  UNL     1     -34.027  16.438  -6.182  1.00 20.00     0.123 C 
ENDROOT
BRANCH   3   4
HETATM    4  C8  UNL     1     -34.901  16.811  -4.988  1.00 20.00     0.284 C 
BRANCH   4   5
HETATM    5  N11 UNL     1     -34.445  16.130  -3.777  1.00 20.00     0.089 N 
BRANCH   5   6
HETATM    6  C9  UNL     1     -35.362  15.047  -3.425  1.00 20.00     0.272 C 
BRANCH   6   7
HETATM    7  C6  UNL     1     -34.823  13.677  -3.821  1.00 20.00     0.026 C 
HETATM    8  C3  UNL     1     -33.304  13.607  -3.770  1.00 20.00     0.007 C 
ENDBRANCH   6   7
ENDBRANCH   5   6
BRANCH   5   9
HETATM    9  C10 UNL     1     -34.326  17.079  -2.670  1.00 20.00     0.272 C 
BRANCH   9  10
HETATM   10  C7  UNL     1     -34.752  16.473  -1.339  1.00 20.00     0.026 C 
HETATM   11  C4  UNL     1     -34.433  17.374  -0.154  1.00 20.00     0.007 C 
ENDBRANCH   9  10
ENDBRANCH   5   9
ENDBRANCH   4   5
ENDBRANCH   3   4
TORSDOF 6
ENDMDL
MODEL 7
REMARK VINA RESULT:      -3.8      1.581      4.294
REMARK  6 active torsions:
REMARK  status: ('A' for Active; 'I' for Inactive)
REMARK    1  A    between atoms: C5_5  and  C8_8 
REMARK    2  A    between atoms: C6_6  and  C9_9 
REMARK    3  A    between atoms: C7_7  and  C10_10 
REMARK    4  A    between atoms: C8_8  and  N11_11 
REMARK    5  A    between atoms: C9_9  and  N11_11 
REMARK    6  A    between atoms: C10_10  and  N11_11 
ROOT
HETATM    1  C1  UNL     1     -35.046  13.289  -4.247  1.00 20.00     0.012 C 
HETATM    2  C2  UNL     1     -34.135  14.038  -4.018  1.00 20.00    -0.116 C 
HETATM    3  C5  UNL     1     -33.016  14.951  -3.736  1.00 20.00     0.123 C 
ENDROOT
BRANCH   3   4
HETATM    4  C8  UNL     1     -33.273  16.353  -4.280  1.00 20.00     0.284 C 
BRANCH   4   5
HETATM    5  N11 UNL     1     -34.327  17.021  -3.517  1.00 20.00     0.089 N 
BRANCH   5   6
HETATM    6  C9  UNL     1     -35.326  17.593  -4.419  1.00 20.00     0.272 C 
BRANCH   6   7
HETATM    7  C6  UNL     1     -36.640  16.822  -4.394  1.00 20.00     0.026 C 
HETATM    8  C3  UNL     1     -36.938  16.126  -5.714  1.00 20.00     0.007 C 
ENDBRANCH   6   7
ENDBRANCH   5   6
BRANCH   5   9
HETATM    9  C10 UNL     1     -33.758  18.060  -2.660  1.00 20.00     0.272 C 
BRANCH   9  10
HETATM   10  C7  UNL     1     -33.644  17.617  -1.207  1.00 20.00     0.026 C 
HETATM   11  C4  UNL     1     -34.700  16.592  -0.820  1.00 20.00     0.007 C 
ENDBRANCH   9  10
ENDBRANCH   5   9
ENDBRANCH   4   5
ENDBRANCH   3   4
TORSDOF 6
ENDMDL
MODEL 8
REMARK VINA RESULT:      -3.8      1.459      1.964
REMARK  6 active torsions:
REMARK  status: ('A' for Active; 'I' for Inactive)
REMARK    1  A    between atoms: C5_5  and  C8_8 
REMARK    2  A    between atoms: C6_6  and  C9_9 
REMARK    3  A    between atoms: C7_7  and  C10_10 
REMARK    4  A    between atoms: C8_8  and  N11_11 
REMARK    5  A    between atoms: C9_9  and  N11_11 
REMARK    6  A    between atoms: C10_10  and  N11_11 
ROOT
HETATM    1  C1  UNL     1     -32.909  18.735  -0.456  1.00 20.00     0.012 C 
HETATM    2  C2  UNL     1     -33.656  17.808  -0.604  1.00 20.00    -0.116 C 
HETATM    3  C5  UNL     1     -34.575  16.672  -0.780  1.00 20.00     0.123 C 
ENDROOT
BRANCH   3   4
HETATM    4  C8  UNL     1     -34.424  16.024  -2.153  1.00 20.00     0.284 C 
BRANCH   4   5
HETATM    5  N11 UNL     1     -35.646  16.182  -2.940  1.00 20.00     0.089 N 
BRANCH   5   6
HETATM    6  C9  UNL     1     -36.015  14.914  -3.571  1.00 20.00     0.272 C 
BRANCH   6   7
HETATM    7  C6  UNL     1     -34.845  13.940  -3.643  1.00 20.00     0.026 C 
HETATM    8  C3  UNL     1     -34.631  13.381  -5.042  1.00 20.00     0.007 C 
ENDBRANCH   6   7
ENDBRANCH   5   6
BRANCH   5   9
HETATM    9  C10 UNL     1     -35.473  17.224  -3.952  1.00 20.00     0.272 C 
BRANCH   9  10
HETATM   10  C7  UNL     1     -34.009  17.455  -4.303  1.00 20.00     0.026 C 
HETATM   11  C4  UNL     1     -33.662  16.993  -5.711  1.00 20.00     0.007 C 
ENDBRANCH   9  10
ENDBRANCH   5   9
ENDBRANCH   4   5
ENDBRANCH   3   4
TORSDOF 6
ENDMDL
MODEL 9
REMARK VINA RESULT:      -3.8      1.799      2.856
REMARK  6 active torsions:
REMARK  status: ('A' for Active; 'I' for Inactive)
REMARK    1  A    between atoms: C5_5  and  C8_8 
REMARK    2  A    between atoms: C6_6  and  C9_9 
REMARK    3  A    between atoms: C7_7  and  C10_10 
REMARK    4  A    between atoms: C8_8  and  N11_11 
REMARK    5  A    between atoms: C9_9  and  N11_11 
REMARK    6  A    between atoms: C10_10  and  N11_11 
ROOT
HETATM    1  C1  UNL     1     -34.590  16.599  -1.280  1.00 20.00     0.012 C 
HETATM    2  C2  UNL     1     -34.007  16.157  -2.232  1.00 20.00    -0.116 C 
HETATM    3  C5  UNL     1     -33.288  15.618  -3.398  1.00 20.00     0.123 C 
ENDROOT
BRANCH   3   4
HETATM    4  C8  UNL     1     -33.954  14.360  -3.947  1.00 20.00     0.284 C 
BRANCH   4   5
HETATM    5  N11 UNL     1     -35.119  14.703  -4.762  1.00 20.00     0.089 N 
BRANCH   5   6
HETATM    6  C9  UNL     1     -36.346  14.225  -4.126  1.00 20.00     0.272 C 
BRANCH   6   7
HETATM    7  C6  UNL     1     -37.542  15.123  -4.421  1.00 20.00     0.026 C 
HETATM    8  C3  UNL     1     -37.307  16.568  -4.008  1.00 20.00     0.007 C 
ENDBRANCH   6   7
ENDBRANCH   5   6
BRANCH   5   9
HETATM    9  C10 UNL     1     -34.987  14.140  -6.106  1.00 20.00     0.272 C 
BRANCH   9  10
HETATM   10  C7  UNL     1     -34.382  15.129  -7.094  1.00 20.00     0.026 C 
HETATM   11  C4  UNL     1     -34.751  16.572  -6.781  1.00 20.00     0.007 C 
ENDBRANCH   9  10
ENDBRANCH   5   9
ENDBRANCH   4   5
ENDBRANCH   3   4
TORSDOF 6
ENDMDL
