MODEL 1
REMARK VINA RESULT:      -4.9      0.000      0.000
REMARK  3 active torsions:
REMARK  status: ('A' for Active; 'I' for Inactive)
REMARK    1  A    between atoms: C1_1  and  C3_3 
REMARK       I    between atoms: C1_1  and  N9_9 
REMARK    2  A    between atoms: C7_7  and  C8_8 
REMARK    3  A    between atoms: C8_8  and  N9_9 
ROOT
HETATM    1  C1  UNL     1     -33.338   6.420   3.880  1.00 20.00     0.222 C 
HETATM    2  N9  UNL     1     -34.306   5.607   3.322  1.00 20.00    -0.361 N 
HETATM    3  O10 UNL     1     -33.306   6.824   5.037  1.00 20.00    -0.273 OA
HETATM    4  H25 UNL     1     -34.213   5.344   2.347  1.00 20.00     0.162 HD
ENDROOT
BRANCH   1   5
HETATM    5  C3  UNL     1     -32.271   6.801   2.950  1.00 20.00     0.082 A 
HETATM    6  C2  UNL     1     -31.193   7.746   3.410  1.00 20.00     0.019 A 
HETATM    7  C4  UNL     1     -32.225   8.223   2.425  1.00 20.00    -0.005 A 
HETATM    8  C5  UNL     1     -31.846   8.485   1.008  1.00 20.00     0.011 C 
ENDBRANCH   1   5
BRANCH   2   9
HETATM    9  C8  UNL     1     -35.446   5.113   4.062  1.00 20.00     0.122 C 
BRANCH   9  10
HETATM   10  C7  UNL     1     -35.071   3.986   5.019  1.00 20.00     0.015 C 
HETATM   11  C6  UNL     1     -35.099   4.420   6.478  1.00 20.00     0.006 C 
ENDBRANCH   9  10
ENDBRANCH   2   9
TORSDOF 3
ENDMDL
MODEL 2
REMARK VINA RESULT:      -4.8      1.282      1.470
REMARK  3 active torsions:
REMARK  status: ('A' for Active; 'I' for Inactive)
REMARK    1  A    between atoms: C1_1  and  C3_3 
REMARK       I    between atoms: C1_1  and  N9_9 
REMARK    2  A    between atoms: C7_7  and  C8_8 
REMARK    3  A    between atoms: C8_8  and  N9_9 
ROOT
HETATM    1  C1  UNL     1     -33.513   6.343   3.664  1.00 20.00     0.222 C 
HETATM    2  N9  UNL     1     -33.362   6.580   5.017  1.00 20.00    -0.361 N 
HETATM    3  O10 UNL     1     -34.486   5.836   3.118  1.00 20.00    -0.273 OA
HETATM    4  H25 UNL     1     -32.501   7.009   5.340  1.00 20.00     0.162 HD
ENDROOT
BRANCH   1   5
HETATM    5  C3  UNL     1     -32.365   6.764   2.853  1.00 20.00     0.082 A 
HETATM    6  C2  UNL     1     -31.343   7.696   3.448  1.00 20.00     0.019 A 
HETATM    7  C4  UNL     1     -32.283   8.205   2.387  1.00 20.00    -0.005 A 
HETATM    8  C5  UNL     1     -31.774   8.521   1.024  1.00 20.00     0.011 C 
ENDBRANCH   1   5
BRANCH   2   9
HETATM    9  C8  UNL     1     -34.373   6.244   5.995  1.00 20.00     0.122 C 
BRANCH   9  10
HETATM   10  C7  UNL     1     -34.255   4.804   6.481  1.00 20.00     0.015 C 
HETATM   11  C6  UNL     1     -35.057   3.829   5.632  1.00 20.00     0.006 C 
ENDBRANCH   9  10
ENDBRANCH   2   9
TORSDOF 3
ENDMDL
MODEL 3
REMARK VINA RESULT:      -4.8      1.571      5.034
REMARK  3 active torsions:
REMARK  status: ('A' for Active; 'I' for Inactive)
REMARK    1  A    between atoms: C1_1  and  C3_3 
REMARK       I    between atoms: C1_1  and  N9_9 
REMARK    2  A    between atoms: C7_7  and  C8_8 
REMARK    3  A    between atoms: C8_8  and  N9_9 
ROOT
HETATM    1  C1  UNL     1     -33.722   6.156   3.473  1.00 20.00     0.222 C 
HETATM    2  N9  UNL     1     -32.841   7.218   3.546  1.00 20.00    -0.361 N 
HETATM    3  O10 UNL     1     -33.853   5.382   2.531  1.00 20.00    -0.273 OA
HETATM    4  H25 UNL     1     -32.833   7.783   4.388  1.00 20.00     0.162 HD
ENDROOT
BRANCH   1   5
HETATM    5  C3  UNL     1     -34.553   5.987   4.669  1.00 20.00     0.082 A 
HETATM    6  C2  UNL     1     -34.000   6.377   6.014  1.00 20.00     0.019 A 
HETATM    7  C4  UNL     1     -34.180   4.920   5.680  1.00 20.00    -0.005 A 
HETATM    8  C5  UNL     1     -35.243   4.123   6.352  1.00 20.00     0.011 C 
ENDBRANCH   1   5
BRANCH   2   9
HETATM    9  C8  UNL     1     -31.927   7.561   2.478  1.00 20.00     0.122 C 
BRANCH   9  10
HETATM   10  C7  UNL     1     -32.213   8.938   1.891  1.00 20.00     0.015 C 
HETATM   11  C6  UNL     1     -32.167   8.951   0.370  1.00 20.00     0.006 C 
ENDBRANCH   9  10
ENDBRANCH   2   9
TORSDOF 3
ENDMDL
MODEL 4
REMARK VINA RESULT:      -4.8      1.591      1.706
REMARK  3 active torsions:
REMARK  status: ('A' for Active; 'I' for Inactive)
REMARK    1  A    between atoms: C1_1  and  C3_3 
REMARK       I    between atoms: C1_1  and  N9_9 
REMARK    2  A    between atoms: C7_7  and  C8_8 
REMARK    3  A    between atoms: C8_8  and  N9_9 
ROOT
HETATM    1  C1  UNL     1     -33.394   5.824   3.018  1.00 20.00     0.222 C 
HETATM    2  N9  UNL     1     -33.511   5.837   4.395  1.00 20.00    -0.361 N 
HETATM    3  O10 UNL     1     -34.133   5.246   2.229  1.00 20.00    -0.273 OA
HETATM    4  H25 UNL     1     -32.828   6.358   4.933  1.00 20.00     0.162 HD
ENDROOT
BRANCH   1   5
HETATM    5  C3  UNL     1     -32.256   6.598   2.509  1.00 20.00     0.082 A 
HETATM    6  C2  UNL     1     -31.578   7.594   3.412  1.00 20.00     0.019 A 
HETATM    7  C4  UNL     1     -32.426   8.086   2.270  1.00 20.00    -0.005 A 
HETATM    8  C5  UNL     1     -31.791   8.730   1.087  1.00 20.00     0.011 C 
ENDBRANCH   1   5
BRANCH   2   9
HETATM    9  C8  UNL     1     -34.562   5.142   5.104  1.00 20.00     0.122 C 
BRANCH   9  10
HETATM   10  C7  UNL     1     -34.681   5.596   6.554  1.00 20.00     0.015 C 
HETATM   11  C6  UNL     1     -33.911   6.878   6.835  1.00 20.00     0.006 C 
ENDBRANCH   9  10
ENDBRANCH   2   9
TORSDOF 3
ENDMDL
MODEL 5
REMARK VINA RESULT:      -4.6      1.096      5.004
REMARK  3 active torsions:
REMARK  status: ('A' for Active; 'I' for Inactive)
REMARK    1  A    between atoms: C1_1  and  C3_3 
REMARK       I    between atoms: C1_1  and  N9_9 
REMARK    2  A    between atoms: C7_7  and  C8_8 
REMARK    3  A    between atoms: C8_8  and  N9_9 
ROOT
HETATM    1  C1  UNL     1     -33.031   6.506   4.061  1.00 20.00     0.222 C 
HETATM    2  N9  UNL     1     -32.592   6.826   2.790  1.00 20.00    -0.361 N 
HETATM    3  O10 UNL     1     -32.760   7.102   5.097  1.00 20.00    -0.273 OA
HETATM    4  H25 UNL     1     -32.893   6.247   2.014  1.00 20.00     0.162 HD
ENDROOT
BRANCH   1   5
HETATM    5  C3  UNL     1     -33.907   5.330   4.110  1.00 20.00     0.082 A 
HETATM    6  C2  UNL     1     -35.372   5.488   3.804  1.00 20.00     0.019 A 
HETATM    7  C4  UNL     1     -34.934   5.224   5.220  1.00 20.00    -0.005 A 
HETATM    8  C5  UNL     1     -35.212   3.907   5.858  1.00 20.00     0.011 C 
ENDBRANCH   1   5
BRANCH   2   9
HETATM    9  C8  UNL     1     -31.722   7.949   2.515  1.00 20.00     0.122 C 
BRANCH   9  10
HETATM   10  C7  UNL     1     -31.910   8.494   1.104  1.00 20.00     0.015 C 
HETATM   11  C6  UNL     1     -32.444   9.919   1.090  1.00 20.00     0.006 C 
ENDBRANCH   9  10
ENDBRANCH   2   9
TORSDOF 3
ENDMDL
MODEL 6
REMARK VINA RESULT:      -4.2     11.491     12.758
REMARK  3 active torsions:
REMARK  status: ('A' for Active; 'I' for Inactive)
REMARK    1  A    between atoms: C1_1  and  C3_3 
REMARK       I    between atoms: C1_1  and  N9_9 
REMARK    2  A    between atoms: C7_7  and  C8_8 
REMARK    3  A    between atoms: C8_8  and  N9_9 
ROOT
HETATM    1  C1  UNL     1     -34.573  13.820  -5.224  1.00 20.00     0.222 C 
HETATM    2  N9  UNL     1     -33.709  14.834  -4.856  1.00 20.00    -0.361 N 
HETATM    3  O10 UNL     1     -34.899  12.857  -4.539  1.00 20.00    -0.273 OA
HETATM    4  H25 UNL     1     -33.525  15.577  -5.522  1.00 20.00     0.162 HD
ENDROOT
BRANCH   1   5
HETATM    5  C3  UNL     1     -35.124  13.967  -6.575  1.00 20.00     0.082 A 
HETATM    6  C2  UNL     1     -34.637  15.089  -7.453  1.00 20.00     0.019 A 
HETATM    7  C4  UNL     1     -36.027  15.146  -6.878  1.00 20.00    -0.005 A 
HETATM    8  C5  UNL     1     -37.213  14.972  -7.763  1.00 20.00     0.011 C 
ENDBRANCH   1   5
BRANCH   2   9
HETATM    9  C8  UNL     1     -33.057  14.887  -3.566  1.00 20.00     0.122 C 
BRANCH   9  10
HETATM   10  C7  UNL     1     -33.496  16.094  -2.744  1.00 20.00     0.015 C 
HETATM   11  C6  UNL     1     -34.871  15.910  -2.117  1.00 20.00     0.006 C 
ENDBRANCH   9  10
ENDBRANCH   2   9
TORSDOF 3
ENDMDL
MODEL 7
REMARK VINA RESULT:      -4.2     11.548     12.394
REMARK  3 active torsions:
REMARK  status: ('A' for Active; 'I' for Inactive)
REMARK    1  A    between atoms: C1_1  and  C3_3 
REMARK       I    between atoms: C1_1  and  N9_9 
REMARK    2  A    between atoms: C7_7  and  C8_8 
REMARK    3  A    between atoms: C8_8  and  N9_9 
ROOT
HETATM    1  C1  UNL     1     -35.623  15.341  -3.278  1.00 20.00     0.222 C 
HETATM    2  N9  UNL     1     -34.597  14.891  -4.086  1.00 20.00    -0.361 N 
HETATM    3  O10 UNL     1     -36.738  14.844  -3.172  1.00 20.00    -0.273 OA
HETATM    4  H25 UNL     1     -33.717  15.397  -4.079  1.00 20.00     0.162 HD
ENDROOT
BRANCH   1   5
HETATM    5  C3  UNL     1     -35.284  16.532  -2.492  1.00 20.00     0.082 A 
HETATM    6  C2  UNL     1     -33.840  16.931  -2.342  1.00 20.00     0.019 A 
HETATM    7  C4  UNL     1     -34.578  16.359  -1.161  1.00 20.00    -0.005 A 
HETATM    8  C5  UNL     1     -34.936  17.229  -0.006  1.00 20.00     0.011 C 
ENDBRANCH   1   5
BRANCH   2   9
HETATM    9  C8  UNL     1     -34.716  13.731  -4.941  1.00 20.00     0.122 C 
BRANCH   9  10
HETATM   10  C7  UNL     1     -35.081  14.102  -6.374  1.00 20.00     0.015 C 
HETATM   11  C6  UNL     1     -34.322  15.321  -6.878  1.00 20.00     0.006 C 
ENDBRANCH   9  10
ENDBRANCH   2   9
TORSDOF 3
ENDMDL
MODEL 8
REMARK VINA RESULT:      -4.2     11.582     13.179
REMARK  3 active torsions:
REMARK  status: ('A' for Active; 'I' for Inactive)
REMARK    1  A    between atoms: C1_1  and  C3_3 
REMARK       I    between atoms: C1_1  and  N9_9 
REMARK    2  A    between atoms: C7_7  and  C8_8 
REMARK    3  A    between atoms: C8_8  and  N9_9 
ROOT
HETATM    1  C1  UNL     1     -33.514  16.015  -4.881  1.00 20.00     0.222 C 
HETATM    2  N9  UNL     1     -34.062  15.059  -5.715  1.00 20.00    -0.361 N 
HETATM    3  O10 UNL     1     -33.045  17.095  -5.221  1.00 20.00    -0.273 OA
HETATM    4  H25 UNL     1     -34.418  14.204  -5.301  1.00 20.00     0.162 HD
ENDROOT
BRANCH   1   5
HETATM    5  C3  UNL     1     -33.527  15.646  -3.461  1.00 20.00     0.082 A 
HETATM    6  C2  UNL     1     -34.483  14.586  -2.982  1.00 20.00     0.019 A 
HETATM    7  C4  UNL     1     -34.725  16.025  -2.613  1.00 20.00    -0.005 A 
HETATM    8  C5  UNL     1     -34.532  16.482  -1.208  1.00 20.00     0.011 C 
ENDBRANCH   1   5
BRANCH   2   9
HETATM    9  C8  UNL     1     -34.153  15.221  -7.149  1.00 20.00     0.122 C 
BRANCH   9  10
HETATM   10  C7  UNL     1     -35.510  14.794  -7.696  1.00 20.00     0.015 C 
HETATM   11  C6  UNL     1     -36.649  15.068  -6.723  1.00 20.00     0.006 C 
ENDBRANCH   9  10
ENDBRANCH   2   9
TORSDOF 3
ENDMDL
MODEL 9
REMARK VINA RESULT:      -4.1     11.221     12.123
REMARK  3 active torsions:
REMARK  status: ('A' for Active; 'I' for Inactive)
REMARK    1  A    between atoms: C1_1  and  C3_3 
REMARK       I    between atoms: C1_1  and  N9_9 
REMARK    2  A    between atoms: C7_7  and  C8_8 
REMARK    3  A    between atoms: C8_8  and  N9_9 
ROOT
HETATM    1  C1  UNL     1     -34.918  16.657  -2.663  1.00 20.00     0.222 C 
HETATM    2  N9  UNL     1     -33.692  16.230  -3.137  1.00 20.00    -0.361 N 
HETATM    3  O10 UNL     1     -36.018  16.335  -3.097  1.00 20.00    -0.273 OA
HETATM    4  H25 UNL     1     -32.852  16.574  -2.684  1.00 20.00     0.162 HD
ENDROOT
BRANCH   1   5
HETATM    5  C3  UNL     1     -34.829  17.582  -1.528  1.00 20.00     0.082 A 
HETATM    6  C2  UNL     1     -33.533  17.701  -0.772  1.00 20.00     0.019 A 
HETATM    7  C4  UNL     1     -34.709  17.018  -0.126  1.00 20.00    -0.005 A 
HETATM    8  C5  UNL     1     -35.426  17.669   1.006  1.00 20.00     0.011 C 
ENDBRANCH   1   5
BRANCH   2   9
HETATM    9  C8  UNL     1     -33.550  15.314  -4.247  1.00 20.00     0.122 C 
BRANCH   9  10
HETATM   10  C7  UNL     1     -33.696  13.858  -3.819  1.00 20.00     0.015 C 
HETATM   11  C6  UNL     1     -34.979  13.219  -4.332  1.00 20.00     0.006 C 
ENDBRANCH   9  10
ENDBRANCH   2   9
TORSDOF 3
ENDMDL
