MODEL 1
REMARK VINA RESULT:      -4.3      0.000      0.000
REMARK  3 active torsions:
REMARK  status: ('A' for Active; 'I' for Inactive)
REMARK    1  A    between atoms: C2_2  and  C5_5 
REMARK    2  A    between atoms: C5_5  and  N7_7 
REMARK    3  A    between atoms: C6_6  and  N7_7 
ROOT
HETATM    1  C1  UNL     1     -33.919   6.570   5.290  1.00 20.00     0.052 A 
HETATM    2  C2  UNL     1     -33.200   5.773   4.236  1.00 20.00     0.055 A 
HETATM    3  C3  UNL     1     -34.586   5.363   4.680  1.00 20.00     0.119 A 
HETATM    4 CL8  UNL     1     -34.731   3.914   5.676  1.00 20.00    -0.101 Cl
HETATM    5 CL9  UNL     1     -35.975   5.625   3.633  1.00 20.00    -0.101 Cl
ENDROOT
BRANCH   2   6
HETATM    6  C5  UNL     1     -32.926   6.379   2.902  1.00 20.00     0.277 C 
BRANCH   6   7
HETATM    7  N7  UNL     1     -32.111   7.555   3.024  1.00 20.00     0.083 N 
HETATM    8  H20 UNL     1     -32.557   8.233   3.652  1.00 20.00     0.315 HD
BRANCH   7   9
HETATM    9  C6  UNL     1     -31.894   8.201   1.729  1.00 20.00     0.265 C 
HETATM   10  C4  UNL     1     -32.513   9.556   1.694  1.00 20.00     0.037 C 
ENDBRANCH   7   9
ENDBRANCH   6   7
ENDBRANCH   2   6
TORSDOF 3
ENDMDL
MODEL 2
REMARK VINA RESULT:      -3.9      1.443      1.786
REMARK  3 active torsions:
REMARK  status: ('A' for Active; 'I' for Inactive)
REMARK    1  A    between atoms: C2_2  and  C5_5 
REMARK    2  A    between atoms: C5_5  and  N7_7 
REMARK    3  A    between atoms: C6_6  and  N7_7 
ROOT
HETATM    1  C1  UNL     1     -35.681   5.759   4.086  1.00 20.00     0.052 A 
HETATM    2  C2  UNL     1     -34.209   6.047   3.975  1.00 20.00     0.055 A 
HETATM    3  C3  UNL     1     -34.727   5.186   5.105  1.00 20.00     0.119 A 
HETATM    4 CL8  UNL     1     -34.740   5.883   6.726  1.00 20.00    -0.101 Cl
HETATM    5 CL9  UNL     1     -34.458   3.448   5.100  1.00 20.00    -0.101 Cl
ENDROOT
BRANCH   2   6
HETATM    6  C5  UNL     1     -33.426   5.496   2.833  1.00 20.00     0.277 C 
BRANCH   6   7
HETATM    7  N7  UNL     1     -32.087   6.016   2.824  1.00 20.00     0.083 N 
HETATM    8  H20 UNL     1     -31.512   5.530   3.522  1.00 20.00     0.315 HD
BRANCH   7   9
HETATM    9  C6  UNL     1     -32.061   7.448   3.124  1.00 20.00     0.265 C 
HETATM   10  C4  UNL     1     -32.018   8.259   1.874  1.00 20.00     0.037 C 
ENDBRANCH   7   9
ENDBRANCH   6   7
ENDBRANCH   2   6
TORSDOF 3
ENDMDL
MODEL 3
REMARK VINA RESULT:      -3.7     11.071     11.918
REMARK  3 active torsions:
REMARK  status: ('A' for Active; 'I' for Inactive)
REMARK    1  A    between atoms: C2_2  and  C5_5 
REMARK    2  A    between atoms: C5_5  and  N7_7 
REMARK    3  A    between atoms: C6_6  and  N7_7 
ROOT
HETATM    1  C1  UNL     1     -33.755  16.180  -3.426  1.00 20.00     0.052 A 
HETATM    2  C2  UNL     1     -34.229  14.827  -2.971  1.00 20.00     0.055 A 
HETATM    3  C3  UNL     1     -34.909  16.077  -2.460  1.00 20.00     0.119 A 
HETATM    4 CL8  UNL     1     -34.620  16.539  -0.782  1.00 20.00    -0.101 Cl
HETATM    5 CL9  UNL     1     -36.511  16.522  -3.035  1.00 20.00    -0.101 Cl
ENDROOT
BRANCH   2   6
HETATM    6  C5  UNL     1     -34.872  13.898  -3.943  1.00 20.00     0.277 C 
BRANCH   6   7
HETATM    7  N7  UNL     1     -34.159  13.878  -5.190  1.00 20.00     0.083 N 
HETATM    8  H20 UNL     1     -33.376  14.540  -5.163  1.00 20.00     0.315 HD
BRANCH   7   9
HETATM    9  C6  UNL     1     -35.026  14.237  -6.314  1.00 20.00     0.265 C 
HETATM   10  C4  UNL     1     -34.396  15.289  -7.163  1.00 20.00     0.037 C 
ENDBRANCH   7   9
ENDBRANCH   6   7
ENDBRANCH   2   6
TORSDOF 3
ENDMDL
MODEL 4
REMARK VINA RESULT:      -3.7      3.098      4.486
REMARK  3 active torsions:
REMARK  status: ('A' for Active; 'I' for Inactive)
REMARK    1  A    between atoms: C2_2  and  C5_5 
REMARK    2  A    between atoms: C5_5  and  N7_7 
REMARK    3  A    between atoms: C6_6  and  N7_7 
ROOT
HETATM    1  C1  UNL     1     -31.930   5.724   2.984  1.00 20.00     0.052 A 
HETATM    2  C2  UNL     1     -33.113   6.243   3.755  1.00 20.00     0.055 A 
HETATM    3  C3  UNL     1     -32.073   7.206   3.227  1.00 20.00     0.119 A 
HETATM    4 CL8  UNL     1     -30.984   7.956   4.396  1.00 20.00    -0.101 Cl
HETATM    5 CL9  UNL     1     -32.429   8.240   1.850  1.00 20.00    -0.101 Cl
ENDROOT
BRANCH   2   6
HETATM    6  C5  UNL     1     -34.483   6.138   3.178  1.00 20.00     0.277 C 
BRANCH   6   7
HETATM    7  N7  UNL     1     -35.353   5.391   4.043  1.00 20.00     0.083 N 
HETATM    8  H20 UNL     1     -36.282   5.827   4.076  1.00 20.00     0.315 HD
BRANCH   7   9
HETATM    9  C6  UNL     1     -34.830   5.321   5.408  1.00 20.00     0.265 C 
HETATM   10  C4  UNL     1     -34.838   3.920   5.916  1.00 20.00     0.037 C 
ENDBRANCH   7   9
ENDBRANCH   6   7
ENDBRANCH   2   6
TORSDOF 3
ENDMDL
MODEL 5
REMARK VINA RESULT:      -3.7     11.322     12.257
REMARK  3 active torsions:
REMARK  status: ('A' for Active; 'I' for Inactive)
REMARK    1  A    between atoms: C2_2  and  C5_5 
REMARK    2  A    between atoms: C5_5  and  N7_7 
REMARK    3  A    between atoms: C6_6  and  N7_7 
ROOT
HETATM    1  C1  UNL     1     -33.191  15.700  -4.168  1.00 20.00     0.052 A 
HETATM    2  C2  UNL     1     -34.671  15.942  -4.050  1.00 20.00     0.055 A 
HETATM    3  C3  UNL     1     -34.147  14.940  -5.053  1.00 20.00     0.119 A 
HETATM    4 CL8  UNL     1     -34.212  15.381  -6.760  1.00 20.00    -0.101 Cl
HETATM    5 CL9  UNL     1     -34.337  13.214  -4.776  1.00 20.00    -0.101 Cl
ENDROOT
BRANCH   2   6
HETATM    6  C5  UNL     1     -35.394  15.540  -2.810  1.00 20.00     0.277 C 
BRANCH   6   7
HETATM    7  N7  UNL     1     -35.590  16.664  -1.937  1.00 20.00     0.083 N 
HETATM    8  H20 UNL     1     -35.419  17.541  -2.442  1.00 20.00     0.315 HD
BRANCH   7   9
HETATM    9  C6  UNL     1     -34.691  16.616  -0.783  1.00 20.00     0.265 C 
HETATM   10  C4  UNL     1     -33.613  17.640  -0.898  1.00 20.00     0.037 C 
ENDBRANCH   7   9
ENDBRANCH   6   7
ENDBRANCH   2   6
TORSDOF 3
ENDMDL
MODEL 6
REMARK VINA RESULT:      -3.6     11.144     12.571
REMARK  3 active torsions:
REMARK  status: ('A' for Active; 'I' for Inactive)
REMARK    1  A    between atoms: C2_2  and  C5_5 
REMARK    2  A    between atoms: C5_5  and  N7_7 
REMARK    3  A    between atoms: C6_6  and  N7_7 
ROOT
HETATM    1  C1  UNL     1     -34.923  17.437  -3.836  1.00 20.00     0.052 A 
HETATM    2  C2  UNL     1     -33.562  16.797  -3.888  1.00 20.00     0.055 A 
HETATM    3  C3  UNL     1     -34.085  17.358  -2.585  1.00 20.00     0.119 A 
HETATM    4 CL8  UNL     1     -33.359  18.851  -1.987  1.00 20.00    -0.101 Cl
HETATM    5 CL9  UNL     1     -34.618  16.284  -1.298  1.00 20.00    -0.101 Cl
ENDROOT
BRANCH   2   6
HETATM    6  C5  UNL     1     -33.436  15.334  -4.144  1.00 20.00     0.277 C 
BRANCH   6   7
HETATM    7  N7  UNL     1     -33.794  15.013  -5.498  1.00 20.00     0.083 N 
HETATM    8  H20 UNL     1     -34.151  15.846  -5.979  1.00 20.00     0.315 HD
BRANCH   7   9
HETATM    9  C6  UNL     1     -34.824  13.974  -5.553  1.00 20.00     0.265 C 
HETATM   10  C4  UNL     1     -35.049  13.368  -4.210  1.00 20.00     0.037 C 
ENDBRANCH   7   9
ENDBRANCH   6   7
ENDBRANCH   2   6
TORSDOF 3
ENDMDL
MODEL 7
REMARK VINA RESULT:      -3.6     11.269     12.058
REMARK  3 active torsions:
REMARK  status: ('A' for Active; 'I' for Inactive)
REMARK    1  A    between atoms: C2_2  and  C5_5 
REMARK    2  A    between atoms: C5_5  and  N7_7 
REMARK    3  A    between atoms: C6_6  and  N7_7 
ROOT
HETATM    1  C1  UNL     1     -35.173  14.199  -5.262  1.00 20.00     0.052 A 
HETATM    2  C2  UNL     1     -35.514  14.740  -3.900  1.00 20.00     0.055 A 
HETATM    3  C3  UNL     1     -34.075  14.713  -4.364  1.00 20.00     0.119 A 
HETATM    4 CL8  UNL     1     -32.998  13.529  -3.623  1.00 20.00    -0.101 Cl
HETATM    5 CL9  UNL     1     -33.257  16.200  -4.825  1.00 20.00    -0.101 Cl
ENDROOT
BRANCH   2   6
HETATM    6  C5  UNL     1     -36.299  16.001  -3.774  1.00 20.00     0.277 C 
BRANCH   6   7
HETATM    7  N7  UNL     1     -36.451  16.381  -2.397  1.00 20.00     0.083 N 
HETATM    8  H20 UNL     1     -37.341  16.872  -2.259  1.00 20.00     0.315 HD
BRANCH   7   9
HETATM    9  C6  UNL     1     -35.367  17.262  -1.957  1.00 20.00     0.265 C 
HETATM   10  C4  UNL     1     -34.590  16.644  -0.845  1.00 20.00     0.037 C 
ENDBRANCH   7   9
ENDBRANCH   6   7
ENDBRANCH   2   6
TORSDOF 3
ENDMDL
MODEL 8
REMARK VINA RESULT:      -3.5     10.962     11.683
REMARK  3 active torsions:
REMARK  status: ('A' for Active; 'I' for Inactive)
REMARK    1  A    between atoms: C2_2  and  C5_5 
REMARK    2  A    between atoms: C5_5  and  N7_7 
REMARK    3  A    between atoms: C6_6  and  N7_7 
ROOT
HETATM    1  C1  UNL     1     -33.760  17.541  -1.399  1.00 20.00     0.052 A 
HETATM    2  C2  UNL     1     -34.498  16.231  -1.463  1.00 20.00     0.055 A 
HETATM    3  C3  UNL     1     -35.131  17.423  -0.781  1.00 20.00     0.119 A 
HETATM    4 CL8  UNL     1     -35.239  17.397   0.980  1.00 20.00    -0.101 Cl
HETATM    5 CL9  UNL     1     -36.459  18.289  -1.544  1.00 20.00    -0.101 Cl
ENDROOT
BRANCH   2   6
HETATM    6  C5  UNL     1     -34.971  15.706  -2.775  1.00 20.00     0.277 C 
BRANCH   6   7
HETATM    7  N7  UNL     1     -33.867  15.297  -3.598  1.00 20.00     0.083 N 
HETATM    8  H20 UNL     1     -33.939  15.723  -4.529  1.00 20.00     0.315 HD
BRANCH   7   9
HETATM    9  C6  UNL     1     -33.822  13.843  -3.759  1.00 20.00     0.265 C 
HETATM   10  C4  UNL     1     -35.114  13.321  -4.288  1.00 20.00     0.037 C 
ENDBRANCH   7   9
ENDBRANCH   6   7
ENDBRANCH   2   6
TORSDOF 3
ENDMDL
MODEL 9
REMARK VINA RESULT:      -3.5      0.985      1.878
REMARK  3 active torsions:
REMARK  status: ('A' for Active; 'I' for Inactive)
REMARK    1  A    between atoms: C2_2  and  C5_5 
REMARK    2  A    between atoms: C5_5  and  N7_7 
REMARK    3  A    between atoms: C6_6  and  N7_7 
ROOT
HETATM    1  C1  UNL     1     -33.830   5.009   2.614  1.00 20.00     0.052 A 
HETATM    2  C2  UNL     1     -33.550   6.408   3.091  1.00 20.00     0.055 A 
HETATM    3  C3  UNL     1     -34.590   5.564   3.792  1.00 20.00     0.119 A 
HETATM    4 CL8  UNL     1     -36.285   5.987   3.551  1.00 20.00    -0.101 Cl
HETATM    5 CL9  UNL     1     -34.265   4.883   5.381  1.00 20.00    -0.101 Cl
ENDROOT
BRANCH   2   6
HETATM    6  C5  UNL     1     -32.230   6.736   3.701  1.00 20.00     0.277 C 
BRANCH   6   7
HETATM    7  N7  UNL     1     -31.710   7.969   3.178  1.00 20.00     0.083 N 
HETATM    8  H20 UNL     1     -32.088   8.766   3.703  1.00 20.00     0.315 HD
BRANCH   7   9
HETATM    9  C6  UNL     1     -32.052   8.145   1.766  1.00 20.00     0.265 C 
HETATM   10  C4  UNL     1     -32.374   9.569   1.464  1.00 20.00     0.037 C 
ENDBRANCH   7   9
ENDBRANCH   6   7
ENDBRANCH   2   6
TORSDOF 3
ENDMDL
