MODEL 1
REMARK VINA RESULT:      -4.2      0.000      0.000
REMARK  3 active torsions:
REMARK  status: ('A' for Active; 'I' for Inactive)
REMARK    1  A    between atoms: C1_1  and  C7_7 
REMARK       I    between atoms: C1_1  and  N9_9 
REMARK    2  A    between atoms: C4_4  and  C8_8 
REMARK    3  A    between atoms: C8_8  and  N9_9 
ROOT
HETATM    1  C1  UNL     1     -33.953   6.075   4.726  1.00 20.00     0.219 C 
HETATM    2  C6  UNL     1     -33.806   5.380   2.326  1.00 20.00     0.152 C 
HETATM    3  N9  UNL     1     -33.387   6.204   3.454  1.00 20.00    -0.356 N 
HETATM    4  O10 UNL     1     -33.613   6.762   5.694  1.00 20.00    -0.273 OA
ENDROOT
BRANCH   3   5
HETATM    5  C8  UNL     1     -32.334   7.173   3.160  1.00 20.00     0.130 C 
BRANCH   5   6
HETATM    6  C4  UNL     1     -32.676   7.992   1.962  1.00 20.00     0.004 A 
HETATM    7  C2  UNL     1     -32.473   9.481   1.980  1.00 20.00     0.007 A 
HETATM    8  C3  UNL     1     -31.587   8.611   1.133  1.00 20.00     0.007 A 
ENDBRANCH   5   6
ENDBRANCH   3   5
BRANCH   1   9
HETATM    9  C7  UNL     1     -35.039   5.019   4.875  1.00 20.00     0.098 C 
HETATM   10  C5  UNL     1     -34.870   4.176   6.130  1.00 20.00     0.014 C 
ENDBRANCH   1   9
TORSDOF 3
ENDMDL
MODEL 2
REMARK VINA RESULT:      -4.2      1.137      4.749
REMARK  3 active torsions:
REMARK  status: ('A' for Active; 'I' for Inactive)
REMARK    1  A    between atoms: C1_1  and  C7_7 
REMARK       I    between atoms: C1_1  and  N9_9 
REMARK    2  A    between atoms: C4_4  and  C8_8 
REMARK    3  A    between atoms: C8_8  and  N9_9 
ROOT
HETATM    1  C1  UNL     1     -32.113   7.330   3.148  1.00 20.00     0.219 C 
HETATM    2  C6  UNL     1     -33.990   5.804   2.505  1.00 20.00     0.152 C 
HETATM    3  N9  UNL     1     -33.091   6.391   3.491  1.00 20.00    -0.356 N 
HETATM    4  O10 UNL     1     -31.342   7.839   3.967  1.00 20.00    -0.273 OA
ENDROOT
BRANCH   3   5
HETATM    5  C8  UNL     1     -33.284   5.928   4.862  1.00 20.00     0.130 C 
BRANCH   5   6
HETATM    6  C4  UNL     1     -34.647   5.353   5.049  1.00 20.00     0.004 A 
HETATM    7  C2  UNL     1     -34.814   3.914   5.452  1.00 20.00     0.007 A 
HETATM    8  C3  UNL     1     -35.142   5.012   6.426  1.00 20.00     0.007 A 
ENDBRANCH   5   6
ENDBRANCH   3   5
BRANCH   1   9
HETATM    9  C7  UNL     1     -32.036   7.714   1.677  1.00 20.00     0.098 C 
HETATM   10  C5  UNL     1     -32.255   9.201   1.445  1.00 20.00     0.014 C 
ENDBRANCH   1   9
TORSDOF 3
ENDMDL
MODEL 3
REMARK VINA RESULT:      -4.1     11.095     11.634
REMARK  3 active torsions:
REMARK  status: ('A' for Active; 'I' for Inactive)
REMARK    1  A    between atoms: C1_1  and  C7_7 
REMARK       I    between atoms: C1_1  and  N9_9 
REMARK    2  A    between atoms: C4_4  and  C8_8 
REMARK    3  A    between atoms: C8_8  and  N9_9 
ROOT
HETATM    1  C1  UNL     1     -35.717  14.628  -3.630  1.00 20.00     0.219 C 
HETATM    2  C6  UNL     1     -33.403  15.534  -3.328  1.00 20.00     0.152 C 
HETATM    3  N9  UNL     1     -34.837  15.557  -3.064  1.00 20.00    -0.356 N 
HETATM    4  O10 UNL     1     -36.933  14.628  -3.421  1.00 20.00    -0.273 OA
ENDROOT
BRANCH   3   5
HETATM    5  C8  UNL     1     -35.289  16.617  -2.168  1.00 20.00     0.130 C 
BRANCH   5   6
HETATM    6  C4  UNL     1     -34.526  16.600  -0.887  1.00 20.00     0.004 A 
HETATM    7  C2  UNL     1     -33.797  17.831  -0.423  1.00 20.00     0.007 A 
HETATM    8  C3  UNL     1     -35.029  17.367   0.304  1.00 20.00     0.007 A 
ENDBRANCH   5   6
ENDBRANCH   3   5
BRANCH   1   9
HETATM    9  C7  UNL     1     -35.094  13.581  -4.543  1.00 20.00     0.098 C 
HETATM   10  C5  UNL     1     -35.123  13.988  -6.008  1.00 20.00     0.014 C 
ENDBRANCH   1   9
TORSDOF 3
ENDMDL
MODEL 4
REMARK VINA RESULT:      -4.0     11.332     12.559
REMARK  3 active torsions:
REMARK  status: ('A' for Active; 'I' for Inactive)
REMARK    1  A    between atoms: C1_1  and  C7_7 
REMARK       I    between atoms: C1_1  and  N9_9 
REMARK    2  A    between atoms: C4_4  and  C8_8 
REMARK    3  A    between atoms: C8_8  and  N9_9 
ROOT
HETATM    1  C1  UNL     1     -34.284  14.744  -5.384  1.00 20.00     0.219 C 
HETATM    2  C6  UNL     1     -33.427  17.059  -4.966  1.00 20.00     0.152 C 
HETATM    3  N9  UNL     1     -33.843  15.740  -4.505  1.00 20.00    -0.356 N 
HETATM    4  O10 UNL     1     -34.640  13.621  -5.015  1.00 20.00    -0.273 OA
ENDROOT
BRANCH   3   5
HETATM    5  C8  UNL     1     -33.767  15.532  -3.062  1.00 20.00     0.130 C 
BRANCH   5   6
HETATM    6  C4  UNL     1     -34.372  16.675  -2.321  1.00 20.00     0.004 A 
HETATM    7  C2  UNL     1     -34.705  16.541  -0.861  1.00 20.00     0.007 A 
HETATM    8  C3  UNL     1     -33.568  17.424  -1.296  1.00 20.00     0.007 A 
ENDBRANCH   5   6
ENDBRANCH   3   5
BRANCH   1   9
HETATM    9  C7  UNL     1     -34.306  15.112  -6.861  1.00 20.00     0.098 C 
HETATM   10  C5  UNL     1     -35.459  14.463  -7.611  1.00 20.00     0.014 C 
ENDBRANCH   1   9
TORSDOF 3
ENDMDL
MODEL 5
REMARK VINA RESULT:      -4.0      1.304      1.783
REMARK  3 active torsions:
REMARK  status: ('A' for Active; 'I' for Inactive)
REMARK    1  A    between atoms: C1_1  and  C7_7 
REMARK       I    between atoms: C1_1  and  N9_9 
REMARK    2  A    between atoms: C4_4  and  C8_8 
REMARK    3  A    between atoms: C8_8  and  N9_9 
ROOT
HETATM    1  C1  UNL     1     -33.923   6.064   4.176  1.00 20.00     0.219 C 
HETATM    2  C6  UNL     1     -31.934   7.511   4.643  1.00 20.00     0.152 C 
HETATM    3  N9  UNL     1     -32.835   6.820   3.728  1.00 20.00    -0.356 N 
HETATM    4  O10 UNL     1     -34.697   5.472   3.418  1.00 20.00    -0.273 OA
ENDROOT
BRANCH   3   5
HETATM    5  C8  UNL     1     -32.519   6.975   2.310  1.00 20.00     0.130 C 
BRANCH   5   6
HETATM    6  C4  UNL     1     -31.852   8.282   2.047  1.00 20.00     0.004 A 
HETATM    7  C2  UNL     1     -31.767   8.821   0.646  1.00 20.00     0.007 A 
HETATM    8  C3  UNL     1     -32.667   9.482   1.653  1.00 20.00     0.007 A 
ENDBRANCH   5   6
ENDBRANCH   3   5
BRANCH   1   9
HETATM    9  C7  UNL     1     -34.122   6.000   5.683  1.00 20.00     0.098 C 
HETATM   10  C5  UNL     1     -34.915   4.778   6.119  1.00 20.00     0.014 C 
ENDBRANCH   1   9
TORSDOF 3
ENDMDL
MODEL 6
REMARK VINA RESULT:      -4.0     11.644     12.492
REMARK  3 active torsions:
REMARK  status: ('A' for Active; 'I' for Inactive)
REMARK    1  A    between atoms: C1_1  and  C7_7 
REMARK       I    between atoms: C1_1  and  N9_9 
REMARK    2  A    between atoms: C4_4  and  C8_8 
REMARK    3  A    between atoms: C8_8  and  N9_9 
ROOT
HETATM    1  C1  UNL     1     -34.133  15.666  -4.885  1.00 20.00     0.219 C 
HETATM    2  C6  UNL     1     -36.177  15.115  -3.550  1.00 20.00     0.152 C 
HETATM    3  N9  UNL     1     -35.010  15.942  -3.831  1.00 20.00    -0.356 N 
HETATM    4  O10 UNL     1     -33.139  16.353  -5.140  1.00 20.00    -0.273 OA
ENDROOT
BRANCH   3   5
HETATM    5  C8  UNL     1     -34.822  17.078  -2.933  1.00 20.00     0.130 C 
BRANCH   5   6
HETATM    6  C4  UNL     1     -34.104  16.670  -1.692  1.00 20.00     0.004 A 
HETATM    7  C2  UNL     1     -33.547  17.711  -0.761  1.00 20.00     0.007 A 
HETATM    8  C3  UNL     1     -34.735  16.889  -0.345  1.00 20.00     0.007 A 
ENDBRANCH   5   6
ENDBRANCH   3   5
BRANCH   1   9
HETATM    9  C7  UNL     1     -34.464  14.447  -5.734  1.00 20.00     0.098 C 
HETATM   10  C5  UNL     1     -34.715  14.797  -7.192  1.00 20.00     0.014 C 
ENDBRANCH   1   9
TORSDOF 3
ENDMDL
MODEL 7
REMARK VINA RESULT:      -3.9     11.232     12.505
REMARK  3 active torsions:
REMARK  status: ('A' for Active; 'I' for Inactive)
REMARK    1  A    between atoms: C1_1  and  C7_7 
REMARK       I    between atoms: C1_1  and  N9_9 
REMARK    2  A    between atoms: C4_4  and  C8_8 
REMARK    3  A    between atoms: C8_8  and  N9_9 
ROOT
HETATM    1  C1  UNL     1     -34.886  15.608  -5.492  1.00 20.00     0.219 C 
HETATM    2  C6  UNL     1     -35.058  13.481  -4.183  1.00 20.00     0.152 C 
HETATM    3  N9  UNL     1     -35.161  14.931  -4.299  1.00 20.00    -0.356 N 
HETATM    4  O10 UNL     1     -34.967  16.834  -5.612  1.00 20.00    -0.273 OA
ENDROOT
BRANCH   3   5
HETATM    5  C8  UNL     1     -35.571  15.625  -3.082  1.00 20.00     0.130 C 
BRANCH   5   6
HETATM    6  C4  UNL     1     -34.400  15.902  -2.201  1.00 20.00     0.004 A 
HETATM    7  C2  UNL     1     -33.891  17.307  -2.037  1.00 20.00     0.007 A 
HETATM    8  C3  UNL     1     -34.589  16.623  -0.895  1.00 20.00     0.007 A 
ENDBRANCH   5   6
ENDBRANCH   3   5
BRANCH   1   9
HETATM    9  C7  UNL     1     -34.472  14.744  -6.675  1.00 20.00     0.098 C 
HETATM   10  C5  UNL     1     -35.597  14.546  -7.680  1.00 20.00     0.014 C 
ENDBRANCH   1   9
TORSDOF 3
ENDMDL
MODEL 8
REMARK VINA RESULT:      -3.9     10.855     12.093
REMARK  3 active torsions:
REMARK  status: ('A' for Active; 'I' for Inactive)
REMARK    1  A    between atoms: C1_1  and  C7_7 
REMARK       I    between atoms: C1_1  and  N9_9 
REMARK    2  A    between atoms: C4_4  and  C8_8 
REMARK    3  A    between atoms: C8_8  and  N9_9 
ROOT
HETATM    1  C1  UNL     1     -35.015  15.978  -3.249  1.00 20.00     0.219 C 
HETATM    2  C6  UNL     1     -33.716  13.886  -3.701  1.00 20.00     0.152 C 
HETATM    3  N9  UNL     1     -34.822  14.797  -3.974  1.00 20.00    -0.356 N 
HETATM    4  O10 UNL     1     -35.943  16.763  -3.463  1.00 20.00    -0.273 OA
ENDROOT
BRANCH   3   5
HETATM    5  C8  UNL     1     -35.713  14.389  -5.056  1.00 20.00     0.130 C 
BRANCH   5   6
HETATM    6  C4  UNL     1     -34.951  14.137  -6.313  1.00 20.00     0.004 A 
HETATM    7  C2  UNL     1     -35.532  14.529  -7.643  1.00 20.00     0.007 A 
HETATM    8  C3  UNL     1     -34.360  15.284  -7.083  1.00 20.00     0.007 A 
ENDBRANCH   5   6
ENDBRANCH   3   5
BRANCH   1   9
HETATM    9  C7  UNL     1     -34.000  16.267  -2.151  1.00 20.00     0.098 C 
HETATM   10  C5  UNL     1     -34.655  16.646  -0.832  1.00 20.00     0.014 C 
ENDBRANCH   1   9
TORSDOF 3
ENDMDL
MODEL 9
REMARK VINA RESULT:      -3.9     11.664     12.305
REMARK  3 active torsions:
REMARK  status: ('A' for Active; 'I' for Inactive)
REMARK    1  A    between atoms: C1_1  and  C7_7 
REMARK       I    between atoms: C1_1  and  N9_9 
REMARK    2  A    between atoms: C4_4  and  C8_8 
REMARK    3  A    between atoms: C8_8  and  N9_9 
ROOT
HETATM    1  C1  UNL     1     -32.404  18.873   0.782  1.00 20.00     0.219 C 
HETATM    2  C6  UNL     1     -34.712  17.930   1.007  1.00 20.00     0.152 C 
HETATM    3  N9  UNL     1     -33.544  18.295   0.214  1.00 20.00    -0.356 N 
HETATM    4  O10 UNL     1     -31.405  19.189   0.128  1.00 20.00    -0.273 OA
ENDROOT
BRANCH   3   5
HETATM    5  C8  UNL     1     -33.651  18.013  -1.215  1.00 20.00     0.130 C 
BRANCH   5   6
HETATM    6  C4  UNL     1     -34.067  16.602  -1.456  1.00 20.00     0.004 A 
HETATM    7  C2  UNL     1     -35.196  16.296  -2.401  1.00 20.00     0.007 A 
HETATM    8  C3  UNL     1     -33.784  15.944  -2.777  1.00 20.00     0.007 A 
ENDBRANCH   5   6
ENDBRANCH   3   5
BRANCH   1   9
HETATM    9  C7  UNL     1     -32.445  19.103   2.286  1.00 20.00     0.098 C 
HETATM   10  C5  UNL     1     -31.095  18.880   2.950  1.00 20.00     0.014 C 
ENDBRANCH   1   9
TORSDOF 3
ENDMDL
