MODEL 1
REMARK VINA RESULT:      -4.7      0.000      0.000
REMARK  3 active torsions:
REMARK  status: ('A' for Active; 'I' for Inactive)
REMARK    1  A    between atoms: C5_5  and  S11_11 
REMARK    2  A    between atoms: C8_8  and  C9_9 
REMARK    3  A    between atoms: C8_8  and  S11_11 
ROOT
HETATM    1  C1  UNL     1     -34.700  13.603  -4.041  1.00 20.00     0.128 C 
HETATM    2  C2  UNL     1     -33.274  13.905  -3.655  1.00 20.00     0.079 C 
HETATM    3  C3  UNL     1     -35.612  14.787  -3.829  1.00 20.00     0.093 C 
HETATM    4  C4  UNL     1     -33.311  15.420  -3.478  1.00 20.00     0.023 C 
HETATM    5  C5  UNL     1     -34.728  15.695  -2.976  1.00 20.00     0.054 C 
HETATM    6  O10 UNL     1     -35.075  12.524  -4.479  1.00 20.00    -0.298 OA
ENDROOT
BRANCH   5   7
HETATM    7  S11 UNL     1     -35.191  17.441  -3.128  1.00 20.00    -0.164 SA
BRANCH   7   8
HETATM    8  C8  UNL     1     -35.690  17.716  -1.415  1.00 20.00     0.078 C 
BRANCH   8   9
HETATM    9  C9  UNL     1     -34.656  17.304  -0.354  1.00 20.00    -0.013 C 
HETATM   10  C6  UNL     1     -33.312  18.016  -0.528  1.00 20.00     0.010 C 
HETATM   11  C7  UNL     1     -35.173  17.475   1.076  1.00 20.00     0.010 C 
ENDBRANCH   8   9
ENDBRANCH   7   8
ENDBRANCH   5   7
TORSDOF 3
ENDMDL
MODEL 2
REMARK VINA RESULT:      -4.6      0.866      1.482
REMARK  3 active torsions:
REMARK  status: ('A' for Active; 'I' for Inactive)
REMARK    1  A    between atoms: C5_5  and  S11_11 
REMARK    2  A    between atoms: C8_8  and  C9_9 
REMARK    3  A    between atoms: C8_8  and  S11_11 
ROOT
HETATM    1  C1  UNL     1     -33.673  13.862  -3.768  1.00 20.00     0.128 C 
HETATM    2  C2  UNL     1     -35.152  13.675  -3.997  1.00 20.00     0.079 C 
HETATM    3  C3  UNL     1     -33.306  15.312  -3.562  1.00 20.00     0.093 C 
HETATM    4  C4  UNL     1     -35.702  15.048  -3.627  1.00 20.00     0.023 C 
HETATM    5  C5  UNL     1     -34.584  16.011  -4.022  1.00 20.00     0.054 C 
HETATM    6  O10 UNL     1     -32.864  12.944  -3.747  1.00 20.00    -0.298 OA
ENDROOT
BRANCH   5   7
HETATM    7  S11 UNL     1     -34.777  17.648  -3.270  1.00 20.00    -0.164 SA
BRANCH   7   8
HETATM    8  C8  UNL     1     -35.498  17.119  -1.703  1.00 20.00     0.078 C 
BRANCH   8   9
HETATM    9  C9  UNL     1     -34.529  17.089  -0.509  1.00 20.00    -0.013 C 
HETATM   10  C6  UNL     1     -33.278  17.940  -0.740  1.00 20.00     0.010 C 
HETATM   11  C7  UNL     1     -35.203  17.471   0.811  1.00 20.00     0.010 C 
ENDBRANCH   8   9
ENDBRANCH   7   8
ENDBRANCH   5   7
TORSDOF 3
ENDMDL
MODEL 3
REMARK VINA RESULT:      -4.5      1.237      1.405
REMARK  3 active torsions:
REMARK  status: ('A' for Active; 'I' for Inactive)
REMARK    1  A    between atoms: C5_5  and  S11_11 
REMARK    2  A    between atoms: C8_8  and  C9_9 
REMARK    3  A    between atoms: C8_8  and  S11_11 
ROOT
HETATM    1  C1  UNL     1     -34.654  13.742  -4.638  1.00 20.00     0.128 C 
HETATM    2  C2  UNL     1     -34.557  14.487  -5.945  1.00 20.00     0.079 C 
HETATM    3  C3  UNL     1     -34.366  14.629  -3.452  1.00 20.00     0.093 C 
HETATM    4  C4  UNL     1     -34.487  15.936  -5.475  1.00 20.00     0.023 C 
HETATM    5  C5  UNL     1     -33.757  15.851  -4.135  1.00 20.00     0.054 C 
HETATM    6  O10 UNL     1     -34.937  12.554  -4.549  1.00 20.00    -0.298 OA
ENDROOT
BRANCH   5   7
HETATM    7  S11 UNL     1     -33.947  17.356  -3.143  1.00 20.00    -0.164 SA
BRANCH   7   8
HETATM    8  C8  UNL     1     -34.779  16.615  -1.723  1.00 20.00     0.078 C 
BRANCH   8   9
HETATM    9  C9  UNL     1     -34.336  17.147  -0.349  1.00 20.00    -0.013 C 
HETATM   10  C6  UNL     1     -33.188  18.154  -0.446  1.00 20.00     0.010 C 
HETATM   11  C7  UNL     1     -35.495  17.729   0.462  1.00 20.00     0.010 C 
ENDBRANCH   8   9
ENDBRANCH   7   8
ENDBRANCH   5   7
TORSDOF 3
ENDMDL
MODEL 4
REMARK VINA RESULT:      -4.4      2.103      3.307
REMARK  3 active torsions:
REMARK  status: ('A' for Active; 'I' for Inactive)
REMARK    1  A    between atoms: C5_5  and  S11_11 
REMARK    2  A    between atoms: C8_8  and  C9_9 
REMARK    3  A    between atoms: C8_8  and  S11_11 
ROOT
HETATM    1  C1  UNL     1     -34.671  13.583  -3.990  1.00 20.00     0.128 C 
HETATM    2  C2  UNL     1     -33.211  13.823  -3.700  1.00 20.00     0.079 C 
HETATM    3  C3  UNL     1     -35.524  14.783  -3.658  1.00 20.00     0.093 C 
HETATM    4  C4  UNL     1     -33.183  15.328  -3.454  1.00 20.00     0.023 C 
HETATM    5  C5  UNL     1     -34.548  15.623  -2.835  1.00 20.00     0.054 C 
HETATM    6  O10 UNL     1     -35.114  12.537  -4.446  1.00 20.00    -0.298 OA
ENDROOT
BRANCH   5   7
HETATM    7  S11 UNL     1     -34.963  17.387  -2.874  1.00 20.00    -0.164 SA
BRANCH   7   8
HETATM    8  C8  UNL     1     -35.710  17.431  -4.517  1.00 20.00     0.078 C 
BRANCH   8   9
HETATM    9  C9  UNL     1     -34.789  17.925  -5.646  1.00 20.00    -0.013 C 
HETATM   10  C6  UNL     1     -33.535  18.630  -5.122  1.00 20.00     0.010 C 
HETATM   11  C7  UNL     1     -34.411  16.815  -6.629  1.00 20.00     0.010 C 
ENDBRANCH   8   9
ENDBRANCH   7   8
ENDBRANCH   5   7
TORSDOF 3
ENDMDL
MODEL 5
REMARK VINA RESULT:      -4.2     11.002     11.836
REMARK  3 active torsions:
REMARK  status: ('A' for Active; 'I' for Inactive)
REMARK    1  A    between atoms: C5_5  and  S11_11 
REMARK    2  A    between atoms: C8_8  and  C9_9 
REMARK    3  A    between atoms: C8_8  and  S11_11 
ROOT
HETATM    1  C1  UNL     1     -34.860   4.903   5.839  1.00 20.00     0.128 C 
HETATM    2  C2  UNL     1     -34.318   6.161   6.468  1.00 20.00     0.079 C 
HETATM    3  C3  UNL     1     -34.406   4.737   4.409  1.00 20.00     0.093 C 
HETATM    4  C4  UNL     1     -33.275   6.599   5.445  1.00 20.00     0.023 C 
HETATM    5  C5  UNL     1     -33.851   6.129   4.110  1.00 20.00     0.054 C 
HETATM    6  O10 UNL     1     -35.582   4.104   6.421  1.00 20.00    -0.298 OA
ENDROOT
BRANCH   5   7
HETATM    7  S11 UNL     1     -32.611   6.102   2.789  1.00 20.00    -0.164 SA
BRANCH   7   8
HETATM    8  C8  UNL     1     -32.109   7.833   2.883  1.00 20.00     0.078 C 
BRANCH   8   9
HETATM    9  C9  UNL     1     -32.487   8.695   1.666  1.00 20.00    -0.013 C 
HETATM   10  C6  UNL     1     -32.706  10.166   2.027  1.00 20.00     0.010 C 
HETATM   11  C7  UNL     1     -31.487   8.567   0.515  1.00 20.00     0.010 C 
ENDBRANCH   8   9
ENDBRANCH   7   8
ENDBRANCH   5   7
TORSDOF 3
ENDMDL
MODEL 6
REMARK VINA RESULT:      -4.2      1.963      2.622
REMARK  3 active torsions:
REMARK  status: ('A' for Active; 'I' for Inactive)
REMARK    1  A    between atoms: C5_5  and  S11_11 
REMARK    2  A    between atoms: C8_8  and  C9_9 
REMARK    3  A    between atoms: C8_8  and  S11_11 
ROOT
HETATM    1  C1  UNL     1     -37.158  14.846  -4.106  1.00 20.00     0.128 C 
HETATM    2  C2  UNL     1     -37.295  16.075  -4.969  1.00 20.00     0.079 C 
HETATM    3  C3  UNL     1     -35.724  14.577  -3.720  1.00 20.00     0.093 C 
HETATM    4  C4  UNL     1     -35.911  16.703  -4.843  1.00 20.00     0.023 C 
HETATM    5  C5  UNL     1     -34.978  15.504  -4.677  1.00 20.00     0.054 C 
HETATM    6  O10 UNL     1     -38.101  14.149  -3.756  1.00 20.00    -0.298 OA
ENDROOT
BRANCH   5   7
HETATM    7  S11 UNL     1     -33.347  15.975  -4.043  1.00 20.00    -0.164 SA
BRANCH   7   8
HETATM    8  C8  UNL     1     -33.867  17.381  -3.038  1.00 20.00     0.078 C 
BRANCH   8   9
HETATM    9  C9  UNL     1     -33.591  17.250  -1.530  1.00 20.00    -0.013 C 
HETATM   10  C6  UNL     1     -33.203  18.580  -0.881  1.00 20.00     0.010 C 
HETATM   11  C7  UNL     1     -34.748  16.598  -0.771  1.00 20.00     0.010 C 
ENDBRANCH   8   9
ENDBRANCH   7   8
ENDBRANCH   5   7
TORSDOF 3
ENDMDL
MODEL 7
REMARK VINA RESULT:      -4.1      1.415      1.942
REMARK  3 active torsions:
REMARK  status: ('A' for Active; 'I' for Inactive)
REMARK    1  A    between atoms: C5_5  and  S11_11 
REMARK    2  A    between atoms: C8_8  and  C9_9 
REMARK    3  A    between atoms: C8_8  and  S11_11 
ROOT
HETATM    1  C1  UNL     1     -34.983  14.261  -5.798  1.00 20.00     0.128 C 
HETATM    2  C2  UNL     1     -34.900  13.240  -4.692  1.00 20.00     0.079 C 
HETATM    3  C3  UNL     1     -34.699  15.660  -5.306  1.00 20.00     0.093 C 
HETATM    4  C4  UNL     1     -34.263  14.048  -3.566  1.00 20.00     0.023 C 
HETATM    5  C5  UNL     1     -34.783  15.467  -3.793  1.00 20.00     0.054 C 
HETATM    6  O10 UNL     1     -35.247  13.988  -6.961  1.00 20.00    -0.298 OA
ENDROOT
BRANCH   5   7
HETATM    7  S11 UNL     1     -33.824  16.711  -2.890  1.00 20.00    -0.164 SA
BRANCH   7   8
HETATM    8  C8  UNL     1     -34.565  16.464  -1.263  1.00 20.00     0.078 C 
BRANCH   8   9
HETATM    9  C9  UNL     1     -34.534  17.689  -0.333  1.00 20.00    -0.013 C 
HETATM   10  C6  UNL     1     -35.145  17.406   1.041  1.00 20.00     0.010 C 
HETATM   11  C7  UNL     1     -33.132  18.285  -0.185  1.00 20.00     0.010 C 
ENDBRANCH   8   9
ENDBRANCH   7   8
ENDBRANCH   5   7
TORSDOF 3
ENDMDL
MODEL 8
REMARK VINA RESULT:      -3.9      2.913      3.640
REMARK  3 active torsions:
REMARK  status: ('A' for Active; 'I' for Inactive)
REMARK    1  A    between atoms: C5_5  and  S11_11 
REMARK    2  A    between atoms: C8_8  and  C9_9 
REMARK    3  A    between atoms: C8_8  and  S11_11 
ROOT
HETATM    1  C1  UNL     1     -36.562  15.597  -6.863  1.00 20.00     0.128 C 
HETATM    2  C2  UNL     1     -35.347  15.548  -7.755  1.00 20.00     0.079 C 
HETATM    3  C3  UNL     1     -36.339  14.877  -5.555  1.00 20.00     0.093 C 
HETATM    4  C4  UNL     1     -34.280  15.019  -6.802  1.00 20.00     0.023 C 
HETATM    5  C5  UNL     1     -35.055  14.106  -5.854  1.00 20.00     0.054 C 
HETATM    6  O10 UNL     1     -37.607  16.157  -7.163  1.00 20.00    -0.298 OA
ENDROOT
BRANCH   5   7
HETATM    7  S11 UNL     1     -34.125  13.715  -4.349  1.00 20.00    -0.164 SA
BRANCH   7   8
HETATM    8  C8  UNL     1     -34.953  14.872  -3.237  1.00 20.00     0.078 C 
BRANCH   8   9
HETATM    9  C9  UNL     1     -34.052  15.961  -2.630  1.00 20.00    -0.013 C 
HETATM   10  C6  UNL     1     -33.812  17.132  -3.587  1.00 20.00     0.010 C 
HETATM   11  C7  UNL     1     -34.561  16.466  -1.279  1.00 20.00     0.010 C 
ENDBRANCH   8   9
ENDBRANCH   7   8
ENDBRANCH   5   7
TORSDOF 3
ENDMDL
MODEL 9
REMARK VINA RESULT:      -3.9      2.731      4.597
REMARK  3 active torsions:
REMARK  status: ('A' for Active; 'I' for Inactive)
REMARK    1  A    between atoms: C5_5  and  S11_11 
REMARK    2  A    between atoms: C8_8  and  C9_9 
REMARK    3  A    between atoms: C8_8  and  S11_11 
ROOT
HETATM    1  C1  UNL     1     -33.547  13.950  -3.800  1.00 20.00     0.128 C 
HETATM    2  C2  UNL     1     -32.905  15.305  -3.640  1.00 20.00     0.079 C 
HETATM    3  C3  UNL     1     -35.030  14.047  -4.063  1.00 20.00     0.093 C 
HETATM    4  C4  UNL     1     -34.017  16.236  -4.112  1.00 20.00     0.023 C 
HETATM    5  C5  UNL     1     -35.299  15.509  -3.710  1.00 20.00     0.054 C 
HETATM    6  O10 UNL     1     -32.935  12.892  -3.729  1.00 20.00    -0.298 OA
ENDROOT
BRANCH   5   7
HETATM    7  S11 UNL     1     -36.763  16.159  -4.557  1.00 20.00    -0.164 SA
BRANCH   7   8
HETATM    8  C8  UNL     1     -36.724  15.069  -5.995  1.00 20.00     0.078 C 
BRANCH   8   9
HETATM    9  C9  UNL     1     -36.051  15.656  -7.248  1.00 20.00    -0.013 C 
HETATM   10  C6  UNL     1     -35.861  17.172  -7.163  1.00 20.00     0.010 C 
HETATM   11  C7  UNL     1     -34.727  14.966  -7.587  1.00 20.00     0.010 C 
ENDBRANCH   8   9
ENDBRANCH   7   8
ENDBRANCH   5   7
TORSDOF 3
ENDMDL
