MODEL 1
REMARK VINA RESULT:      -4.9      0.000      0.000
REMARK  4 active torsions:
REMARK  status: ('A' for Active; 'I' for Inactive)
REMARK    1  A    between atoms: C1_1  and  C7_7 
REMARK    2  A    between atoms: C1_1  and  O10_10 
REMARK    3  A    between atoms: C4_4  and  C7_7 
REMARK    4  A    between atoms: C8_8  and  O10_10 
ROOT
HETATM    1  C1  UNL     1     -32.430   6.444   3.491  1.00 20.00     0.259 C 
HETATM    2  O9  UNL     1     -32.059   5.365   3.048  1.00 20.00    -0.265 OA
ENDROOT
BRANCH   1   3
HETATM    3  C7  UNL     1     -31.859   7.787   3.103  1.00 20.00     0.115 C 
BRANCH   3   4
HETATM    4  C4  UNL     1     -32.520   8.351   1.857  1.00 20.00    -0.005 A 
HETATM    5  C2  UNL     1     -32.436   9.821   1.553  1.00 20.00     0.005 A 
HETATM    6  C3  UNL     1     -31.680   8.834   0.707  1.00 20.00     0.005 A 
ENDBRANCH   3   4
ENDBRANCH   1   3
BRANCH   1   7
HETATM    7  O10 UNL     1     -33.422   6.634   4.411  1.00 20.00    -0.317 OA
BRANCH   7   8
HETATM    8  C8  UNL     1     -34.162   5.462   4.769  1.00 20.00     0.123 C 
HETATM    9  C5  UNL     1     -34.512   5.523   6.248  1.00 20.00     0.040 C 
HETATM   10  C6  UNL     1     -35.405   5.369   3.897  1.00 20.00     0.040 C 
ENDBRANCH   7   8
ENDBRANCH   1   7
TORSDOF 4
ENDMDL
MODEL 2
REMARK VINA RESULT:      -4.6      1.057      1.387
REMARK  4 active torsions:
REMARK  status: ('A' for Active; 'I' for Inactive)
REMARK    1  A    between atoms: C1_1  and  C7_7 
REMARK    2  A    between atoms: C1_1  and  O10_10 
REMARK    3  A    between atoms: C4_4  and  C7_7 
REMARK    4  A    between atoms: C8_8  and  O10_10 
ROOT
HETATM    1  C1  UNL     1     -33.180   6.092   3.283  1.00 20.00     0.259 C 
HETATM    2  O9  UNL     1     -33.926   5.574   2.463  1.00 20.00    -0.265 OA
ENDROOT
BRANCH   1   3
HETATM    3  C7  UNL     1     -32.221   7.223   2.997  1.00 20.00     0.115 C 
BRANCH   3   4
HETATM    4  C4  UNL     1     -32.669   8.066   1.815  1.00 20.00    -0.005 A 
HETATM    5  C2  UNL     1     -32.482   9.558   1.835  1.00 20.00     0.005 A 
HETATM    6  C3  UNL     1     -31.649   8.709   0.916  1.00 20.00     0.005 A 
ENDBRANCH   3   4
ENDBRANCH   1   3
BRANCH   1   7
HETATM    7  O10 UNL     1     -33.077   5.748   4.602  1.00 20.00    -0.317 OA
BRANCH   7   8
HETATM    8  C8  UNL     1     -34.284   5.859   5.363  1.00 20.00     0.123 C 
HETATM    9  C5  UNL     1     -34.765   4.468   5.747  1.00 20.00     0.040 C 
HETATM   10  C6  UNL     1     -34.026   6.726   6.586  1.00 20.00     0.040 C 
ENDBRANCH   7   8
ENDBRANCH   1   7
TORSDOF 4
ENDMDL
MODEL 3
REMARK VINA RESULT:      -4.6      1.076      1.684
REMARK  4 active torsions:
REMARK  status: ('A' for Active; 'I' for Inactive)
REMARK    1  A    between atoms: C1_1  and  C7_7 
REMARK    2  A    between atoms: C1_1  and  O10_10 
REMARK    3  A    between atoms: C4_4  and  C7_7 
REMARK    4  A    between atoms: C8_8  and  O10_10 
ROOT
HETATM    1  C1  UNL     1     -32.108   7.013   3.584  1.00 20.00     0.259 C 
HETATM    2  O9  UNL     1     -31.215   7.611   4.169  1.00 20.00    -0.265 OA
ENDROOT
BRANCH   1   3
HETATM    3  C7  UNL     1     -32.627   7.353   2.207  1.00 20.00     0.115 C 
BRANCH   3   4
HETATM    4  C4  UNL     1     -31.890   8.531   1.593  1.00 20.00    -0.005 A 
HETATM    5  C2  UNL     1     -32.354   9.118   0.289  1.00 20.00     0.005 A 
HETATM    6  C3  UNL     1     -32.528   9.892   1.566  1.00 20.00     0.005 A 
ENDBRANCH   3   4
ENDBRANCH   1   3
BRANCH   1   7
HETATM    7  O10 UNL     1     -32.796   5.933   4.062  1.00 20.00    -0.317 OA
BRANCH   7   8
HETATM    8  C8  UNL     1     -34.091   6.219   4.601  1.00 20.00     0.123 C 
HETATM    9  C5  UNL     1     -35.054   5.108   4.208  1.00 20.00     0.040 C 
HETATM   10  C6  UNL     1     -33.983   6.365   6.111  1.00 20.00     0.040 C 
ENDBRANCH   7   8
ENDBRANCH   1   7
TORSDOF 4
ENDMDL
MODEL 4
REMARK VINA RESULT:      -4.5      1.270      4.793
REMARK  4 active torsions:
REMARK  status: ('A' for Active; 'I' for Inactive)
REMARK    1  A    between atoms: C1_1  and  C7_7 
REMARK    2  A    between atoms: C1_1  and  O10_10 
REMARK    3  A    between atoms: C4_4  and  C7_7 
REMARK    4  A    between atoms: C8_8  and  O10_10 
ROOT
HETATM    1  C1  UNL     1     -32.168   7.142   3.322  1.00 20.00     0.259 C 
HETATM    2  O9  UNL     1     -31.244   7.606   3.976  1.00 20.00    -0.265 OA
ENDROOT
BRANCH   1   3
HETATM    3  C7  UNL     1     -32.898   5.857   3.634  1.00 20.00     0.115 C 
BRANCH   3   4
HETATM    4  C4  UNL     1     -34.191   6.103   4.391  1.00 20.00    -0.005 A 
HETATM    5  C2  UNL     1     -35.232   5.022   4.483  1.00 20.00     0.005 A 
HETATM    6  C3  UNL     1     -34.444   5.412   5.703  1.00 20.00     0.005 A 
ENDBRANCH   3   4
ENDBRANCH   1   3
BRANCH   1   7
HETATM    7  O10 UNL     1     -32.712   7.697   2.198  1.00 20.00    -0.317 OA
BRANCH   7   8
HETATM    8  C8  UNL     1     -31.975   8.786   1.631  1.00 20.00     0.123 C 
HETATM    9  C5  UNL     1     -31.755   8.525   0.149  1.00 20.00     0.040 C 
HETATM   10  C6  UNL     1     -32.733  10.082   1.872  1.00 20.00     0.040 C 
ENDBRANCH   7   8
ENDBRANCH   1   7
TORSDOF 4
ENDMDL
MODEL 5
REMARK VINA RESULT:      -4.4      1.120      4.750
REMARK  4 active torsions:
REMARK  status: ('A' for Active; 'I' for Inactive)
REMARK    1  A    between atoms: C1_1  and  C7_7 
REMARK    2  A    between atoms: C1_1  and  O10_10 
REMARK    3  A    between atoms: C4_4  and  C7_7 
REMARK    4  A    between atoms: C8_8  and  O10_10 
ROOT
HETATM    1  C1  UNL     1     -34.020   5.753   2.932  1.00 20.00     0.259 C 
HETATM    2  O9  UNL     1     -33.695   5.058   1.979  1.00 20.00    -0.265 OA
ENDROOT
BRANCH   1   3
HETATM    3  C7  UNL     1     -35.019   5.362   3.995  1.00 20.00     0.115 C 
BRANCH   3   4
HETATM    4  C4  UNL     1     -34.343   4.959   5.294  1.00 20.00    -0.005 A 
HETATM    5  C2  UNL     1     -34.397   5.867   6.490  1.00 20.00     0.005 A 
HETATM    6  C3  UNL     1     -35.169   4.577   6.491  1.00 20.00     0.005 A 
ENDBRANCH   3   4
ENDBRANCH   1   3
BRANCH   1   7
HETATM    7  O10 UNL     1     -33.542   7.003   3.212  1.00 20.00    -0.317 OA
BRANCH   7   8
HETATM    8  C8  UNL     1     -32.196   7.254   2.795  1.00 20.00     0.123 C 
HETATM    9  C5  UNL     1     -32.188   8.393   1.786  1.00 20.00     0.040 C 
HETATM   10  C6  UNL     1     -31.345   7.573   4.014  1.00 20.00     0.040 C 
ENDBRANCH   7   8
ENDBRANCH   1   7
TORSDOF 4
ENDMDL
MODEL 6
REMARK VINA RESULT:      -4.4     10.206     11.925
REMARK  4 active torsions:
REMARK  status: ('A' for Active; 'I' for Inactive)
REMARK    1  A    between atoms: C1_1  and  C7_7 
REMARK    2  A    between atoms: C1_1  and  O10_10 
REMARK    3  A    between atoms: C4_4  and  C7_7 
REMARK    4  A    between atoms: C8_8  and  O10_10 
ROOT
HETATM    1  C1  UNL     1     -34.888  13.725  -4.362  1.00 20.00     0.259 C 
HETATM    2  O9  UNL     1     -35.036  12.519  -4.506  1.00 20.00    -0.265 OA
ENDROOT
BRANCH   1   3
HETATM    3  C7  UNL     1     -34.168  14.383  -3.209  1.00 20.00     0.115 C 
BRANCH   3   4
HETATM    4  C4  UNL     1     -34.780  15.724  -2.844  1.00 20.00    -0.005 A 
HETATM    5  C2  UNL     1     -34.594  16.291  -1.464  1.00 20.00     0.005 A 
HETATM    6  C3  UNL     1     -33.899  16.925  -2.636  1.00 20.00     0.005 A 
ENDBRANCH   3   4
ENDBRANCH   1   3
BRANCH   1   7
HETATM    7  O10 UNL     1     -35.341  14.695  -5.212  1.00 20.00    -0.317 OA
BRANCH   7   8
HETATM    8  C8  UNL     1     -34.593  14.849  -6.423  1.00 20.00     0.123 C 
HETATM    9  C5  UNL     1     -35.458  14.430  -7.603  1.00 20.00     0.040 C 
HETATM   10  C6  UNL     1     -34.130  16.293  -6.545  1.00 20.00     0.040 C 
ENDBRANCH   7   8
ENDBRANCH   1   7
TORSDOF 4
ENDMDL
MODEL 7
REMARK VINA RESULT:      -4.4     10.179     11.521
REMARK  4 active torsions:
REMARK  status: ('A' for Active; 'I' for Inactive)
REMARK    1  A    between atoms: C1_1  and  C7_7 
REMARK    2  A    between atoms: C1_1  and  O10_10 
REMARK    3  A    between atoms: C4_4  and  C7_7 
REMARK    4  A    between atoms: C8_8  and  O10_10 
ROOT
HETATM    1  C1  UNL     1     -34.088  13.741  -3.993  1.00 20.00     0.259 C 
HETATM    2  O9  UNL     1     -33.051  13.226  -3.598  1.00 20.00    -0.265 OA
ENDROOT
BRANCH   1   3
HETATM    3  C7  UNL     1     -34.843  13.335  -5.237  1.00 20.00     0.115 C 
BRANCH   3   4
HETATM    4  C4  UNL     1     -35.270  14.535  -6.064  1.00 20.00    -0.005 A 
HETATM    5  C2  UNL     1     -34.319  15.149  -7.054  1.00 20.00     0.005 A 
HETATM    6  C3  UNL     1     -35.521  14.386  -7.540  1.00 20.00     0.005 A 
ENDBRANCH   3   4
ENDBRANCH   1   3
BRANCH   1   7
HETATM    7  O10 UNL     1     -34.754  14.769  -3.387  1.00 20.00    -0.317 OA
BRANCH   7   8
HETATM    8  C8  UNL     1     -33.926  15.761  -2.773  1.00 20.00     0.123 C 
HETATM    9  C5  UNL     1     -33.647  16.871  -3.775  1.00 20.00     0.040 C 
HETATM   10  C6  UNL     1     -34.616  16.287  -1.524  1.00 20.00     0.040 C 
ENDBRANCH   7   8
ENDBRANCH   1   7
TORSDOF 4
ENDMDL
MODEL 8
REMARK VINA RESULT:      -4.3     10.576     12.020
REMARK  4 active torsions:
REMARK  status: ('A' for Active; 'I' for Inactive)
REMARK    1  A    between atoms: C1_1  and  C7_7 
REMARK    2  A    between atoms: C1_1  and  O10_10 
REMARK    3  A    between atoms: C4_4  and  C7_7 
REMARK    4  A    between atoms: C8_8  and  O10_10 
ROOT
HETATM    1  C1  UNL     1     -34.872  13.777  -4.506  1.00 20.00     0.259 C 
HETATM    2  O9  UNL     1     -35.025  12.563  -4.474  1.00 20.00    -0.265 OA
ENDROOT
BRANCH   1   3
HETATM    3  C7  UNL     1     -35.400  14.749  -3.478  1.00 20.00     0.115 C 
BRANCH   3   4
HETATM    4  C4  UNL     1     -34.282  15.438  -2.715  1.00 20.00    -0.005 A 
HETATM    5  C2  UNL     1     -34.103  16.928  -2.816  1.00 20.00     0.005 A 
HETATM    6  C3  UNL     1     -34.600  16.316  -1.536  1.00 20.00     0.005 A 
ENDBRANCH   3   4
ENDBRANCH   1   3
BRANCH   1   7
HETATM    7  O10 UNL     1     -34.197  14.474  -5.469  1.00 20.00    -0.317 OA
BRANCH   7   8
HETATM    8  C8  UNL     1     -35.011  15.275  -6.333  1.00 20.00     0.123 C 
HETATM    9  C5  UNL     1     -34.275  16.564  -6.663  1.00 20.00     0.040 C 
HETATM   10  C6  UNL     1     -35.346  14.478  -7.585  1.00 20.00     0.040 C 
ENDBRANCH   7   8
ENDBRANCH   1   7
TORSDOF 4
ENDMDL
MODEL 9
REMARK VINA RESULT:      -4.2     10.878     11.980
REMARK  4 active torsions:
REMARK  status: ('A' for Active; 'I' for Inactive)
REMARK    1  A    between atoms: C1_1  and  C7_7 
REMARK    2  A    between atoms: C1_1  and  O10_10 
REMARK    3  A    between atoms: C4_4  and  C7_7 
REMARK    4  A    between atoms: C8_8  and  O10_10 
ROOT
HETATM    1  C1  UNL     1     -36.044  14.827  -3.737  1.00 20.00     0.259 C 
HETATM    2  O9  UNL     1     -37.013  14.086  -3.838  1.00 20.00    -0.265 OA
ENDROOT
BRANCH   1   3
HETATM    3  C7  UNL     1     -35.948  16.014  -2.808  1.00 20.00     0.115 C 
BRANCH   3   4
HETATM    4  C4  UNL     1     -34.713  15.952  -1.927  1.00 20.00    -0.005 A 
HETATM    5  C2  UNL     1     -33.796  17.140  -1.823  1.00 20.00     0.005 A 
HETATM    6  C3  UNL     1     -34.653  16.747  -0.651  1.00 20.00     0.005 A 
ENDBRANCH   3   4
ENDBRANCH   1   3
BRANCH   1   7
HETATM    7  O10 UNL     1     -34.877  14.719  -4.438  1.00 20.00    -0.317 OA
BRANCH   7   8
HETATM    8  C8  UNL     1     -34.772  15.560  -5.592  1.00 20.00     0.123 C 
HETATM    9  C5  UNL     1     -33.493  16.379  -5.500  1.00 20.00     0.040 C 
HETATM   10  C6  UNL     1     -34.802  14.697  -6.845  1.00 20.00     0.040 C 
ENDBRANCH   7   8
ENDBRANCH   1   7
TORSDOF 4
ENDMDL
