MODEL 1
REMARK VINA RESULT:      -4.5      0.000      0.000
REMARK  1 active torsions:
REMARK  status: ('A' for Active; 'I' for Inactive)
REMARK       I    between atoms: C1_1  and  N9_9 
REMARK    1  A    between atoms: C6_6  and  N9_9 
ROOT
HETATM    1  C2  UNL     1     -34.707  13.483  -5.313  1.00 20.00     0.002 C 
HETATM    2  C3  UNL     1     -34.892  14.833  -6.004  1.00 20.00     0.002 C 
HETATM    3  C4  UNL     1     -34.971  13.725  -3.829  1.00 20.00     0.031 C 
HETATM    4  C5  UNL     1     -35.259  15.827  -4.905  1.00 20.00     0.031 C 
HETATM    5  C6  UNL     1     -35.857  14.975  -3.779  1.00 20.00     0.029 C 
HETATM    6  C8  UNL     1     -37.329  14.639  -4.041  1.00 20.00     0.038 C 
ENDROOT
BRANCH   5   7
HETATM    7  N9  UNL     1     -35.741  15.645  -2.503  1.00 20.00    -0.353 N 
HETATM    8  C1  UNL     1     -34.547  16.132  -2.019  1.00 20.00     0.214 C 
HETATM    9  C7  UNL     1     -34.660  16.787  -0.683  1.00 20.00     0.117 C 
HETATM   10  O10 UNL     1     -33.454  16.074  -2.572  1.00 20.00    -0.274 OA
HETATM   11  H25 UNL     1     -36.574  15.760  -1.940  1.00 20.00     0.163 HD
ENDBRANCH   5   7
TORSDOF 1
ENDMDL
MODEL 2
REMARK VINA RESULT:      -4.5     12.180     13.436
REMARK  1 active torsions:
REMARK  status: ('A' for Active; 'I' for Inactive)
REMARK       I    between atoms: C1_1  and  N9_9 
REMARK    1  A    between atoms: C6_6  and  N9_9 
ROOT
HETATM    1  C2  UNL     1     -41.913   6.904  -1.559  1.00 20.00     0.002 C 
HETATM    2  C3  UNL     1     -40.977   6.510  -0.418  1.00 20.00     0.002 C 
HETATM    3  C4  UNL     1     -42.078   5.656  -2.422  1.00 20.00     0.031 C 
HETATM    4  C5  UNL     1     -40.621   5.043  -0.645  1.00 20.00     0.031 C 
HETATM    5  C6  UNL     1     -41.770   4.479  -1.490  1.00 20.00     0.029 C 
HETATM    6  C8  UNL     1     -42.980   4.107  -0.626  1.00 20.00     0.038 C 
ENDROOT
BRANCH   5   7
HETATM    7  N9  UNL     1     -41.344   3.318  -2.239  1.00 20.00    -0.353 N 
HETATM    8  C1  UNL     1     -42.104   2.755  -3.241  1.00 20.00     0.214 C 
HETATM    9  C7  UNL     1     -41.469   1.565  -3.881  1.00 20.00     0.117 C 
HETATM   10  O10 UNL     1     -43.202   3.135  -3.629  1.00 20.00    -0.274 OA
HETATM   11  H25 UNL     1     -40.450   2.902  -2.018  1.00 20.00     0.163 HD
ENDBRANCH   5   7
TORSDOF 1
ENDMDL
MODEL 3
REMARK VINA RESULT:      -4.4      2.108      4.124
REMARK  1 active torsions:
REMARK  status: ('A' for Active; 'I' for Inactive)
REMARK       I    between atoms: C1_1  and  N9_9 
REMARK    1  A    between atoms: C6_6  and  N9_9 
ROOT
HETATM    1  C2  UNL     1     -34.687  16.200  -1.584  1.00 20.00     0.002 C 
HETATM    2  C3  UNL     1     -33.814  17.362  -2.056  1.00 20.00     0.002 C 
HETATM    3  C4  UNL     1     -35.069  15.419  -2.838  1.00 20.00     0.031 C 
HETATM    4  C5  UNL     1     -33.710  17.227  -3.574  1.00 20.00     0.031 C 
HETATM    5  C6  UNL     1     -33.977  15.745  -3.863  1.00 20.00     0.029 C 
HETATM    6  C8  UNL     1     -32.723  14.891  -3.647  1.00 20.00     0.038 C 
ENDROOT
BRANCH   5   7
HETATM    7  N9  UNL     1     -34.456  15.556  -5.213  1.00 20.00    -0.353 N 
HETATM    8  C1  UNL     1     -34.809  14.323  -5.716  1.00 20.00     0.214 C 
HETATM    9  C7  UNL     1     -35.279  14.363  -7.133  1.00 20.00     0.117 C 
HETATM   10  O10 UNL     1     -34.772  13.252  -5.122  1.00 20.00    -0.274 OA
HETATM   11  H25 UNL     1     -34.535  16.365  -5.815  1.00 20.00     0.163 HD
ENDBRANCH   5   7
TORSDOF 1
ENDMDL
MODEL 4
REMARK VINA RESULT:      -4.4     10.824     11.831
REMARK  1 active torsions:
REMARK  status: ('A' for Active; 'I' for Inactive)
REMARK       I    between atoms: C1_1  and  N9_9 
REMARK    1  A    between atoms: C6_6  and  N9_9 
ROOT
HETATM    1  C2  UNL     1     -35.196   4.721   4.735  1.00 20.00     0.002 C 
HETATM    2  C3  UNL     1     -34.403   5.466   5.807  1.00 20.00     0.002 C 
HETATM    3  C4  UNL     1     -34.893   5.426   3.416  1.00 20.00     0.031 C 
HETATM    4  C5  UNL     1     -33.659   6.586   5.085  1.00 20.00     0.031 C 
HETATM    5  C6  UNL     1     -33.541   6.116   3.631  1.00 20.00     0.029 C 
HETATM    6  C8  UNL     1     -32.371   5.144   3.442  1.00 20.00     0.038 C 
ENDROOT
BRANCH   5   7
HETATM    7  N9  UNL     1     -33.379   7.237   2.733  1.00 20.00    -0.353 N 
HETATM    8  C1  UNL     1     -32.230   7.995   2.681  1.00 20.00     0.214 C 
HETATM    9  C7  UNL     1     -32.282   9.101   1.680  1.00 20.00     0.117 C 
HETATM   10  O10 UNL     1     -31.219   7.839   3.358  1.00 20.00    -0.274 OA
HETATM   11  H25 UNL     1     -34.144   7.475   2.115  1.00 20.00     0.163 HD
ENDBRANCH   5   7
TORSDOF 1
ENDMDL
MODEL 5
REMARK VINA RESULT:      -4.3      1.217      2.123
REMARK  1 active torsions:
REMARK  status: ('A' for Active; 'I' for Inactive)
REMARK       I    between atoms: C1_1  and  N9_9 
REMARK    1  A    between atoms: C6_6  and  N9_9 
ROOT
HETATM    1  C2  UNL     1     -34.916  14.954  -5.914  1.00 20.00     0.002 C 
HETATM    2  C3  UNL     1     -34.828  13.519  -5.399  1.00 20.00     0.002 C 
HETATM    3  C4  UNL     1     -34.898  15.851  -4.680  1.00 20.00     0.031 C 
HETATM    4  C5  UNL     1     -34.760  13.616  -3.877  1.00 20.00     0.031 C 
HETATM    5  C6  UNL     1     -34.211  15.019  -3.590  1.00 20.00     0.029 C 
HETATM    6  C8  UNL     1     -32.685  15.068  -3.715  1.00 20.00     0.038 C 
ENDROOT
BRANCH   5   7
HETATM    7  N9  UNL     1     -34.597  15.469  -2.271  1.00 20.00    -0.353 N 
HETATM    8  C1  UNL     1     -34.267  16.712  -1.778  1.00 20.00     0.214 C 
HETATM    9  C7  UNL     1     -34.769  16.965  -0.396  1.00 20.00     0.117 C 
HETATM   10  O10 UNL     1     -33.626  17.583  -2.357  1.00 20.00    -0.274 OA
HETATM   11  H25 UNL     1     -35.132  14.842  -1.685  1.00 20.00     0.163 HD
ENDBRANCH   5   7
TORSDOF 1
ENDMDL
MODEL 6
REMARK VINA RESULT:      -4.2      1.958      3.360
REMARK  1 active torsions:
REMARK  status: ('A' for Active; 'I' for Inactive)
REMARK       I    between atoms: C1_1  and  N9_9 
REMARK    1  A    between atoms: C6_6  and  N9_9 
ROOT
HETATM    1  C2  UNL     1     -33.245  16.312  -4.339  1.00 20.00     0.002 C 
HETATM    2  C3  UNL     1     -33.018  14.893  -3.823  1.00 20.00     0.002 C 
HETATM    3  C4  UNL     1     -34.711  16.635  -4.063  1.00 20.00     0.031 C 
HETATM    4  C5  UNL     1     -34.357  14.425  -3.259  1.00 20.00     0.031 C 
HETATM    5  C6  UNL     1     -35.115  15.711  -2.908  1.00 20.00     0.029 C 
HETATM    6  C8  UNL     1     -34.679  16.275  -1.551  1.00 20.00     0.038 C 
ENDROOT
BRANCH   5   7
HETATM    7  N9  UNL     1     -36.542  15.486  -2.895  1.00 20.00    -0.353 N 
HETATM    8  C1  UNL     1     -37.240  15.043  -3.997  1.00 20.00     0.214 C 
HETATM    9  C7  UNL     1     -38.705  14.878  -3.757  1.00 20.00     0.117 C 
HETATM   10  O10 UNL     1     -36.777  14.784  -5.102  1.00 20.00    -0.274 OA
HETATM   11  H25 UNL     1     -37.051  15.663  -2.039  1.00 20.00     0.163 HD
ENDBRANCH   5   7
TORSDOF 1
ENDMDL
MODEL 7
REMARK VINA RESULT:      -4.2      1.154      1.878
REMARK  1 active torsions:
REMARK  status: ('A' for Active; 'I' for Inactive)
REMARK       I    between atoms: C1_1  and  N9_9 
REMARK    1  A    between atoms: C6_6  and  N9_9 
ROOT
HETATM    1  C2  UNL     1     -34.453  15.127  -7.251  1.00 20.00     0.002 C 
HETATM    2  C3  UNL     1     -35.926  14.724  -7.252  1.00 20.00     0.002 C 
HETATM    3  C4  UNL     1     -34.111  15.487  -5.808  1.00 20.00     0.031 C 
HETATM    4  C5  UNL     1     -36.406  14.860  -5.808  1.00 20.00     0.031 C 
HETATM    5  C6  UNL     1     -35.139  14.736  -4.953  1.00 20.00     0.029 C 
HETATM    6  C8  UNL     1     -34.740  13.272  -4.740  1.00 20.00     0.038 C 
ENDROOT
BRANCH   5   7
HETATM    7  N9  UNL     1     -35.315  15.374  -3.668  1.00 20.00    -0.353 N 
HETATM    8  C1  UNL     1     -34.261  15.685  -2.837  1.00 20.00     0.214 C 
HETATM    9  C7  UNL     1     -34.673  16.342  -1.561  1.00 20.00     0.117 C 
HETATM   10  O10 UNL     1     -33.072  15.477  -3.052  1.00 20.00    -0.274 OA
HETATM   11  H25 UNL     1     -36.253  15.603  -3.366  1.00 20.00     0.163 HD
ENDBRANCH   5   7
TORSDOF 1
ENDMDL
MODEL 8
REMARK VINA RESULT:      -4.1      2.229      3.645
REMARK  1 active torsions:
REMARK  status: ('A' for Active; 'I' for Inactive)
REMARK       I    between atoms: C1_1  and  N9_9 
REMARK    1  A    between atoms: C6_6  and  N9_9 
ROOT
HETATM    1  C2  UNL     1     -34.001  15.777  -2.607  1.00 20.00     0.002 C 
HETATM    2  C3  UNL     1     -33.200  15.774  -3.908  1.00 20.00     0.002 C 
HETATM    3  C4  UNL     1     -35.463  15.605  -3.008  1.00 20.00     0.031 C 
HETATM    4  C5  UNL     1     -34.217  15.601  -5.034  1.00 20.00     0.031 C 
HETATM    5  C6  UNL     1     -35.426  14.921  -4.379  1.00 20.00     0.029 C 
HETATM    6  C8  UNL     1     -35.226  13.407  -4.253  1.00 20.00     0.038 C 
ENDROOT
BRANCH   5   7
HETATM    7  N9  UNL     1     -36.636  15.182  -5.125  1.00 20.00    -0.353 N 
HETATM    8  C1  UNL     1     -37.888  14.837  -4.664  1.00 20.00     0.214 C 
HETATM    9  C7  UNL     1     -38.995  15.203  -5.597  1.00 20.00     0.117 C 
HETATM   10  O10 UNL     1     -38.151  14.282  -3.603  1.00 20.00    -0.274 OA
HETATM   11  H25 UNL     1     -36.561  15.638  -6.024  1.00 20.00     0.163 HD
ENDBRANCH   5   7
TORSDOF 1
ENDMDL
MODEL 9
REMARK VINA RESULT:      -4.1      2.271      3.136
REMARK  1 active torsions:
REMARK  status: ('A' for Active; 'I' for Inactive)
REMARK       I    between atoms: C1_1  and  N9_9 
REMARK    1  A    between atoms: C6_6  and  N9_9 
ROOT
HETATM    1  C2  UNL     1     -33.508  13.704  -3.694  1.00 20.00     0.002 C 
HETATM    2  C3  UNL     1     -35.001  13.822  -3.997  1.00 20.00     0.002 C 
HETATM    3  C4  UNL     1     -32.964  15.130  -3.680  1.00 20.00     0.031 C 
HETATM    4  C5  UNL     1     -35.289  15.313  -4.151  1.00 20.00     0.031 C 
HETATM    5  C6  UNL     1     -34.174  16.018  -3.368  1.00 20.00     0.029 C 
HETATM    6  C8  UNL     1     -34.476  16.060  -1.866  1.00 20.00     0.038 C 
ENDROOT
BRANCH   5   7
HETATM    7  N9  UNL     1     -33.971  17.365  -3.851  1.00 20.00    -0.353 N 
HETATM    8  C1  UNL     1     -33.744  17.658  -5.178  1.00 20.00     0.214 C 
HETATM    9  C7  UNL     1     -33.563  19.114  -5.452  1.00 20.00     0.117 C 
HETATM   10  O10 UNL     1     -33.684  16.857  -6.105  1.00 20.00    -0.274 OA
HETATM   11  H25 UNL     1     -33.996  18.126  -3.186  1.00 20.00     0.163 HD
ENDBRANCH   5   7
TORSDOF 1
ENDMDL
