MODEL 1
REMARK VINA RESULT:      -4.3      0.000      0.000
REMARK  4 active torsions:
REMARK  status: ('A' for Active; 'I' for Inactive)
REMARK    1  A    between atoms: C1_1  and  C6_6 
REMARK       I    between atoms: C1_1  and  N10_10 
REMARK    2  A    between atoms: C7_7  and  C8_8 
REMARK    3  A    between atoms: C7_7  and  C9_9 
REMARK    4  A    between atoms: C8_8  and  N10_10 
ROOT
HETATM    1  C1  UNL     1     -34.603  14.081  -5.425  1.00 20.00     0.218 C 
HETATM    2  C5  UNL     1     -33.485  16.338  -5.343  1.00 20.00     0.152 C 
HETATM    3  N10 UNL     1     -33.940  15.099  -4.702  1.00 20.00    -0.356 N 
HETATM    4  O11 UNL     1     -35.002  13.025  -4.928  1.00 20.00    -0.273 OA
ENDROOT
BRANCH   3   5
HETATM    5  C8  UNL     1     -33.673  14.981  -3.296  1.00 20.00     0.125 C 
BRANCH   5   6
HETATM    6  C7  UNL     1     -34.630  15.815  -2.447  1.00 20.00     0.024 C 
BRANCH   6   7
HETATM    7  C9  UNL     1     -33.951  16.823  -1.498  1.00 20.00    -0.021 C 
HETATM    8  C3  UNL     1     -34.788  16.981  -0.226  1.00 20.00     0.009 C 
HETATM    9  C4  UNL     1     -33.742  18.190  -2.150  1.00 20.00     0.009 C 
ENDBRANCH   6   7
ENDBRANCH   5   6
ENDBRANCH   3   5
BRANCH   1  10
HETATM   10  C6  UNL     1     -34.806  14.362  -6.907  1.00 20.00     0.098 C 
HETATM   11  C2  UNL     1     -36.234  14.768  -7.237  1.00 20.00     0.014 C 
ENDBRANCH   1  10
TORSDOF 4
ENDMDL
MODEL 2
REMARK VINA RESULT:      -4.2     10.973     12.149
REMARK  4 active torsions:
REMARK  status: ('A' for Active; 'I' for Inactive)
REMARK    1  A    between atoms: C1_1  and  C6_6 
REMARK       I    between atoms: C1_1  and  N10_10 
REMARK    2  A    between atoms: C7_7  and  C8_8 
REMARK    3  A    between atoms: C7_7  and  C9_9 
REMARK    4  A    between atoms: C8_8  and  N10_10 
ROOT
HETATM    1  C1  UNL     1     -34.021   6.153   5.009  1.00 20.00     0.218 C 
HETATM    2  C5  UNL     1     -33.919   5.551   2.564  1.00 20.00     0.152 C 
HETATM    3  N10 UNL     1     -33.461   6.326   3.723  1.00 20.00    -0.356 N 
HETATM    4  O11 UNL     1     -33.668   6.782   6.010  1.00 20.00    -0.273 OA
ENDROOT
BRANCH   3   5
HETATM    5  C8  UNL     1     -32.409   7.272   3.473  1.00 20.00     0.125 C 
BRANCH   5   6
HETATM    6  C7  UNL     1     -32.023   7.340   1.997  1.00 20.00     0.024 C 
BRANCH   6   7
HETATM    7  C9  UNL     1     -31.912   8.764   1.418  1.00 20.00    -0.021 C 
HETATM    8  C3  UNL     1     -32.804   9.719   2.217  1.00 20.00     0.009 C 
HETATM    9  C4  UNL     1     -32.290   8.824  -0.062  1.00 20.00     0.009 C 
ENDBRANCH   6   7
ENDBRANCH   5   6
ENDBRANCH   3   5
BRANCH   1  10
HETATM   10  C6  UNL     1     -35.125   5.110   5.103  1.00 20.00     0.098 C 
HETATM   11  C2  UNL     1     -34.736   3.919   5.965  1.00 20.00     0.014 C 
ENDBRANCH   1  10
TORSDOF 4
ENDMDL
MODEL 3
REMARK VINA RESULT:      -4.1      1.516      4.839
REMARK  4 active torsions:
REMARK  status: ('A' for Active; 'I' for Inactive)
REMARK    1  A    between atoms: C1_1  and  C6_6 
REMARK       I    between atoms: C1_1  and  N10_10 
REMARK    2  A    between atoms: C7_7  and  C8_8 
REMARK    3  A    between atoms: C7_7  and  C9_9 
REMARK    4  A    between atoms: C8_8  and  N10_10 
ROOT
HETATM    1  C1  UNL     1     -35.012  15.553  -2.799  1.00 20.00     0.218 C 
HETATM    2  C5  UNL     1     -32.970  14.245  -3.487  1.00 20.00     0.152 C 
HETATM    3  N10 UNL     1     -34.418  14.487  -3.512  1.00 20.00    -0.356 N 
HETATM    4  O11 UNL     1     -36.222  15.793  -2.792  1.00 20.00    -0.273 OA
ENDROOT
BRANCH   3   5
HETATM    5  C8  UNL     1     -35.196  13.575  -4.305  1.00 20.00     0.125 C 
BRANCH   5   6
HETATM    6  C7  UNL     1     -34.809  13.608  -5.782  1.00 20.00     0.024 C 
BRANCH   6   7
HETATM    7  C9  UNL     1     -35.262  14.867  -6.547  1.00 20.00    -0.021 C 
HETATM    8  C3  UNL     1     -35.816  14.468  -7.917  1.00 20.00     0.009 C 
HETATM    9  C4  UNL     1     -34.133  15.882  -6.723  1.00 20.00     0.009 C 
ENDBRANCH   6   7
ENDBRANCH   5   6
ENDBRANCH   3   5
BRANCH   1  10
HETATM   10  C6  UNL     1     -34.047  16.425  -2.010  1.00 20.00     0.098 C 
HETATM   11  C2  UNL     1     -34.576  16.786  -0.631  1.00 20.00     0.014 C 
ENDBRANCH   1  10
TORSDOF 4
ENDMDL
MODEL 4
REMARK VINA RESULT:      -4.1      1.580      1.924
REMARK  4 active torsions:
REMARK  status: ('A' for Active; 'I' for Inactive)
REMARK    1  A    between atoms: C1_1  and  C6_6 
REMARK       I    between atoms: C1_1  and  N10_10 
REMARK    2  A    between atoms: C7_7  and  C8_8 
REMARK    3  A    between atoms: C7_7  and  C9_9 
REMARK    4  A    between atoms: C8_8  and  N10_10 
ROOT
HETATM    1  C1  UNL     1     -33.744  15.770  -5.387  1.00 20.00     0.218 C 
HETATM    2  C5  UNL     1     -35.505  14.029  -4.919  1.00 20.00     0.152 C 
HETATM    3  N10 UNL     1     -34.431  14.929  -4.482  1.00 20.00    -0.356 N 
HETATM    4  O11 UNL     1     -32.836  16.541  -5.064  1.00 20.00    -0.273 OA
ENDROOT
BRANCH   3   5
HETATM    5  C8  UNL     1     -34.119  14.905  -3.080  1.00 20.00     0.125 C 
BRANCH   5   6
HETATM    6  C7  UNL     1     -34.917  15.937  -2.286  1.00 20.00     0.024 C 
BRANCH   6   7
HETATM    7  C9  UNL     1     -34.076  16.840  -1.363  1.00 20.00    -0.021 C 
HETATM    8  C3  UNL     1     -34.843  17.108  -0.064  1.00 20.00     0.009 C 
HETATM    9  C4  UNL     1     -33.705  18.167  -2.024  1.00 20.00     0.009 C 
ENDBRANCH   6   7
ENDBRANCH   5   6
ENDBRANCH   3   5
BRANCH   1  10
HETATM   10  C6  UNL     1     -34.197  15.675  -6.836  1.00 20.00     0.098 C 
HETATM   11  C2  UNL     1     -34.654  17.013  -7.397  1.00 20.00     0.014 C 
ENDBRANCH   1  10
TORSDOF 4
ENDMDL
MODEL 5
REMARK VINA RESULT:      -4.1      1.816      2.644
REMARK  4 active torsions:
REMARK  status: ('A' for Active; 'I' for Inactive)
REMARK    1  A    between atoms: C1_1  and  C6_6 
REMARK       I    between atoms: C1_1  and  N10_10 
REMARK    2  A    between atoms: C7_7  and  C8_8 
REMARK    3  A    between atoms: C7_7  and  C9_9 
REMARK    4  A    between atoms: C8_8  and  N10_10 
ROOT
HETATM    1  C1  UNL     1     -33.587  15.225  -3.880  1.00 20.00     0.218 C 
HETATM    2  C5  UNL     1     -35.671  16.599  -3.534  1.00 20.00     0.152 C 
HETATM    3  N10 UNL     1     -34.312  16.195  -3.152  1.00 20.00    -0.356 N 
HETATM    4  O11 UNL     1     -32.444  14.856  -3.596  1.00 20.00    -0.273 OA
ENDROOT
BRANCH   3   5
HETATM    5  C8  UNL     1     -33.763  16.846  -1.995  1.00 20.00     0.125 C 
BRANCH   5   6
HETATM    6  C7  UNL     1     -34.623  16.647  -0.749  1.00 20.00     0.024 C 
BRANCH   6   7
HETATM    7  C9  UNL     1     -34.721  17.875   0.178  1.00 20.00    -0.021 C 
HETATM    8  C3  UNL     1     -33.331  18.486   0.375  1.00 20.00     0.009 C 
HETATM    9  C4  UNL     1     -35.331  17.533   1.537  1.00 20.00     0.009 C 
ENDBRANCH   6   7
ENDBRANCH   5   6
ENDBRANCH   3   5
BRANCH   1  10
HETATM   10  C6  UNL     1     -34.313  14.634  -5.080  1.00 20.00     0.098 C 
HETATM   11  C2  UNL     1     -34.739  13.192  -4.856  1.00 20.00     0.014 C 
ENDBRANCH   1  10
TORSDOF 4
ENDMDL
MODEL 6
REMARK VINA RESULT:      -4.0      3.910      6.850
REMARK  4 active torsions:
REMARK  status: ('A' for Active; 'I' for Inactive)
REMARK    1  A    between atoms: C1_1  and  C6_6 
REMARK       I    between atoms: C1_1  and  N10_10 
REMARK    2  A    between atoms: C7_7  and  C8_8 
REMARK    3  A    between atoms: C7_7  and  C9_9 
REMARK    4  A    between atoms: C8_8  and  N10_10 
ROOT
HETATM    1  C1  UNL     1     -32.468  18.881   0.651  1.00 20.00     0.218 C 
HETATM    2  C5  UNL     1     -34.746  17.876   1.039  1.00 20.00     0.152 C 
HETATM    3  N10 UNL     1     -33.605  18.194   0.171  1.00 20.00    -0.356 N 
HETATM    4  O11 UNL     1     -31.488  19.169  -0.042  1.00 20.00    -0.273 OA
ENDROOT
BRANCH   3   5
HETATM    5  C8  UNL     1     -33.714  17.765  -1.196  1.00 20.00     0.125 C 
BRANCH   5   6
HETATM    6  C7  UNL     1     -34.599  16.531  -1.353  1.00 20.00     0.024 C 
BRANCH   6   7
HETATM    7  C9  UNL     1     -34.323  15.686  -2.613  1.00 20.00    -0.021 C 
HETATM    8  C3  UNL     1     -33.569  16.529  -3.645  1.00 20.00     0.009 C 
HETATM    9  C4  UNL     1     -35.604  15.132  -3.236  1.00 20.00     0.009 C 
ENDBRANCH   6   7
ENDBRANCH   5   6
ENDBRANCH   3   5
BRANCH   1  10
HETATM   10  C6  UNL     1     -32.511  19.263   2.123  1.00 20.00     0.098 C 
HETATM   11  C2  UNL     1     -31.193  19.003   2.835  1.00 20.00     0.014 C 
ENDBRANCH   1  10
TORSDOF 4
ENDMDL
MODEL 7
REMARK VINA RESULT:      -4.0     10.866     12.024
REMARK  4 active torsions:
REMARK  status: ('A' for Active; 'I' for Inactive)
REMARK    1  A    between atoms: C1_1  and  C6_6 
REMARK       I    between atoms: C1_1  and  N10_10 
REMARK    2  A    between atoms: C7_7  and  C8_8 
REMARK    3  A    between atoms: C7_7  and  C9_9 
REMARK    4  A    between atoms: C8_8  and  N10_10 
ROOT
HETATM    1  C1  UNL     1     -34.310   5.407   3.532  1.00 20.00     0.218 C 
HETATM    2  C5  UNL     1     -33.193   6.773   5.331  1.00 20.00     0.152 C 
HETATM    3  N10 UNL     1     -33.232   6.205   3.978  1.00 20.00    -0.356 N 
HETATM    4  O11 UNL     1     -34.384   4.910   2.404  1.00 20.00    -0.273 OA
ENDROOT
BRANCH   3   5
HETATM    5  C8  UNL     1     -32.110   6.508   3.134  1.00 20.00     0.125 C 
BRANCH   5   6
HETATM    6  C7  UNL     1     -31.861   8.009   3.009  1.00 20.00     0.024 C 
BRANCH   6   7
HETATM    7  C9  UNL     1     -32.441   8.662   1.739  1.00 20.00    -0.021 C 
HETATM    8  C3  UNL     1     -31.470   8.473   0.570  1.00 20.00     0.009 C 
HETATM    9  C4  UNL     1     -32.735  10.150   1.929  1.00 20.00     0.009 C 
ENDBRANCH   6   7
ENDBRANCH   5   6
ENDBRANCH   3   5
BRANCH   1  10
HETATM   10  C6  UNL     1     -35.419   5.183   4.548  1.00 20.00     0.098 C 
HETATM   11  C2  UNL     1     -35.113   4.046   5.510  1.00 20.00     0.014 C 
ENDBRANCH   1  10
TORSDOF 4
ENDMDL
MODEL 8
REMARK VINA RESULT:      -3.9      1.969      4.942
REMARK  4 active torsions:
REMARK  status: ('A' for Active; 'I' for Inactive)
REMARK    1  A    between atoms: C1_1  and  C6_6 
REMARK       I    between atoms: C1_1  and  N10_10 
REMARK    2  A    between atoms: C7_7  and  C8_8 
REMARK    3  A    between atoms: C7_7  and  C9_9 
REMARK    4  A    between atoms: C8_8  and  N10_10 
ROOT
HETATM    1  C1  UNL     1     -34.456  16.331  -2.486  1.00 20.00     0.218 C 
HETATM    2  C5  UNL     1     -36.753  17.346  -2.693  1.00 20.00     0.152 C 
HETATM    3  N10 UNL     1     -35.556  16.730  -3.278  1.00 20.00    -0.356 N 
HETATM    4  O11 UNL     1     -33.431  15.810  -2.934  1.00 20.00    -0.273 OA
ENDROOT
BRANCH   3   5
HETATM    5  C8  UNL     1     -35.568  16.558  -4.704  1.00 20.00     0.125 C 
BRANCH   5   6
HETATM    6  C7  UNL     1     -36.263  15.267  -5.131  1.00 20.00     0.024 C 
BRANCH   6   7
HETATM    7  C9  UNL     1     -35.384  14.288  -5.933  1.00 20.00    -0.021 C 
HETATM    8  C3  UNL     1     -34.705  13.302  -4.978  1.00 20.00     0.009 C 
HETATM    9  C4  UNL     1     -34.327  15.005  -6.772  1.00 20.00     0.009 C 
ENDBRANCH   6   7
ENDBRANCH   5   6
ENDBRANCH   3   5
BRANCH   1  10
HETATM   10  C6  UNL     1     -34.604  16.582  -0.992  1.00 20.00     0.098 C 
HETATM   11  C2  UNL     1     -33.735  17.730  -0.502  1.00 20.00     0.014 C 
ENDBRANCH   1  10
TORSDOF 4
ENDMDL
MODEL 9
REMARK VINA RESULT:      -3.9      1.622      5.000
REMARK  4 active torsions:
REMARK  status: ('A' for Active; 'I' for Inactive)
REMARK    1  A    between atoms: C1_1  and  C6_6 
REMARK       I    between atoms: C1_1  and  N10_10 
REMARK    2  A    between atoms: C7_7  and  C8_8 
REMARK    3  A    between atoms: C7_7  and  C9_9 
REMARK    4  A    between atoms: C8_8  and  N10_10 
ROOT
HETATM    1  C1  UNL     1     -33.665  16.675  -2.879  1.00 20.00     0.218 C 
HETATM    2  C5  UNL     1     -33.744  18.848  -4.154  1.00 20.00     0.152 C 
HETATM    3  N10 UNL     1     -33.586  17.389  -4.096  1.00 20.00    -0.356 N 
HETATM    4  O11 UNL     1     -33.539  15.451  -2.783  1.00 20.00    -0.273 OA
ENDROOT
BRANCH   3   5
HETATM    5  C8  UNL     1     -33.345  16.731  -5.350  1.00 20.00     0.125 C 
BRANCH   5   6
HETATM    6  C7  UNL     1     -34.626  16.191  -5.981  1.00 20.00     0.024 C 
BRANCH   6   7
HETATM    7  C9  UNL     1     -34.534  14.745  -6.508  1.00 20.00    -0.021 C 
HETATM    8  C3  UNL     1     -35.388  14.600  -7.771  1.00 20.00     0.009 C 
HETATM    9  C4  UNL     1     -34.973  13.715  -5.468  1.00 20.00     0.009 C 
ENDBRANCH   6   7
ENDBRANCH   5   6
ENDBRANCH   3   5
BRANCH   1  10
HETATM   10  C6  UNL     1     -33.926  17.523  -1.642  1.00 20.00     0.098 C 
HETATM   11  C2  UNL     1     -34.680  16.765  -0.560  1.00 20.00     0.014 C 
ENDBRANCH   1  10
TORSDOF 4
ENDMDL
