MODEL 1
REMARK VINA RESULT:      -3.8      0.000      0.000
REMARK  0 active torsions:
REMARK  status: ('A' for Active; 'I' for Inactive)
ROOT
HETATM    1  C1  UNL     1     -34.076  18.088  -6.425  1.00 20.00     0.003 C 
HETATM    2  C2  UNL     1     -34.377  16.715  -7.039  1.00 20.00     0.037 C 
HETATM    3  C3  UNL     1     -33.609  17.826  -4.985  1.00 20.00     0.017 C 
HETATM    4  C4  UNL     1     -34.524  13.558  -4.932  1.00 20.00     0.280 C 
HETATM    5  C5  UNL     1     -33.489  13.838  -3.839  1.00 20.00     0.104 C 
HETATM    6  C6  UNL     1     -34.506  15.791  -5.830  1.00 20.00     0.234 C 
HETATM    7  C7  UNL     1     -33.390  16.319  -4.931  1.00 20.00     0.080 C 
HETATM    8  N8  UNL     1     -34.352  14.375  -6.139  1.00 20.00     0.089 N 
HETATM    9  S9  UNL     1     -33.499  15.576  -3.289  1.00 20.00    -0.160 SA
HETATM   10  H22 UNL     1     -33.424  14.209  -6.529  1.00 20.00     0.316 HD
ENDROOT
TORSDOF 0
ENDMDL
MODEL 2
REMARK VINA RESULT:      -3.7      2.882      3.815
REMARK  0 active torsions:
REMARK  status: ('A' for Active; 'I' for Inactive)
ROOT
HETATM    1  C1  UNL     1     -34.070  13.346  -4.445  1.00 20.00     0.003 C 
HETATM    2  C2  UNL     1     -35.551  13.637  -4.168  1.00 20.00     0.037 C 
HETATM    3  C3  UNL     1     -33.275  14.488  -3.793  1.00 20.00     0.017 C 
HETATM    4  C4  UNL     1     -36.715  16.963  -2.751  1.00 20.00     0.280 C 
HETATM    5  C5  UNL     1     -35.544  17.373  -1.854  1.00 20.00     0.104 C 
HETATM    6  C6  UNL     1     -35.569  15.114  -3.781  1.00 20.00     0.234 C 
HETATM    7  C7  UNL     1     -34.302  15.218  -2.936  1.00 20.00     0.080 C 
HETATM    8  N8  UNL     1     -36.762  15.527  -3.053  1.00 20.00     0.089 N 
HETATM    9  S9  UNL     1     -33.924  16.945  -2.573  1.00 20.00    -0.160 SA
HETATM   10  H22 UNL     1     -36.830  15.002  -2.181  1.00 20.00     0.316 HD
ENDROOT
TORSDOF 0
ENDMDL
MODEL 3
REMARK VINA RESULT:      -3.7      1.972      3.794
REMARK  0 active torsions:
REMARK  status: ('A' for Active; 'I' for Inactive)
ROOT
HETATM    1  C1  UNL     1     -34.707  13.195  -4.887  1.00 20.00     0.003 C 
HETATM    2  C2  UNL     1     -34.197  13.853  -3.598  1.00 20.00     0.037 C 
HETATM    3  C3  UNL     1     -34.774  14.308  -5.944  1.00 20.00     0.017 C 
HETATM    4  C4  UNL     1     -33.936  17.624  -3.233  1.00 20.00     0.280 C 
HETATM    5  C5  UNL     1     -33.599  18.075  -4.657  1.00 20.00     0.104 C 
HETATM    6  C6  UNL     1     -34.423  15.345  -3.833  1.00 20.00     0.234 C 
HETATM    7  C7  UNL     1     -34.037  15.478  -5.304  1.00 20.00     0.080 C 
HETATM    8  N8  UNL     1     -33.634  16.213  -2.968  1.00 20.00     0.089 N 
HETATM    9  S9  UNL     1     -34.482  17.112  -5.929  1.00 20.00    -0.160 SA
HETATM   10  H22 UNL     1     -32.641  16.045  -3.127  1.00 20.00     0.316 HD
ENDROOT
TORSDOF 0
ENDMDL
MODEL 4
REMARK VINA RESULT:      -3.7      1.443      3.339
REMARK  0 active torsions:
REMARK  status: ('A' for Active; 'I' for Inactive)
ROOT
HETATM    1  C1  UNL     1     -34.724  13.290  -5.017  1.00 20.00     0.003 C 
HETATM    2  C2  UNL     1     -34.639  14.470  -5.994  1.00 20.00     0.037 C 
HETATM    3  C3  UNL     1     -34.556  13.881  -3.608  1.00 20.00     0.017 C 
HETATM    4  C4  UNL     1     -33.518  17.924  -4.883  1.00 20.00     0.280 C 
HETATM    5  C5  UNL     1     -34.033  17.996  -3.442  1.00 20.00     0.104 C 
HETATM    6  C6  UNL     1     -33.993  15.583  -5.171  1.00 20.00     0.234 C 
HETATM    7  C7  UNL     1     -34.670  15.386  -3.818  1.00 20.00     0.080 C 
HETATM    8  N8  UNL     1     -34.199  16.922  -5.710  1.00 20.00     0.089 N 
HETATM    9  S9  UNL     1     -33.875  16.408  -2.559  1.00 20.00    -0.160 SA
HETATM   10  H22 UNL     1     -35.197  17.130  -5.739  1.00 20.00     0.316 HD
ENDROOT
TORSDOF 0
ENDMDL
MODEL 5
REMARK VINA RESULT:      -3.7      2.128      2.942
REMARK  0 active torsions:
REMARK  status: ('A' for Active; 'I' for Inactive)
ROOT
HETATM    1  C1  UNL     1     -34.041  17.393  -2.104  1.00 20.00     0.003 C 
HETATM    2  C2  UNL     1     -34.438  15.920  -1.940  1.00 20.00     0.037 C 
HETATM    3  C3  UNL     1     -33.948  17.649  -3.617  1.00 20.00     0.017 C 
HETATM    4  C4  UNL     1     -34.417  13.492  -4.860  1.00 20.00     0.280 C 
HETATM    5  C5  UNL     1     -34.792  14.389  -6.043  1.00 20.00     0.104 C 
HETATM    6  C6  UNL     1     -34.121  15.299  -3.298  1.00 20.00     0.234 C 
HETATM    7  C7  UNL     1     -34.569  16.408  -4.246  1.00 20.00     0.080 C 
HETATM    8  N8  UNL     1     -34.803  14.036  -3.553  1.00 20.00     0.089 N 
HETATM    9  S9  UNL     1     -34.042  16.047  -5.935  1.00 20.00    -0.160 SA
HETATM   10  H22 UNL     1     -35.812  14.182  -3.533  1.00 20.00     0.316 HD
ENDROOT
TORSDOF 0
ENDMDL
MODEL 6
REMARK VINA RESULT:      -3.7      2.083      2.662
REMARK  0 active torsions:
REMARK  status: ('A' for Active; 'I' for Inactive)
ROOT
HETATM    1  C1  UNL     1     -35.889  14.921  -7.451  1.00 20.00     0.003 C 
HETATM    2  C2  UNL     1     -34.402  15.136  -7.136  1.00 20.00     0.037 C 
HETATM    3  C3  UNL     1     -36.640  15.069  -6.119  1.00 20.00     0.017 C 
HETATM    4  C4  UNL     1     -33.102  15.271  -3.570  1.00 20.00     0.280 C 
HETATM    5  C5  UNL     1     -34.273  15.901  -2.811  1.00 20.00     0.104 C 
HETATM    6  C6  UNL     1     -34.317  14.949  -5.623  1.00 20.00     0.234 C 
HETATM    7  C7  UNL     1     -35.598  15.640  -5.164  1.00 20.00     0.080 C 
HETATM    8  N8  UNL     1     -33.123  15.525  -5.016  1.00 20.00     0.089 N 
HETATM    9  S9  UNL     1     -35.895  15.320  -3.412  1.00 20.00    -0.160 SA
HETATM   10  H22 UNL     1     -33.106  16.531  -5.182  1.00 20.00     0.316 HD
ENDROOT
TORSDOF 0
ENDMDL
MODEL 7
REMARK VINA RESULT:      -3.6      2.271      3.302
REMARK  0 active torsions:
REMARK  status: ('A' for Active; 'I' for Inactive)
ROOT
HETATM    1  C1  UNL     1     -34.344  15.930  -2.337  1.00 20.00     0.003 C 
HETATM    2  C2  UNL     1     -33.337  15.750  -3.480  1.00 20.00     0.037 C 
HETATM    3  C3  UNL     1     -35.733  15.665  -2.938  1.00 20.00     0.017 C 
HETATM    4  C4  UNL     1     -34.438  15.424  -7.099  1.00 20.00     0.280 C 
HETATM    5  C5  UNL     1     -35.783  14.702  -6.976  1.00 20.00     0.104 C 
HETATM    6  C6  UNL     1     -34.192  15.838  -4.741  1.00 20.00     0.234 C 
HETATM    7  C7  UNL     1     -35.440  15.071  -4.311  1.00 20.00     0.080 C 
HETATM    8  N8  UNL     1     -33.568  15.267  -5.928  1.00 20.00     0.089 N 
HETATM    9  S9  UNL     1     -36.752  15.260  -5.536  1.00 20.00    -0.160 SA
HETATM   10  H22 UNL     1     -33.383  14.276  -5.776  1.00 20.00     0.316 HD
ENDROOT
TORSDOF 0
ENDMDL
MODEL 8
REMARK VINA RESULT:      -3.6      1.922      3.880
REMARK  0 active torsions:
REMARK  status: ('A' for Active; 'I' for Inactive)
ROOT
HETATM    1  C1  UNL     1     -33.945  13.659  -3.497  1.00 20.00     0.003 C 
HETATM    2  C2  UNL     1     -33.284  15.011  -3.794  1.00 20.00     0.037 C 
HETATM    3  C3  UNL     1     -34.872  13.360  -4.686  1.00 20.00     0.017 C 
HETATM    4  C4  UNL     1     -34.462  17.246  -6.630  1.00 20.00     0.280 C 
HETATM    5  C5  UNL     1     -34.930  16.235  -7.680  1.00 20.00     0.104 C 
HETATM    6  C6  UNL     1     -34.170  15.625  -4.875  1.00 20.00     0.234 C 
HETATM    7  C7  UNL     1     -34.489  14.401  -5.731  1.00 20.00     0.080 C 
HETATM    8  N8  UNL     1     -33.533  16.690  -5.639  1.00 20.00     0.089 N 
HETATM    9  S9  UNL     1     -35.768  14.793  -6.943  1.00 20.00    -0.160 SA
HETATM   10  H22 UNL     1     -32.710  16.323  -6.117  1.00 20.00     0.316 HD
ENDROOT
TORSDOF 0
ENDMDL
MODEL 9
REMARK VINA RESULT:      -3.6      1.493      3.339
REMARK  0 active torsions:
REMARK  status: ('A' for Active; 'I' for Inactive)
ROOT
HETATM    1  C1  UNL     1     -33.379  13.604  -3.692  1.00 20.00     0.003 C 
HETATM    2  C2  UNL     1     -34.496  13.386  -4.721  1.00 20.00     0.037 C 
HETATM    3  C3  UNL     1     -33.022  15.097  -3.748  1.00 20.00     0.017 C 
HETATM    4  C4  UNL     1     -35.457  16.060  -7.241  1.00 20.00     0.280 C 
HETATM    5  C5  UNL     1     -35.198  17.357  -6.467  1.00 20.00     0.104 C 
HETATM    6  C6  UNL     1     -34.418  14.622  -5.614  1.00 20.00     0.234 C 
HETATM    7  C7  UNL     1     -34.133  15.716  -4.588  1.00 20.00     0.080 C 
HETATM    8  N8  UNL     1     -35.628  14.880  -6.385  1.00 20.00     0.089 N 
HETATM    9  S9  UNL     1     -33.711  17.264  -5.415  1.00 20.00    -0.160 SA
HETATM   10  H22 UNL     1     -36.412  15.034  -5.751  1.00 20.00     0.316 HD
ENDROOT
TORSDOF 0
ENDMDL
