MODEL 1
REMARK VINA RESULT:      -4.1      0.000      0.000
REMARK  2 active torsions:
REMARK  status: ('A' for Active; 'I' for Inactive)
REMARK    1  A    between atoms: C1_1  and  C3_3 
REMARK       I    between atoms: C1_1  and  N9_9 
REMARK    2  A    between atoms: C8_8  and  N9_9 
ROOT
HETATM    1  C1  UNL     1     -35.589  15.134  -3.267  1.00 20.00     0.222 C 
HETATM    2  N9  UNL     1     -34.613  15.794  -2.546  1.00 20.00    -0.357 N 
HETATM    3  O10 UNL     1     -36.738  15.518  -3.457  1.00 20.00    -0.273 OA
HETATM    4  H25 UNL     1     -33.696  15.362  -2.467  1.00 20.00     0.162 HD
ENDROOT
BRANCH   1   5
HETATM    5  C3  UNL     1     -35.149  13.857  -3.840  1.00 20.00     0.082 A 
HETATM    6  C2  UNL     1     -33.677  13.606  -4.046  1.00 20.00     0.019 A 
HETATM    7  C4  UNL     1     -34.577  13.787  -5.236  1.00 20.00    -0.005 A 
HETATM    8  C5  UNL     1     -34.438  14.995  -6.098  1.00 20.00     0.011 C 
ENDBRANCH   1   5
BRANCH   2   9
HETATM    9  C8  UNL     1     -34.832  17.067  -1.900  1.00 20.00     0.076 C 
HETATM   10  C6  UNL     1     -33.841  18.082  -2.450  1.00 20.00     0.032 C 
HETATM   11  C7  UNL     1     -34.680  16.890  -0.396  1.00 20.00     0.032 C 
ENDBRANCH   2   9
TORSDOF 2
ENDMDL
MODEL 2
REMARK VINA RESULT:      -4.0      1.446      1.859
REMARK  2 active torsions:
REMARK  status: ('A' for Active; 'I' for Inactive)
REMARK    1  A    between atoms: C1_1  and  C3_3 
REMARK       I    between atoms: C1_1  and  N9_9 
REMARK    2  A    between atoms: C8_8  and  N9_9 
ROOT
HETATM    1  C1  UNL     1     -34.078  14.985  -3.189  1.00 20.00     0.222 C 
HETATM    2  N9  UNL     1     -34.690  15.836  -2.291  1.00 20.00    -0.357 N 
HETATM    3  O10 UNL     1     -32.885  14.952  -3.464  1.00 20.00    -0.273 OA
HETATM    4  H25 UNL     1     -35.694  15.757  -2.156  1.00 20.00     0.162 HD
ENDROOT
BRANCH   1   5
HETATM    5  C3  UNL     1     -34.998  14.048  -3.847  1.00 20.00     0.082 A 
HETATM    6  C2  UNL     1     -34.491  13.178  -4.968  1.00 20.00     0.019 A 
HETATM    7  C4  UNL     1     -35.465  14.283  -5.262  1.00 20.00    -0.005 A 
HETATM    8  C5  UNL     1     -35.032  15.469  -6.056  1.00 20.00     0.011 C 
ENDBRANCH   1   5
BRANCH   2   9
HETATM    9  C8  UNL     1     -33.971  16.834  -1.532  1.00 20.00     0.076 C 
HETATM   10  C6  UNL     1     -34.702  17.086  -0.221  1.00 20.00     0.032 C 
HETATM   11  C7  UNL     1     -33.860  18.102  -2.367  1.00 20.00     0.032 C 
ENDBRANCH   2   9
TORSDOF 2
ENDMDL
MODEL 3
REMARK VINA RESULT:      -4.0     12.356     13.959
REMARK  2 active torsions:
REMARK  status: ('A' for Active; 'I' for Inactive)
REMARK    1  A    between atoms: C1_1  and  C3_3 
REMARK       I    between atoms: C1_1  and  N9_9 
REMARK    2  A    between atoms: C8_8  and  N9_9 
ROOT
HETATM    1  C1  UNL     1     -41.846   4.017  -1.397  1.00 20.00     0.222 C 
HETATM    2  N9  UNL     1     -41.453   3.281  -2.497  1.00 20.00    -0.357 N 
HETATM    3  O10 UNL     1     -42.909   3.915  -0.795  1.00 20.00    -0.273 OA
HETATM    4  H25 UNL     1     -40.539   3.467  -2.901  1.00 20.00     0.162 HD
ENDROOT
BRANCH   1   5
HETATM    5  C3  UNL     1     -40.852   4.998  -0.947  1.00 20.00     0.082 A 
HETATM    6  C2  UNL     1     -41.230   6.004   0.111  1.00 20.00     0.019 A 
HETATM    7  C4  UNL     1     -40.987   6.459  -1.300  1.00 20.00    -0.005 A 
HETATM    8  C5  UNL     1     -42.118   6.976  -2.123  1.00 20.00     0.011 C 
ENDBRANCH   1   5
BRANCH   2   9
HETATM    9  C8  UNL     1     -42.277   2.260  -3.102  1.00 20.00     0.076 C 
HETATM   10  C6  UNL     1     -41.400   1.344  -3.942  1.00 20.00     0.032 C 
HETATM   11  C7  UNL     1     -43.356   2.930  -3.940  1.00 20.00     0.032 C 
ENDBRANCH   2   9
TORSDOF 2
ENDMDL
MODEL 4
REMARK VINA RESULT:      -3.9     10.136     11.152
REMARK  2 active torsions:
REMARK  status: ('A' for Active; 'I' for Inactive)
REMARK    1  A    between atoms: C1_1  and  C3_3 
REMARK       I    between atoms: C1_1  and  N9_9 
REMARK    2  A    between atoms: C8_8  and  N9_9 
ROOT
HETATM    1  C1  UNL     1     -32.327   6.947   3.304  1.00 20.00     0.222 C 
HETATM    2  N9  UNL     1     -32.711   7.614   2.158  1.00 20.00    -0.357 N 
HETATM    3  O10 UNL     1     -31.407   7.255   4.052  1.00 20.00    -0.273 OA
HETATM    4  H25 UNL     1     -33.497   7.249   1.627  1.00 20.00     0.162 HD
ENDROOT
BRANCH   1   5
HETATM    5  C3  UNL     1     -33.138   5.761   3.606  1.00 20.00     0.082 A 
HETATM    6  C2  UNL     1     -34.641   5.873   3.609  1.00 20.00     0.019 A 
HETATM    7  C4  UNL     1     -33.906   5.655   4.901  1.00 20.00    -0.005 A 
HETATM    8  C5  UNL     1     -33.876   6.730   5.933  1.00 20.00     0.011 C 
ENDBRANCH   1   5
BRANCH   2   9
HETATM    9  C8  UNL     1     -32.051   8.806   1.678  1.00 20.00     0.076 C 
HETATM   10  C6  UNL     1     -32.841  10.028   2.125  1.00 20.00     0.032 C 
HETATM   11  C7  UNL     1     -31.940   8.732   0.162  1.00 20.00     0.032 C 
ENDBRANCH   2   9
TORSDOF 2
ENDMDL
MODEL 5
REMARK VINA RESULT:      -3.9      1.069      4.316
REMARK  2 active torsions:
REMARK  status: ('A' for Active; 'I' for Inactive)
REMARK    1  A    between atoms: C1_1  and  C3_3 
REMARK       I    between atoms: C1_1  and  N9_9 
REMARK    2  A    between atoms: C8_8  and  N9_9 
ROOT
HETATM    1  C1  UNL     1     -35.153  16.135  -2.350  1.00 20.00     0.222 C 
HETATM    2  N9  UNL     1     -34.438  15.238  -3.118  1.00 20.00    -0.357 N 
HETATM    3  O10 UNL     1     -36.206  16.681  -2.659  1.00 20.00    -0.273 OA
HETATM    4  H25 UNL     1     -33.575  14.857  -2.739  1.00 20.00     0.162 HD
ENDROOT
BRANCH   1   5
HETATM    5  C3  UNL     1     -34.547  16.421  -1.044  1.00 20.00     0.082 A 
HETATM    6  C2  UNL     1     -35.089  17.551  -0.208  1.00 20.00     0.019 A 
HETATM    7  C4  UNL     1     -33.725  17.667  -0.825  1.00 20.00    -0.005 A 
HETATM    8  C5  UNL     1     -33.479  18.658  -1.912  1.00 20.00     0.011 C 
ENDBRANCH   1   5
BRANCH   2   9
HETATM    9  C8  UNL     1     -34.856  14.815  -4.435  1.00 20.00     0.076 C 
HETATM   10  C6  UNL     1     -34.616  13.319  -4.578  1.00 20.00     0.032 C 
HETATM   11  C7  UNL     1     -34.083  15.611  -5.477  1.00 20.00     0.032 C 
ENDBRANCH   2   9
TORSDOF 2
ENDMDL
MODEL 6
REMARK VINA RESULT:      -3.9      2.305      3.439
REMARK  2 active torsions:
REMARK  status: ('A' for Active; 'I' for Inactive)
REMARK    1  A    between atoms: C1_1  and  C3_3 
REMARK       I    between atoms: C1_1  and  N9_9 
REMARK    2  A    between atoms: C8_8  and  N9_9 
ROOT
HETATM    1  C1  UNL     1     -35.310  14.062  -3.921  1.00 20.00     0.222 C 
HETATM    2  N9  UNL     1     -36.390  14.909  -3.766  1.00 20.00    -0.357 N 
HETATM    3  O10 UNL     1     -35.286  13.025  -4.573  1.00 20.00    -0.273 OA
HETATM    4  H25 UNL     1     -36.274  15.741  -3.194  1.00 20.00     0.162 HD
ENDROOT
BRANCH   1   5
HETATM    5  C3  UNL     1     -34.101  14.500  -3.214  1.00 20.00     0.082 A 
HETATM    6  C2  UNL     1     -34.037  15.897  -2.651  1.00 20.00     0.019 A 
HETATM    7  C4  UNL     1     -33.174  15.525  -3.823  1.00 20.00    -0.005 A 
HETATM    8  C5  UNL     1     -33.428  16.131  -5.160  1.00 20.00     0.011 C 
ENDBRANCH   1   5
BRANCH   2   9
HETATM    9  C8  UNL     1     -37.677  14.669  -4.377  1.00 20.00     0.076 C 
HETATM   10  C6  UNL     1     -37.724  15.361  -5.731  1.00 20.00     0.032 C 
HETATM   11  C7  UNL     1     -38.768  15.179  -3.446  1.00 20.00     0.032 C 
ENDBRANCH   2   9
TORSDOF 2
ENDMDL
MODEL 7
REMARK VINA RESULT:      -3.9     12.519     14.174
REMARK  2 active torsions:
REMARK  status: ('A' for Active; 'I' for Inactive)
REMARK    1  A    between atoms: C1_1  and  C3_3 
REMARK       I    between atoms: C1_1  and  N9_9 
REMARK    2  A    between atoms: C8_8  and  N9_9 
ROOT
HETATM    1  C1  UNL     1     -42.138   4.847  -2.414  1.00 20.00     0.222 C 
HETATM    2  N9  UNL     1     -41.744   3.523  -2.412  1.00 20.00    -0.357 N 
HETATM    3  O10 UNL     1     -43.042   5.336  -3.081  1.00 20.00    -0.273 OA
HETATM    4  H25 UNL     1     -40.975   3.249  -1.807  1.00 20.00     0.162 HD
ENDROOT
BRANCH   1   5
HETATM    5  C3  UNL     1     -41.365   5.702  -1.506  1.00 20.00     0.082 A 
HETATM    6  C2  UNL     1     -40.519   5.068  -0.431  1.00 20.00     0.019 A 
HETATM    7  C4  UNL     1     -41.750   5.842  -0.053  1.00 20.00    -0.005 A 
HETATM    8  C5  UNL     1     -42.927   5.135   0.528  1.00 20.00     0.011 C 
ENDBRANCH   1   5
BRANCH   2   9
HETATM    9  C8  UNL     1     -42.371   2.511  -3.230  1.00 20.00     0.076 C 
HETATM   10  C6  UNL     1     -43.262   1.643  -2.352  1.00 20.00     0.032 C 
HETATM   11  C7  UNL     1     -41.289   1.691  -3.917  1.00 20.00     0.032 C 
ENDBRANCH   2   9
TORSDOF 2
ENDMDL
MODEL 8
REMARK VINA RESULT:      -3.9     11.674     12.602
REMARK  2 active torsions:
REMARK  status: ('A' for Active; 'I' for Inactive)
REMARK    1  A    between atoms: C1_1  and  C3_3 
REMARK       I    between atoms: C1_1  and  N9_9 
REMARK    2  A    between atoms: C8_8  and  N9_9 
ROOT
HETATM    1  C1  UNL     1     -34.057   5.887   3.798  1.00 20.00     0.222 C 
HETATM    2  N9  UNL     1     -33.041   6.767   4.111  1.00 20.00    -0.357 N 
HETATM    3  O10 UNL     1     -34.186   5.267   2.749  1.00 20.00    -0.273 OA
HETATM    4  H25 UNL     1     -33.054   7.216   5.023  1.00 20.00     0.162 HD
ENDROOT
BRANCH   1   5
HETATM    5  C3  UNL     1     -35.050   5.715   4.866  1.00 20.00     0.082 A 
HETATM    6  C2  UNL     1     -34.619   5.842   6.305  1.00 20.00     0.019 A 
HETATM    7  C4  UNL     1     -35.024   4.501   5.762  1.00 20.00    -0.005 A 
HETATM    8  C5  UNL     1     -34.008   3.421   5.608  1.00 20.00     0.011 C 
ENDBRANCH   1   5
BRANCH   2   9
HETATM    9  C8  UNL     1     -31.959   7.081   3.206  1.00 20.00     0.076 C 
HETATM   10  C6  UNL     1     -30.796   7.658   4.000  1.00 20.00     0.032 C 
HETATM   11  C7  UNL     1     -32.464   8.059   2.155  1.00 20.00     0.032 C 
ENDBRANCH   2   9
TORSDOF 2
ENDMDL
MODEL 9
REMARK VINA RESULT:      -3.9      1.627      4.317
REMARK  2 active torsions:
REMARK  status: ('A' for Active; 'I' for Inactive)
REMARK    1  A    between atoms: C1_1  and  C3_3 
REMARK       I    between atoms: C1_1  and  N9_9 
REMARK    2  A    between atoms: C8_8  and  N9_9 
ROOT
HETATM    1  C1  UNL     1     -34.103  16.230  -3.019  1.00 20.00     0.222 C 
HETATM    2  N9  UNL     1     -35.170  15.355  -2.968  1.00 20.00    -0.357 N 
HETATM    3  O10 UNL     1     -33.488  16.568  -4.024  1.00 20.00    -0.273 OA
HETATM    4  H25 UNL     1     -35.592  15.161  -2.064  1.00 20.00     0.162 HD
ENDROOT
BRANCH   1   5
HETATM    5  C3  UNL     1     -33.715  16.778  -1.715  1.00 20.00     0.082 A 
HETATM    6  C2  UNL     1     -34.701  16.743  -0.574  1.00 20.00     0.019 A 
HETATM    7  C4  UNL     1     -34.325  18.058  -1.197  1.00 20.00    -0.005 A 
HETATM    8  C5  UNL     1     -35.335  18.829  -1.977  1.00 20.00     0.011 C 
ENDBRANCH   1   5
BRANCH   2   9
HETATM    9  C8  UNL     1     -35.716  14.703  -4.136  1.00 20.00     0.076 C 
HETATM   10  C6  UNL     1     -37.231  14.632  -4.006  1.00 20.00     0.032 C 
HETATM   11  C7  UNL     1     -35.096  13.319  -4.263  1.00 20.00     0.032 C 
ENDBRANCH   2   9
TORSDOF 2
ENDMDL
