MODEL 1
REMARK VINA RESULT:      -4.9      0.000      0.000
REMARK  3 active torsions:
REMARK  status: ('A' for Active; 'I' for Inactive)
REMARK    1  A    between atoms: C5_5  and  C9_9 
REMARK    2  A    between atoms: C6_6  and  C10_10 
REMARK    3  A    between atoms: C6_6  and  O11_11 
ROOT
HETATM    1  C1  UNL     1     -33.545  17.206  -5.271  1.00 20.00     0.003 C 
HETATM    2  C2  UNL     1     -34.137  17.870  -4.032  1.00 20.00     0.005 C 
HETATM    3  C3  UNL     1     -33.790  15.698  -5.276  1.00 20.00     0.038 C 
HETATM    4  C4  UNL     1     -33.858  15.716  -2.735  1.00 20.00     0.042 C 
HETATM    5  C5  UNL     1     -33.608  17.234  -2.741  1.00 20.00    -0.012 C 
HETATM    6  C6  UNL     1     -33.310  15.010  -3.987  1.00 20.00     0.058 C 
ENDROOT
BRANCH   6   7
HETATM    7  C10 UNL     1     -33.697  13.531  -3.992  1.00 20.00     0.033 C 
HETATM    8  C8  UNL     1     -35.038  13.316  -4.612  1.00 20.00     0.008 C 
ENDBRANCH   6   7
BRANCH   6   9
HETATM    9  O11 UNL     1     -31.880  15.087  -3.966  1.00 20.00    -0.390 OA
HETATM   10  H31 UNL     1     -31.596  14.598  -3.181  1.00 20.00     0.210 HD
ENDBRANCH   6   9
BRANCH   5  11
HETATM   11  C9  UNL     1     -34.246  17.890  -1.516  1.00 20.00     0.000 C 
HETATM   12  C7  UNL     1     -34.661  16.877  -0.501  1.00 20.00     0.005 C 
ENDBRANCH   5  11
TORSDOF 3
ENDMDL
MODEL 2
REMARK VINA RESULT:      -4.9      0.860      1.032
REMARK  3 active torsions:
REMARK  status: ('A' for Active; 'I' for Inactive)
REMARK    1  A    between atoms: C5_5  and  C9_9 
REMARK    2  A    between atoms: C6_6  and  C10_10 
REMARK    3  A    between atoms: C6_6  and  O11_11 
ROOT
HETATM    1  C1  UNL     1     -33.556  17.902  -4.276  1.00 20.00     0.003 C 
HETATM    2  C2  UNL     1     -34.206  17.921  -2.897  1.00 20.00     0.005 C 
HETATM    3  C3  UNL     1     -33.986  16.679  -5.086  1.00 20.00     0.038 C 
HETATM    4  C4  UNL     1     -34.360  15.397  -2.923  1.00 20.00     0.042 C 
HETATM    5  C5  UNL     1     -33.922  16.632  -2.117  1.00 20.00    -0.012 C 
HETATM    6  C6  UNL     1     -33.756  15.355  -4.338  1.00 20.00     0.058 C 
ENDROOT
BRANCH   6   7
HETATM    7  C10 UNL     1     -34.322  14.181  -5.138  1.00 20.00     0.033 C 
HETATM    8  C8  UNL     1     -35.157  13.286  -4.282  1.00 20.00     0.008 C 
ENDBRANCH   6   7
BRANCH   6   9
HETATM    9  O11 UNL     1     -32.341  15.165  -4.225  1.00 20.00    -0.390 OA
HETATM   10  H31 UNL     1     -32.010  15.070  -5.130  1.00 20.00     0.210 HD
ENDBRANCH   6   9
BRANCH   5  11
HETATM   11  C9  UNL     1     -34.617  16.661  -0.755  1.00 20.00     0.000 C 
HETATM   12  C7  UNL     1     -34.164  17.820   0.070  1.00 20.00     0.005 C 
ENDBRANCH   5  11
TORSDOF 3
ENDMDL
MODEL 3
REMARK VINA RESULT:      -4.7      2.393      3.183
REMARK  3 active torsions:
REMARK  status: ('A' for Active; 'I' for Inactive)
REMARK    1  A    between atoms: C5_5  and  C9_9 
REMARK    2  A    between atoms: C6_6  and  C10_10 
REMARK    3  A    between atoms: C6_6  and  O11_11 
ROOT
HETATM    1  C1  UNL     1     -34.143  13.451  -4.393  1.00 20.00     0.003 C 
HETATM    2  C2  UNL     1     -33.528  14.574  -3.564  1.00 20.00     0.005 C 
HETATM    3  C3  UNL     1     -35.177  13.982  -5.385  1.00 20.00     0.038 C 
HETATM    4  C4  UNL     1     -35.641  15.939  -3.831  1.00 20.00     0.042 C 
HETATM    5  C5  UNL     1     -34.600  15.395  -2.837  1.00 20.00    -0.012 C 
HETATM    6  C6  UNL     1     -36.260  14.843  -4.715  1.00 20.00     0.058 C 
ENDROOT
BRANCH   6   7
HETATM    7  C10 UNL     1     -37.188  15.452  -5.768  1.00 20.00     0.033 C 
HETATM    8  C8  UNL     1     -36.750  15.106  -7.152  1.00 20.00     0.008 C 
ENDBRANCH   6   7
BRANCH   6   9
HETATM    9  O11 UNL     1     -37.046  13.978  -3.888  1.00 20.00    -0.390 OA
HETATM   10  H31 UNL     1     -37.789  14.512  -3.571  1.00 20.00     0.210 HD
ENDBRANCH   6   9
BRANCH   5  11
HETATM   11  C9  UNL     1     -33.961  16.536  -2.046  1.00 20.00     0.000 C 
HETATM   12  C7  UNL     1     -34.608  16.712  -0.712  1.00 20.00     0.005 C 
ENDBRANCH   5  11
TORSDOF 3
ENDMDL
MODEL 4
REMARK VINA RESULT:      -4.6      2.666      4.477
REMARK  3 active torsions:
REMARK  status: ('A' for Active; 'I' for Inactive)
REMARK    1  A    between atoms: C5_5  and  C9_9 
REMARK    2  A    between atoms: C6_6  and  C10_10 
REMARK    3  A    between atoms: C6_6  and  O11_11 
ROOT
HETATM    1  C1  UNL     1     -37.160  14.981  -4.293  1.00 20.00     0.003 C 
HETATM    2  C2  UNL     1     -36.921  15.456  -5.723  1.00 20.00     0.005 C 
HETATM    3  C3  UNL     1     -35.848  14.798  -3.532  1.00 20.00     0.038 C 
HETATM    4  C4  UNL     1     -34.657  14.328  -5.728  1.00 20.00     0.042 C 
HETATM    5  C5  UNL     1     -35.984  14.511  -6.485  1.00 20.00    -0.012 C 
HETATM    6  C6  UNL     1     -34.852  13.886  -4.267  1.00 20.00     0.058 C 
ENDROOT
BRANCH   6   7
HETATM    7  C10 UNL     1     -33.515  13.844  -3.527  1.00 20.00     0.033 C 
HETATM    8  C8  UNL     1     -32.754  15.117  -3.697  1.00 20.00     0.008 C 
ENDBRANCH   6   7
BRANCH   6   9
HETATM    9  O11 UNL     1     -35.398  12.561  -4.260  1.00 20.00    -0.390 OA
HETATM   10  H31 UNL     1     -34.659  11.965  -4.452  1.00 20.00     0.210 HD
ENDBRANCH   6   9
BRANCH   5  11
HETATM   11  C9  UNL     1     -35.730  15.029  -7.900  1.00 20.00     0.000 C 
HETATM   12  C7  UNL     1     -34.972  16.315  -7.890  1.00 20.00     0.005 C 
ENDBRANCH   5  11
TORSDOF 3
ENDMDL
MODEL 5
REMARK VINA RESULT:      -4.4     12.269     13.703
REMARK  3 active torsions:
REMARK  status: ('A' for Active; 'I' for Inactive)
REMARK    1  A    between atoms: C5_5  and  C9_9 
REMARK    2  A    between atoms: C6_6  and  C10_10 
REMARK    3  A    between atoms: C6_6  and  O11_11 
ROOT
HETATM    1  C1  UNL     1     -40.714   5.852  -0.279  1.00 20.00     0.003 C 
HETATM    2  C2  UNL     1     -41.183   7.060  -1.083  1.00 20.00     0.005 C 
HETATM    3  C3  UNL     1     -40.691   4.582  -1.129  1.00 20.00     0.038 C 
HETATM    4  C4  UNL     1     -42.536   5.544  -2.590  1.00 20.00     0.042 C 
HETATM    5  C5  UNL     1     -42.554   6.817  -1.726  1.00 20.00    -0.012 C 
HETATM    6  C6  UNL     1     -42.033   4.305  -1.828  1.00 20.00     0.058 C 
ENDROOT
BRANCH   6   7
HETATM    7  C10 UNL     1     -41.913   3.101  -2.763  1.00 20.00     0.033 C 
HETATM    8  C8  UNL     1     -43.045   3.046  -3.735  1.00 20.00     0.008 C 
ENDBRANCH   6   7
BRANCH   6   9
HETATM    9  O11 UNL     1     -42.986   3.976  -0.812  1.00 20.00    -0.390 OA
HETATM   10  H31 UNL     1     -43.713   3.522  -1.262  1.00 20.00     0.210 HD
ENDBRANCH   6   9
BRANCH   5  11
HETATM   11  C9  UNL     1     -42.982   8.026  -2.557  1.00 20.00     0.000 C 
HETATM   12  C7  UNL     1     -42.493   7.930  -3.964  1.00 20.00     0.005 C 
ENDBRANCH   5  11
TORSDOF 3
ENDMDL
MODEL 6
REMARK VINA RESULT:      -4.3      2.380      2.862
REMARK  3 active torsions:
REMARK  status: ('A' for Active; 'I' for Inactive)
REMARK    1  A    between atoms: C5_5  and  C9_9 
REMARK    2  A    between atoms: C6_6  and  C10_10 
REMARK    3  A    between atoms: C6_6  and  O11_11 
ROOT
HETATM    1  C1  UNL     1     -34.329  15.114  -5.695  1.00 20.00     0.003 C 
HETATM    2  C2  UNL     1     -33.788  16.016  -4.591  1.00 20.00     0.005 C 
HETATM    3  C3  UNL     1     -35.850  14.978  -5.618  1.00 20.00     0.038 C 
HETATM    4  C4  UNL     1     -35.746  15.400  -3.113  1.00 20.00     0.042 C 
HETATM    5  C5  UNL     1     -34.216  15.532  -3.201  1.00 20.00    -0.012 C 
HETATM    6  C6  UNL     1     -36.340  14.527  -4.232  1.00 20.00     0.058 C 
ENDROOT
BRANCH   6   7
HETATM    7  C10 UNL     1     -37.868  14.534  -4.175  1.00 20.00     0.033 C 
HETATM    8  C8  UNL     1     -38.419  15.906  -4.385  1.00 20.00     0.008 C 
ENDBRANCH   6   7
BRANCH   6   9
HETATM    9  O11 UNL     1     -35.902  13.177  -4.039  1.00 20.00    -0.390 OA
HETATM   10  H31 UNL     1     -35.285  12.989  -4.761  1.00 20.00     0.210 HD
ENDBRANCH   6   9
BRANCH   5  11
HETATM   11  C9  UNL     1     -33.693  16.475  -2.117  1.00 20.00     0.000 C 
HETATM   12  C7  UNL     1     -34.640  16.573  -0.968  1.00 20.00     0.005 C 
ENDBRANCH   5  11
TORSDOF 3
ENDMDL
MODEL 7
REMARK VINA RESULT:      -4.3      2.225      3.355
REMARK  3 active torsions:
REMARK  status: ('A' for Active; 'I' for Inactive)
REMARK    1  A    between atoms: C5_5  and  C9_9 
REMARK    2  A    between atoms: C6_6  and  C10_10 
REMARK    3  A    between atoms: C6_6  and  O11_11 
ROOT
HETATM    1  C1  UNL     1     -34.761  13.269  -4.445  1.00 20.00     0.003 C 
HETATM    2  C2  UNL     1     -33.990  14.154  -3.472  1.00 20.00     0.005 C 
HETATM    3  C3  UNL     1     -35.115  14.016  -5.731  1.00 20.00     0.038 C 
HETATM    4  C4  UNL     1     -35.105  16.207  -4.441  1.00 20.00     0.042 C 
HETATM    5  C5  UNL     1     -34.753  15.445  -3.152  1.00 20.00    -0.012 C 
HETATM    6  C6  UNL     1     -35.853  15.339  -5.469  1.00 20.00     0.058 C 
ENDROOT
BRANCH   6   7
HETATM    7  C10 UNL     1     -36.064  16.104  -6.777  1.00 20.00     0.033 C 
HETATM    8  C8  UNL     1     -34.799  16.209  -7.562  1.00 20.00     0.008 C 
ENDBRANCH   6   7
BRANCH   6   9
HETATM    9  O11 UNL     1     -37.143  15.014  -4.940  1.00 20.00    -0.390 OA
HETATM   10  H31 UNL     1     -37.363  14.137  -5.286  1.00 20.00     0.210 HD
ENDBRANCH   6   9
BRANCH   5  11
HETATM   11  C9  UNL     1     -33.941  16.331  -2.207  1.00 20.00     0.000 C 
HETATM   12  C7  UNL     1     -34.659  16.566  -0.920  1.00 20.00     0.005 C 
ENDBRANCH   5  11
TORSDOF 3
ENDMDL
MODEL 8
REMARK VINA RESULT:      -4.2     12.001     13.929
REMARK  3 active torsions:
REMARK  status: ('A' for Active; 'I' for Inactive)
REMARK    1  A    between atoms: C5_5  and  C9_9 
REMARK    2  A    between atoms: C6_6  and  C10_10 
REMARK    3  A    between atoms: C6_6  and  O11_11 
ROOT
HETATM    1  C1  UNL     1     -42.004   5.594   0.208  1.00 20.00     0.003 C 
HETATM    2  C2  UNL     1     -42.244   4.291  -0.548  1.00 20.00     0.005 C 
HETATM    3  C3  UNL     1     -42.622   6.789  -0.517  1.00 20.00     0.038 C 
HETATM    4  C4  UNL     1     -42.355   5.567  -2.730  1.00 20.00     0.042 C 
HETATM    5  C5  UNL     1     -41.732   4.370  -1.991  1.00 20.00    -0.012 C 
HETATM    6  C6  UNL     1     -42.169   6.899  -1.982  1.00 20.00     0.058 C 
ENDROOT
BRANCH   6   7
HETATM    7  C10 UNL     1     -42.916   8.030  -2.691  1.00 20.00     0.033 C 
HETATM    8  C8  UNL     1     -42.643   8.032  -4.159  1.00 20.00     0.008 C 
ENDBRANCH   6   7
BRANCH   6   9
HETATM    9  O11 UNL     1     -40.776   7.230  -1.978  1.00 20.00    -0.390 OA
HETATM   10  H31 UNL     1     -40.459   7.070  -2.879  1.00 20.00     0.210 HD
ENDBRANCH   6   9
BRANCH   5  11
HETATM   11  C9  UNL     1     -42.019   3.067  -2.737  1.00 20.00     0.000 C 
HETATM   12  C7  UNL     1     -43.225   3.185  -3.609  1.00 20.00     0.005 C 
ENDBRANCH   5  11
TORSDOF 3
ENDMDL
MODEL 9
REMARK VINA RESULT:      -4.2      1.813      4.195
REMARK  3 active torsions:
REMARK  status: ('A' for Active; 'I' for Inactive)
REMARK    1  A    between atoms: C5_5  and  C9_9 
REMARK    2  A    between atoms: C6_6  and  C10_10 
REMARK    3  A    between atoms: C6_6  and  O11_11 
ROOT
HETATM    1  C1  UNL     1     -34.083  18.015  -3.862  1.00 20.00     0.003 C 
HETATM    2  C2  UNL     1     -33.521  16.656  -4.265  1.00 20.00     0.005 C 
HETATM    3  C3  UNL     1     -34.145  18.172  -2.343  1.00 20.00     0.038 C 
HETATM    4  C4  UNL     1     -34.376  15.652  -2.107  1.00 20.00     0.042 C 
HETATM    5  C5  UNL     1     -34.315  15.505  -3.637  1.00 20.00    -0.012 C 
HETATM    6  C6  UNL     1     -34.903  17.025  -1.654  1.00 20.00     0.058 C 
ENDROOT
BRANCH   6   7
HETATM    7  C10 UNL     1     -34.821  17.165  -0.133  1.00 20.00     0.033 C 
HETATM    8  C8  UNL     1     -33.773  18.148   0.272  1.00 20.00     0.008 C 
ENDBRANCH   6   7
BRANCH   6   9
HETATM    9  O11 UNL     1     -36.280  17.133  -2.030  1.00 20.00    -0.390 OA
HETATM   10  H31 UNL     1     -36.785  17.132  -1.204  1.00 20.00     0.210 HD
ENDBRANCH   6   9
BRANCH   5  11
HETATM   11  C9  UNL     1     -33.709  14.156  -4.025  1.00 20.00     0.000 C 
HETATM   12  C7  UNL     1     -34.688  13.301  -4.759  1.00 20.00     0.005 C 
ENDBRANCH   5  11
TORSDOF 3
ENDMDL
