MODEL 1
REMARK VINA RESULT:      -4.7      0.000      0.000
REMARK  1 active torsions:
REMARK  status: ('A' for Active; 'I' for Inactive)
REMARK    1  A    between atoms: C8_8  and  C10_10 
ROOT
HETATM    1  C1  UNL     1     -34.305  13.485  -4.285  1.00 20.00     0.088 C 
HETATM    2  C2  UNL     1     -34.453  15.445  -2.892  1.00 20.00    -0.070 C 
HETATM    3  C3  UNL     1     -33.713  14.500  -3.492  1.00 20.00     0.096 C 
HETATM    4  C4  UNL     1     -35.948  15.489  -3.022  1.00 20.00     0.035 C 
HETATM    5  C5  UNL     1     -33.821  16.557  -2.089  1.00 20.00     0.039 C 
HETATM    6  C6  UNL     1     -36.432  16.822  -3.601  1.00 20.00     0.005 C 
HETATM    7  C7  UNL     1     -35.455  17.988  -3.409  1.00 20.00     0.005 C 
HETATM    8  C8  UNL     1     -34.618  17.879  -2.128  1.00 20.00    -0.011 C 
HETATM    9  N11 UNL     1     -34.780  12.652  -4.937  1.00 20.00    -0.192 NA
ENDROOT
BRANCH   8  10
HETATM   10  C10 UNL     1     -35.481  18.062  -0.874  1.00 20.00     0.000 C 
HETATM   11  C9  UNL     1     -34.928  17.308   0.290  1.00 20.00     0.005 C 
ENDBRANCH   8  10
TORSDOF 1
ENDMDL
MODEL 2
REMARK VINA RESULT:      -4.6      2.581      4.539
REMARK  1 active torsions:
REMARK  status: ('A' for Active; 'I' for Inactive)
REMARK    1  A    between atoms: C8_8  and  C10_10 
ROOT
HETATM    1  C1  UNL     1     -34.423  16.724  -1.107  1.00 20.00     0.088 C 
HETATM    2  C2  UNL     1     -34.364  15.860  -3.355  1.00 20.00    -0.070 C 
HETATM    3  C3  UNL     1     -33.721  16.296  -2.261  1.00 20.00     0.096 C 
HETATM    4  C4  UNL     1     -35.862  15.796  -3.427  1.00 20.00     0.035 C 
HETATM    5  C5  UNL     1     -33.617  15.355  -4.567  1.00 20.00     0.039 C 
HETATM    6  C6  UNL     1     -36.359  14.379  -3.731  1.00 20.00     0.005 C 
HETATM    7  C7  UNL     1     -35.331  13.484  -4.430  1.00 20.00     0.005 C 
HETATM    8  C8  UNL     1     -34.370  14.255  -5.345  1.00 20.00    -0.011 C 
HETATM    9  N11 UNL     1     -34.990  17.075  -0.158  1.00 20.00    -0.192 NA
ENDROOT
BRANCH   8  10
HETATM   10  C10 UNL     1     -35.093  14.818  -6.573  1.00 20.00     0.000 C 
HETATM   11  C9  UNL     1     -34.411  16.035  -7.104  1.00 20.00     0.005 C 
ENDBRANCH   8  10
TORSDOF 1
ENDMDL
MODEL 3
REMARK VINA RESULT:      -4.5     12.350     13.719
REMARK  1 active torsions:
REMARK  status: ('A' for Active; 'I' for Inactive)
REMARK    1  A    between atoms: C8_8  and  C10_10 
ROOT
HETATM    1  C1  UNL     1     -41.877   2.090  -4.182  1.00 20.00     0.088 C 
HETATM    2  C2  UNL     1     -41.812   3.719  -2.408  1.00 20.00    -0.070 C 
HETATM    3  C3  UNL     1     -41.250   2.691  -3.061  1.00 20.00     0.096 C 
HETATM    4  C4  UNL     1     -43.134   4.299  -2.820  1.00 20.00     0.035 C 
HETATM    5  C5  UNL     1     -41.122   4.394  -1.246  1.00 20.00     0.039 C 
HETATM    6  C6  UNL     1     -43.028   5.794  -3.138  1.00 20.00     0.005 C 
HETATM    7  C7  UNL     1     -41.842   6.500  -2.473  1.00 20.00     0.005 C 
HETATM    8  C8  UNL     1     -41.453   5.897  -1.117  1.00 20.00    -0.011 C 
HETATM    9  N11 UNL     1     -42.383   1.593  -5.100  1.00 20.00    -0.192 NA
ENDROOT
BRANCH   8  10
HETATM   10  C10 UNL     1     -42.528   6.156  -0.057  1.00 20.00     0.000 C 
HETATM   11  C9  UNL     1     -42.724   4.971   0.830  1.00 20.00     0.005 C 
ENDBRANCH   8  10
TORSDOF 1
ENDMDL
MODEL 4
REMARK VINA RESULT:      -4.5      1.823      2.182
REMARK  1 active torsions:
REMARK  status: ('A' for Active; 'I' for Inactive)
REMARK    1  A    between atoms: C8_8  and  C10_10 
ROOT
HETATM    1  C1  UNL     1     -35.261  14.419  -6.937  1.00 20.00     0.088 C 
HETATM    2  C2  UNL     1     -34.743  15.038  -4.666  1.00 20.00    -0.070 C 
HETATM    3  C3  UNL     1     -34.503  14.279  -5.747  1.00 20.00     0.096 C 
HETATM    4  C4  UNL     1     -35.823  16.080  -4.648  1.00 20.00     0.035 C 
HETATM    5  C5  UNL     1     -33.903  14.926  -3.416  1.00 20.00     0.039 C 
HETATM    6  C6  UNL     1     -35.269  17.472  -4.327  1.00 20.00     0.005 C 
HETATM    7  C7  UNL     1     -33.937  17.463  -3.568  1.00 20.00     0.005 C 
HETATM    8  C8  UNL     1     -33.771  16.254  -2.638  1.00 20.00    -0.011 C 
HETATM    9  N11 UNL     1     -35.875  14.528  -7.914  1.00 20.00    -0.192 NA
ENDROOT
BRANCH   8  10
HETATM   10  C10 UNL     1     -34.738  16.319  -1.452  1.00 20.00     0.000 C 
HETATM   11  C9  UNL     1     -34.263  17.272  -0.405  1.00 20.00     0.005 C 
ENDBRANCH   8  10
TORSDOF 1
ENDMDL
MODEL 5
REMARK VINA RESULT:      -4.4      2.646      4.378
REMARK  1 active torsions:
REMARK  status: ('A' for Active; 'I' for Inactive)
REMARK    1  A    between atoms: C8_8  and  C10_10 
ROOT
HETATM    1  C1  UNL     1     -33.647  17.537  -0.795  1.00 20.00     0.088 C 
HETATM    2  C2  UNL     1     -34.523  16.139  -2.551  1.00 20.00    -0.070 C 
HETATM    3  C3  UNL     1     -34.520  16.524  -1.266  1.00 20.00     0.096 C 
HETATM    4  C4  UNL     1     -33.608  16.754  -3.570  1.00 20.00     0.035 C 
HETATM    5  C5  UNL     1     -35.487  15.096  -3.065  1.00 20.00     0.039 C 
HETATM    6  C6  UNL     1     -34.385  17.366  -4.739  1.00 20.00     0.005 C 
HETATM    7  C7  UNL     1     -35.786  16.780  -4.944  1.00 20.00     0.005 C 
HETATM    8  C8  UNL     1     -35.897  15.305  -4.539  1.00 20.00    -0.011 C 
HETATM    9  N11 UNL     1     -32.937  18.366  -0.402  1.00 20.00    -0.192 NA
ENDROOT
BRANCH   8  10
HETATM   10  C10 UNL     1     -35.103  14.399  -5.486  1.00 20.00     0.000 C 
HETATM   11  C9  UNL     1     -34.614  13.170  -4.792  1.00 20.00     0.005 C 
ENDBRANCH   8  10
TORSDOF 1
ENDMDL
MODEL 6
REMARK VINA RESULT:      -4.4      2.245      3.043
REMARK  1 active torsions:
REMARK  status: ('A' for Active; 'I' for Inactive)
REMARK    1  A    between atoms: C8_8  and  C10_10 
ROOT
HETATM    1  C1  UNL     1     -36.658  15.268  -6.771  1.00 20.00     0.088 C 
HETATM    2  C2  UNL     1     -35.671  15.635  -4.604  1.00 20.00    -0.070 C 
HETATM    3  C3  UNL     1     -36.561  15.001  -5.383  1.00 20.00     0.096 C 
HETATM    4  C4  UNL     1     -34.725  16.664  -5.151  1.00 20.00     0.035 C 
HETATM    5  C5  UNL     1     -35.531  15.315  -3.135  1.00 20.00     0.039 C 
HETATM    6  C6  UNL     1     -33.262  16.291  -4.888  1.00 20.00     0.005 C 
HETATM    7  C7  UNL     1     -33.055  15.334  -3.709  1.00 20.00     0.005 C 
HETATM    8  C8  UNL     1     -34.096  15.502  -2.595  1.00 20.00    -0.011 C 
HETATM    9  N11 UNL     1     -36.744  15.480  -7.908  1.00 20.00    -0.192 NA
ENDROOT
BRANCH   8  10
HETATM   10  C10 UNL     1     -33.931  16.840  -1.867  1.00 20.00     0.000 C 
HETATM   11  C9  UNL     1     -34.626  16.838  -0.546  1.00 20.00     0.005 C 
ENDBRANCH   8  10
TORSDOF 1
ENDMDL
MODEL 7
REMARK VINA RESULT:      -4.4      2.453      3.940
REMARK  1 active torsions:
REMARK  status: ('A' for Active; 'I' for Inactive)
REMARK    1  A    between atoms: C8_8  and  C10_10 
ROOT
HETATM    1  C1  UNL     1     -38.695  14.709  -4.029  1.00 20.00     0.088 C 
HETATM    2  C2  UNL     1     -36.367  15.302  -3.856  1.00 20.00    -0.070 C 
HETATM    3  C3  UNL     1     -37.622  15.378  -3.389  1.00 20.00     0.096 C 
HETATM    4  C4  UNL     1     -36.018  14.505  -5.079  1.00 20.00     0.035 C 
HETATM    5  C5  UNL     1     -35.214  15.972  -3.146  1.00 20.00     0.039 C 
HETATM    6  C6  UNL     1     -34.962  13.435  -4.783  1.00 20.00     0.005 C 
HETATM    7  C7  UNL     1     -34.094  13.727  -3.554  1.00 20.00     0.005 C 
HETATM    8  C8  UNL     1     -33.872  15.224  -3.303  1.00 20.00    -0.011 C 
HETATM    9  N11 UNL     1     -39.579  14.164  -4.546  1.00 20.00    -0.192 NA
ENDROOT
BRANCH   8  10
HETATM   10  C10 UNL     1     -32.992  15.852  -4.389  1.00 20.00     0.000 C 
HETATM   11  C9  UNL     1     -33.474  17.213  -4.769  1.00 20.00     0.005 C 
ENDBRANCH   8  10
TORSDOF 1
ENDMDL
MODEL 8
REMARK VINA RESULT:      -4.3      2.767      4.564
REMARK  1 active torsions:
REMARK  status: ('A' for Active; 'I' for Inactive)
REMARK    1  A    between atoms: C8_8  and  C10_10 
ROOT
HETATM    1  C1  UNL     1     -34.528  17.448  -0.250  1.00 20.00     0.088 C 
HETATM    2  C2  UNL     1     -34.229  17.083  -2.613  1.00 20.00    -0.070 C 
HETATM    3  C3  UNL     1     -33.908  17.743  -1.490  1.00 20.00     0.096 C 
HETATM    4  C4  UNL     1     -35.261  15.992  -2.628  1.00 20.00     0.035 C 
HETATM    5  C5  UNL     1     -33.533  17.360  -3.924  1.00 20.00     0.039 C 
HETATM    6  C6  UNL     1     -34.686  14.669  -3.145  1.00 20.00     0.005 C 
HETATM    7  C7  UNL     1     -33.445  14.822  -4.031  1.00 20.00     0.005 C 
HETATM    8  C8  UNL     1     -33.429  16.123  -4.844  1.00 20.00    -0.011 C 
HETATM    9  N11 UNL     1     -35.030  17.212   0.769  1.00 20.00    -0.192 NA
ENDROOT
BRANCH   8  10
HETATM   10  C10 UNL     1     -34.514  16.124  -5.926  1.00 20.00     0.000 C 
HETATM   11  C9  UNL     1     -34.364  14.967  -6.857  1.00 20.00     0.005 C 
ENDBRANCH   8  10
TORSDOF 1
ENDMDL
MODEL 9
REMARK VINA RESULT:      -4.2     10.981     12.149
REMARK  1 active torsions:
REMARK  status: ('A' for Active; 'I' for Inactive)
REMARK    1  A    between atoms: C8_8  and  C10_10 
ROOT
HETATM    1  C1  UNL     1     -31.831   8.254   1.718  1.00 20.00     0.088 C 
HETATM    2  C2  UNL     1     -32.827   7.002   3.520  1.00 20.00    -0.070 C 
HETATM    3  C3  UNL     1     -32.297   8.142   3.053  1.00 20.00     0.096 C 
HETATM    4  C4  UNL     1     -32.961   5.776   2.664  1.00 20.00     0.035 C 
HETATM    5  C5  UNL     1     -33.371   6.896   4.925  1.00 20.00     0.039 C 
HETATM    6  C6  UNL     1     -34.415   5.300   2.572  1.00 20.00     0.005 C 
HETATM    7  C7  UNL     1     -35.305   5.757   3.734  1.00 20.00     0.005 C 
HETATM    8  C8  UNL     1     -34.549   5.908   5.060  1.00 20.00    -0.011 C 
HETATM    9  N11 UNL     1     -31.448   8.353   0.628  1.00 20.00    -0.192 NA
ENDROOT
BRANCH   8  10
HETATM   10  C10 UNL     1     -34.095   4.551   5.607  1.00 20.00     0.000 C 
HETATM   11  C9  UNL     1     -35.211   3.830   6.290  1.00 20.00     0.005 C 
ENDBRANCH   8  10
TORSDOF 1
ENDMDL
