MODEL 1
REMARK VINA RESULT:      -4.7      0.000      0.000
REMARK  3 active torsions:
REMARK  status: ('A' for Active; 'I' for Inactive)
REMARK    1  A    between atoms: C5_5  and  C8_8 
REMARK    2  A    between atoms: C6_6  and  C9_9 
REMARK    3  A    between atoms: C9_9  and  C10_10 
ROOT
HETATM    1  C1  UNL     1     -34.517   5.444   2.468  1.00 20.00     0.001 C 
HETATM    2  C2  UNL     1     -34.872   5.186   3.930  1.00 20.00     0.005 C 
HETATM    3  C3  UNL     1     -33.006   5.485   2.253  1.00 20.00     0.005 C 
HETATM    4  C4  UNL     1     -32.686   6.235   4.646  1.00 20.00     0.009 C 
HETATM    5  C5  UNL     1     -34.206   6.200   4.868  1.00 20.00    -0.014 C 
HETATM    6  C6  UNL     1     -32.294   6.478   3.180  1.00 20.00    -0.013 C 
ENDROOT
BRANCH   6   7
HETATM    7  C9  UNL     1     -32.546   7.929   2.758  1.00 20.00     0.020 C 
BRANCH   7   8
HETATM    8  C10 UNL     1     -31.823   8.311   1.475  1.00 20.00     0.115 C 
HETATM    9 CL11 UNL     1     -32.387   9.869   0.828  1.00 20.00    -0.130 Cl
ENDBRANCH   7   8
ENDBRANCH   6   7
BRANCH   5  10
HETATM   10  C8  UNL     1     -34.528   5.874   6.326  1.00 20.00     0.000 C 
HETATM   11  C7  UNL     1     -35.040   4.480   6.477  1.00 20.00     0.005 C 
ENDBRANCH   5  10
TORSDOF 3
ENDMDL
MODEL 2
REMARK VINA RESULT:      -4.5     10.647     12.149
REMARK  3 active torsions:
REMARK  status: ('A' for Active; 'I' for Inactive)
REMARK    1  A    between atoms: C5_5  and  C8_8 
REMARK    2  A    between atoms: C6_6  and  C9_9 
REMARK    3  A    between atoms: C9_9  and  C10_10 
ROOT
HETATM    1  C1  UNL     1     -33.858  18.232  -3.737  1.00 20.00     0.001 C 
HETATM    2  C2  UNL     1     -33.941  18.657  -2.274  1.00 20.00     0.005 C 
HETATM    3  C3  UNL     1     -34.782  17.055  -4.037  1.00 20.00     0.005 C 
HETATM    4  C4  UNL     1     -34.607  16.306  -1.629  1.00 20.00     0.009 C 
HETATM    5  C5  UNL     1     -33.672  17.485  -1.322  1.00 20.00    -0.014 C 
HETATM    6  C6  UNL     1     -34.560  15.861  -3.098  1.00 20.00    -0.013 C 
ENDROOT
BRANCH   6   7
HETATM    7  C9  UNL     1     -33.260  15.119  -3.426  1.00 20.00     0.020 C 
BRANCH   7   8
HETATM    8  C10 UNL     1     -33.486  13.667  -3.820  1.00 20.00     0.115 C 
HETATM    9 CL11 UNL     1     -35.189  13.335  -4.209  1.00 20.00    -0.130 Cl
ENDBRANCH   7   8
ENDBRANCH   6   7
BRANCH   5  10
HETATM   10  C8  UNL     1     -33.827  17.930   0.133  1.00 20.00     0.000 C 
HETATM   11  C7  UNL     1     -35.111  17.446   0.721  1.00 20.00     0.005 C 
ENDBRANCH   5  10
TORSDOF 3
ENDMDL
MODEL 3
REMARK VINA RESULT:      -4.5     11.180     12.716
REMARK  3 active torsions:
REMARK  status: ('A' for Active; 'I' for Inactive)
REMARK    1  A    between atoms: C5_5  and  C8_8 
REMARK    2  A    between atoms: C6_6  and  C9_9 
REMARK    3  A    between atoms: C9_9  and  C10_10 
ROOT
HETATM    1  C1  UNL     1     -33.164  16.360  -4.857  1.00 20.00     0.001 C 
HETATM    2  C2  UNL     1     -34.056  15.833  -5.977  1.00 20.00     0.005 C 
HETATM    3  C3  UNL     1     -33.052  15.363  -3.707  1.00 20.00     0.005 C 
HETATM    4  C4  UNL     1     -35.321  14.420  -4.304  1.00 20.00     0.009 C 
HETATM    5  C5  UNL     1     -35.442  15.425  -5.460  1.00 20.00    -0.014 C 
HETATM    6  C6  UNL     1     -34.416  14.914  -3.165  1.00 20.00    -0.013 C 
ENDROOT
BRANCH   6   7
HETATM    7  C9  UNL     1     -35.089  16.017  -2.343  1.00 20.00     0.020 C 
BRANCH   7   8
HETATM    8  C10 UNL     1     -34.133  16.720  -1.390  1.00 20.00     0.115 C 
HETATM    9 CL11 UNL     1     -34.901  17.103   0.167  1.00 20.00    -0.130 Cl
ENDBRANCH   7   8
ENDBRANCH   6   7
BRANCH   5  10
HETATM   10  C8  UNL     1     -36.286  14.841  -6.593  1.00 20.00     0.000 C 
HETATM   11  C7  UNL     1     -35.450  14.496  -7.781  1.00 20.00     0.005 C 
ENDBRANCH   5  10
TORSDOF 3
ENDMDL
MODEL 4
REMARK VINA RESULT:      -4.4     11.414     12.057
REMARK  3 active torsions:
REMARK  status: ('A' for Active; 'I' for Inactive)
REMARK    1  A    between atoms: C5_5  and  C8_8 
REMARK    2  A    between atoms: C6_6  and  C9_9 
REMARK    3  A    between atoms: C9_9  and  C10_10 
ROOT
HETATM    1  C1  UNL     1     -36.429  14.681  -3.775  1.00 20.00     0.001 C 
HETATM    2  C2  UNL     1     -35.744  15.454  -2.652  1.00 20.00     0.005 C 
HETATM    3  C3  UNL     1     -35.493  13.654  -4.406  1.00 20.00     0.005 C 
HETATM    4  C4  UNL     1     -33.502  15.068  -3.752  1.00 20.00     0.009 C 
HETATM    5  C5  UNL     1     -34.439  16.108  -3.120  1.00 20.00    -0.014 C 
HETATM    6  C6  UNL     1     -34.165  14.260  -4.878  1.00 20.00    -0.013 C 
ENDROOT
BRANCH   6   7
HETATM    7  C9  UNL     1     -34.345  15.098  -6.148  1.00 20.00     0.020 C 
BRANCH   7   8
HETATM    8  C10 UNL     1     -35.146  14.384  -7.226  1.00 20.00     0.115 C 
HETATM    9 CL11 UNL     1     -36.754  15.107  -7.455  1.00 20.00    -0.130 Cl
ENDBRANCH   7   8
ENDBRANCH   6   7
BRANCH   5  10
HETATM   10  C8  UNL     1     -33.747  16.818  -1.956  1.00 20.00     0.000 C 
HETATM   11  C7  UNL     1     -34.564  16.753  -0.709  1.00 20.00     0.005 C 
ENDBRANCH   5  10
TORSDOF 3
ENDMDL
MODEL 5
REMARK VINA RESULT:      -4.4     10.833     12.018
REMARK  3 active torsions:
REMARK  status: ('A' for Active; 'I' for Inactive)
REMARK    1  A    between atoms: C5_5  and  C8_8 
REMARK    2  A    between atoms: C6_6  and  C9_9 
REMARK    3  A    between atoms: C9_9  and  C10_10 
ROOT
HETATM    1  C1  UNL     1     -36.412  16.641  -3.215  1.00 20.00     0.001 C 
HETATM    2  C2  UNL     1     -35.736  15.458  -3.901  1.00 20.00     0.005 C 
HETATM    3  C3  UNL     1     -35.407  17.730  -2.846  1.00 20.00     0.005 C 
HETATM    4  C4  UNL     1     -33.580  15.989  -2.693  1.00 20.00     0.009 C 
HETATM    5  C5  UNL     1     -34.587  14.889  -3.060  1.00 20.00    -0.014 C 
HETATM    6  C6  UNL     1     -34.230  17.204  -2.014  1.00 20.00    -0.013 C 
ENDROOT
BRANCH   6   7
HETATM    7  C9  UNL     1     -34.650  16.891  -0.574  1.00 20.00     0.020 C 
BRANCH   7   8
HETATM    8  C10 UNL     1     -34.165  17.929   0.427  1.00 20.00     0.115 C 
HETATM    9 CL11 UNL     1     -32.615  18.653  -0.056  1.00 20.00    -0.130 Cl
ENDBRANCH   7   8
ENDBRANCH   6   7
BRANCH   5  10
HETATM   10  C8  UNL     1     -33.891  13.749  -3.804  1.00 20.00     0.000 C 
HETATM   11  C7  UNL     1     -34.740  13.215  -4.910  1.00 20.00     0.005 C 
ENDBRANCH   5  10
TORSDOF 3
ENDMDL
MODEL 6
REMARK VINA RESULT:      -4.2     11.174     13.106
REMARK  3 active torsions:
REMARK  status: ('A' for Active; 'I' for Inactive)
REMARK    1  A    between atoms: C5_5  and  C8_8 
REMARK    2  A    between atoms: C6_6  and  C9_9 
REMARK    3  A    between atoms: C9_9  and  C10_10 
ROOT
HETATM    1  C1  UNL     1     -34.735  13.445  -5.092  1.00 20.00     0.001 C 
HETATM    2  C2  UNL     1     -34.859  14.268  -6.370  1.00 20.00     0.005 C 
HETATM    3  C3  UNL     1     -35.521  14.067  -3.941  1.00 20.00     0.005 C 
HETATM    4  C4  UNL     1     -35.251  16.351  -4.991  1.00 20.00     0.009 C 
HETATM    5  C5  UNL     1     -34.455  15.731  -6.150  1.00 20.00    -0.014 C 
HETATM    6  C6  UNL     1     -35.160  15.537  -3.691  1.00 20.00    -0.013 C 
ENDROOT
BRANCH   6   7
HETATM    7  C9  UNL     1     -33.787  15.678  -3.028  1.00 20.00     0.020 C 
BRANCH   7   8
HETATM    8  C10 UNL     1     -33.710  16.844  -2.055  1.00 20.00     0.115 C 
HETATM    9 CL11 UNL     1     -34.720  16.582  -0.615  1.00 20.00    -0.130 Cl
ENDBRANCH   7   8
ENDBRANCH   6   7
BRANCH   5  10
HETATM   10  C8  UNL     1     -34.653  16.541  -7.431  1.00 20.00     0.000 C 
HETATM   11  C7  UNL     1     -34.423  17.998  -7.202  1.00 20.00     0.005 C 
ENDBRANCH   5  10
TORSDOF 3
ENDMDL
MODEL 7
REMARK VINA RESULT:      -4.2     10.922     12.305
REMARK  3 active torsions:
REMARK  status: ('A' for Active; 'I' for Inactive)
REMARK    1  A    between atoms: C5_5  and  C8_8 
REMARK    2  A    between atoms: C6_6  and  C9_9 
REMARK    3  A    between atoms: C9_9  and  C10_10 
ROOT
HETATM    1  C1  UNL     1     -34.830  13.273  -4.517  1.00 20.00     0.001 C 
HETATM    2  C2  UNL     1     -34.080  14.087  -3.467  1.00 20.00     0.005 C 
HETATM    3  C3  UNL     1     -34.944  14.026  -5.840  1.00 20.00     0.005 C 
HETATM    4  C4  UNL     1     -34.816  16.224  -4.598  1.00 20.00     0.009 C 
HETATM    5  C5  UNL     1     -34.706  15.473  -3.263  1.00 20.00    -0.014 C 
HETATM    6  C6  UNL     1     -35.553  15.425  -5.684  1.00 20.00    -0.013 C 
ENDROOT
BRANCH   6   7
HETATM    7  C9  UNL     1     -37.060  15.361  -5.417  1.00 20.00     0.020 C 
BRANCH   7   8
HETATM    8  C10 UNL     1     -37.639  16.684  -4.940  1.00 20.00     0.115 C 
HETATM    9 CL11 UNL     1     -38.183  16.606  -3.249  1.00 20.00    -0.130 Cl
ENDBRANCH   7   8
ENDBRANCH   6   7
BRANCH   5  10
HETATM   10  C8  UNL     1     -33.893  16.285  -2.255  1.00 20.00     0.000 C 
HETATM   11  C7  UNL     1     -34.668  16.541  -1.004  1.00 20.00     0.005 C 
ENDBRANCH   5  10
TORSDOF 3
ENDMDL
MODEL 8
REMARK VINA RESULT:      -4.2     11.451     13.107
REMARK  3 active torsions:
REMARK  status: ('A' for Active; 'I' for Inactive)
REMARK    1  A    between atoms: C5_5  and  C8_8 
REMARK    2  A    between atoms: C6_6  and  C9_9 
REMARK    3  A    between atoms: C9_9  and  C10_10 
ROOT
HETATM    1  C1  UNL     1     -33.555  16.861  -3.933  1.00 20.00     0.001 C 
HETATM    2  C2  UNL     1     -33.375  16.428  -5.385  1.00 20.00     0.005 C 
HETATM    3  C3  UNL     1     -33.762  15.664  -3.008  1.00 20.00     0.005 C 
HETATM    4  C4  UNL     1     -34.736  14.347  -4.934  1.00 20.00     0.009 C 
HETATM    5  C5  UNL     1     -34.535  15.549  -5.868  1.00 20.00    -0.014 C 
HETATM    6  C6  UNL     1     -34.906  14.746  -3.460  1.00 20.00    -0.013 C 
ENDROOT
BRANCH   6   7
HETATM    7  C9  UNL     1     -36.276  15.378  -3.197  1.00 20.00     0.020 C 
BRANCH   7   8
HETATM    8  C10 UNL     1     -37.413  14.655  -3.904  1.00 20.00     0.115 C 
HETATM    9 CL11 UNL     1     -38.127  15.639  -5.202  1.00 20.00    -0.130 Cl
ENDBRANCH   7   8
ENDBRANCH   6   7
BRANCH   5  10
HETATM   10  C8  UNL     1     -34.292  15.080  -7.303  1.00 20.00     0.000 C 
HETATM   11  C7  UNL     1     -35.531  14.514  -7.914  1.00 20.00     0.005 C 
ENDBRANCH   5  10
TORSDOF 3
ENDMDL
MODEL 9
REMARK VINA RESULT:      -4.2     11.367     12.362
REMARK  3 active torsions:
REMARK  status: ('A' for Active; 'I' for Inactive)
REMARK    1  A    between atoms: C5_5  and  C8_8 
REMARK    2  A    between atoms: C6_6  and  C9_9 
REMARK    3  A    between atoms: C9_9  and  C10_10 
ROOT
HETATM    1  C1  UNL     1     -35.356  17.466  -4.428  1.00 20.00     0.001 C 
HETATM    2  C2  UNL     1     -34.851  18.037  -3.106  1.00 20.00     0.005 C 
HETATM    3  C3  UNL     1     -36.163  16.187  -4.219  1.00 20.00     0.005 C 
HETATM    4  C4  UNL     1     -34.869  15.718  -2.098  1.00 20.00     0.009 C 
HETATM    5  C5  UNL     1     -34.051  17.002  -2.305  1.00 20.00    -0.014 C 
HETATM    6  C6  UNL     1     -35.407  15.125  -3.409  1.00 20.00    -0.013 C 
ENDROOT
BRANCH   6   7
HETATM    7  C9  UNL     1     -34.295  14.469  -4.234  1.00 20.00     0.020 C 
BRANCH   7   8
HETATM    8  C10 UNL     1     -34.791  13.886  -5.548  1.00 20.00     0.115 C 
HETATM    9 CL11 UNL     1     -34.334  14.890  -6.942  1.00 20.00    -0.130 Cl
ENDBRANCH   7   8
ENDBRANCH   6   7
BRANCH   5  10
HETATM   10  C8  UNL     1     -33.616  17.585  -0.960  1.00 20.00     0.000 C 
HETATM   11  C7  UNL     1     -34.645  17.353   0.098  1.00 20.00     0.005 C 
ENDBRANCH   5  10
TORSDOF 3
ENDMDL
