MODEL 1
REMARK VINA RESULT:      -4.9      0.000      0.000
REMARK  3 active torsions:
REMARK  status: ('A' for Active; 'I' for Inactive)
REMARK    1  A    between atoms: C1_1  and  C6_6 
REMARK    2  A    between atoms: C1_1  and  C10_10 
REMARK    3  A    between atoms: C7_7  and  C11_11 
ROOT
HETATM    1  C2  UNL     1     -37.211  16.403  -3.292  1.00 20.00     0.001 C 
HETATM    2  C3  UNL     1     -36.613  15.498  -4.366  1.00 20.00     0.012 C 
HETATM    3  C4  UNL     1     -36.126  17.151  -2.519  1.00 20.00     0.005 C 
HETATM    4  C5  UNL     1     -34.492  15.286  -3.009  1.00 20.00     0.016 C 
HETATM    5  C6  UNL     1     -35.586  14.543  -3.770  1.00 20.00     0.055 C 
HETATM    6  C7  UNL     1     -35.088  16.190  -1.921  1.00 20.00    -0.014 C 
ENDROOT
BRANCH   5   7
HETATM    7  C1  UNL     1     -34.926  13.804  -4.919  1.00 20.00     0.130 C 
HETATM    8  O12 UNL     1     -34.764  12.585  -4.881  1.00 20.00    -0.298 OA
BRANCH   7   9
HETATM    9  C10 UNL     1     -34.487  14.655  -6.097  1.00 20.00     0.074 C 
HETATM   10  C8  UNL     1     -35.248  14.330  -7.369  1.00 20.00     0.013 C 
ENDBRANCH   7   9
ENDBRANCH   5   7
BRANCH   6  11
HETATM   11  C11 UNL     1     -33.988  16.966  -1.200  1.00 20.00     0.000 C 
HETATM   12  C9  UNL     1     -34.466  17.521   0.101  1.00 20.00     0.005 C 
ENDBRANCH   6  11
TORSDOF 3
ENDMDL
MODEL 2
REMARK VINA RESULT:      -4.8      1.519      1.996
REMARK  3 active torsions:
REMARK  status: ('A' for Active; 'I' for Inactive)
REMARK    1  A    between atoms: C1_1  and  C6_6 
REMARK    2  A    between atoms: C1_1  and  C10_10 
REMARK    3  A    between atoms: C7_7  and  C11_11 
ROOT
HETATM    1  C2  UNL     1     -33.628  17.766  -3.935  1.00 20.00     0.001 C 
HETATM    2  C3  UNL     1     -33.384  16.333  -4.403  1.00 20.00     0.012 C 
HETATM    3  C4  UNL     1     -33.709  17.854  -2.413  1.00 20.00     0.005 C 
HETATM    4  C5  UNL     1     -34.509  15.458  -2.316  1.00 20.00     0.016 C 
HETATM    5  C6  UNL     1     -34.435  15.384  -3.838  1.00 20.00     0.055 C 
HETATM    6  C7  UNL     1     -34.764  16.897  -1.842  1.00 20.00    -0.014 C 
ENDROOT
BRANCH   5   7
HETATM    7  C1  UNL     1     -34.024  13.972  -4.210  1.00 20.00     0.130 C 
HETATM    8  O12 UNL     1     -33.056  13.432  -3.677  1.00 20.00    -0.298 OA
BRANCH   7   9
HETATM    9  C10 UNL     1     -34.872  13.285  -5.265  1.00 20.00     0.074 C 
HETATM   10  C8  UNL     1     -35.188  14.190  -6.442  1.00 20.00     0.013 C 
ENDBRANCH   7   9
ENDBRANCH   5   7
BRANCH   6  11
HETATM   11  C11 UNL     1     -34.787  16.966  -0.316  1.00 20.00     0.000 C 
HETATM   12  C9  UNL     1     -33.910  18.060   0.199  1.00 20.00     0.005 C 
ENDBRANCH   6  11
TORSDOF 3
ENDMDL
MODEL 3
REMARK VINA RESULT:      -4.8     11.184     11.937
REMARK  3 active torsions:
REMARK  status: ('A' for Active; 'I' for Inactive)
REMARK    1  A    between atoms: C1_1  and  C6_6 
REMARK    2  A    between atoms: C1_1  and  C10_10 
REMARK    3  A    between atoms: C7_7  and  C11_11 
ROOT
HETATM    1  C2  UNL     1     -34.558   5.054   2.593  1.00 20.00     0.001 C 
HETATM    2  C3  UNL     1     -33.615   6.200   2.233  1.00 20.00     0.012 C 
HETATM    3  C4  UNL     1     -35.139   5.225   3.995  1.00 20.00     0.005 C 
HETATM    4  C5  UNL     1     -33.097   6.546   4.682  1.00 20.00     0.016 C 
HETATM    5  C6  UNL     1     -32.520   6.361   3.281  1.00 20.00     0.055 C 
HETATM    6  C7  UNL     1     -34.038   5.391   5.052  1.00 20.00    -0.014 C 
ENDROOT
BRANCH   5   7
HETATM    7  C1  UNL     1     -31.737   7.614   2.937  1.00 20.00     0.130 C 
HETATM    8  O12 UNL     1     -30.966   8.123   3.749  1.00 20.00    -0.298 OA
BRANCH   7   9
HETATM    9  C10 UNL     1     -31.966   8.185   1.550  1.00 20.00     0.074 C 
HETATM   10  C8  UNL     1     -32.414   9.635   1.581  1.00 20.00     0.013 C 
ENDBRANCH   7   9
ENDBRANCH   5   7
BRANCH   6  11
HETATM   11  C11 UNL     1     -34.647   5.612   6.435  1.00 20.00     0.000 C 
HETATM   12  C9  UNL     1     -34.165   6.884   7.052  1.00 20.00     0.005 C 
ENDBRANCH   6  11
TORSDOF 3
ENDMDL
MODEL 4
REMARK VINA RESULT:      -4.7      2.842      5.202
REMARK  3 active torsions:
REMARK  status: ('A' for Active; 'I' for Inactive)
REMARK    1  A    between atoms: C1_1  and  C6_6 
REMARK    2  A    between atoms: C1_1  and  C10_10 
REMARK    3  A    between atoms: C7_7  and  C11_11 
ROOT
HETATM    1  C2  UNL     1     -33.603  17.310  -5.160  1.00 20.00     0.001 C 
HETATM    2  C3  UNL     1     -34.212  17.960  -3.920  1.00 20.00     0.012 C 
HETATM    3  C4  UNL     1     -33.819  15.799  -5.166  1.00 20.00     0.005 C 
HETATM    4  C5  UNL     1     -33.912  15.802  -2.640  1.00 20.00     0.016 C 
HETATM    5  C6  UNL     1     -33.685  17.311  -2.645  1.00 20.00     0.055 C 
HETATM    6  C7  UNL     1     -33.292  15.143  -3.882  1.00 20.00    -0.014 C 
ENDROOT
BRANCH   5   7
HETATM    7  C1  UNL     1     -34.460  17.896  -1.479  1.00 20.00     0.130 C 
HETATM    8  O12 UNL     1     -34.802  19.078  -1.474  1.00 20.00    -0.298 OA
BRANCH   7   9
HETATM    9  C10 UNL     1     -34.777  16.943  -0.342  1.00 20.00     0.074 C 
HETATM   10  C8  UNL     1     -35.121  17.666   0.948  1.00 20.00     0.013 C 
ENDBRANCH   7   9
ENDBRANCH   5   7
BRANCH   6  11
HETATM   11  C11 UNL     1     -33.568  13.641  -3.890  1.00 20.00     0.000 C 
HETATM   12  C9  UNL     1     -34.839  13.318  -4.604  1.00 20.00     0.005 C 
ENDBRANCH   6  11
TORSDOF 3
ENDMDL
MODEL 5
REMARK VINA RESULT:      -4.7      1.817      2.807
REMARK  3 active torsions:
REMARK  status: ('A' for Active; 'I' for Inactive)
REMARK    1  A    between atoms: C1_1  and  C6_6 
REMARK    2  A    between atoms: C1_1  and  C10_10 
REMARK    3  A    between atoms: C7_7  and  C11_11 
ROOT
HETATM    1  C2  UNL     1     -33.995  13.609  -4.356  1.00 20.00     0.001 C 
HETATM    2  C3  UNL     1     -35.516  13.564  -4.476  1.00 20.00     0.012 C 
HETATM    3  C4  UNL     1     -33.548  14.477  -3.183  1.00 20.00     0.005 C 
HETATM    4  C5  UNL     1     -35.671  15.836  -3.380  1.00 20.00     0.016 C 
HETATM    5  C6  UNL     1     -36.102  14.968  -4.559  1.00 20.00     0.055 C 
HETATM    6  C7  UNL     1     -34.140  15.892  -3.263  1.00 20.00    -0.014 C 
ENDROOT
BRANCH   5   7
HETATM    7  C1  UNL     1     -37.613  14.838  -4.505  1.00 20.00     0.130 C 
HETATM    8  O12 UNL     1     -38.166  14.245  -3.579  1.00 20.00    -0.298 OA
BRANCH   7   9
HETATM    9  C10 UNL     1     -38.380  15.475  -5.649  1.00 20.00     0.074 C 
HETATM   10  C8  UNL     1     -37.642  15.382  -6.972  1.00 20.00     0.013 C 
ENDBRANCH   7   9
ENDBRANCH   5   7
BRANCH   6  11
HETATM   11  C11 UNL     1     -33.722  16.722  -2.052  1.00 20.00     0.000 C 
HETATM   12  C9  UNL     1     -34.674  16.555  -0.913  1.00 20.00     0.005 C 
ENDBRANCH   6  11
TORSDOF 3
ENDMDL
MODEL 6
REMARK VINA RESULT:      -4.7      2.112      4.845
REMARK  3 active torsions:
REMARK  status: ('A' for Active; 'I' for Inactive)
REMARK    1  A    between atoms: C1_1  and  C6_6 
REMARK    2  A    between atoms: C1_1  and  C10_10 
REMARK    3  A    between atoms: C7_7  and  C11_11 
ROOT
HETATM    1  C2  UNL     1     -33.909  13.720  -3.826  1.00 20.00     0.001 C 
HETATM    2  C3  UNL     1     -33.371  15.073  -3.367  1.00 20.00     0.012 C 
HETATM    3  C4  UNL     1     -35.223  13.866  -4.589  1.00 20.00     0.005 C 
HETATM    4  C5  UNL     1     -35.725  15.992  -3.316  1.00 20.00     0.016 C 
HETATM    5  C6  UNL     1     -34.414  15.830  -2.553  1.00 20.00     0.055 C 
HETATM    6  C7  UNL     1     -36.274  14.631  -3.771  1.00 20.00    -0.014 C 
ENDROOT
BRANCH   5   7
HETATM    7  C1  UNL     1     -33.865  17.218  -2.283  1.00 20.00     0.130 C 
HETATM    8  O12 UNL     1     -33.611  17.991  -3.207  1.00 20.00    -0.298 OA
BRANCH   7   9
HETATM    9  C10 UNL     1     -33.654  17.582  -0.825  1.00 20.00     0.074 C 
HETATM   10  C8  UNL     1     -34.833  17.198   0.051  1.00 20.00     0.013 C 
ENDBRANCH   7   9
ENDBRANCH   5   7
BRANCH   6  11
HETATM   11  C11 UNL     1     -37.559  14.810  -4.576  1.00 20.00     0.000 C 
HETATM   12  C9  UNL     1     -38.753  14.935  -3.687  1.00 20.00     0.005 C 
ENDBRANCH   6  11
TORSDOF 3
ENDMDL
MODEL 7
REMARK VINA RESULT:      -4.7      1.859      2.339
REMARK  3 active torsions:
REMARK  status: ('A' for Active; 'I' for Inactive)
REMARK    1  A    between atoms: C1_1  and  C6_6 
REMARK    2  A    between atoms: C1_1  and  C10_10 
REMARK    3  A    between atoms: C7_7  and  C11_11 
ROOT
HETATM    1  C2  UNL     1     -36.573  17.501  -2.419  1.00 20.00     0.001 C 
HETATM    2  C3  UNL     1     -35.633  16.795  -3.393  1.00 20.00     0.012 C 
HETATM    3  C4  UNL     1     -35.802  18.251  -1.335  1.00 20.00     0.005 C 
HETATM    4  C5  UNL     1     -33.880  16.627  -1.580  1.00 20.00     0.016 C 
HETATM    5  C6  UNL     1     -34.664  15.879  -2.655  1.00 20.00     0.055 C 
HETATM    6  C7  UNL     1     -34.823  17.330  -0.593  1.00 20.00    -0.014 C 
ENDROOT
BRANCH   5   7
HETATM    7  C1  UNL     1     -33.667  15.353  -3.669  1.00 20.00     0.130 C 
HETATM    8  O12 UNL     1     -32.971  16.122  -4.332  1.00 20.00    -0.298 OA
BRANCH   7   9
HETATM    9  C10 UNL     1     -33.588  13.844  -3.810  1.00 20.00     0.074 C 
HETATM   10  C8  UNL     1     -34.765  13.265  -4.573  1.00 20.00     0.013 C 
ENDBRANCH   7   9
ENDBRANCH   5   7
BRANCH   6  11
HETATM   11  C11 UNL     1     -34.027  18.115   0.448  1.00 20.00     0.000 C 
HETATM   12  C9  UNL     1     -32.725  18.597  -0.103  1.00 20.00     0.005 C 
ENDBRANCH   6  11
TORSDOF 3
ENDMDL
MODEL 8
REMARK VINA RESULT:      -4.7      2.126      5.128
REMARK  3 active torsions:
REMARK  status: ('A' for Active; 'I' for Inactive)
REMARK    1  A    between atoms: C1_1  and  C6_6 
REMARK    2  A    between atoms: C1_1  and  C10_10 
REMARK    3  A    between atoms: C7_7  and  C11_11 
ROOT
HETATM    1  C2  UNL     1     -33.856  13.517  -3.974  1.00 20.00     0.001 C 
HETATM    2  C3  UNL     1     -33.359  14.839  -3.395  1.00 20.00     0.012 C 
HETATM    3  C4  UNL     1     -34.542  13.717  -5.323  1.00 20.00     0.005 C 
HETATM    4  C5  UNL     1     -35.168  16.073  -4.656  1.00 20.00     0.016 C 
HETATM    5  C6  UNL     1     -34.488  15.859  -3.307  1.00 20.00     0.055 C 
HETATM    6  C7  UNL     1     -35.678  14.746  -5.237  1.00 20.00    -0.014 C 
ENDROOT
BRANCH   5   7
HETATM    7  C1  UNL     1     -33.879  17.182  -2.884  1.00 20.00     0.130 C 
HETATM    8  O12 UNL     1     -33.602  18.047  -3.714  1.00 20.00    -0.298 OA
BRANCH   7   9
HETATM    9  C10 UNL     1     -33.638  17.363  -1.396  1.00 20.00     0.074 C 
HETATM   10  C8  UNL     1     -34.758  16.787  -0.549  1.00 20.00     0.013 C 
ENDBRANCH   7   9
ENDBRANCH   5   7
BRANCH   6  11
HETATM   11  C11 UNL     1     -36.312  14.966  -6.609  1.00 20.00     0.000 C 
HETATM   12  C9  UNL     1     -35.365  14.631  -7.714  1.00 20.00     0.005 C 
ENDBRANCH   6  11
TORSDOF 3
ENDMDL
MODEL 9
REMARK VINA RESULT:      -4.6     11.655     12.778
REMARK  3 active torsions:
REMARK  status: ('A' for Active; 'I' for Inactive)
REMARK    1  A    between atoms: C1_1  and  C6_6 
REMARK    2  A    between atoms: C1_1  and  C10_10 
REMARK    3  A    between atoms: C7_7  and  C11_11 
ROOT
HETATM    1  C2  UNL     1     -40.755   6.073  -0.545  1.00 20.00     0.001 C 
HETATM    2  C3  UNL     1     -41.491   4.742  -0.685  1.00 20.00     0.012 C 
HETATM    3  C4  UNL     1     -41.554   7.223  -1.153  1.00 20.00     0.005 C 
HETATM    4  C5  UNL     1     -42.668   5.609  -2.747  1.00 20.00     0.016 C 
HETATM    5  C6  UNL     1     -41.857   4.468  -2.139  1.00 20.00     0.055 C 
HETATM    6  C7  UNL     1     -41.927   6.947  -2.616  1.00 20.00    -0.014 C 
ENDROOT
BRANCH   5   7
HETATM    7  C1  UNL     1     -42.724   3.223  -2.166  1.00 20.00     0.130 C 
HETATM    8  O12 UNL     1     -43.417   2.911  -1.199  1.00 20.00    -0.298 OA
BRANCH   7   9
HETATM    9  C10 UNL     1     -42.677   2.403  -3.443  1.00 20.00     0.074 C 
HETATM   10  C8  UNL     1     -41.272   1.955  -3.800  1.00 20.00     0.013 C 
ENDBRANCH   7   9
ENDBRANCH   5   7
BRANCH   6  11
HETATM   11  C11 UNL     1     -42.770   8.088  -3.183  1.00 20.00     0.000 C 
HETATM   12  C9  UNL     1     -42.299   8.500  -4.539  1.00 20.00     0.005 C 
ENDBRANCH   6  11
TORSDOF 3
ENDMDL
