MODEL 1
REMARK VINA RESULT:      -4.1      0.000      0.000
REMARK  0 active torsions:
REMARK  status: ('A' for Active; 'I' for Inactive)
ROOT
HETATM    1  C1  UNL     1     -33.970  15.410  -5.015  1.00 20.00     0.066 C 
HETATM    2  C2  UNL     1     -35.925  15.352  -3.408  1.00 20.00     0.077 C 
HETATM    3  C3  UNL     1     -33.457  16.616  -4.243  1.00 20.00     0.171 C 
HETATM    4  C4  UNL     1     -35.049  13.120  -4.421  1.00 20.00     0.207 A 
HETATM    5  C5  UNL     1     -34.860  14.589  -4.138  1.00 20.00     0.087 A 
HETATM    6  C6  UNL     1     -35.352  16.621  -2.742  1.00 20.00     0.056 C 
HETATM    7  C7  UNL     1     -36.511  17.558  -2.374  1.00 20.00     0.045 C 
HETATM    8  C8  UNL     1     -34.569  16.300  -1.460  1.00 20.00     0.045 C 
HETATM    9  O9  UNL     1     -34.192  13.585  -3.366  1.00 20.00    -0.375 OA
HETATM   10  O10 UNL     1     -34.538  17.358  -3.673  1.00 20.00    -0.381 OA
ENDROOT
TORSDOF 0
ENDMDL
MODEL 2
REMARK VINA RESULT:      -4.0      2.071      3.109
REMARK  0 active torsions:
REMARK  status: ('A' for Active; 'I' for Inactive)
ROOT
HETATM    1  C1  UNL     1     -37.028  15.575  -5.613  1.00 20.00     0.066 C 
HETATM    2  C2  UNL     1     -35.958  15.564  -3.318  1.00 20.00     0.077 C 
HETATM    3  C3  UNL     1     -35.737  14.970  -6.144  1.00 20.00     0.171 C 
HETATM    4  C4  UNL     1     -38.534  15.244  -3.518  1.00 20.00     0.207 A 
HETATM    5  C5  UNL     1     -37.167  15.269  -4.156  1.00 20.00     0.087 A 
HETATM    6  C6  UNL     1     -34.673  15.018  -3.975  1.00 20.00     0.056 C 
HETATM    7  C7  UNL     1     -33.455  15.684  -3.318  1.00 20.00     0.045 C 
HETATM    8  C8  UNL     1     -34.537  13.497  -3.805  1.00 20.00     0.045 C 
HETATM    9  O9  UNL     1     -37.831  14.037  -3.854  1.00 20.00    -0.375 OA
HETATM   10  O10 UNL     1     -34.615  15.389  -5.364  1.00 20.00    -0.381 OA
ENDROOT
TORSDOF 0
ENDMDL
MODEL 3
REMARK VINA RESULT:      -4.0     11.115     12.816
REMARK  0 active torsions:
REMARK  status: ('A' for Active; 'I' for Inactive)
ROOT
HETATM    1  C1  UNL     1     -40.988   4.278  -1.419  1.00 20.00     0.066 C 
HETATM    2  C2  UNL     1     -42.722   5.360  -2.914  1.00 20.00     0.077 C 
HETATM    3  C3  UNL     1     -40.744   5.655  -0.819  1.00 20.00     0.171 C 
HETATM    4  C4  UNL     1     -43.060   2.892  -2.157  1.00 20.00     0.207 A 
HETATM    5  C5  UNL     1     -42.361   4.220  -2.008  1.00 20.00     0.087 A 
HETATM    6  C6  UNL     1     -42.344   6.718  -2.286  1.00 20.00     0.056 C 
HETATM    7  C7  UNL     1     -42.345   7.792  -3.383  1.00 20.00     0.045 C 
HETATM    8  C8  UNL     1     -43.335   7.147  -1.194  1.00 20.00     0.045 C 
HETATM    9  O9  UNL     1     -43.392   3.810  -1.103  1.00 20.00    -0.375 OA
HETATM   10  O10 UNL     1     -40.997   6.684  -1.777  1.00 20.00    -0.381 OA
ENDROOT
TORSDOF 0
ENDMDL
MODEL 4
REMARK VINA RESULT:      -4.0     11.952     13.536
REMARK  0 active torsions:
REMARK  status: ('A' for Active; 'I' for Inactive)
ROOT
HETATM    1  C1  UNL     1     -41.945   6.536  -2.214  1.00 20.00     0.066 C 
HETATM    2  C2  UNL     1     -41.064   4.231  -1.645  1.00 20.00     0.077 C 
HETATM    3  C3  UNL     1     -43.124   5.846  -2.885  1.00 20.00     0.171 C 
HETATM    4  C4  UNL     1     -40.577   6.210  -0.026  1.00 20.00     0.207 A 
HETATM    5  C5  UNL     1     -41.350   5.629  -1.184  1.00 20.00     0.087 A 
HETATM    6  C6  UNL     1     -42.263   3.637  -2.414  1.00 20.00     0.056 C 
HETATM    7  C7  UNL     1     -41.791   2.407  -3.203  1.00 20.00     0.045 C 
HETATM    8  C8  UNL     1     -43.395   3.198  -1.474  1.00 20.00     0.045 C 
HETATM    9  O9  UNL     1     -41.925   5.734   0.123  1.00 20.00    -0.375 OA
HETATM   10  O10 UNL     1     -42.745   4.569  -3.401  1.00 20.00    -0.381 OA
ENDROOT
TORSDOF 0
ENDMDL
MODEL 5
REMARK VINA RESULT:      -4.0      1.602      3.236
REMARK  0 active torsions:
REMARK  status: ('A' for Active; 'I' for Inactive)
ROOT
HETATM    1  C1  UNL     1     -34.127  13.954  -3.408  1.00 20.00     0.066 C 
HETATM    2  C2  UNL     1     -36.032  15.594  -3.107  1.00 20.00     0.077 C 
HETATM    3  C3  UNL     1     -34.928  13.335  -4.544  1.00 20.00     0.171 C 
HETATM    4  C4  UNL     1     -33.602  16.361  -2.576  1.00 20.00     0.207 A 
HETATM    5  C5  UNL     1     -34.552  15.373  -3.206  1.00 20.00     0.087 A 
HETATM    6  C6  UNL     1     -36.787  14.846  -4.225  1.00 20.00     0.056 C 
HETATM    7  C7  UNL     1     -38.274  14.759  -3.852  1.00 20.00     0.045 C 
HETATM    8  C8  UNL     1     -36.674  15.560  -5.580  1.00 20.00     0.045 C 
HETATM    9  O9  UNL     1     -33.843  16.338  -3.992  1.00 20.00    -0.375 OA
HETATM   10  O10 UNL     1     -36.332  13.483  -4.322  1.00 20.00    -0.381 OA
ENDROOT
TORSDOF 0
ENDMDL
MODEL 6
REMARK VINA RESULT:      -3.9      1.455      2.103
REMARK  0 active torsions:
REMARK  status: ('A' for Active; 'I' for Inactive)
ROOT
HETATM    1  C1  UNL     1     -36.628  14.763  -4.301  1.00 20.00     0.066 C 
HETATM    2  C2  UNL     1     -34.513  14.846  -2.911  1.00 20.00     0.077 C 
HETATM    3  C3  UNL     1     -36.808  16.242  -3.994  1.00 20.00     0.171 C 
HETATM    4  C4  UNL     1     -34.643  13.203  -4.926  1.00 20.00     0.207 A 
HETATM    5  C5  UNL     1     -35.185  14.393  -4.173  1.00 20.00     0.087 A 
HETATM    6  C6  UNL     1     -34.831  16.325  -2.606  1.00 20.00     0.056 C 
HETATM    7  C7  UNL     1     -34.480  16.618  -1.140  1.00 20.00     0.045 C 
HETATM    8  C8  UNL     1     -34.026  17.286  -3.493  1.00 20.00     0.045 C 
HETATM    9  O9  UNL     1     -34.409  14.550  -5.367  1.00 20.00    -0.375 OA
HETATM   10  O10 UNL     1     -36.244  16.575  -2.724  1.00 20.00    -0.381 OA
ENDROOT
TORSDOF 0
ENDMDL
MODEL 7
REMARK VINA RESULT:      -3.9      1.904      3.663
REMARK  0 active torsions:
REMARK  status: ('A' for Active; 'I' for Inactive)
ROOT
HETATM    1  C1  UNL     1     -34.314  14.063  -3.512  1.00 20.00     0.066 C 
HETATM    2  C2  UNL     1     -35.412  15.924  -4.832  1.00 20.00     0.077 C 
HETATM    3  C3  UNL     1     -34.324  13.240  -4.792  1.00 20.00     0.171 C 
HETATM    4  C4  UNL     1     -33.812  16.533  -2.872  1.00 20.00     0.207 A 
HETATM    5  C5  UNL     1     -34.355  15.520  -3.848  1.00 20.00     0.087 A 
HETATM    6  C6  UNL     1     -35.436  14.978  -6.051  1.00 20.00     0.056 C 
HETATM    7  C7  UNL     1     -36.760  15.169  -6.805  1.00 20.00     0.045 C 
HETATM    8  C8  UNL     1     -34.283  15.261  -7.027  1.00 20.00     0.045 C 
HETATM    9  O9  UNL     1     -33.077  16.135  -4.040  1.00 20.00    -0.375 OA
HETATM   10  O10 UNL     1     -35.426  13.602  -5.626  1.00 20.00    -0.381 OA
ENDROOT
TORSDOF 0
ENDMDL
MODEL 8
REMARK VINA RESULT:      -3.9      2.199      3.636
REMARK  0 active torsions:
REMARK  status: ('A' for Active; 'I' for Inactive)
ROOT
HETATM    1  C1  UNL     1     -35.994  14.635  -3.893  1.00 20.00     0.066 C 
HETATM    2  C2  UNL     1     -34.177  15.144  -5.581  1.00 20.00     0.077 C 
HETATM    3  C3  UNL     1     -37.005  14.969  -4.980  1.00 20.00     0.171 C 
HETATM    4  C4  UNL     1     -33.744  13.339  -3.755  1.00 20.00     0.207 A 
HETATM    5  C5  UNL     1     -34.699  14.225  -4.517  1.00 20.00     0.087 A 
HETATM    6  C6  UNL     1     -35.285  15.528  -6.584  1.00 20.00     0.056 C 
HETATM    7  C7  UNL     1     -34.829  16.757  -7.384  1.00 20.00     0.045 C 
HETATM    8  C8  UNL     1     -35.587  14.395  -7.576  1.00 20.00     0.045 C 
HETATM    9  O9  UNL     1     -34.580  12.828  -4.806  1.00 20.00    -0.375 OA
HETATM   10  O10 UNL     1     -36.478  15.937  -5.890  1.00 20.00    -0.381 OA
ENDROOT
TORSDOF 0
ENDMDL
MODEL 9
REMARK VINA RESULT:      -3.9      1.844      3.762
REMARK  0 active torsions:
REMARK  status: ('A' for Active; 'I' for Inactive)
ROOT
HETATM    1  C1  UNL     1     -34.320  16.106  -6.887  1.00 20.00     0.066 C 
HETATM    2  C2  UNL     1     -33.252  15.979  -4.595  1.00 20.00     0.077 C 
HETATM    3  C3  UNL     1     -35.101  14.853  -6.519  1.00 20.00     0.171 C 
HETATM    4  C4  UNL     1     -33.632  18.310  -5.690  1.00 20.00     0.207 A 
HETATM    5  C5  UNL     1     -33.907  16.827  -5.644  1.00 20.00     0.087 A 
HETATM    6  C6  UNL     1     -34.040  14.675  -4.354  1.00 20.00     0.056 C 
HETATM    7  C7  UNL     1     -33.143  13.680  -3.604  1.00 20.00     0.045 C 
HETATM    8  C8  UNL     1     -35.304  14.908  -3.513  1.00 20.00     0.045 C 
HETATM    9  O9  UNL     1     -34.855  17.781  -5.153  1.00 20.00    -0.375 OA
HETATM   10  O10 UNL     1     -34.364  14.039  -5.605  1.00 20.00    -0.381 OA
ENDROOT
TORSDOF 0
ENDMDL
