MODEL 1
REMARK VINA RESULT:      -4.8      0.000      0.000
REMARK  3 active torsions:
REMARK  status: ('A' for Active; 'I' for Inactive)
REMARK    1  A    between atoms: C1_1  and  C9_9 
REMARK    2  A    between atoms: C6_6  and  C9_9 
REMARK    3  A    between atoms: C7_7  and  C10_10 
ROOT
HETATM    1  C2  UNL     1     -33.560  17.574  -4.945  1.00 20.00     0.001 C 
HETATM    2  C3  UNL     1     -33.639  16.050  -4.978  1.00 20.00     0.005 C 
HETATM    3  C4  UNL     1     -34.264  18.147  -3.718  1.00 20.00     0.005 C 
HETATM    4  C5  UNL     1     -33.805  16.006  -2.456  1.00 20.00     0.009 C 
HETATM    5  C6  UNL     1     -33.091  15.428  -3.687  1.00 20.00    -0.008 C 
HETATM    6  C7  UNL     1     -33.721  17.539  -2.419  1.00 20.00    -0.014 C 
ENDROOT
BRANCH   5   7
HETATM    7  C9  UNL     1     -33.226  13.906  -3.722  1.00 20.00     0.074 C 
BRANCH   7   8
HETATM    8  C1  UNL     1     -34.301  13.450  -4.670  1.00 20.00     0.231 C 
HETATM    9  O11 UNL     1     -35.176  12.633  -4.405  1.00 20.00    -0.307 OA
ENDBRANCH   7   8
ENDBRANCH   5   7
BRANCH   6  10
HETATM   10  C10 UNL     1     -34.474  18.091  -1.210  1.00 20.00     0.000 C 
HETATM   11  C8  UNL     1     -34.776  17.020  -0.214  1.00 20.00     0.005 C 
ENDBRANCH   6  10
TORSDOF 3
ENDMDL
MODEL 2
REMARK VINA RESULT:      -4.6      1.757      1.863
REMARK  3 active torsions:
REMARK  status: ('A' for Active; 'I' for Inactive)
REMARK    1  A    between atoms: C1_1  and  C9_9 
REMARK    2  A    between atoms: C6_6  and  C9_9 
REMARK    3  A    between atoms: C7_7  and  C10_10 
ROOT
HETATM    1  C2  UNL     1     -33.537  16.931  -4.975  1.00 20.00     0.001 C 
HETATM    2  C3  UNL     1     -34.682  15.930  -5.107  1.00 20.00     0.005 C 
HETATM    3  C4  UNL     1     -33.594  17.678  -3.645  1.00 20.00     0.005 C 
HETATM    4  C5  UNL     1     -34.776  15.709  -2.591  1.00 20.00     0.009 C 
HETATM    5  C6  UNL     1     -34.716  14.952  -3.925  1.00 20.00    -0.008 C 
HETATM    6  C7  UNL     1     -33.621  16.712  -2.455  1.00 20.00    -0.014 C 
ENDROOT
BRANCH   5   7
HETATM    7  C9  UNL     1     -35.898  13.992  -4.054  1.00 20.00     0.074 C 
BRANCH   7   8
HETATM    8  C1  UNL     1     -37.221  14.692  -3.901  1.00 20.00     0.231 C 
HETATM    9  O11 UNL     1     -38.308  14.132  -3.797  1.00 20.00    -0.307 OA
ENDBRANCH   7   8
ENDBRANCH   5   7
BRANCH   6  10
HETATM   10  C10 UNL     1     -33.728  17.482  -1.140  1.00 20.00     0.000 C 
HETATM   11  C8  UNL     1     -34.807  16.931  -0.266  1.00 20.00     0.005 C 
ENDBRANCH   6  10
TORSDOF 3
ENDMDL
MODEL 3
REMARK VINA RESULT:      -4.5     10.820     12.335
REMARK  3 active torsions:
REMARK  status: ('A' for Active; 'I' for Inactive)
REMARK    1  A    between atoms: C1_1  and  C9_9 
REMARK    2  A    between atoms: C6_6  and  C9_9 
REMARK    3  A    between atoms: C7_7  and  C10_10 
ROOT
HETATM    1  C2  UNL     1     -34.562   5.076   2.616  1.00 20.00     0.001 C 
HETATM    2  C3  UNL     1     -33.244   5.758   2.258  1.00 20.00     0.005 C 
HETATM    3  C4  UNL     1     -34.657   4.785   4.111  1.00 20.00     0.005 C 
HETATM    4  C5  UNL     1     -33.119   6.733   4.587  1.00 20.00     0.009 C 
HETATM    5  C6  UNL     1     -33.025   7.033   3.084  1.00 20.00    -0.008 C 
HETATM    6  C7  UNL     1     -34.448   6.053   4.948  1.00 20.00    -0.014 C 
ENDROOT
BRANCH   5   7
HETATM    7  C9  UNL     1     -31.679   7.670   2.744  1.00 20.00     0.074 C 
BRANCH   7   8
HETATM    8  C1  UNL     1     -31.752   8.540   1.519  1.00 20.00     0.231 C 
HETATM    9  O11 UNL     1     -32.428   9.559   1.416  1.00 20.00    -0.307 OA
ENDBRANCH   7   8
ENDBRANCH   5   7
BRANCH   6  10
HETATM   10  C10 UNL     1     -34.498   5.727   6.440  1.00 20.00     0.000 C 
HETATM   11  C8  UNL     1     -35.097   4.382   6.690  1.00 20.00     0.005 C 
ENDBRANCH   6  10
TORSDOF 3
ENDMDL
MODEL 4
REMARK VINA RESULT:      -4.4      2.393      3.220
REMARK  3 active torsions:
REMARK  status: ('A' for Active; 'I' for Inactive)
REMARK    1  A    between atoms: C1_1  and  C9_9 
REMARK    2  A    between atoms: C6_6  and  C9_9 
REMARK    3  A    between atoms: C7_7  and  C10_10 
ROOT
HETATM    1  C2  UNL     1     -33.877  13.637  -4.221  1.00 20.00     0.001 C 
HETATM    2  C3  UNL     1     -35.012  14.065  -5.147  1.00 20.00     0.005 C 
HETATM    3  C4  UNL     1     -33.349  14.811  -3.399  1.00 20.00     0.005 C 
HETATM    4  C5  UNL     1     -35.608  15.932  -3.551  1.00 20.00     0.009 C 
HETATM    5  C6  UNL     1     -36.145  14.751  -4.373  1.00 20.00    -0.008 C 
HETATM    6  C7  UNL     1     -34.471  15.501  -2.614  1.00 20.00    -0.014 C 
ENDROOT
BRANCH   5   7
HETATM    7  C9  UNL     1     -37.247  15.214  -5.326  1.00 20.00     0.074 C 
BRANCH   7   8
HETATM    8  C1  UNL     1     -38.621  14.872  -4.819  1.00 20.00     0.231 C 
HETATM    9  O11 UNL     1     -38.860  14.266  -3.779  1.00 20.00    -0.307 OA
ENDBRANCH   7   8
ENDBRANCH   5   7
BRANCH   6  10
HETATM   10  C10 UNL     1     -33.926  16.701  -1.840  1.00 20.00     0.000 C 
HETATM   11  C8  UNL     1     -34.628  16.878  -0.534  1.00 20.00     0.005 C 
ENDBRANCH   6  10
TORSDOF 3
ENDMDL
MODEL 5
REMARK VINA RESULT:      -4.4     11.817     13.602
REMARK  3 active torsions:
REMARK  status: ('A' for Active; 'I' for Inactive)
REMARK    1  A    between atoms: C1_1  and  C9_9 
REMARK    2  A    between atoms: C6_6  and  C9_9 
REMARK    3  A    between atoms: C7_7  and  C10_10 
ROOT
HETATM    1  C2  UNL     1     -40.649   6.065  -0.398  1.00 20.00     0.001 C 
HETATM    2  C3  UNL     1     -41.519   7.192  -0.949  1.00 20.00     0.005 C 
HETATM    3  C4  UNL     1     -41.284   4.698  -0.633  1.00 20.00     0.005 C 
HETATM    4  C5  UNL     1     -42.484   5.605  -2.663  1.00 20.00     0.009 C 
HETATM    5  C6  UNL     1     -41.843   6.981  -2.434  1.00 20.00    -0.008 C 
HETATM    6  C7  UNL     1     -41.606   4.471  -2.115  1.00 20.00    -0.014 C 
ENDROOT
BRANCH   5   7
HETATM    7  C9  UNL     1     -42.755   8.094  -2.950  1.00 20.00     0.074 C 
BRANCH   7   8
HETATM    8  C1  UNL     1     -42.586   8.331  -4.426  1.00 20.00     0.231 C 
HETATM    9  O11 UNL     1     -43.417   8.054  -5.285  1.00 20.00    -0.307 OA
ENDBRANCH   7   8
ENDBRANCH   5   7
BRANCH   6  10
HETATM   10  C10 UNL     1     -42.286   3.118  -2.318  1.00 20.00     0.000 C 
HETATM   11  C8  UNL     1     -41.593   2.304  -3.361  1.00 20.00     0.005 C 
ENDBRANCH   6  10
TORSDOF 3
ENDMDL
MODEL 6
REMARK VINA RESULT:      -4.4      2.437      4.717
REMARK  3 active torsions:
REMARK  status: ('A' for Active; 'I' for Inactive)
REMARK    1  A    between atoms: C1_1  and  C9_9 
REMARK    2  A    between atoms: C6_6  and  C9_9 
REMARK    3  A    between atoms: C7_7  and  C10_10 
ROOT
HETATM    1  C2  UNL     1     -34.358  13.544  -4.094  1.00 20.00     0.001 C 
HETATM    2  C3  UNL     1     -34.478  14.625  -3.024  1.00 20.00     0.005 C 
HETATM    3  C4  UNL     1     -34.790  14.059  -5.465  1.00 20.00     0.005 C 
HETATM    4  C5  UNL     1     -34.141  16.405  -4.787  1.00 20.00     0.009 C 
HETATM    5  C6  UNL     1     -33.700  15.891  -3.409  1.00 20.00    -0.008 C 
HETATM    6  C7  UNL     1     -34.014  15.320  -5.865  1.00 20.00    -0.014 C 
ENDROOT
BRANCH   5   7
HETATM    7  C9  UNL     1     -33.875  16.976  -2.347  1.00 20.00     0.074 C 
BRANCH   7   8
HETATM    8  C1  UNL     1     -34.663  16.491  -1.161  1.00 20.00     0.231 C 
HETATM    9  O11 UNL     1     -34.615  16.976  -0.035  1.00 20.00    -0.307 OA
ENDBRANCH   7   8
ENDBRANCH   5   7
BRANCH   6  10
HETATM   10  C10 UNL     1     -34.500  15.844  -7.216  1.00 20.00     0.000 C 
HETATM   11  C8  UNL     1     -35.359  14.844  -7.918  1.00 20.00     0.005 C 
ENDBRANCH   6  10
TORSDOF 3
ENDMDL
MODEL 7
REMARK VINA RESULT:      -4.3     12.133     13.663
REMARK  3 active torsions:
REMARK  status: ('A' for Active; 'I' for Inactive)
REMARK    1  A    between atoms: C1_1  and  C9_9 
REMARK    2  A    between atoms: C6_6  and  C9_9 
REMARK    3  A    between atoms: C7_7  and  C10_10 
ROOT
HETATM    1  C2  UNL     1     -40.750   5.766  -0.364  1.00 20.00     0.001 C 
HETATM    2  C3  UNL     1     -40.748   4.527  -1.257  1.00 20.00     0.005 C 
HETATM    3  C4  UNL     1     -41.193   7.010  -1.129  1.00 20.00     0.005 C 
HETATM    4  C5  UNL     1     -42.551   5.564  -2.694  1.00 20.00     0.009 C 
HETATM    5  C6  UNL     1     -42.113   4.310  -1.924  1.00 20.00    -0.008 C 
HETATM    6  C7  UNL     1     -42.559   6.809  -1.795  1.00 20.00    -0.014 C 
ENDROOT
BRANCH   5   7
HETATM    7  C9  UNL     1     -42.073   3.095  -2.850  1.00 20.00     0.074 C 
BRANCH   7   8
HETATM    8  C1  UNL     1     -43.255   3.047  -3.780  1.00 20.00     0.231 C 
HETATM    9  O11 UNL     1     -43.221   2.669  -4.946  1.00 20.00    -0.307 OA
ENDBRANCH   7   8
ENDBRANCH   5   7
BRANCH   6  10
HETATM   10  C10 UNL     1     -42.956   8.049  -2.595  1.00 20.00     0.000 C 
HETATM   11  C8  UNL     1     -42.417   8.002  -3.987  1.00 20.00     0.005 C 
ENDBRANCH   6  10
TORSDOF 3
ENDMDL
MODEL 8
REMARK VINA RESULT:      -4.1      1.789      3.026
REMARK  3 active torsions:
REMARK  status: ('A' for Active; 'I' for Inactive)
REMARK    1  A    between atoms: C1_1  and  C9_9 
REMARK    2  A    between atoms: C6_6  and  C9_9 
REMARK    3  A    between atoms: C7_7  and  C10_10 
ROOT
HETATM    1  C2  UNL     1     -33.280  19.133  -1.326  1.00 20.00     0.001 C 
HETATM    2  C3  UNL     1     -33.673  18.130  -2.409  1.00 20.00     0.005 C 
HETATM    3  C4  UNL     1     -34.246  19.093  -0.146  1.00 20.00     0.005 C 
HETATM    4  C5  UNL     1     -34.773  16.676  -0.658  1.00 20.00     0.009 C 
HETATM    5  C6  UNL     1     -33.798  16.709  -1.843  1.00 20.00    -0.008 C 
HETATM    6  C7  UNL     1     -34.375  17.679   0.434  1.00 20.00    -0.014 C 
ENDROOT
BRANCH   5   7
HETATM    7  C9  UNL     1     -34.239  15.732  -2.933  1.00 20.00     0.074 C 
BRANCH   7   8
HETATM    8  C1  UNL     1     -33.123  15.393  -3.882  1.00 20.00     0.231 C 
HETATM    9  O11 UNL     1     -32.165  14.673  -3.617  1.00 20.00    -0.307 OA
ENDBRANCH   7   8
ENDBRANCH   5   7
BRANCH   6  10
HETATM   10  C10 UNL     1     -35.384  17.657   1.580  1.00 20.00     0.000 C 
HETATM   11  C8  UNL     1     -36.394  18.749   1.446  1.00 20.00     0.005 C 
ENDBRANCH   6  10
TORSDOF 3
ENDMDL
MODEL 9
REMARK VINA RESULT:      -4.1      2.674      4.618
REMARK  3 active torsions:
REMARK  status: ('A' for Active; 'I' for Inactive)
REMARK    1  A    between atoms: C1_1  and  C9_9 
REMARK    2  A    between atoms: C6_6  and  C9_9 
REMARK    3  A    between atoms: C7_7  and  C10_10 
ROOT
HETATM    1  C2  UNL     1     -33.780  17.832  -3.995  1.00 20.00     0.001 C 
HETATM    2  C3  UNL     1     -33.839  18.013  -2.481  1.00 20.00     0.005 C 
HETATM    3  C4  UNL     1     -33.360  16.415  -4.376  1.00 20.00     0.005 C 
HETATM    4  C5  UNL     1     -34.324  15.547  -2.208  1.00 20.00     0.009 C 
HETATM    5  C6  UNL     1     -34.753  16.971  -1.823  1.00 20.00    -0.008 C 
HETATM    6  C7  UNL     1     -34.270  15.363  -3.731  1.00 20.00    -0.014 C 
ENDROOT
BRANCH   5   7
HETATM    7  C9  UNL     1     -34.758  17.140  -0.304  1.00 20.00     0.074 C 
BRANCH   7   8
HETATM    8  C1  UNL     1     -33.728  18.132   0.163  1.00 20.00     0.231 C 
HETATM    9  O11 UNL     1     -33.671  18.613   1.290  1.00 20.00    -0.307 OA
ENDBRANCH   7   8
ENDBRANCH   5   7
BRANCH   6  10
HETATM   10  C10 UNL     1     -33.800  13.954  -4.087  1.00 20.00     0.000 C 
HETATM   11  C8  UNL     1     -34.775  13.257  -4.979  1.00 20.00     0.005 C 
ENDBRANCH   6  10
TORSDOF 3
ENDMDL
