MODEL 1
REMARK VINA RESULT:      -4.9      0.000      0.000
REMARK  1 active torsions:
REMARK  status: ('A' for Active; 'I' for Inactive)
REMARK    1  A    between atoms: C6_6  and  C9_9 
ROOT
HETATM    1  C1  UNL     1     -37.114  14.956  -3.712  1.00 20.00     0.085 C 
HETATM    2  C2  UNL     1     -34.303  13.765  -3.599  1.00 20.00     0.003 C 
HETATM    3  C3  UNL     1     -34.446  13.741  -5.123  1.00 20.00     0.005 C 
HETATM    4  C4  UNL     1     -34.762  15.078  -2.953  1.00 20.00     0.041 C 
HETATM    5  C5  UNL     1     -35.453  16.079  -5.186  1.00 20.00     0.045 C 
HETATM    6  C6  UNL     1     -34.349  15.143  -5.726  1.00 20.00    -0.012 C 
HETATM    7  C7  UNL     1     -35.882  15.769  -3.737  1.00 20.00     0.125 C 
HETATM    8  N10 UNL     1     -38.081  14.317  -3.693  1.00 20.00    -0.195 NA
HETATM    9 CL11 UNL     1     -36.320  17.306  -2.909  1.00 20.00    -0.103 Cl
ENDROOT
BRANCH   6  10
HETATM   10  C9  UNL     1     -34.385  15.089  -7.253  1.00 20.00     0.000 C 
HETATM   11  C8  UNL     1     -35.623  14.421  -7.752  1.00 20.00     0.005 C 
ENDBRANCH   6  10
TORSDOF 1
ENDMDL
MODEL 2
REMARK VINA RESULT:      -4.9      2.146      3.966
REMARK  1 active torsions:
REMARK  status: ('A' for Active; 'I' for Inactive)
REMARK    1  A    between atoms: C6_6  and  C9_9 
ROOT
HETATM    1  C1  UNL     1     -36.496  14.497  -3.987  1.00 20.00     0.085 C 
HETATM    2  C2  UNL     1     -35.348  17.065  -5.176  1.00 20.00     0.003 C 
HETATM    3  C3  UNL     1     -35.129  17.435  -3.708  1.00 20.00     0.005 C 
HETATM    4  C4  UNL     1     -34.926  15.633  -5.526  1.00 20.00     0.041 C 
HETATM    5  C5  UNL     1     -34.245  15.118  -3.130  1.00 20.00     0.045 C 
HETATM    6  C6  UNL     1     -33.982  16.640  -3.084  1.00 20.00    -0.012 C 
HETATM    7  C7  UNL     1     -35.075  14.664  -4.348  1.00 20.00     0.125 C 
HETATM    8  N10 UNL     1     -37.613  14.366  -3.704  1.00 20.00    -0.195 NA
HETATM    9 CL11 UNL     1     -34.528  13.027  -4.859  1.00 20.00    -0.103 Cl
ENDROOT
BRANCH   6  10
HETATM   10  C9  UNL     1     -33.707  17.099  -1.653  1.00 20.00     0.000 C 
HETATM   11  C8  UNL     1     -34.771  16.637  -0.713  1.00 20.00     0.005 C 
ENDBRANCH   6  10
TORSDOF 1
ENDMDL
MODEL 3
REMARK VINA RESULT:      -4.9      2.156      3.787
REMARK  1 active torsions:
REMARK  status: ('A' for Active; 'I' for Inactive)
REMARK    1  A    between atoms: C6_6  and  C9_9 
ROOT
HETATM    1  C1  UNL     1     -35.946  15.647  -5.469  1.00 20.00     0.085 C 
HETATM    2  C2  UNL     1     -33.862  13.851  -4.141  1.00 20.00     0.003 C 
HETATM    3  C3  UNL     1     -33.432  15.154  -3.465  1.00 20.00     0.005 C 
HETATM    4  C4  UNL     1     -35.380  13.629  -4.153  1.00 20.00     0.041 C 
HETATM    5  C5  UNL     1     -35.837  15.844  -2.991  1.00 20.00     0.045 C 
HETATM    6  C6  UNL     1     -34.431  15.600  -2.397  1.00 20.00    -0.012 C 
HETATM    7  C7  UNL     1     -36.173  14.939  -4.193  1.00 20.00     0.125 C 
HETATM    8  N10 UNL     1     -35.767  16.203  -6.471  1.00 20.00    -0.195 NA
HETATM    9 CL11 UNL     1     -37.934  14.562  -4.176  1.00 20.00    -0.103 Cl
ENDROOT
BRANCH   6  10
HETATM   10  C9  UNL     1     -33.933  16.841  -1.658  1.00 20.00     0.000 C 
HETATM   11  C8  UNL     1     -34.646  17.032  -0.360  1.00 20.00     0.005 C 
ENDBRANCH   6  10
TORSDOF 1
ENDMDL
MODEL 4
REMARK VINA RESULT:      -4.8      2.359      4.069
REMARK  1 active torsions:
REMARK  status: ('A' for Active; 'I' for Inactive)
REMARK    1  A    between atoms: C6_6  and  C9_9 
ROOT
HETATM    1  C1  UNL     1     -34.786  13.711  -5.052  1.00 20.00     0.085 C 
HETATM    2  C2  UNL     1     -36.937  15.601  -3.991  1.00 20.00     0.003 C 
HETATM    3  C3  UNL     1     -35.954  15.781  -2.832  1.00 20.00     0.005 C 
HETATM    4  C4  UNL     1     -36.281  15.655  -5.376  1.00 20.00     0.041 C 
HETATM    5  C5  UNL     1     -33.954  15.962  -4.397  1.00 20.00     0.045 C 
HETATM    6  C6  UNL     1     -34.740  16.616  -3.238  1.00 20.00    -0.012 C 
HETATM    7  C7  UNL     1     -34.834  15.151  -5.370  1.00 20.00     0.125 C 
HETATM    8  N10 UNL     1     -34.747  12.578  -4.802  1.00 20.00    -0.195 NA
HETATM    9 CL11 UNL     1     -34.157  15.285  -7.033  1.00 20.00    -0.103 Cl
ENDROOT
BRANCH   6  10
HETATM   10  C9  UNL     1     -33.824  16.876  -2.043  1.00 20.00     0.000 C 
HETATM   11  C8  UNL     1     -34.547  16.704  -0.748  1.00 20.00     0.005 C 
ENDBRANCH   6  10
TORSDOF 1
ENDMDL
MODEL 5
REMARK VINA RESULT:      -4.8      1.097      1.254
REMARK  1 active torsions:
REMARK  status: ('A' for Active; 'I' for Inactive)
REMARK    1  A    between atoms: C6_6  and  C9_9 
ROOT
HETATM    1  C1  UNL     1     -36.602  14.960  -3.469  1.00 20.00     0.085 C 
HETATM    2  C2  UNL     1     -34.548  13.216  -4.908  1.00 20.00     0.003 C 
HETATM    3  C3  UNL     1     -34.820  14.170  -6.073  1.00 20.00     0.005 C 
HETATM    4  C4  UNL     1     -34.357  13.922  -3.560  1.00 20.00     0.041 C 
HETATM    5  C5  UNL     1     -34.760  16.222  -4.567  1.00 20.00     0.045 C 
HETATM    6  C6  UNL     1     -34.200  15.547  -5.840  1.00 20.00    -0.012 C 
HETATM    7  C7  UNL     1     -35.150  15.228  -3.454  1.00 20.00     0.125 C 
HETATM    8  N10 UNL     1     -37.742  14.749  -3.481  1.00 20.00    -0.195 NA
HETATM    9 CL11 UNL     1     -34.832  15.983  -1.850  1.00 20.00    -0.103 Cl
ENDROOT
BRANCH   6  10
HETATM   10  C9  UNL     1     -34.388  16.451  -7.058  1.00 20.00     0.000 C 
HETATM   11  C8  UNL     1     -35.517  15.987  -7.918  1.00 20.00     0.005 C 
ENDBRANCH   6  10
TORSDOF 1
ENDMDL
MODEL 6
REMARK VINA RESULT:      -4.6      2.571      4.393
REMARK  1 active torsions:
REMARK  status: ('A' for Active; 'I' for Inactive)
REMARK    1  A    between atoms: C6_6  and  C9_9 
ROOT
HETATM    1  C1  UNL     1     -35.870  15.444  -4.938  1.00 20.00     0.085 C 
HETATM    2  C2  UNL     1     -33.561  17.399  -4.518  1.00 20.00     0.003 C 
HETATM    3  C3  UNL     1     -34.220  17.605  -3.152  1.00 20.00     0.005 C 
HETATM    4  C4  UNL     1     -33.443  15.928  -4.935  1.00 20.00     0.041 C 
HETATM    5  C5  UNL     1     -34.601  15.109  -2.824  1.00 20.00     0.045 C 
HETATM    6  C6  UNL     1     -34.007  16.405  -2.229  1.00 20.00    -0.012 C 
HETATM    7  C7  UNL     1     -34.566  15.056  -4.365  1.00 20.00     0.125 C 
HETATM    8  N10 UNL     1     -36.894  15.750  -5.388  1.00 20.00    -0.195 NA
HETATM    9 CL11 UNL     1     -34.314  13.353  -4.892  1.00 20.00    -0.103 Cl
ENDROOT
BRANCH   6  10
HETATM   10  C9  UNL     1     -34.576  16.672  -0.837  1.00 20.00     0.000 C 
HETATM   11  C8  UNL     1     -33.940  17.864  -0.201  1.00 20.00     0.005 C 
ENDBRANCH   6  10
TORSDOF 1
ENDMDL
MODEL 7
REMARK VINA RESULT:      -4.3      2.599      3.319
REMARK  1 active torsions:
REMARK  status: ('A' for Active; 'I' for Inactive)
REMARK    1  A    between atoms: C6_6  and  C9_9 
ROOT
HETATM    1  C1  UNL     1     -35.576  17.630  -4.603  1.00 20.00     0.085 C 
HETATM    2  C2  UNL     1     -34.387  17.030  -1.854  1.00 20.00     0.003 C 
HETATM    3  C3  UNL     1     -34.451  15.581  -2.341  1.00 20.00     0.005 C 
HETATM    4  C4  UNL     1     -33.828  18.010  -2.893  1.00 20.00     0.041 C 
HETATM    5  C5  UNL     1     -33.549  16.187  -4.644  1.00 20.00     0.045 C 
HETATM    6  C6  UNL     1     -33.387  15.287  -3.398  1.00 20.00    -0.012 C 
HETATM    7  C7  UNL     1     -34.125  17.584  -4.334  1.00 20.00     0.125 C 
HETATM    8  N10 UNL     1     -36.716  17.665  -4.814  1.00 20.00    -0.195 NA
HETATM    9 CL11 UNL     1     -33.403  18.785  -5.464  1.00 20.00    -0.103 Cl
ENDROOT
BRANCH   6  10
HETATM   10  C9  UNL     1     -33.394  13.811  -3.793  1.00 20.00     0.000 C 
HETATM   11  C8  UNL     1     -34.712  13.400  -4.361  1.00 20.00     0.005 C 
ENDBRANCH   6  10
TORSDOF 1
ENDMDL
MODEL 8
REMARK VINA RESULT:      -4.3      2.012      3.205
REMARK  1 active torsions:
REMARK  status: ('A' for Active; 'I' for Inactive)
REMARK    1  A    between atoms: C6_6  and  C9_9 
ROOT
HETATM    1  C1  UNL     1     -33.758  14.221  -3.787  1.00 20.00     0.085 C 
HETATM    2  C2  UNL     1     -34.080  15.790  -6.387  1.00 20.00     0.003 C 
HETATM    3  C3  UNL     1     -35.487  15.188  -6.367  1.00 20.00     0.005 C 
HETATM    4  C4  UNL     1     -33.626  16.353  -5.035  1.00 20.00     0.041 C 
HETATM    5  C5  UNL     1     -35.785  15.661  -3.882  1.00 20.00     0.045 C 
HETATM    6  C6  UNL     1     -36.370  15.838  -5.301  1.00 20.00    -0.012 C 
HETATM    7  C7  UNL     1     -34.244  15.613  -3.844  1.00 20.00     0.125 C 
HETATM    8  N10 UNL     1     -33.377  13.126  -3.742  1.00 20.00    -0.195 NA
HETATM    9 CL11 UNL     1     -33.667  16.371  -2.316  1.00 20.00    -0.103 Cl
ENDROOT
BRANCH   6  10
HETATM   10  C9  UNL     1     -37.799  15.302  -5.368  1.00 20.00     0.000 C 
HETATM   11  C8  UNL     1     -38.253  14.779  -4.045  1.00 20.00     0.005 C 
ENDBRANCH   6  10
TORSDOF 1
ENDMDL
MODEL 9
REMARK VINA RESULT:      -4.3      2.037      2.685
REMARK  1 active torsions:
REMARK  status: ('A' for Active; 'I' for Inactive)
REMARK    1  A    between atoms: C6_6  and  C9_9 
ROOT
HETATM    1  C1  UNL     1     -33.839  14.278  -3.635  1.00 20.00     0.085 C 
HETATM    2  C2  UNL     1     -33.325  16.543  -5.618  1.00 20.00     0.003 C 
HETATM    3  C3  UNL     1     -34.462  15.879  -6.398  1.00 20.00     0.005 C 
HETATM    4  C4  UNL     1     -33.605  16.694  -4.118  1.00 20.00     0.041 C 
HETATM    5  C5  UNL     1     -35.870  15.551  -4.302  1.00 20.00     0.045 C 
HETATM    6  C6  UNL     1     -35.821  16.117  -5.739  1.00 20.00    -0.012 C 
HETATM    7  C7  UNL     1     -34.513  15.589  -3.568  1.00 20.00     0.125 C 
HETATM    8  N10 UNL     1     -33.308  13.247  -3.689  1.00 20.00    -0.195 NA
HETATM    9 CL11 UNL     1     -34.797  15.878  -1.814  1.00 20.00    -0.103 Cl
ENDROOT
BRANCH   6  10
HETATM   10  C9  UNL     1     -36.953  15.539  -6.586  1.00 20.00     0.000 C 
HETATM   11  C8  UNL     1     -36.432  14.826  -7.790  1.00 20.00     0.005 C 
ENDBRANCH   6  10
TORSDOF 1
ENDMDL
