MODEL 1
REMARK VINA RESULT:      -4.9      0.000      0.000
REMARK  2 active torsions:
REMARK  status: ('A' for Active; 'I' for Inactive)
REMARK    1  A    between atoms: C8_8  and  C12_12 
REMARK    2  A    between atoms: C11_11  and  N13_13 
ROOT
HETATM    1  C1  UNL     1     -31.837  18.896   0.434  1.00 20.00     0.013 C 
HETATM    2  C2  UNL     1     -32.568  19.058  -0.504  1.00 20.00    -0.087 C 
HETATM    3  C11 UNL     1     -33.459  19.262  -1.648  1.00 20.00     0.364 C 
ENDROOT
BRANCH   3   4
HETATM    4  N13 UNL     1     -33.700  17.999  -2.346  1.00 20.00     0.099 N 
HETATM    5  C6  UNL     1     -34.120  18.228  -3.730  1.00 20.00     0.273 C 
HETATM    6  C3  UNL     1     -33.930  17.014  -4.662  1.00 20.00     0.031 C 
HETATM    7  C4  UNL     1     -33.276  15.788  -4.015  1.00 20.00     0.007 C 
HETATM    8  C8  UNL     1     -34.169  15.047  -3.000  1.00 20.00    -0.010 C 
HETATM    9  C5  UNL     1     -35.205  15.939  -2.295  1.00 20.00     0.035 C 
HETATM   10  C7  UNL     1     -34.629  17.163  -1.575  1.00 20.00     0.274 C 
BRANCH   8  11
HETATM   11  C12 UNL     1     -34.895  13.884  -3.686  1.00 20.00    -0.019 C 
HETATM   12  C9  UNL     1     -36.271  14.329  -4.171  1.00 20.00     0.010 C 
HETATM   13  C10 UNL     1     -34.061  13.347  -4.843  1.00 20.00     0.010 C 
ENDBRANCH   8  11
ENDBRANCH   3   4
TORSDOF 2
ENDMDL
MODEL 2
REMARK VINA RESULT:      -4.7      2.284      5.481
REMARK  2 active torsions:
REMARK  status: ('A' for Active; 'I' for Inactive)
REMARK    1  A    between atoms: C8_8  and  C12_12 
REMARK    2  A    between atoms: C11_11  and  N13_13 
ROOT
HETATM    1  C1  UNL     1     -37.613  15.117  -7.586  1.00 20.00     0.013 C 
HETATM    2  C2  UNL     1     -36.437  14.913  -7.459  1.00 20.00    -0.087 C 
HETATM    3  C11 UNL     1     -35.001  14.664  -7.310  1.00 20.00     0.364 C 
ENDROOT
BRANCH   3   4
HETATM    4  N13 UNL     1     -34.560  14.986  -5.953  1.00 20.00     0.099 N 
HETATM    5  C6  UNL     1     -34.791  13.866  -5.039  1.00 20.00     0.273 C 
HETATM    6  C3  UNL     1     -33.947  13.912  -3.749  1.00 20.00     0.031 C 
HETATM    7  C4  UNL     1     -32.957  15.079  -3.657  1.00 20.00     0.007 C 
HETATM    8  C8  UNL     1     -33.613  16.459  -3.445  1.00 20.00    -0.010 C 
HETATM    9  C5  UNL     1     -35.033  16.583  -4.020  1.00 20.00     0.035 C 
HETATM   10  C7  UNL     1     -35.164  16.249  -5.510  1.00 20.00     0.274 C 
BRANCH   8  11
HETATM   11  C12 UNL     1     -33.647  16.803  -1.951  1.00 20.00    -0.019 C 
HETATM   12  C9  UNL     1     -33.458  18.303  -1.746  1.00 20.00     0.010 C 
HETATM   13  C10 UNL     1     -34.957  16.332  -1.328  1.00 20.00     0.010 C 
ENDBRANCH   8  11
ENDBRANCH   3   4
TORSDOF 2
ENDMDL
MODEL 3
REMARK VINA RESULT:      -4.6      1.899      3.025
REMARK  2 active torsions:
REMARK  status: ('A' for Active; 'I' for Inactive)
REMARK    1  A    between atoms: C8_8  and  C12_12 
REMARK    2  A    between atoms: C11_11  and  N13_13 
ROOT
HETATM    1  C1  UNL     1     -35.054  17.087   0.094  1.00 20.00     0.013 C 
HETATM    2  C2  UNL     1     -34.334  17.073  -0.866  1.00 20.00    -0.087 C 
HETATM    3  C11 UNL     1     -33.451  17.058  -2.035  1.00 20.00     0.364 C 
ENDROOT
BRANCH   3   4
HETATM    4  N13 UNL     1     -34.027  16.246  -3.107  1.00 20.00     0.099 N 
HETATM    5  C6  UNL     1     -33.167  15.105  -3.430  1.00 20.00     0.273 C 
HETATM    6  C3  UNL     1     -33.884  13.958  -4.170  1.00 20.00     0.031 C 
HETATM    7  C4  UNL     1     -35.388  14.160  -4.391  1.00 20.00     0.007 C 
HETATM    8  C8  UNL     1     -35.741  15.241  -5.433  1.00 20.00    -0.010 C 
HETATM    9  C5  UNL     1     -34.696  16.361  -5.567  1.00 20.00     0.035 C 
HETATM   10  C7  UNL     1     -34.352  17.090  -4.263  1.00 20.00     0.274 C 
BRANCH   8  11
HETATM   11  C12 UNL     1     -35.962  14.598  -6.807  1.00 20.00    -0.019 C 
HETATM   12  C9  UNL     1     -37.278  15.076  -7.413  1.00 20.00     0.010 C 
HETATM   13  C10 UNL     1     -34.793  14.913  -7.734  1.00 20.00     0.010 C 
ENDBRANCH   8  11
ENDBRANCH   3   4
TORSDOF 2
ENDMDL
MODEL 4
REMARK VINA RESULT:      -4.5      1.639      5.427
REMARK  2 active torsions:
REMARK  status: ('A' for Active; 'I' for Inactive)
REMARK    1  A    between atoms: C8_8  and  C12_12 
REMARK    2  A    between atoms: C11_11  and  N13_13 
ROOT
HETATM    1  C1  UNL     1     -34.245  13.653  -3.716  1.00 20.00     0.013 C 
HETATM    2  C2  UNL     1     -34.956  14.611  -3.576  1.00 20.00    -0.087 C 
HETATM    3  C11 UNL     1     -35.827  15.776  -3.410  1.00 20.00     0.364 C 
ENDROOT
BRANCH   3   4
HETATM    4  N13 UNL     1     -35.403  16.578  -2.262  1.00 20.00     0.099 N 
HETATM    5  C6  UNL     1     -36.332  17.683  -2.013  1.00 20.00     0.273 C 
HETATM    6  C3  UNL     1     -36.254  18.270  -0.590  1.00 20.00     0.031 C 
HETATM    7  C4  UNL     1     -35.272  17.568   0.356  1.00 20.00     0.007 C 
HETATM    8  C8  UNL     1     -33.785  17.807   0.025  1.00 20.00    -0.010 C 
HETATM    9  C5  UNL     1     -33.500  18.077  -1.461  1.00 20.00     0.035 C 
HETATM   10  C7  UNL     1     -34.007  17.002  -2.428  1.00 20.00     0.274 C 
BRANCH   8  11
HETATM   11  C12 UNL     1     -33.239  18.972   0.858  1.00 20.00    -0.019 C 
HETATM   12  C9  UNL     1     -33.573  18.774   2.333  1.00 20.00     0.010 C 
HETATM   13  C10 UNL     1     -31.733  19.107   0.658  1.00 20.00     0.010 C 
ENDBRANCH   8  11
ENDBRANCH   3   4
TORSDOF 2
ENDMDL
MODEL 5
REMARK VINA RESULT:      -4.5      1.918      5.372
REMARK  2 active torsions:
REMARK  status: ('A' for Active; 'I' for Inactive)
REMARK    1  A    between atoms: C8_8  and  C12_12 
REMARK    2  A    between atoms: C11_11  and  N13_13 
ROOT
HETATM    1  C1  UNL     1     -35.394  14.831  -7.831  1.00 20.00     0.013 C 
HETATM    2  C2  UNL     1     -35.156  14.306  -6.778  1.00 20.00    -0.087 C 
HETATM    3  C11 UNL     1     -34.864  13.660  -5.496  1.00 20.00     0.364 C 
ENDROOT
BRANCH   3   4
HETATM    4  N13 UNL     1     -34.752  14.656  -4.430  1.00 20.00     0.099 N 
HETATM    5  C6  UNL     1     -36.019  15.360  -4.225  1.00 20.00     0.273 C 
HETATM    6  C3  UNL     1     -36.147  16.054  -2.854  1.00 20.00     0.031 C 
HETATM    7  C4  UNL     1     -34.965  15.844  -1.901  1.00 20.00     0.007 C 
HETATM    8  C8  UNL     1     -33.674  16.582  -2.311  1.00 20.00    -0.010 C 
HETATM    9  C5  UNL     1     -33.526  16.810  -3.824  1.00 20.00     0.035 C 
HETATM   10  C7  UNL     1     -33.612  15.546  -4.686  1.00 20.00     0.274 C 
BRANCH   8  11
HETATM   11  C12 UNL     1     -33.586  17.932  -1.591  1.00 20.00    -0.019 C 
HETATM   12  C9  UNL     1     -34.231  19.028  -2.434  1.00 20.00     0.010 C 
HETATM   13  C10 UNL     1     -34.247  17.846  -0.219  1.00 20.00     0.010 C 
ENDBRANCH   8  11
ENDBRANCH   3   4
TORSDOF 2
ENDMDL
MODEL 6
REMARK VINA RESULT:      -4.5      1.485      1.793
REMARK  2 active torsions:
REMARK  status: ('A' for Active; 'I' for Inactive)
REMARK    1  A    between atoms: C8_8  and  C12_12 
REMARK    2  A    between atoms: C11_11  and  N13_13 
ROOT
HETATM    1  C1  UNL     1     -35.341  17.788   1.219  1.00 20.00     0.013 C 
HETATM    2  C2  UNL     1     -34.437  17.942   0.444  1.00 20.00    -0.087 C 
HETATM    3  C11 UNL     1     -33.330  18.132  -0.497  1.00 20.00     0.364 C 
ENDROOT
BRANCH   3   4
HETATM    4  N13 UNL     1     -33.615  17.469  -1.769  1.00 20.00     0.099 N 
HETATM    5  C6  UNL     1     -34.215  18.398  -2.729  1.00 20.00     0.273 C 
HETATM    6  C3  UNL     1     -34.105  17.951  -4.201  1.00 20.00     0.031 C 
HETATM    7  C4  UNL     1     -33.332  16.648  -4.433  1.00 20.00     0.007 C 
HETATM    8  C8  UNL     1     -34.063  15.377  -3.956  1.00 20.00    -0.010 C 
HETATM    9  C5  UNL     1     -35.029  15.602  -2.782  1.00 20.00     0.035 C 
HETATM   10  C7  UNL     1     -34.408  16.255  -1.542  1.00 20.00     0.274 C 
BRANCH   8  11
HETATM   11  C12 UNL     1     -34.831  14.740  -5.120  1.00 20.00    -0.019 C 
HETATM   12  C9  UNL     1     -34.255  15.205  -6.454  1.00 20.00     0.010 C 
HETATM   13  C10 UNL     1     -34.790  13.219  -5.013  1.00 20.00     0.010 C 
ENDBRANCH   8  11
ENDBRANCH   3   4
TORSDOF 2
ENDMDL
MODEL 7
REMARK VINA RESULT:      -4.5      2.035      5.271
REMARK  2 active torsions:
REMARK  status: ('A' for Active; 'I' for Inactive)
REMARK    1  A    between atoms: C8_8  and  C12_12 
REMARK    2  A    between atoms: C11_11  and  N13_13 
ROOT
HETATM    1  C1  UNL     1     -36.830  15.037  -7.703  1.00 20.00     0.013 C 
HETATM    2  C2  UNL     1     -35.848  14.894  -7.028  1.00 20.00    -0.087 C 
HETATM    3  C11 UNL     1     -34.647  14.717  -6.208  1.00 20.00     0.364 C 
ENDROOT
BRANCH   3   4
HETATM    4  N13 UNL     1     -34.787  15.413  -4.929  1.00 20.00     0.099 N 
HETATM    5  C6  UNL     1     -34.877  16.862  -5.121  1.00 20.00     0.273 C 
HETATM    6  C3  UNL     1     -35.497  17.623  -3.931  1.00 20.00     0.031 C 
HETATM    7  C4  UNL     1     -35.979  16.745  -2.771  1.00 20.00     0.007 C 
HETATM    8  C8  UNL     1     -34.849  16.096  -1.948  1.00 20.00    -0.010 C 
HETATM    9  C5  UNL     1     -33.554  15.840  -2.736  1.00 20.00     0.035 C 
HETATM   10  C7  UNL     1     -33.720  15.001  -4.008  1.00 20.00     0.274 C 
BRANCH   8  11
HETATM   11  C12 UNL     1     -34.525  16.959  -0.723  1.00 20.00    -0.019 C 
HETATM   12  C9  UNL     1     -33.285  17.808  -0.983  1.00 20.00     0.010 C 
HETATM   13  C10 UNL     1     -35.718  17.838  -0.364  1.00 20.00     0.010 C 
ENDBRANCH   8  11
ENDBRANCH   3   4
TORSDOF 2
ENDMDL
MODEL 8
REMARK VINA RESULT:      -4.5      1.797      2.771
REMARK  2 active torsions:
REMARK  status: ('A' for Active; 'I' for Inactive)
REMARK    1  A    between atoms: C8_8  and  C12_12 
REMARK    2  A    between atoms: C11_11  and  N13_13 
ROOT
HETATM    1  C1  UNL     1     -32.912  18.622  -0.373  1.00 20.00     0.013 C 
HETATM    2  C2  UNL     1     -33.613  17.709  -0.712  1.00 20.00    -0.087 C 
HETATM    3  C11 UNL     1     -34.470  16.593  -1.120  1.00 20.00     0.364 C 
ENDROOT
BRANCH   3   4
HETATM    4  N13 UNL     1     -34.573  16.528  -2.578  1.00 20.00     0.099 N 
HETATM    5  C6  UNL     1     -35.970  16.564  -3.015  1.00 20.00     0.273 C 
HETATM    6  C3  UNL     1     -36.166  16.982  -4.486  1.00 20.00     0.031 C 
HETATM    7  C4  UNL     1     -34.883  17.355  -5.237  1.00 20.00     0.007 C 
HETATM    8  C8  UNL     1     -33.957  16.163  -5.553  1.00 20.00    -0.010 C 
HETATM    9  C5  UNL     1     -34.058  14.998  -4.555  1.00 20.00     0.035 C 
HETATM   10  C7  UNL     1     -33.821  15.374  -3.088  1.00 20.00     0.274 C 
BRANCH   8  11
HETATM   11  C12 UNL     1     -34.236  15.637  -6.965  1.00 20.00    -0.019 C 
HETATM   12  C9  UNL     1     -35.157  14.423  -6.908  1.00 20.00     0.010 C 
HETATM   13  C10 UNL     1     -34.843  16.737  -7.831  1.00 20.00     0.010 C 
ENDBRANCH   8  11
ENDBRANCH   3   4
TORSDOF 2
ENDMDL
MODEL 9
REMARK VINA RESULT:      -4.4      1.754      5.014
REMARK  2 active torsions:
REMARK  status: ('A' for Active; 'I' for Inactive)
REMARK    1  A    between atoms: C8_8  and  C12_12 
REMARK    2  A    between atoms: C11_11  and  N13_13 
ROOT
HETATM    1  C1  UNL     1     -34.784  13.241  -4.602  1.00 20.00     0.013 C 
HETATM    2  C2  UNL     1     -34.751  14.431  -4.759  1.00 20.00    -0.087 C 
HETATM    3  C11 UNL     1     -34.712  15.882  -4.957  1.00 20.00     0.364 C 
ENDROOT
BRANCH   3   4
HETATM    4  N13 UNL     1     -34.901  16.581  -3.686  1.00 20.00     0.099 N 
HETATM    5  C6  UNL     1     -35.072  18.021  -3.892  1.00 20.00     0.273 C 
HETATM    6  C3  UNL     1     -35.743  18.756  -2.715  1.00 20.00     0.031 C 
HETATM    7  C4  UNL     1     -36.184  17.863  -1.550  1.00 20.00     0.007 C 
HETATM    8  C8  UNL     1     -35.026  17.286  -0.712  1.00 20.00    -0.010 C 
HETATM    9  C5  UNL     1     -33.712  17.097  -1.488  1.00 20.00     0.035 C 
HETATM   10  C7  UNL     1     -33.821  16.238  -2.753  1.00 20.00     0.274 C 
BRANCH   8  11
HETATM   11  C12 UNL     1     -34.761  18.178   0.507  1.00 20.00    -0.019 C 
HETATM   12  C9  UNL     1     -35.350  17.547   1.765  1.00 20.00     0.010 C 
HETATM   13  C10 UNL     1     -33.265  18.421   0.672  1.00 20.00     0.010 C 
ENDBRANCH   8  11
ENDBRANCH   3   4
TORSDOF 2
ENDMDL
