MODEL 1
REMARK VINA RESULT:      -4.8      0.000      0.000
REMARK  3 active torsions:
REMARK  status: ('A' for Active; 'I' for Inactive)
REMARK    1  A    between atoms: C5_5  and  C9_9 
REMARK    2  A    between atoms: C6_6  and  C10_10 
REMARK    3  A    between atoms: C10_10  and  O11_11 
ROOT
HETATM    1  C1  UNL     1     -35.458  17.646  -3.822  1.00 20.00     0.001 C 
HETATM    2  C2  UNL     1     -34.096  17.671  -3.133  1.00 20.00     0.005 C 
HETATM    3  C3  UNL     1     -35.668  16.355  -4.609  1.00 20.00     0.007 C 
HETATM    4  C4  UNL     1     -34.095  15.144  -3.044  1.00 20.00     0.011 C 
HETATM    5  C5  UNL     1     -33.845  16.438  -2.254  1.00 20.00    -0.014 C 
HETATM    6  C6  UNL     1     -35.467  15.113  -3.734  1.00 20.00     0.014 C 
ENDROOT
BRANCH   6   7
HETATM    7  C10 UNL     1     -35.619  13.839  -4.566  1.00 20.00     0.118 C 
HETATM    8  C8  UNL     1     -35.031  14.008  -5.955  1.00 20.00     0.040 C 
BRANCH   7   9
HETATM    9  O11 UNL     1     -34.961  12.773  -3.896  1.00 20.00    -0.396 OA
HETATM   10  H31 UNL     1     -34.049  13.065  -3.734  1.00 20.00     0.210 HD
ENDBRANCH   7   9
ENDBRANCH   6   7
BRANCH   5  11
HETATM   11  C9  UNL     1     -34.667  16.485  -0.964  1.00 20.00     0.000 C 
HETATM   12  C7  UNL     1     -34.271  17.634  -0.098  1.00 20.00     0.005 C 
ENDBRANCH   5  11
TORSDOF 3
ENDMDL
MODEL 2
REMARK VINA RESULT:      -4.4      2.056      3.358
REMARK  3 active torsions:
REMARK  status: ('A' for Active; 'I' for Inactive)
REMARK    1  A    between atoms: C5_5  and  C9_9 
REMARK    2  A    between atoms: C6_6  and  C10_10 
REMARK    3  A    between atoms: C10_10  and  O11_11 
ROOT
HETATM    1  C1  UNL     1     -34.209  13.363  -4.578  1.00 20.00     0.001 C 
HETATM    2  C2  UNL     1     -33.202  14.111  -3.707  1.00 20.00     0.005 C 
HETATM    3  C3  UNL     1     -35.642  13.593  -4.106  1.00 20.00     0.007 C 
HETATM    4  C4  UNL     1     -34.967  15.831  -3.144  1.00 20.00     0.011 C 
HETATM    5  C5  UNL     1     -33.512  15.609  -3.583  1.00 20.00    -0.014 C 
HETATM    6  C6  UNL     1     -35.984  15.085  -4.022  1.00 20.00     0.014 C 
ENDROOT
BRANCH   6   7
HETATM    7  C10 UNL     1     -37.402  15.281  -3.484  1.00 20.00     0.118 C 
HETATM    8  C8  UNL     1     -38.049  16.528  -4.060  1.00 20.00     0.040 C 
BRANCH   7   9
HETATM    9  O11 UNL     1     -38.181  14.141  -3.820  1.00 20.00    -0.396 OA
HETATM   10  H31 UNL     1     -37.566  13.394  -3.893  1.00 20.00     0.210 HD
ENDBRANCH   7   9
ENDBRANCH   6   7
BRANCH   5  11
HETATM   11  C9  UNL     1     -33.186  16.364  -4.874  1.00 20.00     0.000 C 
HETATM   12  C7  UNL     1     -33.574  17.803  -4.785  1.00 20.00     0.005 C 
ENDBRANCH   5  11
TORSDOF 3
ENDMDL
MODEL 3
REMARK VINA RESULT:      -4.4     11.229     12.377
REMARK  3 active torsions:
REMARK  status: ('A' for Active; 'I' for Inactive)
REMARK    1  A    between atoms: C5_5  and  C9_9 
REMARK    2  A    between atoms: C6_6  and  C10_10 
REMARK    3  A    between atoms: C10_10  and  O11_11 
ROOT
HETATM    1  C1  UNL     1     -34.014   5.395   2.337  1.00 20.00     0.001 C 
HETATM    2  C2  UNL     1     -32.524   5.694   2.189  1.00 20.00     0.005 C 
HETATM    3  C3  UNL     1     -34.425   5.292   3.804  1.00 20.00     0.007 C 
HETATM    4  C4  UNL     1     -32.529   6.837   4.444  1.00 20.00     0.011 C 
HETATM    5  C5  UNL     1     -32.078   6.933   2.979  1.00 20.00    -0.014 C 
HETATM    6  C6  UNL     1     -34.029   6.543   4.598  1.00 20.00     0.014 C 
ENDROOT
BRANCH   6   7
HETATM    7  C10 UNL     1     -34.395   6.380   6.073  1.00 20.00     0.118 C 
HETATM    8  C8  UNL     1     -34.526   4.917   6.457  1.00 20.00     0.040 C 
BRANCH   7   9
HETATM    9  O11 UNL     1     -33.386   6.992   6.866  1.00 20.00    -0.396 OA
HETATM   10  H31 UNL     1     -33.653   7.916   6.993  1.00 20.00     0.210 HD
ENDBRANCH   7   9
ENDBRANCH   6   7
BRANCH   5  11
HETATM   11  C9  UNL     1     -32.558   8.228   2.320  1.00 20.00     0.000 C 
HETATM   12  C7  UNL     1     -31.765   8.552   1.097  1.00 20.00     0.005 C 
ENDBRANCH   5  11
TORSDOF 3
ENDMDL
MODEL 4
REMARK VINA RESULT:      -4.4      1.611      1.988
REMARK  3 active torsions:
REMARK  status: ('A' for Active; 'I' for Inactive)
REMARK    1  A    between atoms: C5_5  and  C9_9 
REMARK    2  A    between atoms: C6_6  and  C10_10 
REMARK    3  A    between atoms: C10_10  and  O11_11 
ROOT
HETATM    1  C1  UNL     1     -33.707  16.472  -5.120  1.00 20.00     0.001 C 
HETATM    2  C2  UNL     1     -33.063  15.607  -4.039  1.00 20.00     0.005 C 
HETATM    3  C3  UNL     1     -35.134  16.024  -5.425  1.00 20.00     0.007 C 
HETATM    4  C4  UNL     1     -35.348  15.109  -3.078  1.00 20.00     0.011 C 
HETATM    5  C5  UNL     1     -33.904  15.523  -2.758  1.00 20.00    -0.014 C 
HETATM    6  C6  UNL     1     -36.002  15.981  -4.161  1.00 20.00     0.014 C 
ENDROOT
BRANCH   6   7
HETATM    7  C10 UNL     1     -37.403  15.467  -4.490  1.00 20.00     0.118 C 
HETATM    8  C8  UNL     1     -37.602  15.308  -5.986  1.00 20.00     0.040 C 
BRANCH   7   9
HETATM    9  O11 UNL     1     -37.593  14.213  -3.848  1.00 20.00    -0.396 OA
HETATM   10  H31 UNL     1     -36.897  14.134  -3.176  1.00 20.00     0.210 HD
ENDBRANCH   7   9
ENDBRANCH   6   7
BRANCH   5  11
HETATM   11  C9  UNL     1     -33.851  16.828  -1.959  1.00 20.00     0.000 C 
HETATM   12  C7  UNL     1     -34.626  16.728  -0.687  1.00 20.00     0.005 C 
ENDBRANCH   5  11
TORSDOF 3
ENDMDL
MODEL 5
REMARK VINA RESULT:      -4.3      2.139      3.370
REMARK  3 active torsions:
REMARK  status: ('A' for Active; 'I' for Inactive)
REMARK    1  A    between atoms: C5_5  and  C9_9 
REMARK    2  A    between atoms: C6_6  and  C10_10 
REMARK    3  A    between atoms: C10_10  and  O11_11 
ROOT
HETATM    1  C1  UNL     1     -35.590  15.514  -7.763  1.00 20.00     0.001 C 
HETATM    2  C2  UNL     1     -34.652  16.702  -7.565  1.00 20.00     0.005 C 
HETATM    3  C3  UNL     1     -35.107  14.282  -7.001  1.00 20.00     0.007 C 
HETATM    4  C4  UNL     1     -33.950  15.774  -5.320  1.00 20.00     0.011 C 
HETATM    5  C5  UNL     1     -34.399  17.027  -6.086  1.00 20.00    -0.014 C 
HETATM    6  C6  UNL     1     -34.895  14.577  -5.512  1.00 20.00     0.014 C 
ENDROOT
BRANCH   6   7
HETATM    7  C10 UNL     1     -34.350  13.343  -4.793  1.00 20.00     0.118 C 
HETATM    8  C8  UNL     1     -33.328  13.721  -3.735  1.00 20.00     0.040 C 
BRANCH   7   9
HETATM    9  O11 UNL     1     -35.433  12.652  -4.184  1.00 20.00    -0.396 OA
HETATM   10  H31 UNL     1     -35.887  12.166  -4.891  1.00 20.00     0.210 HD
ENDBRANCH   7   9
ENDBRANCH   6   7
BRANCH   5  11
HETATM   11  C9  UNL     1     -35.617  17.686  -5.435  1.00 20.00     0.000 C 
HETATM   12  C7  UNL     1     -35.404  17.919  -3.975  1.00 20.00     0.005 C 
ENDBRANCH   5  11
TORSDOF 3
ENDMDL
MODEL 6
REMARK VINA RESULT:      -4.3      2.003      2.508
REMARK  3 active torsions:
REMARK  status: ('A' for Active; 'I' for Inactive)
REMARK    1  A    between atoms: C5_5  and  C9_9 
REMARK    2  A    between atoms: C6_6  and  C10_10 
REMARK    3  A    between atoms: C10_10  and  O11_11 
ROOT
HETATM    1  C1  UNL     1     -33.299  16.608  -4.860  1.00 20.00     0.001 C 
HETATM    2  C2  UNL     1     -32.995  15.591  -3.763  1.00 20.00     0.005 C 
HETATM    3  C3  UNL     1     -33.962  15.953  -6.069  1.00 20.00     0.007 C 
HETATM    4  C4  UNL     1     -34.907  14.147  -4.573  1.00 20.00     0.011 C 
HETATM    5  C5  UNL     1     -34.225  14.771  -3.346  1.00 20.00    -0.014 C 
HETATM    6  C6  UNL     1     -35.220  15.169  -5.676  1.00 20.00     0.014 C 
ENDROOT
BRANCH   6   7
HETATM    7  C10 UNL     1     -35.821  14.472  -6.897  1.00 20.00     0.118 C 
HETATM    8  C8  UNL     1     -37.041  15.211  -7.417  1.00 20.00     0.040 C 
BRANCH   7   9
HETATM    9  O11 UNL     1     -34.834  14.405  -7.918  1.00 20.00    -0.396 OA
HETATM   10  H31 UNL     1     -34.906  13.523  -8.319  1.00 20.00     0.210 HD
ENDBRANCH   7   9
ENDBRANCH   6   7
BRANCH   5  11
HETATM   11  C9  UNL     1     -35.203  15.603  -2.513  1.00 20.00     0.000 C 
HETATM   12  C7  UNL     1     -34.499  16.395  -1.462  1.00 20.00     0.005 C 
ENDBRANCH   5  11
TORSDOF 3
ENDMDL
MODEL 7
REMARK VINA RESULT:      -4.3     11.556     12.585
REMARK  3 active torsions:
REMARK  status: ('A' for Active; 'I' for Inactive)
REMARK    1  A    between atoms: C5_5  and  C9_9 
REMARK    2  A    between atoms: C6_6  and  C10_10 
REMARK    3  A    between atoms: C10_10  and  O11_11 
ROOT
HETATM    1  C1  UNL     1     -34.563   4.917   2.942  1.00 20.00     0.001 C 
HETATM    2  C2  UNL     1     -35.443   5.597   3.988  1.00 20.00     0.005 C 
HETATM    3  C3  UNL     1     -33.429   5.829   2.480  1.00 20.00     0.007 C 
HETATM    4  C4  UNL     1     -33.484   7.027   4.705  1.00 20.00     0.011 C 
HETATM    5  C5  UNL     1     -34.645   6.142   5.182  1.00 20.00    -0.014 C 
HETATM    6  C6  UNL     1     -32.592   6.343   3.657  1.00 20.00     0.014 C 
ENDROOT
BRANCH   6   7
HETATM    7  C10 UNL     1     -31.509   7.304   3.166  1.00 20.00     0.118 C 
HETATM    8  C8  UNL     1     -32.043   8.252   2.108  1.00 20.00     0.040 C 
BRANCH   7   9
HETATM    9  O11 UNL     1     -31.024   8.051   4.274  1.00 20.00    -0.396 OA
HETATM   10  H31 UNL     1     -30.779   7.408   4.959  1.00 20.00     0.210 HD
ENDBRANCH   7   9
ENDBRANCH   6   7
BRANCH   5  11
HETATM   11  C9  UNL     1     -34.162   5.016   6.100  1.00 20.00     0.000 C 
HETATM   12  C7  UNL     1     -35.174   3.924   6.214  1.00 20.00     0.005 C 
ENDBRANCH   5  11
TORSDOF 3
ENDMDL
MODEL 8
REMARK VINA RESULT:      -4.2      2.027      4.313
REMARK  3 active torsions:
REMARK  status: ('A' for Active; 'I' for Inactive)
REMARK    1  A    between atoms: C5_5  and  C9_9 
REMARK    2  A    between atoms: C6_6  and  C10_10 
REMARK    3  A    between atoms: C10_10  and  O11_11 
ROOT
HETATM    1  C1  UNL     1     -33.670  16.945  -4.464  1.00 20.00     0.001 C 
HETATM    2  C2  UNL     1     -34.942  16.131  -4.683  1.00 20.00     0.005 C 
HETATM    3  C3  UNL     1     -33.674  17.645  -3.107  1.00 20.00     0.007 C 
HETATM    4  C4  UNL     1     -35.188  15.843  -2.183  1.00 20.00     0.011 C 
HETATM    5  C5  UNL     1     -35.222  15.137  -3.547  1.00 20.00    -0.014 C 
HETATM    6  C6  UNL     1     -33.905  16.658  -1.957  1.00 20.00     0.014 C 
ENDROOT
BRANCH   6   7
HETATM    7  C10 UNL     1     -33.970  17.399  -0.620  1.00 20.00     0.118 C 
HETATM    8  C8  UNL     1     -34.127  18.895  -0.819  1.00 20.00     0.040 C 
BRANCH   7   9
HETATM    9  O11 UNL     1     -35.071  16.899   0.127  1.00 20.00    -0.396 OA
HETATM   10  H31 UNL     1     -35.015  17.299   1.010  1.00 20.00     0.210 HD
ENDBRANCH   7   9
ENDBRANCH   6   7
BRANCH   5  11
HETATM   11  C9  UNL     1     -34.268  13.941  -3.593  1.00 20.00     0.000 C 
HETATM   12  C7  UNL     1     -34.426  13.157  -4.854  1.00 20.00     0.005 C 
ENDBRANCH   5  11
TORSDOF 3
ENDMDL
MODEL 9
REMARK VINA RESULT:      -4.2     11.594     13.184
REMARK  3 active torsions:
REMARK  status: ('A' for Active; 'I' for Inactive)
REMARK    1  A    between atoms: C5_5  and  C9_9 
REMARK    2  A    between atoms: C6_6  and  C10_10 
REMARK    3  A    between atoms: C10_10  and  O11_11 
ROOT
HETATM    1  C1  UNL     1     -40.800   5.914  -0.804  1.00 20.00     0.001 C 
HETATM    2  C2  UNL     1     -41.992   6.864  -0.711  1.00 20.00     0.005 C 
HETATM    3  C3  UNL     1     -41.234   4.499  -1.179  1.00 20.00     0.007 C 
HETATM    4  C4  UNL     1     -43.259   5.435  -2.368  1.00 20.00     0.011 C 
HETATM    5  C5  UNL     1     -42.859   6.866  -1.978  1.00 20.00    -0.014 C 
HETATM    6  C6  UNL     1     -42.061   4.478  -2.469  1.00 20.00     0.014 C 
ENDROOT
BRANCH   6   7
HETATM    7  C10 UNL     1     -42.535   3.058  -2.779  1.00 20.00     0.118 C 
HETATM    8  C8  UNL     1     -41.442   2.237  -3.440  1.00 20.00     0.040 C 
BRANCH   7   9
HETATM    9  O11 UNL     1     -42.934   2.433  -1.567  1.00 20.00    -0.396 OA
HETATM   10  H31 UNL     1     -43.289   3.133  -0.995  1.00 20.00     0.210 HD
ENDBRANCH   7   9
ENDBRANCH   6   7
BRANCH   5  11
HETATM   11  C9  UNL     1     -42.172   7.599  -3.133  1.00 20.00     0.000 C 
HETATM   12  C7  UNL     1     -43.137   7.947  -4.217  1.00 20.00     0.005 C 
ENDBRANCH   5  11
TORSDOF 3
ENDMDL
