MODEL 1
REMARK VINA RESULT:      -4.8      0.000      0.000
REMARK  3 active torsions:
REMARK  status: ('A' for Active; 'I' for Inactive)
REMARK    1  A    between atoms: C1_1  and  C9_9 
REMARK    2  A    between atoms: C6_6  and  C9_9 
REMARK    3  A    between atoms: C7_7  and  C10_10 
ROOT
HETATM    1  C2  UNL     1     -33.775  17.372  -4.325  1.00 20.00     0.001 C 
HETATM    2  C3  UNL     1     -34.933  16.382  -4.434  1.00 20.00     0.005 C 
HETATM    3  C4  UNL     1     -33.746  18.056  -2.959  1.00 20.00     0.005 C 
HETATM    4  C5  UNL     1     -34.884  16.048  -1.929  1.00 20.00     0.009 C 
HETATM    5  C6  UNL     1     -34.953  15.352  -3.297  1.00 20.00    -0.008 C 
HETATM    6  C7  UNL     1     -33.716  17.039  -1.812  1.00 20.00    -0.014 C 
ENDROOT
BRANCH   5   7
HETATM    7  C9  UNL     1     -33.846  14.308  -3.459  1.00 20.00     0.074 C 
BRANCH   7   8
HETATM    8  C1  UNL     1     -34.129  13.345  -4.580  1.00 20.00     0.231 C 
HETATM    9  O11 UNL     1     -35.056  12.544  -4.606  1.00 20.00    -0.307 OA
ENDBRANCH   7   8
ENDBRANCH   5   7
BRANCH   6  10
HETATM   10  C10 UNL     1     -33.754  17.755  -0.461  1.00 20.00     0.000 C 
HETATM   11  C8  UNL     1     -34.936  17.335   0.348  1.00 20.00     0.005 C 
ENDBRANCH   6  10
TORSDOF 3
ENDMDL
MODEL 2
REMARK VINA RESULT:      -4.6     10.756     11.945
REMARK  3 active torsions:
REMARK  status: ('A' for Active; 'I' for Inactive)
REMARK    1  A    between atoms: C1_1  and  C9_9 
REMARK    2  A    between atoms: C6_6  and  C9_9 
REMARK    3  A    between atoms: C7_7  and  C10_10 
ROOT
HETATM    1  C2  UNL     1     -34.341   5.450   2.437  1.00 20.00     0.001 C 
HETATM    2  C3  UNL     1     -32.833   5.619   2.260  1.00 20.00     0.005 C 
HETATM    3  C4  UNL     1     -34.709   5.177   3.894  1.00 20.00     0.005 C 
HETATM    4  C5  UNL     1     -32.640   6.419   4.650  1.00 20.00     0.009 C 
HETATM    5  C6  UNL     1     -32.232   6.679   3.191  1.00 20.00    -0.008 C 
HETATM    6  C7  UNL     1     -34.157   6.256   4.835  1.00 20.00    -0.014 C 
ENDROOT
BRANCH   5   7
HETATM    7  C9  UNL     1     -32.596   8.097   2.745  1.00 20.00     0.074 C 
BRANCH   7   8
HETATM    8  C1  UNL     1     -31.906   8.488   1.467  1.00 20.00     0.231 C 
HETATM    9  O11 UNL     1     -32.354   9.266   0.632  1.00 20.00    -0.307 OA
ENDBRANCH   7   8
ENDBRANCH   5   7
BRANCH   6  10
HETATM   10  C10 UNL     1     -34.486   5.918   6.288  1.00 20.00     0.000 C 
HETATM   11  C8  UNL     1     -35.024   4.531   6.420  1.00 20.00     0.005 C 
ENDBRANCH   6  10
TORSDOF 3
ENDMDL
MODEL 3
REMARK VINA RESULT:      -4.3      2.592      4.697
REMARK  3 active torsions:
REMARK  status: ('A' for Active; 'I' for Inactive)
REMARK    1  A    between atoms: C1_1  and  C9_9 
REMARK    2  A    between atoms: C6_6  and  C9_9 
REMARK    3  A    between atoms: C7_7  and  C10_10 
ROOT
HETATM    1  C2  UNL     1     -33.213  16.408  -4.820  1.00 20.00     0.001 C 
HETATM    2  C3  UNL     1     -33.132  15.386  -3.687  1.00 20.00     0.005 C 
HETATM    3  C4  UNL     1     -34.055  15.892  -5.984  1.00 20.00     0.005 C 
HETATM    4  C5  UNL     1     -35.364  14.430  -4.392  1.00 20.00     0.009 C 
HETATM    5  C6  UNL     1     -34.510  14.910  -3.207  1.00 20.00    -0.008 C 
HETATM    6  C7  UNL     1     -35.453  15.458  -5.530  1.00 20.00    -0.014 C 
ENDROOT
BRANCH   5   7
HETATM    7  C9  UNL     1     -35.228  15.986  -2.389  1.00 20.00     0.074 C 
BRANCH   7   8
HETATM    8  C1  UNL     1     -34.369  16.526  -1.279  1.00 20.00     0.231 C 
HETATM    9  O11 UNL     1     -34.768  16.821  -0.158  1.00 20.00    -0.307 OA
ENDBRANCH   7   8
ENDBRANCH   5   7
BRANCH   6  10
HETATM   10  C10 UNL     1     -36.245  14.887  -6.706  1.00 20.00     0.000 C 
HETATM   11  C8  UNL     1     -35.357  14.572  -7.864  1.00 20.00     0.005 C 
ENDBRANCH   6  10
TORSDOF 3
ENDMDL
MODEL 4
REMARK VINA RESULT:      -4.3      1.911      2.764
REMARK  3 active torsions:
REMARK  status: ('A' for Active; 'I' for Inactive)
REMARK    1  A    between atoms: C1_1  and  C9_9 
REMARK    2  A    between atoms: C6_6  and  C9_9 
REMARK    3  A    between atoms: C7_7  and  C10_10 
ROOT
HETATM    1  C2  UNL     1     -36.500  14.765  -3.816  1.00 20.00     0.001 C 
HETATM    2  C3  UNL     1     -35.600  13.689  -4.420  1.00 20.00     0.005 C 
HETATM    3  C4  UNL     1     -35.797  15.518  -2.688  1.00 20.00     0.005 C 
HETATM    4  C5  UNL     1     -33.557  15.018  -3.748  1.00 20.00     0.009 C 
HETATM    5  C6  UNL     1     -34.239  14.229  -4.877  1.00 20.00    -0.008 C 
HETATM    6  C7  UNL     1     -34.456  16.107  -3.142  1.00 20.00    -0.014 C 
ENDROOT
BRANCH   5   7
HETATM    7  C9  UNL     1     -34.360  15.060  -6.157  1.00 20.00     0.074 C 
BRANCH   7   8
HETATM    8  C1  UNL     1     -35.134  14.345  -7.230  1.00 20.00     0.231 C 
HETATM    9  O11 UNL     1     -36.210  14.713  -7.689  1.00 20.00    -0.307 OA
ENDBRANCH   7   8
ENDBRANCH   5   7
BRANCH   6  10
HETATM   10  C10 UNL     1     -33.751  16.796  -1.974  1.00 20.00     0.000 C 
HETATM   11  C8  UNL     1     -34.564  16.724  -0.724  1.00 20.00     0.005 C 
ENDBRANCH   6  10
TORSDOF 3
ENDMDL
MODEL 5
REMARK VINA RESULT:      -4.2      1.937      2.438
REMARK  3 active torsions:
REMARK  status: ('A' for Active; 'I' for Inactive)
REMARK    1  A    between atoms: C1_1  and  C9_9 
REMARK    2  A    between atoms: C6_6  and  C9_9 
REMARK    3  A    between atoms: C7_7  and  C10_10 
ROOT
HETATM    1  C2  UNL     1     -33.378  15.316  -4.074  1.00 20.00     0.001 C 
HETATM    2  C3  UNL     1     -34.309  16.001  -5.072  1.00 20.00     0.005 C 
HETATM    3  C4  UNL     1     -33.435  15.984  -2.702  1.00 20.00     0.005 C 
HETATM    4  C5  UNL     1     -35.798  16.750  -3.172  1.00 20.00     0.009 C 
HETATM    5  C6  UNL     1     -35.754  16.112  -4.570  1.00 20.00    -0.008 C 
HETATM    6  C7  UNL     1     -34.869  16.059  -2.162  1.00 20.00    -0.014 C 
ENDROOT
BRANCH   5   7
HETATM    7  C9  UNL     1     -36.470  14.759  -4.599  1.00 20.00     0.074 C 
BRANCH   7   8
HETATM    8  C1  UNL     1     -37.954  14.895  -4.393  1.00 20.00     0.231 C 
HETATM    9  O11 UNL     1     -38.598  14.337  -3.511  1.00 20.00    -0.307 OA
ENDBRANCH   7   8
ENDBRANCH   5   7
BRANCH   6  10
HETATM   10  C10 UNL     1     -34.898  16.790  -0.820  1.00 20.00     0.000 C 
HETATM   11  C8  UNL     1     -33.684  17.640  -0.632  1.00 20.00     0.005 C 
ENDBRANCH   6  10
TORSDOF 3
ENDMDL
MODEL 6
REMARK VINA RESULT:      -4.2      2.324      4.386
REMARK  3 active torsions:
REMARK  status: ('A' for Active; 'I' for Inactive)
REMARK    1  A    between atoms: C1_1  and  C9_9 
REMARK    2  A    between atoms: C6_6  and  C9_9 
REMARK    3  A    between atoms: C7_7  and  C10_10 
ROOT
HETATM    1  C2  UNL     1     -33.621  16.528  -3.471  1.00 20.00     0.001 C 
HETATM    2  C3  UNL     1     -34.312  15.348  -2.790  1.00 20.00     0.005 C 
HETATM    3  C4  UNL     1     -33.319  16.234  -4.938  1.00 20.00     0.005 C 
HETATM    4  C5  UNL     1     -35.266  14.624  -5.017  1.00 20.00     0.009 C 
HETATM    5  C6  UNL     1     -35.571  14.879  -3.532  1.00 20.00    -0.008 C 
HETATM    6  C7  UNL     1     -34.577  15.811  -5.706  1.00 20.00    -0.014 C 
ENDROOT
BRANCH   5   7
HETATM    7  C9  UNL     1     -36.733  15.859  -3.352  1.00 20.00     0.074 C 
BRANCH   7   8
HETATM    8  C1  UNL     1     -38.028  15.313  -3.888  1.00 20.00     0.231 C 
HETATM    9  O11 UNL     1     -38.420  14.160  -3.747  1.00 20.00    -0.307 OA
ENDBRANCH   7   8
ENDBRANCH   5   7
BRANCH   6  10
HETATM   10  C10 UNL     1     -34.229  15.462  -7.153  1.00 20.00     0.000 C 
HETATM   11  C8  UNL     1     -35.260  14.572  -7.765  1.00 20.00     0.005 C 
ENDBRANCH   6  10
TORSDOF 3
ENDMDL
MODEL 7
REMARK VINA RESULT:      -4.1      2.212      3.510
REMARK  3 active torsions:
REMARK  status: ('A' for Active; 'I' for Inactive)
REMARK    1  A    between atoms: C1_1  and  C9_9 
REMARK    2  A    between atoms: C6_6  and  C9_9 
REMARK    3  A    between atoms: C7_7  and  C10_10 
ROOT
HETATM    1  C2  UNL     1     -34.950  13.241  -4.582  1.00 20.00     0.001 C 
HETATM    2  C3  UNL     1     -34.986  13.959  -5.930  1.00 20.00     0.005 C 
HETATM    3  C4  UNL     1     -34.188  14.050  -3.535  1.00 20.00     0.005 C 
HETATM    4  C5  UNL     1     -34.781  16.186  -4.750  1.00 20.00     0.009 C 
HETATM    5  C6  UNL     1     -35.528  15.392  -5.834  1.00 20.00    -0.008 C 
HETATM    6  C7  UNL     1     -34.748  15.470  -3.391  1.00 20.00    -0.014 C 
ENDROOT
BRANCH   5   7
HETATM    7  C9  UNL     1     -37.042  15.412  -5.611  1.00 20.00     0.074 C 
BRANCH   7   8
HETATM    8  C1  UNL     1     -37.806  15.571  -6.897  1.00 20.00     0.231 C 
HETATM    9  O11 UNL     1     -37.953  14.696  -7.743  1.00 20.00    -0.307 OA
ENDBRANCH   7   8
ENDBRANCH   5   7
BRANCH   6  10
HETATM   10  C10 UNL     1     -33.924  16.272  -2.383  1.00 20.00     0.000 C 
HETATM   11  C8  UNL     1     -34.677  16.496  -1.114  1.00 20.00     0.005 C 
ENDBRANCH   6  10
TORSDOF 3
ENDMDL
MODEL 8
REMARK VINA RESULT:      -4.1      2.642      4.643
REMARK  3 active torsions:
REMARK  status: ('A' for Active; 'I' for Inactive)
REMARK    1  A    between atoms: C1_1  and  C9_9 
REMARK    2  A    between atoms: C6_6  and  C9_9 
REMARK    3  A    between atoms: C7_7  and  C10_10 
ROOT
HETATM    1  C2  UNL     1     -36.488  16.476  -3.104  1.00 20.00     0.001 C 
HETATM    2  C3  UNL     1     -35.571  17.636  -2.720  1.00 20.00     0.005 C 
HETATM    3  C4  UNL     1     -35.733  15.389  -3.866  1.00 20.00     0.005 C 
HETATM    4  C5  UNL     1     -33.590  16.065  -2.707  1.00 20.00     0.009 C 
HETATM    5  C6  UNL     1     -34.321  17.186  -1.951  1.00 20.00    -0.008 C 
HETATM    6  C7  UNL     1     -34.507  14.893  -3.088  1.00 20.00    -0.014 C 
ENDROOT
BRANCH   5   7
HETATM    7  C9  UNL     1     -34.657  16.777  -0.515  1.00 20.00     0.074 C 
BRANCH   7   8
HETATM    8  C1  UNL     1     -35.276  17.902   0.269  1.00 20.00     0.231 C 
HETATM    9  O11 UNL     1     -35.932  17.770   1.296  1.00 20.00    -0.307 OA
ENDBRANCH   7   8
ENDBRANCH   5   7
BRANCH   6  10
HETATM   10  C10 UNL     1     -33.739  13.855  -3.906  1.00 20.00     0.000 C 
HETATM   11  C8  UNL     1     -34.623  13.177  -4.900  1.00 20.00     0.005 C 
ENDBRANCH   6  10
TORSDOF 3
ENDMDL
MODEL 9
REMARK VINA RESULT:      -4.1      3.455      5.645
REMARK  3 active torsions:
REMARK  status: ('A' for Active; 'I' for Inactive)
REMARK    1  A    between atoms: C1_1  and  C9_9 
REMARK    2  A    between atoms: C6_6  and  C9_9 
REMARK    3  A    between atoms: C7_7  and  C10_10 
ROOT
HETATM    1  C2  UNL     1     -34.794  17.359   0.487  1.00 20.00     0.001 C 
HETATM    2  C3  UNL     1     -34.487  18.855   0.526  1.00 20.00     0.005 C 
HETATM    3  C4  UNL     1     -34.917  16.848  -0.946  1.00 20.00     0.005 C 
HETATM    4  C5  UNL     1     -33.371  18.686  -1.736  1.00 20.00     0.009 C 
HETATM    5  C6  UNL     1     -33.257  19.239  -0.306  1.00 20.00    -0.008 C 
HETATM    6  C7  UNL     1     -33.673  17.180  -1.780  1.00 20.00    -0.014 C 
ENDROOT
BRANCH   5   7
HETATM    7  C9  UNL     1     -31.955  18.799   0.369  1.00 20.00     0.074 C 
BRANCH   7   8
HETATM    8  C1  UNL     1     -31.889  19.225   1.811  1.00 20.00     0.231 C 
HETATM    9  O11 UNL     1     -31.375  18.577   2.715  1.00 20.00    -0.307 OA
ENDBRANCH   7   8
ENDBRANCH   5   7
BRANCH   6  10
HETATM   10  C10 UNL     1     -33.856  16.712  -3.224  1.00 20.00     0.000 C 
HETATM   11  C8  UNL     1     -33.216  15.383  -3.454  1.00 20.00     0.005 C 
ENDBRANCH   6  10
TORSDOF 3
ENDMDL
