MODEL 1
REMARK VINA RESULT:      -4.3      0.000      0.000
REMARK  3 active torsions:
REMARK  status: ('A' for Active; 'I' for Inactive)
REMARK    1  A    between atoms: C4_4  and  C5_5 
REMARK    2  A    between atoms: C4_4  and  C6_6 
REMARK    3  A    between atoms: C5_5  and  C7_7 
ROOT
HETATM    1  C5  UNL     1     -33.119   5.346   4.167  1.00 20.00     0.009 C 
ENDROOT
BRANCH   1   2
HETATM    2  C4  UNL     1     -33.117   6.287   2.955  1.00 20.00     0.016 C 
BRANCH   2   3
HETATM    3  C6  UNL     1     -32.013   7.332   3.084  1.00 20.00     0.114 C 
HETATM    4 CL8  UNL     1     -32.010   8.410   1.668  1.00 20.00    -0.130 Cl
ENDBRANCH   2   3
ENDBRANCH   1   2
BRANCH   1   5
HETATM    5  C7  UNL     1     -34.436   5.306   4.988  1.00 20.00    -0.051 C 
HETATM    6  C1  UNL     1     -34.720   3.891   5.516  1.00 20.00     0.014 C 
HETATM    7  C2  UNL     1     -34.385   6.287   6.171  1.00 20.00     0.014 C 
HETATM    8  C3  UNL     1     -35.592   5.722   4.058  1.00 20.00     0.014 C 
ENDBRANCH   1   5
TORSDOF 3
ENDMDL
MODEL 2
REMARK VINA RESULT:      -4.3      0.040      1.526
REMARK  3 active torsions:
REMARK  status: ('A' for Active; 'I' for Inactive)
REMARK    1  A    between atoms: C4_4  and  C5_5 
REMARK    2  A    between atoms: C4_4  and  C6_6 
REMARK    3  A    between atoms: C5_5  and  C7_7 
ROOT
HETATM    1  C5  UNL     1     -33.086   5.371   4.199  1.00 20.00     0.009 C 
ENDROOT
BRANCH   1   2
HETATM    2  C4  UNL     1     -33.057   6.260   2.948  1.00 20.00     0.016 C 
BRANCH   2   3
HETATM    3  C6  UNL     1     -32.002   7.352   3.085  1.00 20.00     0.114 C 
HETATM    4 CL8  UNL     1     -32.016   8.413   1.657  1.00 20.00    -0.130 Cl
ENDBRANCH   2   3
ENDBRANCH   1   2
BRANCH   1   5
HETATM    5  C7  UNL     1     -34.443   5.306   4.950  1.00 20.00    -0.051 C 
HETATM    6  C1  UNL     1     -35.607   5.711   4.031  1.00 20.00     0.014 C 
HETATM    7  C2  UNL     1     -34.704   3.899   5.509  1.00 20.00     0.014 C 
HETATM    8  C3  UNL     1     -34.385   6.297   6.129  1.00 20.00     0.014 C 
ENDBRANCH   1   5
TORSDOF 3
ENDMDL
MODEL 3
REMARK VINA RESULT:      -4.2      0.042      1.536
REMARK  3 active torsions:
REMARK  status: ('A' for Active; 'I' for Inactive)
REMARK    1  A    between atoms: C4_4  and  C5_5 
REMARK    2  A    between atoms: C4_4  and  C6_6 
REMARK    3  A    between atoms: C5_5  and  C7_7 
ROOT
HETATM    1  C5  UNL     1     -33.105   5.323   4.179  1.00 20.00     0.009 C 
ENDROOT
BRANCH   1   2
HETATM    2  C4  UNL     1     -33.057   6.226   2.939  1.00 20.00     0.016 C 
BRANCH   2   3
HETATM    3  C6  UNL     1     -32.007   7.319   3.106  1.00 20.00     0.114 C 
HETATM    4 CL8  UNL     1     -32.023   8.415   1.705  1.00 20.00    -0.130 Cl
ENDBRANCH   2   3
ENDBRANCH   1   2
BRANCH   1   5
HETATM    5  C7  UNL     1     -34.443   5.329   4.966  1.00 20.00    -0.051 C 
HETATM    6  C1  UNL     1     -34.383   6.297   6.159  1.00 20.00     0.014 C 
HETATM    7  C2  UNL     1     -35.622   5.714   4.059  1.00 20.00     0.014 C 
HETATM    8  C3  UNL     1     -34.687   3.906   5.506  1.00 20.00     0.014 C 
ENDBRANCH   1   5
TORSDOF 3
ENDMDL
MODEL 4
REMARK VINA RESULT:      -3.7      2.408      4.057
REMARK  3 active torsions:
REMARK  status: ('A' for Active; 'I' for Inactive)
REMARK    1  A    between atoms: C4_4  and  C5_5 
REMARK    2  A    between atoms: C4_4  and  C6_6 
REMARK    3  A    between atoms: C5_5  and  C7_7 
ROOT
HETATM    1  C5  UNL     1     -33.832   6.858   3.979  1.00 20.00     0.009 C 
ENDROOT
BRANCH   1   2
HETATM    2  C4  UNL     1     -34.572   5.550   3.667  1.00 20.00     0.016 C 
BRANCH   2   3
HETATM    3  C6  UNL     1     -35.111   4.915   4.945  1.00 20.00     0.114 C 
HETATM    4 CL8  UNL     1     -34.450   5.739   6.376  1.00 20.00    -0.130 Cl
ENDBRANCH   2   3
ENDBRANCH   1   2
BRANCH   1   5
HETATM    5  C7  UNL     1     -32.444   7.024   3.306  1.00 20.00    -0.051 C 
HETATM    6  C1  UNL     1     -32.528   7.946   2.078  1.00 20.00     0.014 C 
HETATM    7  C2  UNL     1     -31.410   7.589   4.293  1.00 20.00     0.014 C 
HETATM    8  C3  UNL     1     -31.967   5.635   2.841  1.00 20.00     0.014 C 
ENDBRANCH   1   5
TORSDOF 3
ENDMDL
MODEL 5
REMARK VINA RESULT:      -3.7      2.411      4.055
REMARK  3 active torsions:
REMARK  status: ('A' for Active; 'I' for Inactive)
REMARK    1  A    between atoms: C4_4  and  C5_5 
REMARK    2  A    between atoms: C4_4  and  C6_6 
REMARK    3  A    between atoms: C5_5  and  C7_7 
ROOT
HETATM    1  C5  UNL     1     -33.828   6.846   4.015  1.00 20.00     0.009 C 
ENDROOT
BRANCH   1   2
HETATM    2  C4  UNL     1     -34.627   5.577   3.690  1.00 20.00     0.016 C 
BRANCH   2   3
HETATM    3  C6  UNL     1     -35.101   4.894   4.968  1.00 20.00     0.114 C 
HETATM    4 CL8  UNL     1     -34.441   5.721   6.398  1.00 20.00    -0.130 Cl
ENDBRANCH   2   3
ENDBRANCH   1   2
BRANCH   1   5
HETATM    5  C7  UNL     1     -32.459   6.984   3.295  1.00 20.00    -0.051 C 
HETATM    6  C1  UNL     1     -31.934   5.616   2.832  1.00 20.00     0.014 C 
HETATM    7  C2  UNL     1     -32.559   7.926   2.085  1.00 20.00     0.014 C 
HETATM    8  C3  UNL     1     -31.451   7.581   4.296  1.00 20.00     0.014 C 
ENDBRANCH   1   5
TORSDOF 3
ENDMDL
MODEL 6
REMARK VINA RESULT:      -3.6      2.382      4.028
REMARK  3 active torsions:
REMARK  status: ('A' for Active; 'I' for Inactive)
REMARK    1  A    between atoms: C4_4  and  C5_5 
REMARK    2  A    between atoms: C4_4  and  C6_6 
REMARK    3  A    between atoms: C5_5  and  C7_7 
ROOT
HETATM    1  C5  UNL     1     -33.902   6.870   3.909  1.00 20.00     0.009 C 
ENDROOT
BRANCH   1   2
HETATM    2  C4  UNL     1     -34.635   5.546   3.660  1.00 20.00     0.016 C 
BRANCH   2   3
HETATM    3  C6  UNL     1     -35.092   4.923   4.975  1.00 20.00     0.114 C 
HETATM    4 CL8  UNL     1     -34.382   5.795   6.355  1.00 20.00    -0.130 Cl
ENDBRANCH   2   3
ENDBRANCH   1   2
BRANCH   1   5
HETATM    5  C7  UNL     1     -32.471   6.972   3.315  1.00 20.00    -0.051 C 
HETATM    6  C1  UNL     1     -31.489   7.581   4.330  1.00 20.00     0.014 C 
HETATM    7  C2  UNL     1     -31.953   5.595   2.871  1.00 20.00     0.014 C 
HETATM    8  C3  UNL     1     -32.531   7.893   2.081  1.00 20.00     0.014 C 
ENDBRANCH   1   5
TORSDOF 3
ENDMDL
MODEL 7
REMARK VINA RESULT:      -3.5     11.460     12.232
REMARK  3 active torsions:
REMARK  status: ('A' for Active; 'I' for Inactive)
REMARK    1  A    between atoms: C4_4  and  C5_5 
REMARK    2  A    between atoms: C4_4  and  C6_6 
REMARK    3  A    between atoms: C5_5  and  C7_7 
ROOT
HETATM    1  C5  UNL     1     -34.965  15.498  -2.993  1.00 20.00     0.009 C 
ENDROOT
BRANCH   1   2
HETATM    2  C4  UNL     1     -34.018  16.339  -2.128  1.00 20.00     0.016 C 
BRANCH   2   3
HETATM    3  C6  UNL     1     -34.651  16.648  -0.775  1.00 20.00     0.114 C 
HETATM    4 CL8  UNL     1     -33.773  17.965   0.037  1.00 20.00    -0.130 Cl
ENDBRANCH   2   3
ENDBRANCH   1   2
BRANCH   1   5
HETATM    5  C7  UNL     1     -34.285  14.599  -4.060  1.00 20.00    -0.051 C 
HETATM    6  C1  UNL     1     -34.182  15.322  -5.413  1.00 20.00     0.014 C 
HETATM    7  C2  UNL     1     -32.882  14.163  -3.609  1.00 20.00     0.014 C 
HETATM    8  C3  UNL     1     -35.152  13.338  -4.246  1.00 20.00     0.014 C 
ENDBRANCH   1   5
TORSDOF 3
ENDMDL
MODEL 8
REMARK VINA RESULT:      -3.5     11.343     12.322
REMARK  3 active torsions:
REMARK  status: ('A' for Active; 'I' for Inactive)
REMARK    1  A    between atoms: C4_4  and  C5_5 
REMARK    2  A    between atoms: C4_4  and  C6_6 
REMARK    3  A    between atoms: C5_5  and  C7_7 
ROOT
HETATM    1  C5  UNL     1     -33.695  15.977  -2.701  1.00 20.00     0.009 C 
ENDROOT
BRANCH   1   2
HETATM    2  C4  UNL     1     -34.706  16.270  -1.585  1.00 20.00     0.016 C 
BRANCH   2   3
HETATM    3  C6  UNL     1     -34.159  17.317  -0.620  1.00 20.00     0.114 C 
HETATM    4 CL8  UNL     1     -35.120  17.347   0.877  1.00 20.00    -0.130 Cl
ENDBRANCH   2   3
ENDBRANCH   1   2
BRANCH   1   5
HETATM    5  C7  UNL     1     -34.192  15.037  -3.832  1.00 20.00    -0.051 C 
HETATM    6  C1  UNL     1     -33.988  15.676  -5.216  1.00 20.00     0.014 C 
HETATM    7  C2  UNL     1     -33.469  13.682  -3.788  1.00 20.00     0.014 C 
HETATM    8  C3  UNL     1     -35.699  14.794  -3.625  1.00 20.00     0.014 C 
ENDBRANCH   1   5
TORSDOF 3
ENDMDL
MODEL 9
REMARK VINA RESULT:      -3.5     11.360     12.276
REMARK  3 active torsions:
REMARK  status: ('A' for Active; 'I' for Inactive)
REMARK    1  A    between atoms: C4_4  and  C5_5 
REMARK    2  A    between atoms: C4_4  and  C6_6 
REMARK    3  A    between atoms: C5_5  and  C7_7 
ROOT
HETATM    1  C5  UNL     1     -33.701  16.008  -2.674  1.00 20.00     0.009 C 
ENDROOT
BRANCH   1   2
HETATM    2  C4  UNL     1     -34.692  16.265  -1.530  1.00 20.00     0.016 C 
BRANCH   2   3
HETATM    3  C6  UNL     1     -34.162  17.339  -0.586  1.00 20.00     0.114 C 
HETATM    4 CL8  UNL     1     -35.135  17.393   0.902  1.00 20.00    -0.130 Cl
ENDBRANCH   2   3
ENDBRANCH   1   2
BRANCH   1   5
HETATM    5  C7  UNL     1     -34.190  15.044  -3.787  1.00 20.00    -0.051 C 
HETATM    6  C1  UNL     1     -33.403  13.723  -3.764  1.00 20.00     0.014 C 
HETATM    7  C2  UNL     1     -35.690  14.742  -3.643  1.00 20.00     0.014 C 
HETATM    8  C3  UNL     1     -33.957  15.727  -5.149  1.00 20.00     0.014 C 
ENDBRANCH   1   5
TORSDOF 3
ENDMDL
