MODEL 1
REMARK VINA RESULT:      -5.7      0.000      0.000
REMARK  1 active torsions:
REMARK  status: ('A' for Active; 'I' for Inactive)
REMARK    1  A    between atoms: C2_2  and  C3_3 
ROOT
HETATM    1  C1  UNL     1     -34.755   4.932   4.086  1.00 20.00    -0.020 C 
HETATM    2  C2  UNL     1     -34.154   6.049   4.513  1.00 20.00    -0.062 C 
HETATM    3  C5  UNL     1     -35.236   4.095   5.223  1.00 20.00     0.028 C 
HETATM    4  C6  UNL     1     -34.139   6.135   6.006  1.00 20.00     0.038 C 
HETATM    5  C7  UNL     1     -34.526   4.716   6.425  1.00 20.00     0.008 C 
ENDROOT
BRANCH   2   6
HETATM    6  C3  UNL     1     -33.597   7.077   3.690  1.00 20.00     0.002 C 
HETATM    7  C4  UNL     1     -32.477   6.924   2.966  1.00 20.00    -0.030 C 
HETATM    8  C8  UNL     1     -31.888   7.996   2.108  1.00 20.00     0.036 C 
ENDBRANCH   2   6
TORSDOF 1
ENDMDL
MODEL 2
REMARK VINA RESULT:      -4.4     11.702     12.157
REMARK  1 active torsions:
REMARK  status: ('A' for Active; 'I' for Inactive)
REMARK    1  A    between atoms: C2_2  and  C3_3 
ROOT
HETATM    1  C1  UNL     1     -33.433  14.530  -3.662  1.00 20.00    -0.020 C 
HETATM    2  C2  UNL     1     -34.334  15.309  -3.054  1.00 20.00    -0.062 C 
HETATM    3  C5  UNL     1     -34.082  13.542  -4.572  1.00 20.00     0.028 C 
HETATM    4  C6  UNL     1     -35.731  14.964  -3.462  1.00 20.00     0.038 C 
HETATM    5  C7  UNL     1     -35.551  13.616  -4.160  1.00 20.00     0.008 C 
ENDROOT
BRANCH   2   6
HETATM    6  C3  UNL     1     -34.054  16.368  -2.135  1.00 20.00     0.002 C 
HETATM    7  C4  UNL     1     -34.686  16.520  -0.960  1.00 20.00    -0.030 C 
HETATM    8  C8  UNL     1     -34.400  17.627   0.001  1.00 20.00     0.036 C 
ENDBRANCH   2   6
TORSDOF 1
ENDMDL
MODEL 3
REMARK VINA RESULT:      -4.4     11.639     12.113
REMARK  1 active torsions:
REMARK  status: ('A' for Active; 'I' for Inactive)
REMARK    1  A    between atoms: C2_2  and  C3_3 
ROOT
HETATM    1  C1  UNL     1     -35.712  14.890  -3.481  1.00 20.00    -0.020 C 
HETATM    2  C2  UNL     1     -34.466  15.166  -3.081  1.00 20.00    -0.062 C 
HETATM    3  C5  UNL     1     -35.760  13.671  -4.339  1.00 20.00     0.028 C 
HETATM    4  C6  UNL     1     -33.481  14.173  -3.611  1.00 20.00     0.038 C 
HETATM    5  C7  UNL     1     -34.289  13.441  -4.683  1.00 20.00     0.008 C 
ENDROOT
BRANCH   2   6
HETATM    6  C3  UNL     1     -34.068  16.249  -2.237  1.00 20.00     0.002 C 
HETATM    7  C4  UNL     1     -34.617  16.497  -1.037  1.00 20.00    -0.030 C 
HETATM    8  C8  UNL     1     -34.208  17.629  -0.153  1.00 20.00     0.036 C 
ENDBRANCH   2   6
TORSDOF 1
ENDMDL
MODEL 4
REMARK VINA RESULT:      -4.2     11.341     12.567
REMARK  1 active torsions:
REMARK  status: ('A' for Active; 'I' for Inactive)
REMARK    1  A    between atoms: C2_2  and  C3_3 
ROOT
HETATM    1  C1  UNL     1     -34.259  15.608  -5.014  1.00 20.00    -0.020 C 
HETATM    2  C2  UNL     1     -34.205  15.269  -3.721  1.00 20.00    -0.062 C 
HETATM    3  C5  UNL     1     -34.609  14.442  -5.876  1.00 20.00     0.028 C 
HETATM    4  C6  UNL     1     -34.510  13.819  -3.514  1.00 20.00     0.038 C 
HETATM    5  C7  UNL     1     -34.423  13.255  -4.933  1.00 20.00     0.008 C 
ENDROOT
BRANCH   2   6
HETATM    6  C3  UNL     1     -33.916  16.144  -2.629  1.00 20.00     0.002 C 
HETATM    7  C4  UNL     1     -34.693  16.255  -1.539  1.00 20.00    -0.030 C 
HETATM    8  C8  UNL     1     -34.398  17.171  -0.396  1.00 20.00     0.036 C 
ENDBRANCH   2   6
TORSDOF 1
ENDMDL
MODEL 5
REMARK VINA RESULT:      -4.2      9.338     10.579
REMARK  1 active torsions:
REMARK  status: ('A' for Active; 'I' for Inactive)
REMARK    1  A    between atoms: C2_2  and  C3_3 
ROOT
HETATM    1  C1  UNL     1     -41.955   6.144  -2.185  1.00 20.00    -0.020 C 
HETATM    2  C2  UNL     1     -41.681   4.853  -1.968  1.00 20.00    -0.062 C 
HETATM    3  C5  UNL     1     -41.221   7.031  -1.237  1.00 20.00     0.028 C 
HETATM    4  C6  UNL     1     -40.719   4.672  -0.837  1.00 20.00     0.038 C 
HETATM    5  C7  UNL     1     -40.716   6.052  -0.178  1.00 20.00     0.008 C 
ENDROOT
BRANCH   2   6
HETATM    6  C3  UNL     1     -42.198   3.743  -2.705  1.00 20.00     0.002 C 
HETATM    7  C4  UNL     1     -41.462   2.676  -3.058  1.00 20.00    -0.030 C 
HETATM    8  C8  UNL     1     -41.996   1.515  -3.831  1.00 20.00     0.036 C 
ENDBRANCH   2   6
TORSDOF 1
ENDMDL
MODEL 6
REMARK VINA RESULT:      -4.0     11.640     12.649
REMARK  1 active torsions:
REMARK  status: ('A' for Active; 'I' for Inactive)
REMARK    1  A    between atoms: C2_2  and  C3_3 
ROOT
HETATM    1  C1  UNL     1     -34.688  16.756  -0.452  1.00 20.00    -0.020 C 
HETATM    2  C2  UNL     1     -34.443  16.606  -1.758  1.00 20.00    -0.062 C 
HETATM    3  C5  UNL     1     -34.169  18.057   0.061  1.00 20.00     0.028 C 
HETATM    4  C6  UNL     1     -33.719  17.786  -2.326  1.00 20.00     0.038 C 
HETATM    5  C7  UNL     1     -33.260  18.530  -1.071  1.00 20.00     0.008 C 
ENDROOT
BRANCH   2   6
HETATM    6  C3  UNL     1     -34.819  15.490  -2.567  1.00 20.00     0.002 C 
HETATM    7  C4  UNL     1     -33.953  14.788  -3.316  1.00 20.00    -0.030 C 
HETATM    8  C8  UNL     1     -34.342  13.623  -4.166  1.00 20.00     0.036 C 
ENDBRANCH   2   6
TORSDOF 1
ENDMDL
MODEL 7
REMARK VINA RESULT:      -4.0     12.052     12.651
REMARK  1 active torsions:
REMARK  status: ('A' for Active; 'I' for Inactive)
REMARK    1  A    between atoms: C2_2  and  C3_3 
ROOT
HETATM    1  C1  UNL     1     -35.015  17.563   0.878  1.00 20.00    -0.020 C 
HETATM    2  C2  UNL     1     -34.360  17.347  -0.268  1.00 20.00    -0.062 C 
HETATM    3  C5  UNL     1     -34.371  18.638   1.688  1.00 20.00     0.028 C 
HETATM    4  C6  UNL     1     -33.172  18.245  -0.406  1.00 20.00     0.038 C 
HETATM    5  C7  UNL     1     -33.014  18.808   1.007  1.00 20.00     0.008 C 
ENDROOT
BRANCH   2   6
HETATM    6  C3  UNL     1     -34.717  16.404  -1.281  1.00 20.00     0.002 C 
HETATM    7  C4  UNL     1     -33.954  16.142  -2.355  1.00 20.00    -0.030 C 
HETATM    8  C8  UNL     1     -34.324  15.160  -3.419  1.00 20.00     0.036 C 
ENDBRANCH   2   6
TORSDOF 1
ENDMDL
MODEL 8
REMARK VINA RESULT:      -3.9     11.687     12.802
REMARK  1 active torsions:
REMARK  status: ('A' for Active; 'I' for Inactive)
REMARK    1  A    between atoms: C2_2  and  C3_3 
ROOT
HETATM    1  C1  UNL     1     -33.716  16.956  -3.345  1.00 20.00    -0.020 C 
HETATM    2  C2  UNL     1     -34.364  16.124  -2.523  1.00 20.00    -0.062 C 
HETATM    3  C5  UNL     1     -33.217  16.252  -4.562  1.00 20.00     0.028 C 
HETATM    4  C6  UNL     1     -34.401  14.729  -3.061  1.00 20.00     0.038 C 
HETATM    5  C7  UNL     1     -33.368  14.779  -4.187  1.00 20.00     0.008 C 
ENDROOT
BRANCH   2   6
HETATM    6  C3  UNL     1     -34.982  16.472  -1.282  1.00 20.00     0.002 C 
HETATM    7  C4  UNL     1     -34.404  17.253  -0.355  1.00 20.00    -0.030 C 
HETATM    8  C8  UNL     1     -35.043  17.616   0.945  1.00 20.00     0.036 C 
ENDBRANCH   2   6
TORSDOF 1
ENDMDL
MODEL 9
REMARK VINA RESULT:      -3.8      9.896     10.663
REMARK  1 active torsions:
REMARK  status: ('A' for Active; 'I' for Inactive)
REMARK    1  A    between atoms: C2_2  and  C3_3 
ROOT
HETATM    1  C1  UNL     1     -41.353   7.043  -1.141  1.00 20.00    -0.020 C 
HETATM    2  C2  UNL     1     -41.922   6.319  -2.111  1.00 20.00    -0.062 C 
HETATM    3  C5  UNL     1     -40.620   6.182  -0.168  1.00 20.00     0.028 C 
HETATM    4  C6  UNL     1     -41.660   4.857  -1.940  1.00 20.00     0.038 C 
HETATM    5  C7  UNL     1     -41.122   4.780  -0.510  1.00 20.00     0.008 C 
ENDROOT
BRANCH   2   6
HETATM    6  C3  UNL     1     -42.681   6.827  -3.211  1.00 20.00     0.002 C 
HETATM    7  C4  UNL     1     -42.410   7.988  -3.829  1.00 20.00    -0.030 C 
HETATM    8  C8  UNL     1     -43.202   8.525  -4.976  1.00 20.00     0.036 C 
ENDBRANCH   2   6
TORSDOF 1
ENDMDL
