MODEL 1
REMARK VINA RESULT:      -4.5      0.000      0.000
REMARK  1 active torsions:
REMARK  status: ('A' for Active; 'I' for Inactive)
REMARK    1  A    between atoms: C8_8  and  N10_10 
ROOT
HETATM    1  C1  UNL     1     -34.303  13.658  -4.637  1.00 20.00     0.177 C 
HETATM    2  N9  UNL     1     -34.868  12.645  -4.615  1.00 20.00    -0.172 NA
HETATM    3  N10 UNL     1     -33.650  14.832  -4.666  1.00 20.00    -0.324 N 
HETATM    4  H22 UNL     1     -33.517  15.327  -5.558  1.00 20.00     0.172 HD
ENDROOT
BRANCH   3   5
HETATM    5  C8  UNL     1     -33.555  15.745  -3.504  1.00 20.00     0.096 C 
HETATM    6  C5  UNL     1     -33.572  17.216  -3.958  1.00 20.00     0.031 C 
HETATM    7  C6  UNL     1     -34.812  17.783  -3.240  1.00 20.00    -0.012 C 
HETATM    8  C2  UNL     1     -34.528  17.854  -1.729  1.00 20.00     0.005 C 
HETATM    9  C4  UNL     1     -35.786  16.610  -3.320  1.00 20.00     0.011 C 
HETATM   10  C3  UNL     1     -34.554  16.377  -1.303  1.00 20.00     0.007 C 
HETATM   11  C7  UNL     1     -34.822  15.642  -2.628  1.00 20.00     0.009 C 
ENDBRANCH   3   5
TORSDOF 1
ENDMDL
MODEL 2
REMARK VINA RESULT:      -4.4      1.875      2.508
REMARK  1 active torsions:
REMARK  status: ('A' for Active; 'I' for Inactive)
REMARK    1  A    between atoms: C8_8  and  N10_10 
ROOT
HETATM    1  C1  UNL     1     -34.753  14.777  -7.176  1.00 20.00     0.177 C 
HETATM    2  N9  UNL     1     -35.546  14.366  -7.918  1.00 20.00    -0.172 NA
HETATM    3  N10 UNL     1     -33.831  15.252  -6.321  1.00 20.00    -0.324 N 
HETATM    4  H22 UNL     1     -32.898  15.517  -6.663  1.00 20.00     0.172 HD
ENDROOT
BRANCH   3   5
HETATM    5  C8  UNL     1     -34.168  15.923  -5.046  1.00 20.00     0.096 C 
HETATM    6  C5  UNL     1     -35.633  15.654  -4.653  1.00 20.00     0.031 C 
HETATM    7  C6  UNL     1     -35.500  14.958  -3.285  1.00 20.00    -0.012 C 
HETATM    8  C2  UNL     1     -35.010  15.983  -2.246  1.00 20.00     0.005 C 
HETATM    9  C4  UNL     1     -34.254  14.099  -3.487  1.00 20.00     0.011 C 
HETATM   10  C3  UNL     1     -33.541  16.201  -2.643  1.00 20.00     0.007 C 
HETATM   11  C7  UNL     1     -33.379  15.295  -3.877  1.00 20.00     0.009 C 
ENDBRANCH   3   5
TORSDOF 1
ENDMDL
MODEL 3
REMARK VINA RESULT:      -4.4      2.099      2.955
REMARK  1 active torsions:
REMARK  status: ('A' for Active; 'I' for Inactive)
REMARK    1  A    between atoms: C8_8  and  N10_10 
ROOT
HETATM    1  C1  UNL     1     -37.636  14.910  -4.315  1.00 20.00     0.177 C 
HETATM    2  N9  UNL     1     -38.501  14.319  -3.817  1.00 20.00    -0.172 NA
HETATM    3  N10 UNL     1     -36.636  15.599  -4.891  1.00 20.00    -0.324 N 
HETATM    4  H22 UNL     1     -36.716  16.616  -5.021  1.00 20.00     0.172 HD
ENDROOT
BRANCH   3   5
HETATM    5  C8  UNL     1     -35.225  15.150  -4.888  1.00 20.00     0.096 C 
HETATM    6  C5  UNL     1     -34.265  16.352  -4.836  1.00 20.00     0.031 C 
HETATM    7  C6  UNL     1     -33.472  16.104  -3.538  1.00 20.00    -0.012 C 
HETATM    8  C2  UNL     1     -32.550  14.888  -3.739  1.00 20.00     0.005 C 
HETATM    9  C4  UNL     1     -34.547  15.531  -2.617  1.00 20.00     0.011 C 
HETATM   10  C3  UNL     1     -33.532  13.706  -3.749  1.00 20.00     0.007 C 
HETATM   11  C7  UNL     1     -34.899  14.394  -3.581  1.00 20.00     0.009 C 
ENDBRANCH   3   5
TORSDOF 1
ENDMDL
MODEL 4
REMARK VINA RESULT:      -4.4     12.067     13.401
REMARK  1 active torsions:
REMARK  status: ('A' for Active; 'I' for Inactive)
REMARK    1  A    between atoms: C8_8  and  N10_10 
ROOT
HETATM    1  C1  UNL     1     -41.678   2.389  -3.045  1.00 20.00     0.177 C 
HETATM    2  N9  UNL     1     -41.483   1.720  -3.973  1.00 20.00    -0.172 NA
HETATM    3  N10 UNL     1     -41.906   3.161  -1.969  1.00 20.00    -0.324 N 
HETATM    4  H22 UNL     1     -42.174   2.733  -1.073  1.00 20.00     0.172 HD
ENDROOT
BRANCH   3   5
HETATM    5  C8  UNL     1     -41.315   4.506  -1.787  1.00 20.00     0.096 C 
HETATM    6  C5  UNL     1     -42.196   5.587  -2.440  1.00 20.00     0.031 C 
HETATM    7  C6  UNL     1     -42.554   6.502  -1.252  1.00 20.00    -0.012 C 
HETATM    8  C2  UNL     1     -41.291   7.259  -0.804  1.00 20.00     0.005 C 
HETATM    9  C4  UNL     1     -42.731   5.493  -0.119  1.00 20.00     0.011 C 
HETATM   10  C3  UNL     1     -40.452   6.163  -0.128  1.00 20.00     0.007 C 
HETATM   11  C7  UNL     1     -41.326   4.907  -0.297  1.00 20.00     0.009 C 
ENDBRANCH   3   5
TORSDOF 1
ENDMDL
MODEL 5
REMARK VINA RESULT:      -4.3     12.471     14.045
REMARK  1 active torsions:
REMARK  status: ('A' for Active; 'I' for Inactive)
REMARK    1  A    between atoms: C8_8  and  N10_10 
ROOT
HETATM    1  C1  UNL     1     -43.343   2.329  -1.802  1.00 20.00     0.177 C 
HETATM    2  N9  UNL     1     -43.417   1.611  -2.711  1.00 20.00    -0.172 NA
HETATM    3  N10 UNL     1     -43.257   3.157  -0.747  1.00 20.00    -0.324 N 
HETATM    4  H22 UNL     1     -43.001   2.789   0.179  1.00 20.00     0.172 HD
ENDROOT
BRANCH   3   5
HETATM    5  C8  UNL     1     -42.982   4.606  -0.865  1.00 20.00     0.096 C 
HETATM    6  C5  UNL     1     -42.416   5.168   0.452  1.00 20.00     0.031 C 
HETATM    7  C6  UNL     1     -41.043   5.723   0.028  1.00 20.00    -0.012 C 
HETATM    8  C2  UNL     1     -41.256   6.966  -0.855  1.00 20.00     0.005 C 
HETATM    9  C4  UNL     1     -40.587   4.687  -0.997  1.00 20.00     0.011 C 
HETATM   10  C3  UNL     1     -41.784   6.370  -2.169  1.00 20.00     0.007 C 
HETATM   11  C7  UNL     1     -41.835   4.861  -1.867  1.00 20.00     0.009 C 
ENDBRANCH   3   5
TORSDOF 1
ENDMDL
MODEL 6
REMARK VINA RESULT:      -4.3     11.750     12.784
REMARK  1 active torsions:
REMARK  status: ('A' for Active; 'I' for Inactive)
REMARK    1  A    between atoms: C8_8  and  N10_10 
ROOT
HETATM    1  C1  UNL     1     -42.761   7.693  -3.941  1.00 20.00     0.177 C 
HETATM    2  N9  UNL     1     -43.372   7.988  -4.883  1.00 20.00    -0.172 NA
HETATM    3  N10 UNL     1     -42.052   7.355  -2.851  1.00 20.00    -0.324 N 
HETATM    4  H22 UNL     1     -41.398   8.029  -2.431  1.00 20.00     0.172 HD
ENDROOT
BRANCH   3   5
HETATM    5  C8  UNL     1     -42.482   6.320  -1.884  1.00 20.00     0.096 C 
HETATM    6  C5  UNL     1     -41.671   5.024  -2.068  1.00 20.00     0.031 C 
HETATM    7  C6  UNL     1     -41.002   4.839  -0.692  1.00 20.00    -0.012 C 
HETATM    8  C2  UNL     1     -42.078   4.471   0.344  1.00 20.00     0.005 C 
HETATM    9  C4  UNL     1     -40.676   6.280  -0.304  1.00 20.00     0.011 C 
HETATM   10  C3  UNL     1     -42.844   5.790   0.531  1.00 20.00     0.007 C 
HETATM   11  C7  UNL     1     -42.129   6.744  -0.442  1.00 20.00     0.009 C 
ENDBRANCH   3   5
TORSDOF 1
ENDMDL
MODEL 7
REMARK VINA RESULT:      -4.2      2.319      3.383
REMARK  1 active torsions:
REMARK  status: ('A' for Active; 'I' for Inactive)
REMARK    1  A    between atoms: C8_8  and  N10_10 
ROOT
HETATM    1  C1  UNL     1     -38.136  14.812  -3.698  1.00 20.00     0.177 C 
HETATM    2  N9  UNL     1     -39.019  14.386  -4.318  1.00 20.00    -0.172 NA
HETATM    3  N10 UNL     1     -37.115  15.303  -2.976  1.00 20.00    -0.324 N 
HETATM    4  H22 UNL     1     -36.947  14.962  -2.019  1.00 20.00     0.172 HD
ENDROOT
BRANCH   3   5
HETATM    5  C8  UNL     1     -35.898  15.894  -3.577  1.00 20.00     0.096 C 
HETATM    6  C5  UNL     1     -34.784  16.048  -2.525  1.00 20.00     0.031 C 
HETATM    7  C6  UNL     1     -33.642  15.192  -3.107  1.00 20.00    -0.012 C 
HETATM    8  C2  UNL     1     -33.081  15.890  -4.360  1.00 20.00     0.005 C 
HETATM    9  C4  UNL     1     -34.406  14.020  -3.719  1.00 20.00     0.011 C 
HETATM   10  C3  UNL     1     -34.198  15.688  -5.397  1.00 20.00     0.007 C 
HETATM   11  C7  UNL     1     -35.272  14.924  -4.601  1.00 20.00     0.009 C 
ENDBRANCH   3   5
TORSDOF 1
ENDMDL
MODEL 8
REMARK VINA RESULT:      -4.2      2.334      4.093
REMARK  1 active torsions:
REMARK  status: ('A' for Active; 'I' for Inactive)
REMARK    1  A    between atoms: C8_8  and  N10_10 
ROOT
HETATM    1  C1  UNL     1     -34.481  16.709  -1.052  1.00 20.00     0.177 C 
HETATM    2  N9  UNL     1     -33.982  17.498  -0.362  1.00 20.00    -0.172 NA
HETATM    3  N10 UNL     1     -35.063  15.796  -1.849  1.00 20.00    -0.324 N 
HETATM    4  H22 UNL     1     -36.043  15.526  -1.695  1.00 20.00     0.172 HD
ENDROOT
BRANCH   3   5
HETATM    5  C8  UNL     1     -34.620  15.519  -3.234  1.00 20.00     0.096 C 
HETATM    6  C5  UNL     1     -34.212  14.044  -3.396  1.00 20.00     0.031 C 
HETATM    7  C6  UNL     1     -35.170  13.540  -4.493  1.00 20.00    -0.012 C 
HETATM    8  C2  UNL     1     -34.785  14.191  -5.833  1.00 20.00     0.005 C 
HETATM    9  C4  UNL     1     -36.461  14.279  -4.147  1.00 20.00     0.011 C 
HETATM   10  C3  UNL     1     -35.237  15.649  -5.652  1.00 20.00     0.007 C 
HETATM   11  C7  UNL     1     -35.800  15.659  -4.219  1.00 20.00     0.009 C 
ENDBRANCH   3   5
TORSDOF 1
ENDMDL
MODEL 9
REMARK VINA RESULT:      -4.2      2.216      4.015
REMARK  1 active torsions:
REMARK  status: ('A' for Active; 'I' for Inactive)
REMARK    1  A    between atoms: C8_8  and  N10_10 
ROOT
HETATM    1  C1  UNL     1     -34.651  16.923  -1.112  1.00 20.00     0.177 C 
HETATM    2  N9  UNL     1     -33.955  17.419  -0.327  1.00 20.00    -0.172 NA
HETATM    3  N10 UNL     1     -35.459  16.352  -2.021  1.00 20.00    -0.324 N 
HETATM    4  H22 UNL     1     -36.084  16.934  -2.595  1.00 20.00     0.172 HD
ENDROOT
BRANCH   3   5
HETATM    5  C8  UNL     1     -35.181  15.044  -2.655  1.00 20.00     0.096 C 
HETATM    6  C5  UNL     1     -36.193  14.750  -3.778  1.00 20.00     0.031 C 
HETATM    7  C6  UNL     1     -35.294  14.600  -5.021  1.00 20.00    -0.012 C 
HETATM    8  C2  UNL     1     -34.477  13.301  -4.895  1.00 20.00     0.005 C 
HETATM    9  C4  UNL     1     -34.228  15.664  -4.769  1.00 20.00     0.011 C 
HETATM   10  C3  UNL     1     -33.457  13.639  -3.797  1.00 20.00     0.007 C 
HETATM   11  C7  UNL     1     -33.834  15.080  -3.409  1.00 20.00     0.009 C 
ENDBRANCH   3   5
TORSDOF 1
ENDMDL
