MODEL 1
REMARK VINA RESULT:      -4.9      0.000      0.000
REMARK  3 active torsions:
REMARK  status: ('A' for Active; 'I' for Inactive)
REMARK    1  A    between atoms: C6_6  and  C10_10 
REMARK    2  A    between atoms: C7_7  and  N11_11 
REMARK    3  A    between atoms: C9_9  and  N11_11 
ROOT
HETATM    1  C1  UNL     1     -32.492   9.441  -0.118  1.00 20.00     0.013 C 
HETATM    2  C2  UNL     1     -32.171   8.862   0.883  1.00 20.00    -0.087 C 
HETATM    3  C9  UNL     1     -31.775   8.156   2.104  1.00 20.00     0.362 C 
ENDROOT
BRANCH   3   4
HETATM    4  N11 UNL     1     -32.947   7.652   2.810  1.00 20.00     0.098 N 
HETATM    5  H28 UNL     1     -33.109   8.228   3.638  1.00 20.00     0.317 HD
BRANCH   4   6
HETATM    6  C7  UNL     1     -32.759   6.260   3.217  1.00 20.00     0.222 C 
HETATM    7  C4  UNL     1     -33.901   5.382   2.711  1.00 20.00     0.036 C 
HETATM    8  C3  UNL     1     -35.031   5.542   3.732  1.00 20.00     0.007 C 
HETATM    9  C6  UNL     1     -34.378   6.093   5.010  1.00 20.00    -0.013 C 
HETATM   10  C5  UNL     1     -32.871   6.082   4.731  1.00 20.00     0.040 C 
BRANCH   9  11
HETATM   11  C10 UNL     1     -34.749   5.303   6.256  1.00 20.00     0.000 C 
HETATM   12  C8  UNL     1     -35.007   3.863   5.945  1.00 20.00     0.005 C 
ENDBRANCH   9  11
ENDBRANCH   4   6
ENDBRANCH   3   4
TORSDOF 3
ENDMDL
MODEL 2
REMARK VINA RESULT:      -4.6     10.750     11.820
REMARK  3 active torsions:
REMARK  status: ('A' for Active; 'I' for Inactive)
REMARK    1  A    between atoms: C6_6  and  C10_10 
REMARK    2  A    between atoms: C7_7  and  N11_11 
REMARK    3  A    between atoms: C9_9  and  N11_11 
ROOT
HETATM    1  C1  UNL     1     -32.510  18.728  -0.061  1.00 20.00     0.013 C 
HETATM    2  C2  UNL     1     -33.571  18.168  -0.076  1.00 20.00    -0.087 C 
HETATM    3  C9  UNL     1     -34.869  17.488  -0.091  1.00 20.00     0.362 C 
ENDROOT
BRANCH   3   4
HETATM    4  N11 UNL     1     -34.812  16.288  -0.916  1.00 20.00     0.098 N 
HETATM    5  H28 UNL     1     -34.040  15.700  -0.595  1.00 20.00     0.317 HD
BRANCH   4   6
HETATM    6  C7  UNL     1     -34.611  16.626  -2.325  1.00 20.00     0.222 C 
HETATM    7  C4  UNL     1     -35.912  16.490  -3.113  1.00 20.00     0.036 C 
HETATM    8  C3  UNL     1     -36.028  15.006  -3.470  1.00 20.00     0.007 C 
HETATM    9  C6  UNL     1     -34.616  14.418  -3.321  1.00 20.00    -0.013 C 
HETATM   10  C5  UNL     1     -33.707  15.618  -3.035  1.00 20.00     0.040 C 
BRANCH   9  11
HETATM   11  C10 UNL     1     -34.170  13.622  -4.539  1.00 20.00     0.000 C 
HETATM   12  C8  UNL     1     -34.684  14.218  -5.811  1.00 20.00     0.005 C 
ENDBRANCH   9  11
ENDBRANCH   4   6
ENDBRANCH   3   4
TORSDOF 3
ENDMDL
MODEL 3
REMARK VINA RESULT:      -4.5     10.915     12.412
REMARK  3 active torsions:
REMARK  status: ('A' for Active; 'I' for Inactive)
REMARK    1  A    between atoms: C6_6  and  C10_10 
REMARK    2  A    between atoms: C7_7  and  N11_11 
REMARK    3  A    between atoms: C9_9  and  N11_11 
ROOT
HETATM    1  C1  UNL     1     -34.841  17.049  -0.050  1.00 20.00     0.013 C 
HETATM    2  C2  UNL     1     -34.373  16.830  -1.134  1.00 20.00    -0.087 C 
HETATM    3  C9  UNL     1     -33.800  16.567  -2.456  1.00 20.00     0.362 C 
ENDROOT
BRANCH   3   4
HETATM    4  N11 UNL     1     -34.101  15.207  -2.886  1.00 20.00     0.098 N 
HETATM    5  H28 UNL     1     -33.313  14.849  -3.429  1.00 20.00     0.317 HD
BRANCH   4   6
HETATM    6  C7  UNL     1     -35.312  15.170  -3.705  1.00 20.00     0.222 C 
HETATM    7  C4  UNL     1     -35.665  13.736  -4.097  1.00 20.00     0.036 C 
HETATM    8  C3  UNL     1     -34.808  13.418  -5.324  1.00 20.00     0.007 C 
HETATM    9  C6  UNL     1     -34.360  14.772  -5.897  1.00 20.00    -0.013 C 
HETATM   10  C5  UNL     1     -35.105  15.826  -5.070  1.00 20.00     0.040 C 
BRANCH   9  11
HETATM   11  C10 UNL     1     -34.624  14.905  -7.389  1.00 20.00     0.000 C 
HETATM   12  C8  UNL     1     -36.077  14.759  -7.712  1.00 20.00     0.005 C 
ENDBRANCH   9  11
ENDBRANCH   4   6
ENDBRANCH   3   4
TORSDOF 3
ENDMDL
MODEL 4
REMARK VINA RESULT:      -4.5     11.002     12.045
REMARK  3 active torsions:
REMARK  status: ('A' for Active; 'I' for Inactive)
REMARK    1  A    between atoms: C6_6  and  C10_10 
REMARK    2  A    between atoms: C7_7  and  N11_11 
REMARK    3  A    between atoms: C9_9  and  N11_11 
ROOT
HETATM    1  C1  UNL     1     -36.959  15.694  -7.432  1.00 20.00     0.013 C 
HETATM    2  C2  UNL     1     -36.100  14.971  -7.007  1.00 20.00    -0.087 C 
HETATM    3  C9  UNL     1     -35.053  14.085  -6.492  1.00 20.00     0.362 C 
ENDROOT
BRANCH   3   4
HETATM    4  N11 UNL     1     -34.042  14.849  -5.772  1.00 20.00     0.098 N 
HETATM    5  H28 UNL     1     -33.166  14.818  -6.296  1.00 20.00     0.317 HD
BRANCH   4   6
HETATM    6  C7  UNL     1     -33.824  14.303  -4.432  1.00 20.00     0.222 C 
HETATM    7  C4  UNL     1     -35.140  14.188  -3.666  1.00 20.00     0.036 C 
HETATM    8  C3  UNL     1     -35.399  15.576  -3.074  1.00 20.00     0.007 C 
HETATM    9  C6  UNL     1     -34.047  16.307  -3.089  1.00 20.00    -0.013 C 
HETATM   10  C5  UNL     1     -33.026  15.258  -3.544  1.00 20.00     0.040 C 
BRANCH   9  11
HETATM   11  C10 UNL     1     -33.690  16.928  -1.747  1.00 20.00     0.000 C 
HETATM   12  C8  UNL     1     -34.727  16.639  -0.708  1.00 20.00     0.005 C 
ENDBRANCH   9  11
ENDBRANCH   4   6
ENDBRANCH   3   4
TORSDOF 3
ENDMDL
MODEL 5
REMARK VINA RESULT:      -4.4     10.763     12.300
REMARK  3 active torsions:
REMARK  status: ('A' for Active; 'I' for Inactive)
REMARK    1  A    between atoms: C6_6  and  C10_10 
REMARK    2  A    between atoms: C7_7  and  N11_11 
REMARK    3  A    between atoms: C9_9  and  N11_11 
ROOT
HETATM    1  C1  UNL     1     -35.129  17.402   0.702  1.00 20.00     0.013 C 
HETATM    2  C2  UNL     1     -34.708  17.061  -0.369  1.00 20.00    -0.087 C 
HETATM    3  C9  UNL     1     -34.191  16.647  -1.676  1.00 20.00     0.362 C 
ENDROOT
BRANCH   3   4
HETATM    4  N11 UNL     1     -35.102  15.706  -2.315  1.00 20.00     0.098 N 
HETATM    5  H28 UNL     1     -35.683  15.267  -1.599  1.00 20.00     0.317 HD
BRANCH   4   6
HETATM    6  C7  UNL     1     -34.366  14.673  -3.044  1.00 20.00     0.222 C 
HETATM    7  C4  UNL     1     -33.247  15.285  -3.884  1.00 20.00     0.036 C 
HETATM    8  C3  UNL     1     -33.910  15.750  -5.183  1.00 20.00     0.007 C 
HETATM    9  C6  UNL     1     -35.242  14.990  -5.280  1.00 20.00    -0.013 C 
HETATM   10  C5  UNL     1     -35.227  13.998  -4.112  1.00 20.00     0.040 C 
BRANCH   9  11
HETATM   11  C10 UNL     1     -35.444  14.309  -6.625  1.00 20.00     0.000 C 
HETATM   12  C8  UNL     1     -34.689  15.000  -7.716  1.00 20.00     0.005 C 
ENDBRANCH   9  11
ENDBRANCH   4   6
ENDBRANCH   3   4
TORSDOF 3
ENDMDL
MODEL 6
REMARK VINA RESULT:      -4.4     10.887     12.019
REMARK  3 active torsions:
REMARK  status: ('A' for Active; 'I' for Inactive)
REMARK    1  A    between atoms: C6_6  and  C10_10 
REMARK    2  A    between atoms: C7_7  and  N11_11 
REMARK    3  A    between atoms: C9_9  and  N11_11 
ROOT
HETATM    1  C1  UNL     1     -34.963  13.194  -4.607  1.00 20.00     0.013 C 
HETATM    2  C2  UNL     1     -34.094  13.877  -4.140  1.00 20.00    -0.087 C 
HETATM    3  C9  UNL     1     -33.031  14.708  -3.567  1.00 20.00     0.362 C 
ENDROOT
BRANCH   3   4
HETATM    4  N11 UNL     1     -33.239  16.112  -3.900  1.00 20.00     0.098 N 
HETATM    5  H28 UNL     1     -32.430  16.651  -3.587  1.00 20.00     0.317 HD
BRANCH   4   6
HETATM    6  C7  UNL     1     -34.446  16.632  -3.257  1.00 20.00     0.222 C 
HETATM    7  C4  UNL     1     -34.538  18.148  -3.409  1.00 20.00     0.036 C 
HETATM    8  C3  UNL     1     -33.673  18.731  -2.288  1.00 20.00     0.007 C 
HETATM    9  C6  UNL     1     -33.502  17.609  -1.252  1.00 20.00    -0.013 C 
HETATM   10  C5  UNL     1     -34.404  16.470  -1.737  1.00 20.00     0.040 C 
BRANCH   9  11
HETATM   11  C10 UNL     1     -33.828  18.052   0.166  1.00 20.00     0.000 C 
HETATM   12  C8  UNL     1     -35.074  17.401   0.678  1.00 20.00     0.005 C 
ENDBRANCH   9  11
ENDBRANCH   4   6
ENDBRANCH   3   4
TORSDOF 3
ENDMDL
MODEL 7
REMARK VINA RESULT:      -4.3     11.123     12.074
REMARK  3 active torsions:
REMARK  status: ('A' for Active; 'I' for Inactive)
REMARK    1  A    between atoms: C6_6  and  C10_10 
REMARK    2  A    between atoms: C7_7  and  N11_11 
REMARK    3  A    between atoms: C9_9  and  N11_11 
ROOT
HETATM    1  C1  UNL     1     -34.858  14.788  -7.450  1.00 20.00     0.013 C 
HETATM    2  C2  UNL     1     -34.783  14.308  -6.353  1.00 20.00    -0.087 C 
HETATM    3  C9  UNL     1     -34.692  13.718  -5.015  1.00 20.00     0.362 C 
ENDROOT
BRANCH   3   4
HETATM    4  N11 UNL     1     -34.085  14.656  -4.079  1.00 20.00     0.098 N 
HETATM    5  H28 UNL     1     -33.651  14.132  -3.317  1.00 20.00     0.317 HD
BRANCH   4   6
HETATM    6  C7  UNL     1     -35.083  15.574  -3.530  1.00 20.00     0.222 C 
HETATM    7  C4  UNL     1     -34.908  16.980  -4.099  1.00 20.00     0.036 C 
HETATM    8  C3  UNL     1     -33.816  17.638  -3.251  1.00 20.00     0.007 C 
HETATM    9  C6  UNL     1     -33.730  16.819  -1.953  1.00 20.00    -0.013 C 
HETATM   10  C5  UNL     1     -34.884  15.813  -2.033  1.00 20.00     0.040 C 
BRANCH   9  11
HETATM   11  C10 UNL     1     -33.789  17.680  -0.700  1.00 20.00     0.000 C 
HETATM   12  C8  UNL     1     -34.886  17.247   0.220  1.00 20.00     0.005 C 
ENDBRANCH   9  11
ENDBRANCH   4   6
ENDBRANCH   3   4
TORSDOF 3
ENDMDL
MODEL 8
REMARK VINA RESULT:      -4.3      1.302      5.181
REMARK  3 active torsions:
REMARK  status: ('A' for Active; 'I' for Inactive)
REMARK    1  A    between atoms: C6_6  and  C10_10 
REMARK    2  A    between atoms: C7_7  and  N11_11 
REMARK    3  A    between atoms: C9_9  and  N11_11 
ROOT
HETATM    1  C1  UNL     1     -35.167   3.889   5.937  1.00 20.00     0.013 C 
HETATM    2  C2  UNL     1     -34.711   4.984   6.119  1.00 20.00    -0.087 C 
HETATM    3  C9  UNL     1     -34.157   6.321   6.346  1.00 20.00     0.362 C 
ENDROOT
BRANCH   3   4
HETATM    4  N11 UNL     1     -33.208   6.669   5.296  1.00 20.00     0.098 N 
HETATM    5  H28 UNL     1     -32.770   7.563   5.528  1.00 20.00     0.317 HD
BRANCH   4   6
HETATM    6  C7  UNL     1     -33.874   6.777   3.999  1.00 20.00     0.222 C 
HETATM    7  C4  UNL     1     -33.447   5.644   3.067  1.00 20.00     0.036 C 
HETATM    8  C3  UNL     1     -32.124   6.096   2.443  1.00 20.00     0.007 C 
HETATM    9  C6  UNL     1     -32.060   7.620   2.631  1.00 20.00    -0.013 C 
HETATM   10  C5  UNL     1     -33.421   8.012   3.219  1.00 20.00     0.040 C 
BRANCH   9  11
HETATM   11  C10 UNL     1     -31.740   8.368   1.346  1.00 20.00     0.000 C 
HETATM   12  C8  UNL     1     -32.436   9.690   1.285  1.00 20.00     0.005 C 
ENDBRANCH   9  11
ENDBRANCH   4   6
ENDBRANCH   3   4
TORSDOF 3
ENDMDL
MODEL 9
REMARK VINA RESULT:      -4.2      0.990      1.640
REMARK  3 active torsions:
REMARK  status: ('A' for Active; 'I' for Inactive)
REMARK    1  A    between atoms: C6_6  and  C10_10 
REMARK    2  A    between atoms: C7_7  and  N11_11 
REMARK    3  A    between atoms: C9_9  and  N11_11 
ROOT
HETATM    1  C1  UNL     1     -32.178   9.098   0.830  1.00 20.00     0.013 C 
HETATM    2  C2  UNL     1     -31.935   8.425   1.795  1.00 20.00    -0.087 C 
HETATM    3  C9  UNL     1     -31.637   7.608   2.973  1.00 20.00     0.362 C 
ENDROOT
BRANCH   3   4
HETATM    4  N11 UNL     1     -32.371   6.349   2.925  1.00 20.00     0.098 N 
HETATM    5  H28 UNL     1     -32.286   5.950   1.988  1.00 20.00     0.317 HD
BRANCH   4   6
HETATM    6  C7  UNL     1     -33.784   6.551   3.240  1.00 20.00     0.222 C 
HETATM    7  C4  UNL     1     -33.952   7.251   4.587  1.00 20.00     0.036 C 
HETATM    8  C3  UNL     1     -33.859   6.146   5.643  1.00 20.00     0.007 C 
HETATM    9  C6  UNL     1     -34.124   4.824   4.905  1.00 20.00    -0.013 C 
HETATM   10  C5  UNL     1     -34.515   5.229   3.480  1.00 20.00     0.040 C 
BRANCH   9  11
HETATM   11  C10 UNL     1     -35.182   3.965   5.582  1.00 20.00     0.000 C 
HETATM   12  C8  UNL     1     -35.498   4.456   6.959  1.00 20.00     0.005 C 
ENDBRANCH   9  11
ENDBRANCH   4   6
ENDBRANCH   3   4
TORSDOF 3
ENDMDL
