MODEL 1
REMARK VINA RESULT:      -4.2      0.000      0.000
REMARK  5 active torsions:
REMARK  status: ('A' for Active; 'I' for Inactive)
REMARK    1  A    between atoms: C4_4  and  C5_5 
REMARK    2  A    between atoms: C5_5  and  C7_7 
REMARK    3  A    between atoms: C6_6  and  C7_7 
REMARK    4  A    between atoms: C6_6  and  O10_10 
REMARK    5  A    between atoms: C7_7  and  N8_8 
ROOT
HETATM    1  C1  UNL     1     -34.153  13.319  -4.042  1.00 20.00     0.332 C 
HETATM    2  N8  UNL     1     -33.164  13.875  -3.751  1.00 20.00    -0.240 NA
HETATM    3  O9  UNL     1     -35.142  12.753  -4.335  1.00 20.00    -0.260 OA
ENDROOT
BRANCH   2   4
HETATM    4  C7  UNL     1     -33.314  15.331  -3.608  1.00 20.00     0.136 C 
BRANCH   4   5
HETATM    5  C5  UNL     1     -34.335  15.623  -2.501  1.00 20.00     0.029 C 
BRANCH   5   6
HETATM    6  C4  UNL     1     -33.946  16.843  -1.661  1.00 20.00    -0.002 C 
HETATM    7  C2  UNL     1     -34.757  16.913  -0.376  1.00 20.00     0.005 C 
ENDBRANCH   5   6
ENDBRANCH   4   5
BRANCH   4   8
HETATM    8  C6  UNL     1     -33.736  15.901  -4.962  1.00 20.00     0.194 C 
BRANCH   8   9
HETATM    9  O10 UNL     1     -32.943  17.029  -5.304  1.00 20.00    -0.394 OA
HETATM   10  C3  UNL     1     -33.729  18.210  -5.397  1.00 20.00     0.201 C 
ENDBRANCH   8   9
ENDBRANCH   4   8
ENDBRANCH   2   4
TORSDOF 5
ENDMDL
MODEL 2
REMARK VINA RESULT:      -4.1      1.334      3.360
REMARK  5 active torsions:
REMARK  status: ('A' for Active; 'I' for Inactive)
REMARK    1  A    between atoms: C4_4  and  C5_5 
REMARK    2  A    between atoms: C5_5  and  C7_7 
REMARK    3  A    between atoms: C6_6  and  C7_7 
REMARK    4  A    between atoms: C6_6  and  O10_10 
REMARK    5  A    between atoms: C7_7  and  N8_8 
ROOT
HETATM    1  C1  UNL     1     -33.405  17.314  -5.195  1.00 20.00     0.332 C 
HETATM    2  N8  UNL     1     -32.940  16.289  -4.870  1.00 20.00    -0.240 NA
HETATM    3  O9  UNL     1     -33.865  18.344  -5.527  1.00 20.00    -0.260 OA
ENDROOT
BRANCH   2   4
HETATM    4  C7  UNL     1     -33.694  15.596  -3.815  1.00 20.00     0.136 C 
BRANCH   4   5
HETATM    5  C5  UNL     1     -33.603  16.408  -2.518  1.00 20.00     0.029 C 
BRANCH   5   6
HETATM    6  C4  UNL     1     -34.822  16.198  -1.615  1.00 20.00    -0.002 C 
HETATM    7  C2  UNL     1     -34.691  16.977  -0.315  1.00 20.00     0.005 C 
ENDBRANCH   5   6
ENDBRANCH   4   5
BRANCH   4   8
HETATM    8  C6  UNL     1     -33.119  14.187  -3.668  1.00 20.00     0.194 C 
BRANCH   8   9
HETATM    9  O10 UNL     1     -34.154  13.241  -3.436  1.00 20.00    -0.394 OA
HETATM   10  C3  UNL     1     -35.190  13.355  -4.401  1.00 20.00     0.201 C 
ENDBRANCH   8   9
ENDBRANCH   4   8
ENDBRANCH   2   4
TORSDOF 5
ENDMDL
MODEL 3
REMARK VINA RESULT:      -3.9      1.668      3.583
REMARK  5 active torsions:
REMARK  status: ('A' for Active; 'I' for Inactive)
REMARK    1  A    between atoms: C4_4  and  C5_5 
REMARK    2  A    between atoms: C5_5  and  C7_7 
REMARK    3  A    between atoms: C6_6  and  C7_7 
REMARK    4  A    between atoms: C6_6  and  O10_10 
REMARK    5  A    between atoms: C7_7  and  N8_8 
ROOT
HETATM    1  C1  UNL     1     -34.183  13.501  -4.118  1.00 20.00     0.332 C 
HETATM    2  N8  UNL     1     -33.411  14.321  -3.795  1.00 20.00    -0.240 NA
HETATM    3  O9  UNL     1     -34.952  12.672  -4.441  1.00 20.00    -0.260 OA
ENDROOT
BRANCH   2   4
HETATM    4  C7  UNL     1     -33.927  15.695  -3.871  1.00 20.00     0.136 C 
BRANCH   4   5
HETATM    5  C5  UNL     1     -33.236  16.427  -5.028  1.00 20.00     0.029 C 
BRANCH   5   6
HETATM    6  C4  UNL     1     -34.197  16.726  -6.182  1.00 20.00    -0.002 C 
HETATM    7  C2  UNL     1     -34.316  15.539  -7.125  1.00 20.00     0.005 C 
ENDBRANCH   5   6
ENDBRANCH   4   5
BRANCH   4   8
HETATM    8  C6  UNL     1     -33.685  16.370  -2.521  1.00 20.00     0.194 C 
BRANCH   8   9
HETATM    9  O10 UNL     1     -34.718  16.045  -1.601  1.00 20.00    -0.394 OA
HETATM   10  C3  UNL     1     -34.684  16.889  -0.459  1.00 20.00     0.201 C 
ENDBRANCH   8   9
ENDBRANCH   4   8
ENDBRANCH   2   4
TORSDOF 5
ENDMDL
MODEL 4
REMARK VINA RESULT:      -3.8      2.113      2.710
REMARK  5 active torsions:
REMARK  status: ('A' for Active; 'I' for Inactive)
REMARK    1  A    between atoms: C4_4  and  C5_5 
REMARK    2  A    between atoms: C5_5  and  C7_7 
REMARK    3  A    between atoms: C6_6  and  C7_7 
REMARK    4  A    between atoms: C6_6  and  O10_10 
REMARK    5  A    between atoms: C7_7  and  N8_8 
ROOT
HETATM    1  C1  UNL     1     -34.468  13.631  -4.676  1.00 20.00     0.332 C 
HETATM    2  N8  UNL     1     -34.081  14.730  -4.791  1.00 20.00    -0.240 NA
HETATM    3  O9  UNL     1     -34.850  12.524  -4.566  1.00 20.00    -0.260 OA
ENDROOT
BRANCH   2   4
HETATM    4  C7  UNL     1     -34.886  15.728  -4.071  1.00 20.00     0.136 C 
BRANCH   4   5
HETATM    5  C5  UNL     1     -34.772  15.470  -2.564  1.00 20.00     0.029 C 
BRANCH   5   6
HETATM    6  C4  UNL     1     -34.019  16.589  -1.839  1.00 20.00    -0.002 C 
HETATM    7  C2  UNL     1     -34.657  16.908  -0.496  1.00 20.00     0.005 C 
ENDBRANCH   5   6
ENDBRANCH   4   5
BRANCH   4   8
HETATM    8  C6  UNL     1     -36.326  15.632  -4.576  1.00 20.00     0.194 C 
BRANCH   8   9
HETATM    9  O10 UNL     1     -37.231  15.469  -3.493  1.00 20.00    -0.394 OA
HETATM   10  C3  UNL     1     -38.426  14.822  -3.906  1.00 20.00     0.201 C 
ENDBRANCH   8   9
ENDBRANCH   4   8
ENDBRANCH   2   4
TORSDOF 5
ENDMDL
MODEL 5
REMARK VINA RESULT:      -3.8      2.210      2.483
REMARK  5 active torsions:
REMARK  status: ('A' for Active; 'I' for Inactive)
REMARK    1  A    between atoms: C4_4  and  C5_5 
REMARK    2  A    between atoms: C5_5  and  C7_7 
REMARK    3  A    between atoms: C6_6  and  C7_7 
REMARK    4  A    between atoms: C6_6  and  O10_10 
REMARK    5  A    between atoms: C7_7  and  N8_8 
ROOT
HETATM    1  C1  UNL     1     -37.178  14.864  -3.756  1.00 20.00     0.332 C 
HETATM    2  N8  UNL     1     -36.219  15.536  -3.802  1.00 20.00    -0.240 NA
HETATM    3  O9  UNL     1     -38.145  14.196  -3.713  1.00 20.00    -0.260 OA
ENDROOT
BRANCH   2   4
HETATM    4  C7  UNL     1     -34.980  14.842  -3.422  1.00 20.00     0.136 C 
BRANCH   4   5
HETATM    5  C5  UNL     1     -34.051  15.830  -2.706  1.00 20.00     0.029 C 
BRANCH   5   6
HETATM    6  C4  UNL     1     -34.662  16.362  -1.406  1.00 20.00    -0.002 C 
HETATM    7  C2  UNL     1     -33.820  17.482  -0.815  1.00 20.00     0.005 C 
ENDBRANCH   5   6
ENDBRANCH   4   5
BRANCH   4   8
HETATM    8  C6  UNL     1     -34.353  14.260  -4.689  1.00 20.00     0.194 C 
BRANCH   8   9
HETATM    9  O10 UNL     1     -34.049  15.289  -5.620  1.00 20.00    -0.394 OA
HETATM   10  C3  UNL     1     -34.481  14.951  -6.931  1.00 20.00     0.201 C 
ENDBRANCH   8   9
ENDBRANCH   4   8
ENDBRANCH   2   4
TORSDOF 5
ENDMDL
MODEL 6
REMARK VINA RESULT:      -3.7      2.950      4.496
REMARK  5 active torsions:
REMARK  status: ('A' for Active; 'I' for Inactive)
REMARK    1  A    between atoms: C4_4  and  C5_5 
REMARK    2  A    between atoms: C5_5  and  C7_7 
REMARK    3  A    between atoms: C6_6  and  C7_7 
REMARK    4  A    between atoms: C6_6  and  O10_10 
REMARK    5  A    between atoms: C7_7  and  N8_8 
ROOT
HETATM    1  C1  UNL     1     -33.783  13.200  -4.098  1.00 20.00     0.332 C 
HETATM    2  N8  UNL     1     -34.728  12.910  -4.726  1.00 20.00    -0.240 NA
HETATM    3  O9  UNL     1     -32.831  13.483  -3.467  1.00 20.00    -0.260 OA
ENDROOT
BRANCH   2   4
HETATM    4  C7  UNL     1     -35.559  14.056  -5.124  1.00 20.00     0.136 C 
BRANCH   4   5
HETATM    5  C5  UNL     1     -34.668  15.117  -5.780  1.00 20.00     0.029 C 
BRANCH   5   6
HETATM    6  C4  UNL     1     -34.712  15.047  -7.310  1.00 20.00    -0.002 C 
HETATM    7  C2  UNL     1     -35.049  16.399  -7.918  1.00 20.00     0.005 C 
ENDBRANCH   5   6
ENDBRANCH   4   5
BRANCH   4   8
HETATM    8  C6  UNL     1     -36.275  14.579  -3.879  1.00 20.00     0.194 C 
BRANCH   8   9
HETATM    9  O10 UNL     1     -37.588  14.042  -3.788  1.00 20.00    -0.394 OA
HETATM   10  C3  UNL     1     -38.574  15.064  -3.840  1.00 20.00     0.201 C 
ENDBRANCH   8   9
ENDBRANCH   4   8
ENDBRANCH   2   4
TORSDOF 5
ENDMDL
MODEL 7
REMARK VINA RESULT:      -3.6      2.894      4.206
REMARK  5 active torsions:
REMARK  status: ('A' for Active; 'I' for Inactive)
REMARK    1  A    between atoms: C4_4  and  C5_5 
REMARK    2  A    between atoms: C5_5  and  C7_7 
REMARK    3  A    between atoms: C6_6  and  C7_7 
REMARK    4  A    between atoms: C6_6  and  O10_10 
REMARK    5  A    between atoms: C7_7  and  N8_8 
ROOT
HETATM    1  C1  UNL     1     -35.234  14.781  -6.802  1.00 20.00     0.332 C 
HETATM    2  N8  UNL     1     -36.100  14.743  -6.014  1.00 20.00    -0.240 NA
HETATM    3  O9  UNL     1     -34.370  14.818  -7.600  1.00 20.00    -0.260 OA
ENDROOT
BRANCH   2   4
HETATM    4  C7  UNL     1     -35.645  14.816  -4.618  1.00 20.00     0.136 C 
BRANCH   4   5
HETATM    5  C5  UNL     1     -35.035  13.468  -4.219  1.00 20.00     0.029 C 
BRANCH   5   6
HETATM    6  C4  UNL     1     -33.554  13.588  -3.845  1.00 20.00    -0.002 C 
HETATM    7  C2  UNL     1     -33.140  15.043  -3.683  1.00 20.00     0.005 C 
ENDBRANCH   5   6
ENDBRANCH   4   5
BRANCH   4   8
HETATM    8  C6  UNL     1     -36.842  15.201  -3.748  1.00 20.00     0.194 C 
BRANCH   8   9
HETATM    9  O10 UNL     1     -37.834  14.184  -3.777  1.00 20.00    -0.394 OA
HETATM   10  C3  UNL     1     -39.097  14.699  -4.173  1.00 20.00     0.201 C 
ENDBRANCH   8   9
ENDBRANCH   4   8
ENDBRANCH   2   4
TORSDOF 5
ENDMDL
MODEL 8
REMARK VINA RESULT:      -3.6      1.804      2.999
REMARK  5 active torsions:
REMARK  status: ('A' for Active; 'I' for Inactive)
REMARK    1  A    between atoms: C4_4  and  C5_5 
REMARK    2  A    between atoms: C5_5  and  C7_7 
REMARK    3  A    between atoms: C6_6  and  C7_7 
REMARK    4  A    between atoms: C6_6  and  O10_10 
REMARK    5  A    between atoms: C7_7  and  N8_8 
ROOT
HETATM    1  C1  UNL     1     -34.039  15.807  -6.433  1.00 20.00     0.332 C 
HETATM    2  N8  UNL     1     -33.658  16.260  -5.422  1.00 20.00    -0.240 NA
HETATM    3  O9  UNL     1     -34.416  15.358  -7.452  1.00 20.00    -0.260 OA
ENDROOT
BRANCH   2   4
HETATM    4  C7  UNL     1     -34.216  15.612  -4.226  1.00 20.00     0.136 C 
BRANCH   4   5
HETATM    5  C5  UNL     1     -34.560  16.687  -3.188  1.00 20.00     0.029 C 
BRANCH   5   6
HETATM    6  C4  UNL     1     -34.677  16.111  -1.773  1.00 20.00    -0.002 C 
HETATM    7  C2  UNL     1     -34.246  17.125  -0.725  1.00 20.00     0.005 C 
ENDBRANCH   5   6
ENDBRANCH   4   5
BRANCH   4   8
HETATM    8  C6  UNL     1     -33.189  14.604  -3.708  1.00 20.00     0.194 C 
BRANCH   8   9
HETATM    9  O10 UNL     1     -33.611  13.273  -3.973  1.00 20.00    -0.394 OA
HETATM   10  C3  UNL     1     -35.005  13.212  -4.242  1.00 20.00     0.201 C 
ENDBRANCH   8   9
ENDBRANCH   4   8
ENDBRANCH   2   4
TORSDOF 5
ENDMDL
MODEL 9
REMARK VINA RESULT:      -3.6      2.812      4.151
REMARK  5 active torsions:
REMARK  status: ('A' for Active; 'I' for Inactive)
REMARK    1  A    between atoms: C4_4  and  C5_5 
REMARK    2  A    between atoms: C5_5  and  C7_7 
REMARK    3  A    between atoms: C6_6  and  C7_7 
REMARK    4  A    between atoms: C6_6  and  O10_10 
REMARK    5  A    between atoms: C7_7  and  N8_8 
ROOT
HETATM    1  C1  UNL     1     -37.059  14.785  -3.988  1.00 20.00     0.332 C 
HETATM    2  N8  UNL     1     -36.111  15.438  -4.205  1.00 20.00    -0.240 NA
HETATM    3  O9  UNL     1     -38.015  14.136  -3.766  1.00 20.00    -0.260 OA
ENDROOT
BRANCH   2   4
HETATM    4  C7  UNL     1     -34.982  14.687  -4.773  1.00 20.00     0.136 C 
BRANCH   4   5
HETATM    5  C5  UNL     1     -35.372  14.170  -6.163  1.00 20.00     0.029 C 
BRANCH   5   6
HETATM    6  C4  UNL     1     -34.707  14.970  -7.287  1.00 20.00    -0.002 C 
HETATM    7  C2  UNL     1     -33.952  16.171  -6.741  1.00 20.00     0.005 C 
ENDBRANCH   5   6
ENDBRANCH   4   5
BRANCH   4   8
HETATM    8  C6  UNL     1     -34.627  13.558  -3.805  1.00 20.00     0.194 C 
BRANCH   8   9
HETATM    9  O10 UNL     1     -33.220  13.367  -3.746  1.00 20.00    -0.394 OA
HETATM   10  C3  UNL     1     -32.533  14.600  -3.589  1.00 20.00     0.201 C 
ENDBRANCH   8   9
ENDBRANCH   4   8
ENDBRANCH   2   4
TORSDOF 5
ENDMDL
