MODEL 1
REMARK VINA RESULT:      -4.5      0.000      0.000
REMARK  0 active torsions:
REMARK  status: ('A' for Active; 'I' for Inactive)
ROOT
HETATM    1  C1  UNL     1     -36.196  14.790  -4.955  1.00 20.00     0.035 C 
HETATM    2  C2  UNL     1     -36.079  15.321  -3.524  1.00 20.00     0.011 C 
HETATM    3  C3  UNL     1     -33.764  14.365  -3.160  1.00 20.00     0.043 C 
HETATM    4  C4  UNL     1     -35.173  13.757  -5.286  1.00 20.00     0.151 A 
HETATM    5  C5  UNL     1     -33.953  13.581  -4.422  1.00 20.00     0.151 A 
HETATM    6  C6  UNL     1     -34.626  15.648  -3.103  1.00 20.00    -0.045 C 
HETATM    7  C7  UNL     1     -34.637  16.177  -1.657  1.00 20.00     0.015 C 
HETATM    8  C8  UNL     1     -34.020  16.738  -4.007  1.00 20.00     0.015 C 
HETATM    9  O9  UNL     1     -35.069  12.670  -4.365  1.00 20.00    -0.375 OA
ENDROOT
TORSDOF 0
ENDMDL
MODEL 2
REMARK VINA RESULT:      -4.2      1.583      2.917
REMARK  0 active torsions:
REMARK  status: ('A' for Active; 'I' for Inactive)
ROOT
HETATM    1  C1  UNL     1     -33.744  15.335  -3.391  1.00 20.00     0.035 C 
HETATM    2  C2  UNL     1     -33.537  15.913  -4.793  1.00 20.00     0.011 C 
HETATM    3  C3  UNL     1     -34.925  14.131  -5.935  1.00 20.00     0.043 C 
HETATM    4  C4  UNL     1     -34.282  13.944  -3.399  1.00 20.00     0.151 A 
HETATM    5  C5  UNL     1     -34.904  13.371  -4.644  1.00 20.00     0.151 A 
HETATM    6  C6  UNL     1     -34.726  15.654  -5.749  1.00 20.00    -0.045 C 
HETATM    7  C7  UNL     1     -34.408  16.285  -7.118  1.00 20.00     0.015 C 
HETATM    8  C8  UNL     1     -36.018  16.300  -5.213  1.00 20.00     0.015 C 
HETATM    9  O9  UNL     1     -33.575  13.011  -4.218  1.00 20.00    -0.375 OA
ENDROOT
TORSDOF 0
ENDMDL
MODEL 3
REMARK VINA RESULT:      -4.1      1.026      2.274
REMARK  0 active torsions:
REMARK  status: ('A' for Active; 'I' for Inactive)
ROOT
HETATM    1  C1  UNL     1     -33.484  13.692  -3.741  1.00 20.00     0.035 C 
HETATM    2  C2  UNL     1     -33.127  15.173  -3.896  1.00 20.00     0.011 C 
HETATM    3  C3  UNL     1     -35.493  15.873  -4.463  1.00 20.00     0.043 C 
HETATM    4  C4  UNL     1     -34.820  13.344  -4.306  1.00 20.00     0.151 A 
HETATM    5  C5  UNL     1     -35.824  14.421  -4.618  1.00 20.00     0.151 A 
HETATM    6  C6  UNL     1     -34.288  16.129  -3.528  1.00 20.00    -0.045 C 
HETATM    7  C7  UNL     1     -33.811  17.581  -3.714  1.00 20.00     0.015 C 
HETATM    8  C8  UNL     1     -34.707  15.948  -2.056  1.00 20.00     0.015 C 
HETATM    9  O9  UNL     1     -35.054  13.769  -5.649  1.00 20.00    -0.375 OA
ENDROOT
TORSDOF 0
ENDMDL
MODEL 4
REMARK VINA RESULT:      -4.0     12.233     13.200
REMARK  0 active torsions:
REMARK  status: ('A' for Active; 'I' for Inactive)
ROOT
HETATM    1  C1  UNL     1     -34.054   6.659   5.831  1.00 20.00     0.035 C 
HETATM    2  C2  UNL     1     -33.619   6.246   4.423  1.00 20.00     0.011 C 
HETATM    3  C3  UNL     1     -34.879   4.052   4.477  1.00 20.00     0.043 C 
HETATM    4  C4  UNL     1     -34.631   5.536   6.625  1.00 20.00     0.151 A 
HETATM    5  C5  UNL     1     -35.078   4.269   5.946  1.00 20.00     0.151 A 
HETATM    6  C6  UNL     1     -34.659   5.365   3.690  1.00 20.00    -0.045 C 
HETATM    7  C7  UNL     1     -34.118   5.021   2.290  1.00 20.00     0.015 C 
HETATM    8  C8  UNL     1     -35.995   6.113   3.516  1.00 20.00     0.015 C 
HETATM    9  O9  UNL     1     -33.841   4.348   6.682  1.00 20.00    -0.375 OA
ENDROOT
TORSDOF 0
ENDMDL
MODEL 5
REMARK VINA RESULT:      -4.0      1.988      3.395
REMARK  0 active torsions:
REMARK  status: ('A' for Active; 'I' for Inactive)
ROOT
HETATM    1  C1  UNL     1     -34.251  16.370  -2.241  1.00 20.00     0.035 C 
HETATM    2  C2  UNL     1     -35.001  15.168  -2.821  1.00 20.00     0.011 C 
HETATM    3  C3  UNL     1     -34.077  15.483  -5.157  1.00 20.00     0.043 C 
HETATM    4  C4  UNL     1     -33.697  17.280  -3.285  1.00 20.00     0.151 A 
HETATM    5  C5  UNL     1     -33.572  16.821  -4.713  1.00 20.00     0.151 A 
HETATM    6  C6  UNL     1     -34.256  14.481  -3.991  1.00 20.00    -0.045 C 
HETATM    7  C7  UNL     1     -35.098  13.290  -4.484  1.00 20.00     0.015 C 
HETATM    8  C8  UNL     1     -32.886  13.943  -3.535  1.00 20.00     0.015 C 
HETATM    9  O9  UNL     1     -34.622  17.712  -4.284  1.00 20.00    -0.375 OA
ENDROOT
TORSDOF 0
ENDMDL
MODEL 6
REMARK VINA RESULT:      -4.0     10.810     11.662
REMARK  0 active torsions:
REMARK  status: ('A' for Active; 'I' for Inactive)
ROOT
HETATM    1  C1  UNL     1     -40.701   6.139  -0.039  1.00 20.00     0.035 C 
HETATM    2  C2  UNL     1     -40.879   7.103  -1.215  1.00 20.00     0.011 C 
HETATM    3  C3  UNL     1     -42.293   5.494  -2.562  1.00 20.00     0.043 C 
HETATM    4  C4  UNL     1     -41.078   4.733  -0.366  1.00 20.00     0.151 A 
HETATM    5  C5  UNL     1     -41.901   4.425  -1.588  1.00 20.00     0.151 A 
HETATM    6  C6  UNL     1     -42.219   6.919  -1.967  1.00 20.00    -0.045 C 
HETATM    7  C7  UNL     1     -42.287   7.942  -3.116  1.00 20.00     0.015 C 
HETATM    8  C8  UNL     1     -43.417   7.170  -1.031  1.00 20.00     0.015 C 
HETATM    9  O9  UNL     1     -40.479   4.190  -1.544  1.00 20.00    -0.375 OA
ENDROOT
TORSDOF 0
ENDMDL
MODEL 7
REMARK VINA RESULT:      -4.0      1.510      1.968
REMARK  0 active torsions:
REMARK  status: ('A' for Active; 'I' for Inactive)
ROOT
HETATM    1  C1  UNL     1     -34.016  16.087  -6.098  1.00 20.00     0.035 C 
HETATM    2  C2  UNL     1     -34.388  16.479  -4.666  1.00 20.00     0.011 C 
HETATM    3  C3  UNL     1     -35.066  14.132  -4.002  1.00 20.00     0.043 C 
HETATM    4  C4  UNL     1     -34.530  14.745  -6.495  1.00 20.00     0.151 A 
HETATM    5  C5  UNL     1     -35.005  13.767  -5.454  1.00 20.00     0.151 A 
HETATM    6  C6  UNL     1     -34.172  15.341  -3.639  1.00 20.00    -0.045 C 
HETATM    7  C7  UNL     1     -34.570  15.852  -2.242  1.00 20.00     0.015 C 
HETATM    8  C8  UNL     1     -32.693  14.914  -3.589  1.00 20.00     0.015 C 
HETATM    9  O9  UNL     1     -35.923  14.523  -6.270  1.00 20.00    -0.375 OA
ENDROOT
TORSDOF 0
ENDMDL
MODEL 8
REMARK VINA RESULT:      -4.0     11.658     12.658
REMARK  0 active torsions:
REMARK  status: ('A' for Active; 'I' for Inactive)
ROOT
HETATM    1  C1  UNL     1     -43.125   6.350  -2.166  1.00 20.00     0.035 C 
HETATM    2  C2  UNL     1     -42.748   5.101  -2.966  1.00 20.00     0.011 C 
HETATM    3  C3  UNL     1     -40.910   4.408  -1.369  1.00 20.00     0.043 C 
HETATM    4  C4  UNL     1     -42.102   6.733  -1.151  1.00 20.00     0.151 A 
HETATM    5  C5  UNL     1     -41.038   5.756  -0.729  1.00 20.00     0.151 A 
HETATM    6  C6  UNL     1     -42.200   3.949  -2.089  1.00 20.00    -0.045 C 
HETATM    7  C7  UNL     1     -41.864   2.752  -2.998  1.00 20.00     0.015 C 
HETATM    8  C8  UNL     1     -43.251   3.489  -1.060  1.00 20.00     0.015 C 
HETATM    9  O9  UNL     1     -40.762   6.844  -1.633  1.00 20.00    -0.375 OA
ENDROOT
TORSDOF 0
ENDMDL
MODEL 9
REMARK VINA RESULT:      -3.9      1.935      3.171
REMARK  0 active torsions:
REMARK  status: ('A' for Active; 'I' for Inactive)
ROOT
HETATM    1  C1  UNL     1     -33.775  13.721  -3.809  1.00 20.00     0.035 C 
HETATM    2  C2  UNL     1     -35.235  14.003  -4.172  1.00 20.00     0.011 C 
HETATM    3  C3  UNL     1     -34.798  16.405  -4.842  1.00 20.00     0.043 C 
HETATM    4  C4  UNL     1     -32.951  14.957  -3.672  1.00 20.00     0.151 A 
HETATM    5  C5  UNL     1     -33.441  16.269  -4.223  1.00 20.00     0.151 A 
HETATM    6  C6  UNL     1     -35.400  15.054  -5.296  1.00 20.00    -0.045 C 
HETATM    7  C7  UNL     1     -36.902  15.248  -5.578  1.00 20.00     0.015 C 
HETATM    8  C8  UNL     1     -34.726  14.581  -6.599  1.00 20.00     0.015 C 
HETATM    9  O9  UNL     1     -33.485  15.966  -2.814  1.00 20.00    -0.375 OA
ENDROOT
TORSDOF 0
ENDMDL
