MODEL 1
REMARK VINA RESULT:      -4.5      0.000      0.000
REMARK  0 active torsions:
REMARK  status: ('A' for Active; 'I' for Inactive)
ROOT
HETATM    1  C1  UNL     1     -34.763  16.704  -1.212  1.00 20.00     0.064 C 
HETATM    2  C2  UNL     1     -35.917  15.597  -3.090  1.00 20.00     0.020 C 
HETATM    3  C3  UNL     1     -33.414  15.954  -3.137  1.00 20.00     0.020 C 
HETATM    4  C4  UNL     1     -35.906  15.323  -4.594  1.00 20.00     0.010 C 
HETATM    5  C5  UNL     1     -33.403  15.679  -4.641  1.00 20.00     0.010 C 
HETATM    6  C6  UNL     1     -34.763  16.514  -2.672  1.00 20.00     0.093 C 
HETATM    7  C7  UNL     1     -34.558  14.767  -5.108  1.00 20.00    -0.048 C 
HETATM    8  C8  UNL     1     -34.583  14.738  -6.648  1.00 20.00     0.015 C 
HETATM    9  C9  UNL     1     -34.344  13.324  -4.611  1.00 20.00     0.015 C 
HETATM   10  N10 UNL     1     -34.763  16.853  -0.060  1.00 20.00    -0.197 NA
ENDROOT
TORSDOF 0
ENDMDL
MODEL 2
REMARK VINA RESULT:      -4.5      2.486      4.006
REMARK  0 active torsions:
REMARK  status: ('A' for Active; 'I' for Inactive)
ROOT
HETATM    1  C1  UNL     1     -34.379  13.730  -4.284  1.00 20.00     0.064 C 
HETATM    2  C2  UNL     1     -34.500  15.484  -2.555  1.00 20.00     0.020 C 
HETATM    3  C3  UNL     1     -34.011  16.072  -4.964  1.00 20.00     0.020 C 
HETATM    4  C4  UNL     1     -34.006  16.863  -2.117  1.00 20.00     0.010 C 
HETATM    5  C5  UNL     1     -33.517  17.452  -4.527  1.00 20.00     0.010 C 
HETATM    6  C6  UNL     1     -33.834  15.029  -3.857  1.00 20.00     0.093 C 
HETATM    7  C7  UNL     1     -34.157  17.945  -3.211  1.00 20.00    -0.048 C 
HETATM    8  C8  UNL     1     -33.433  19.225  -2.751  1.00 20.00     0.015 C 
HETATM    9  C9  UNL     1     -35.643  18.293  -3.427  1.00 20.00     0.015 C 
HETATM   10  N10 UNL     1     -34.810  12.706  -4.622  1.00 20.00    -0.197 NA
ENDROOT
TORSDOF 0
ENDMDL
MODEL 3
REMARK VINA RESULT:      -4.4      2.286      4.284
REMARK  0 active torsions:
REMARK  status: ('A' for Active; 'I' for Inactive)
ROOT
HETATM    1  C1  UNL     1     -34.829  13.723  -4.439  1.00 20.00     0.064 C 
HETATM    2  C2  UNL     1     -33.586  15.584  -3.401  1.00 20.00     0.020 C 
HETATM    3  C3  UNL     1     -36.097  15.410  -3.160  1.00 20.00     0.020 C 
HETATM    4  C4  UNL     1     -33.643  17.042  -2.943  1.00 20.00     0.010 C 
HETATM    5  C5  UNL     1     -36.155  16.867  -2.702  1.00 20.00     0.010 C 
HETATM    6  C6  UNL     1     -34.893  15.147  -4.071  1.00 20.00     0.093 C 
HETATM    7  C7  UNL     1     -34.851  17.352  -2.030  1.00 20.00    -0.048 C 
HETATM    8  C8  UNL     1     -34.936  18.875  -1.813  1.00 20.00     0.015 C 
HETATM    9  C9  UNL     1     -34.672  16.687  -0.651  1.00 20.00     0.015 C 
HETATM   10  N10 UNL     1     -34.779  12.600  -4.729  1.00 20.00    -0.197 NA
ENDROOT
TORSDOF 0
ENDMDL
MODEL 4
REMARK VINA RESULT:      -4.4      1.010      2.093
REMARK  0 active torsions:
REMARK  status: ('A' for Active; 'I' for Inactive)
ROOT
HETATM    1  C1  UNL     1     -34.513  16.320  -1.457  1.00 20.00     0.064 C 
HETATM    2  C2  UNL     1     -33.647  16.805  -3.715  1.00 20.00     0.020 C 
HETATM    3  C3  UNL     1     -35.581  15.210  -3.384  1.00 20.00     0.020 C 
HETATM    4  C4  UNL     1     -33.449  16.271  -5.134  1.00 20.00     0.010 C 
HETATM    5  C5  UNL     1     -35.383  14.676  -4.803  1.00 20.00     0.010 C 
HETATM    6  C6  UNL     1     -34.275  15.754  -2.795  1.00 20.00     0.093 C 
HETATM    7  C7  UNL     1     -34.741  15.703  -5.762  1.00 20.00    -0.048 C 
HETATM    8  C8  UNL     1     -34.386  14.998  -7.085  1.00 20.00     0.015 C 
HETATM    9  C9  UNL     1     -35.733  16.839  -6.082  1.00 20.00     0.015 C 
HETATM   10  N10 UNL     1     -34.701  16.767  -0.402  1.00 20.00    -0.197 NA
ENDROOT
TORSDOF 0
ENDMDL
MODEL 5
REMARK VINA RESULT:      -4.3      2.728      4.439
REMARK  0 active torsions:
REMARK  status: ('A' for Active; 'I' for Inactive)
ROOT
HETATM    1  C1  UNL     1     -37.037  15.119  -3.581  1.00 20.00     0.064 C 
HETATM    2  C2  UNL     1     -34.829  15.489  -2.545  1.00 20.00     0.020 C 
HETATM    3  C3  UNL     1     -36.605  17.288  -2.487  1.00 20.00     0.020 C 
HETATM    4  C4  UNL     1     -33.769  16.523  -2.165  1.00 20.00     0.010 C 
HETATM    5  C5  UNL     1     -35.546  18.322  -2.106  1.00 20.00     0.010 C 
HETATM    6  C6  UNL     1     -36.006  16.129  -3.290  1.00 20.00     0.093 C 
HETATM    7  C7  UNL     1     -34.335  17.717  -1.362  1.00 20.00    -0.048 C 
HETATM    8  C8  UNL     1     -33.240  18.793  -1.228  1.00 20.00     0.015 C 
HETATM    9  C9  UNL     1     -34.738  17.272   0.057  1.00 20.00     0.015 C 
HETATM   10  N10 UNL     1     -37.851  14.324  -3.811  1.00 20.00    -0.197 NA
ENDROOT
TORSDOF 0
ENDMDL
MODEL 6
REMARK VINA RESULT:      -4.1      2.455      3.936
REMARK  0 active torsions:
REMARK  status: ('A' for Active; 'I' for Inactive)
ROOT
HETATM    1  C1  UNL     1     -34.919  13.622  -4.162  1.00 20.00     0.064 C 
HETATM    2  C2  UNL     1     -35.866  15.900  -4.167  1.00 20.00     0.020 C 
HETATM    3  C3  UNL     1     -33.723  15.391  -2.926  1.00 20.00     0.020 C 
HETATM    4  C4  UNL     1     -36.000  17.214  -3.397  1.00 20.00     0.010 C 
HETATM    5  C5  UNL     1     -33.856  16.706  -2.156  1.00 20.00     0.010 C 
HETATM    6  C6  UNL     1     -35.087  14.851  -3.368  1.00 20.00     0.093 C 
HETATM    7  C7  UNL     1     -34.646  17.789  -2.923  1.00 20.00    -0.048 C 
HETATM    8  C8  UNL     1     -34.911  18.978  -1.980  1.00 20.00     0.015 C 
HETATM    9  C9  UNL     1     -33.829  18.309  -4.122  1.00 20.00     0.015 C 
HETATM   10  N10 UNL     1     -34.785  12.654  -4.788  1.00 20.00    -0.197 NA
ENDROOT
TORSDOF 0
ENDMDL
MODEL 7
REMARK VINA RESULT:      -4.1     11.397     12.643
REMARK  0 active torsions:
REMARK  status: ('A' for Active; 'I' for Inactive)
ROOT
HETATM    1  C1  UNL     1     -42.410   8.061  -3.925  1.00 20.00     0.064 C 
HETATM    2  C2  UNL     1     -41.595   7.436  -1.682  1.00 20.00     0.020 C 
HETATM    3  C3  UNL     1     -42.916   5.797  -3.084  1.00 20.00     0.020 C 
HETATM    4  C4  UNL     1     -41.842   6.575  -0.443  1.00 20.00     0.010 C 
HETATM    5  C5  UNL     1     -43.162   4.936  -1.845  1.00 20.00     0.010 C 
HETATM    6  C6  UNL     1     -42.711   7.271  -2.719  1.00 20.00     0.093 C 
HETATM    7  C7  UNL     1     -42.064   5.080  -0.767  1.00 20.00    -0.048 C 
HETATM    8  C8  UNL     1     -42.519   4.353   0.512  1.00 20.00     0.015 C 
HETATM    9  C9  UNL     1     -40.751   4.428  -1.241  1.00 20.00     0.015 C 
HETATM   10  N10 UNL     1     -42.173   8.683  -4.876  1.00 20.00    -0.197 NA
ENDROOT
TORSDOF 0
ENDMDL
MODEL 8
REMARK VINA RESULT:      -4.0      2.363      3.496
REMARK  0 active torsions:
REMARK  status: ('A' for Active; 'I' for Inactive)
ROOT
HETATM    1  C1  UNL     1     -37.985  14.768  -4.180  1.00 20.00     0.064 C 
HETATM    2  C2  UNL     1     -35.978  15.696  -3.086  1.00 20.00     0.020 C 
HETATM    3  C3  UNL     1     -35.771  14.164  -5.087  1.00 20.00     0.020 C 
HETATM    4  C4  UNL     1     -34.499  15.478  -2.766  1.00 20.00     0.010 C 
HETATM    5  C5  UNL     1     -34.292  13.946  -4.768  1.00 20.00     0.010 C 
HETATM    6  C6  UNL     1     -36.580  14.499  -3.830  1.00 20.00     0.093 C 
HETATM    7  C7  UNL     1     -33.647  15.126  -4.007  1.00 20.00    -0.048 C 
HETATM    8  C8  UNL     1     -32.237  14.713  -3.545  1.00 20.00     0.015 C 
HETATM    9  C9  UNL     1     -33.503  16.352  -4.930  1.00 20.00     0.015 C 
HETATM   10  N10 UNL     1     -39.092  14.981  -4.457  1.00 20.00    -0.197 NA
ENDROOT
TORSDOF 0
ENDMDL
MODEL 9
REMARK VINA RESULT:      -4.0      2.599      4.253
REMARK  0 active torsions:
REMARK  status: ('A' for Active; 'I' for Inactive)
ROOT
HETATM    1  C1  UNL     1     -35.184  14.569  -6.385  1.00 20.00     0.064 C 
HETATM    2  C2  UNL     1     -36.091  15.908  -4.522  1.00 20.00     0.020 C 
HETATM    3  C3  UNL     1     -33.703  15.076  -4.478  1.00 20.00     0.020 C 
HETATM    4  C4  UNL     1     -36.017  16.200  -3.023  1.00 20.00     0.010 C 
HETATM    5  C5  UNL     1     -33.629  15.368  -2.979  1.00 20.00     0.010 C 
HETATM    6  C6  UNL     1     -35.137  14.779  -4.929  1.00 20.00     0.093 C 
HETATM    7  C7  UNL     1     -34.584  16.494  -2.525  1.00 20.00    -0.048 C 
HETATM    8  C8  UNL     1     -34.592  16.552  -0.985  1.00 20.00     0.015 C 
HETATM    9  C9  UNL     1     -34.099  17.860  -3.048  1.00 20.00     0.015 C 
HETATM   10  N10 UNL     1     -35.221  14.403  -7.534  1.00 20.00    -0.197 NA
ENDROOT
TORSDOF 0
ENDMDL
