MODEL 1
REMARK VINA RESULT:      -3.8      0.000      0.000
REMARK  3 active torsions:
REMARK  status: ('A' for Active; 'I' for Inactive)
REMARK    1  A    between atoms: C4_4  and  C6_6 
REMARK    2  A    between atoms: C5_5  and  C6_6 
REMARK    3  A    between atoms: C5_5  and  O8_8 
ROOT
HETATM    1  C1  UNL     1     -33.668   6.592   5.861  1.00 20.00     0.066 C 
HETATM    2  C6  UNL     1     -33.706   5.720   4.668  1.00 20.00     0.116 C 
HETATM    3  N7  UNL     1     -33.639   7.274   6.800  1.00 20.00    -0.197 NA
ENDROOT
BRANCH   2   4
HETATM    4  C4  UNL     1     -35.020   4.926   4.612  1.00 20.00     0.017 C 
HETATM    5  C2  UNL     1     -35.233   4.037   5.832  1.00 20.00     0.006 C 
ENDBRANCH   2   4
BRANCH   2   6
HETATM    6  C5  UNL     1     -33.549   6.569   3.401  1.00 20.00     0.186 C 
BRANCH   6   7
HETATM    7  O8  UNL     1     -32.196   6.994   3.275  1.00 20.00    -0.395 OA
HETATM    8  C3  UNL     1     -32.058   8.007   2.289  1.00 20.00     0.201 C 
ENDBRANCH   6   7
ENDBRANCH   2   6
TORSDOF 3
ENDMDL
MODEL 2
REMARK VINA RESULT:      -3.8     12.029     12.719
REMARK  3 active torsions:
REMARK  status: ('A' for Active; 'I' for Inactive)
REMARK    1  A    between atoms: C4_4  and  C6_6 
REMARK    2  A    between atoms: C5_5  and  C6_6 
REMARK    3  A    between atoms: C5_5  and  O8_8 
ROOT
HETATM    1  C1  UNL     1     -34.789  13.927  -4.073  1.00 20.00     0.066 C 
HETATM    2  C6  UNL     1     -34.574  15.351  -3.741  1.00 20.00     0.116 C 
HETATM    3  N7  UNL     1     -34.961  12.809  -4.333  1.00 20.00    -0.197 NA
ENDROOT
BRANCH   2   4
HETATM    4  C4  UNL     1     -35.102  15.670  -2.333  1.00 20.00     0.017 C 
HETATM    5  C2  UNL     1     -34.196  16.617  -1.554  1.00 20.00     0.006 C 
ENDBRANCH   2   4
BRANCH   2   6
HETATM    6  C5  UNL     1     -33.080  15.685  -3.831  1.00 20.00     0.186 C 
BRANCH   6   7
HETATM    7  O8  UNL     1     -32.817  16.367  -5.053  1.00 20.00    -0.395 OA
HETATM    8  C3  UNL     1     -33.516  17.601  -5.121  1.00 20.00     0.201 C 
ENDBRANCH   6   7
ENDBRANCH   2   6
TORSDOF 3
ENDMDL
MODEL 3
REMARK VINA RESULT:      -3.7      1.712      2.242
REMARK  3 active torsions:
REMARK  status: ('A' for Active; 'I' for Inactive)
REMARK    1  A    between atoms: C4_4  and  C6_6 
REMARK    2  A    between atoms: C5_5  and  C6_6 
REMARK    3  A    between atoms: C5_5  and  O8_8 
ROOT
HETATM    1  C1  UNL     1     -34.792   4.761   4.504  1.00 20.00     0.066 C 
HETATM    2  C6  UNL     1     -34.237   6.092   4.177  1.00 20.00     0.116 C 
HETATM    3  N7  UNL     1     -35.231   3.718   4.762  1.00 20.00    -0.197 NA
ENDROOT
BRANCH   2   4
HETATM    4  C4  UNL     1     -33.552   6.714   5.404  1.00 20.00     0.017 C 
HETATM    5  C2  UNL     1     -34.230   6.346   6.719  1.00 20.00     0.006 C 
ENDBRANCH   2   4
BRANCH   2   6
HETATM    6  C5  UNL     1     -33.237   5.966   3.022  1.00 20.00     0.186 C 
BRANCH   6   7
HETATM    7  O8  UNL     1     -32.126   6.826   3.257  1.00 20.00    -0.395 OA
HETATM    8  C3  UNL     1     -32.085   7.890   2.316  1.00 20.00     0.201 C 
ENDBRANCH   6   7
ENDBRANCH   2   6
TORSDOF 3
ENDMDL
MODEL 4
REMARK VINA RESULT:      -3.7     11.780     12.476
REMARK  3 active torsions:
REMARK  status: ('A' for Active; 'I' for Inactive)
REMARK    1  A    between atoms: C4_4  and  C6_6 
REMARK    2  A    between atoms: C5_5  and  C6_6 
REMARK    3  A    between atoms: C5_5  and  O8_8 
ROOT
HETATM    1  C1  UNL     1     -34.905  13.571  -4.072  1.00 20.00     0.066 C 
HETATM    2  C6  UNL     1     -35.312  14.646  -3.142  1.00 20.00     0.116 C 
HETATM    3  N7  UNL     1     -34.583  12.727  -4.800  1.00 20.00    -0.197 NA
ENDROOT
BRANCH   2   4
HETATM    4  C4  UNL     1     -34.228  15.732  -3.054  1.00 20.00     0.017 C 
HETATM    5  C2  UNL     1     -34.244  16.487  -1.730  1.00 20.00     0.006 C 
ENDBRANCH   2   4
BRANCH   2   6
HETATM    6  C5  UNL     1     -36.637  15.261  -3.608  1.00 20.00     0.186 C 
BRANCH   6   7
HETATM    7  O8  UNL     1     -37.609  14.233  -3.773  1.00 20.00    -0.395 OA
HETATM    8  C3  UNL     1     -38.888  14.771  -4.075  1.00 20.00     0.201 C 
ENDBRANCH   6   7
ENDBRANCH   2   6
TORSDOF 3
ENDMDL
MODEL 5
REMARK VINA RESULT:      -3.7     11.969     12.515
REMARK  3 active torsions:
REMARK  status: ('A' for Active; 'I' for Inactive)
REMARK    1  A    between atoms: C4_4  and  C6_6 
REMARK    2  A    between atoms: C5_5  and  C6_6 
REMARK    3  A    between atoms: C5_5  and  O8_8 
ROOT
HETATM    1  C1  UNL     1     -33.263  16.400  -4.323  1.00 20.00     0.066 C 
HETATM    2  C6  UNL     1     -33.346  15.483  -3.166  1.00 20.00     0.116 C 
HETATM    3  N7  UNL     1     -33.199  17.123  -5.228  1.00 20.00    -0.197 NA
ENDROOT
BRANCH   2   4
HETATM    4  C4  UNL     1     -34.692  15.639  -2.440  1.00 20.00     0.017 C 
HETATM    5  C2  UNL     1     -34.599  16.504  -1.189  1.00 20.00     0.006 C 
ENDBRANCH   2   4
BRANCH   2   6
HETATM    6  C5  UNL     1     -33.166  14.036  -3.639  1.00 20.00     0.186 C 
BRANCH   6   7
HETATM    7  O8  UNL     1     -34.423  13.368  -3.623  1.00 20.00    -0.395 OA
HETATM    8  C3  UNL     1     -34.873  13.076  -4.938  1.00 20.00     0.201 C 
ENDBRANCH   6   7
ENDBRANCH   2   6
TORSDOF 3
ENDMDL
MODEL 6
REMARK VINA RESULT:      -3.6      1.611      3.602
REMARK  3 active torsions:
REMARK  status: ('A' for Active; 'I' for Inactive)
REMARK    1  A    between atoms: C4_4  and  C6_6 
REMARK    2  A    between atoms: C5_5  and  C6_6 
REMARK    3  A    between atoms: C5_5  and  O8_8 
ROOT
HETATM    1  C1  UNL     1     -33.709   6.709   5.378  1.00 20.00     0.066 C 
HETATM    2  C6  UNL     1     -33.825   6.547   3.913  1.00 20.00     0.116 C 
HETATM    3  N7  UNL     1     -33.617   6.838   6.527  1.00 20.00    -0.197 NA
ENDROOT
BRANCH   2   4
HETATM    4  C4  UNL     1     -32.435   6.486   3.258  1.00 20.00     0.017 C 
HETATM    5  C2  UNL     1     -32.086   7.748   2.479  1.00 20.00     0.006 C 
ENDBRANCH   2   4
BRANCH   2   6
HETATM    6  C5  UNL     1     -34.615   5.273   3.593  1.00 20.00     0.186 C 
BRANCH   6   7
HETATM    7  O8  UNL     1     -35.502   4.978   4.667  1.00 20.00    -0.395 OA
HETATM    8  C3  UNL     1     -35.096   3.813   5.371  1.00 20.00     0.201 C 
ENDBRANCH   6   7
ENDBRANCH   2   6
TORSDOF 3
ENDMDL
MODEL 7
REMARK VINA RESULT:      -3.5     11.646     12.590
REMARK  3 active torsions:
REMARK  status: ('A' for Active; 'I' for Inactive)
REMARK    1  A    between atoms: C4_4  and  C6_6 
REMARK    2  A    between atoms: C5_5  and  C6_6 
REMARK    3  A    between atoms: C5_5  and  O8_8 
ROOT
HETATM    1  C1  UNL     1     -34.314  13.774  -3.916  1.00 20.00     0.066 C 
HETATM    2  C6  UNL     1     -33.652  14.973  -3.362  1.00 20.00     0.116 C 
HETATM    3  N7  UNL     1     -34.831  12.831  -4.353  1.00 20.00    -0.197 NA
ENDROOT
BRANCH   2   4
HETATM    4  C4  UNL     1     -33.138  15.885  -4.488  1.00 20.00     0.017 C 
HETATM    5  C2  UNL     1     -34.123  16.020  -5.643  1.00 20.00     0.006 C 
ENDBRANCH   2   4
BRANCH   2   6
HETATM    6  C5  UNL     1     -34.633  15.742  -2.469  1.00 20.00     0.186 C 
BRANCH   6   7
HETATM    7  O8  UNL     1     -33.909  16.539  -1.538  1.00 20.00    -0.395 OA
HETATM    8  C3  UNL     1     -34.718  16.910  -0.431  1.00 20.00     0.201 C 
ENDBRANCH   6   7
ENDBRANCH   2   6
TORSDOF 3
ENDMDL
MODEL 8
REMARK VINA RESULT:      -3.5     12.072     12.775
REMARK  3 active torsions:
REMARK  status: ('A' for Active; 'I' for Inactive)
REMARK    1  A    between atoms: C4_4  and  C6_6 
REMARK    2  A    between atoms: C5_5  and  C6_6 
REMARK    3  A    between atoms: C5_5  and  O8_8 
ROOT
HETATM    1  C1  UNL     1     -33.487  16.791  -4.254  1.00 20.00     0.066 C 
HETATM    2  C6  UNL     1     -33.585  16.089  -2.957  1.00 20.00     0.116 C 
HETATM    3  N7  UNL     1     -33.407  17.344  -5.271  1.00 20.00    -0.197 NA
ENDROOT
BRANCH   2   4
HETATM    4  C4  UNL     1     -33.720  17.093  -1.800  1.00 20.00     0.017 C 
HETATM    5  C2  UNL     1     -34.700  16.638  -0.726  1.00 20.00     0.006 C 
ENDBRANCH   2   4
BRANCH   2   6
HETATM    6  C5  UNL     1     -34.788  15.138  -2.972  1.00 20.00     0.186 C 
BRANCH   6   7
HETATM    7  O8  UNL     1     -34.359  13.832  -3.342  1.00 20.00    -0.395 OA
HETATM    8  C3  UNL     1     -35.123  13.321  -4.426  1.00 20.00     0.201 C 
ENDBRANCH   6   7
ENDBRANCH   2   6
TORSDOF 3
ENDMDL
MODEL 9
REMARK VINA RESULT:      -3.5     12.033     12.933
REMARK  3 active torsions:
REMARK  status: ('A' for Active; 'I' for Inactive)
REMARK    1  A    between atoms: C4_4  and  C6_6 
REMARK    2  A    between atoms: C5_5  and  C6_6 
REMARK    3  A    between atoms: C5_5  and  O8_8 
ROOT
HETATM    1  C1  UNL     1     -34.875  14.256  -5.913  1.00 20.00     0.066 C 
HETATM    2  C6  UNL     1     -35.116  13.758  -4.542  1.00 20.00     0.116 C 
HETATM    3  N7  UNL     1     -34.685  14.643  -6.990  1.00 20.00    -0.197 NA
ENDROOT
BRANCH   2   4
HETATM    4  C4  UNL     1     -33.804  13.701  -3.743  1.00 20.00     0.017 C 
HETATM    5  C2  UNL     1     -33.088  15.045  -3.671  1.00 20.00     0.006 C 
ENDBRANCH   2   4
BRANCH   2   6
HETATM    6  C5  UNL     1     -36.126  14.667  -3.831  1.00 20.00     0.186 C 
BRANCH   6   7
HETATM    7  O8  UNL     1     -37.397  14.027  -3.789  1.00 20.00    -0.395 OA
HETATM    8  C3  UNL     1     -38.457  14.971  -3.846  1.00 20.00     0.201 C 
ENDBRANCH   6   7
ENDBRANCH   2   6
TORSDOF 3
ENDMDL
