MODEL 1
REMARK VINA RESULT:      -4.1      0.000      0.000
REMARK  4 active torsions:
REMARK  status: ('A' for Active; 'I' for Inactive)
REMARK    1  A    between atoms: C7_7  and  C10_10 
REMARK    2  A    between atoms: C8_8  and  N11_11 
REMARK    3  A    between atoms: C9_9  and  N11_11 
REMARK    4  A    between atoms: C10_10  and  N11_11 
ROOT
HETATM    1  C1  UNL     1     -34.387  16.842  -6.755  1.00 20.00     0.013 C 
HETATM    2  C2  UNL     1     -34.033  17.103  -5.638  1.00 20.00    -0.087 C 
HETATM    3  C9  UNL     1     -33.600  17.426  -4.276  1.00 20.00     0.365 C 
ENDROOT
BRANCH   3   4
HETATM    4  N11 UNL     1     -33.936  16.342  -3.355  1.00 20.00     0.104 N 
BRANCH   4   5
HETATM    5  C8  UNL     1     -33.665  16.742  -1.975  1.00 20.00     0.224 A 
HETATM    6  C5  UNL     1     -34.356  17.938  -1.380  1.00 20.00     0.038 A 
HETATM    7  C6  UNL     1     -34.708  16.558  -0.908  1.00 20.00     0.038 A 
ENDBRANCH   4   5
BRANCH   4   8
HETATM    8  C10 UNL     1     -33.185  15.133  -3.692  1.00 20.00     0.278 C 
BRANCH   8   9
HETATM    9  C7  UNL     1     -34.050  13.921  -3.615  1.00 20.00     0.014 A 
HETATM   10  C3  UNL     1     -35.485  13.986  -4.059  1.00 20.00     0.007 A 
HETATM   11  C4  UNL     1     -34.481  13.218  -4.872  1.00 20.00     0.007 A 
ENDBRANCH   8   9
ENDBRANCH   4   8
ENDBRANCH   3   4
TORSDOF 4
ENDMDL
MODEL 2
REMARK VINA RESULT:      -4.0      1.700      4.227
REMARK  4 active torsions:
REMARK  status: ('A' for Active; 'I' for Inactive)
REMARK    1  A    between atoms: C7_7  and  C10_10 
REMARK    2  A    between atoms: C8_8  and  N11_11 
REMARK    3  A    between atoms: C9_9  and  N11_11 
REMARK    4  A    between atoms: C10_10  and  N11_11 
ROOT
HETATM    1  C1  UNL     1     -38.527  14.766  -3.834  1.00 20.00     0.013 C 
HETATM    2  C2  UNL     1     -37.489  15.151  -4.296  1.00 20.00    -0.087 C 
HETATM    3  C9  UNL     1     -36.224  15.622  -4.866  1.00 20.00     0.365 C 
ENDROOT
BRANCH   3   4
HETATM    4  N11 UNL     1     -35.171  15.628  -3.852  1.00 20.00     0.104 N 
BRANCH   4   5
HETATM    5  C8  UNL     1     -34.763  14.260  -3.532  1.00 20.00     0.224 A 
HETATM    6  C5  UNL     1     -34.499  13.268  -4.631  1.00 20.00     0.038 A 
HETATM    7  C6  UNL     1     -33.360  13.797  -3.810  1.00 20.00     0.038 A 
ENDBRANCH   4   5
BRANCH   4   8
HETATM    8  C10 UNL     1     -35.624  16.321  -2.646  1.00 20.00     0.278 C 
BRANCH   8   9
HETATM    9  C7  UNL     1     -34.615  16.216  -1.553  1.00 20.00     0.014 A 
HETATM   10  C3  UNL     1     -33.677  17.358  -1.276  1.00 20.00     0.007 A 
HETATM   11  C4  UNL     1     -34.772  17.031  -0.299  1.00 20.00     0.007 A 
ENDBRANCH   8   9
ENDBRANCH   4   8
ENDBRANCH   3   4
TORSDOF 4
ENDMDL
MODEL 3
REMARK VINA RESULT:      -4.0      1.170      3.689
REMARK  4 active torsions:
REMARK  status: ('A' for Active; 'I' for Inactive)
REMARK    1  A    between atoms: C7_7  and  C10_10 
REMARK    2  A    between atoms: C8_8  and  N11_11 
REMARK    3  A    between atoms: C9_9  and  N11_11 
REMARK    4  A    between atoms: C10_10  and  N11_11 
ROOT
HETATM    1  C1  UNL     1     -34.443  17.317  -6.904  1.00 20.00     0.013 C 
HETATM    2  C2  UNL     1     -35.045  16.722  -6.053  1.00 20.00    -0.087 C 
HETATM    3  C9  UNL     1     -35.784  15.995  -5.018  1.00 20.00     0.365 C 
ENDROOT
BRANCH   3   4
HETATM    4  N11 UNL     1     -34.930  15.732  -3.861  1.00 20.00     0.104 N 
BRANCH   4   5
HETATM    5  C8  UNL     1     -34.795  14.291  -3.644  1.00 20.00     0.224 A 
HETATM    6  C5  UNL     1     -34.561  13.365  -4.805  1.00 20.00     0.038 A 
HETATM    7  C6  UNL     1     -33.462  13.615  -3.815  1.00 20.00     0.038 A 
ENDBRANCH   4   5
BRANCH   4   8
HETATM    8  C10 UNL     1     -35.471  16.379  -2.667  1.00 20.00     0.278 C 
BRANCH   8   9
HETATM    9  C7  UNL     1     -34.526  16.267  -1.518  1.00 20.00     0.014 A 
HETATM   10  C3  UNL     1     -33.649  17.429  -1.144  1.00 20.00     0.007 A 
HETATM   11  C4  UNL     1     -34.787  17.028  -0.248  1.00 20.00     0.007 A 
ENDBRANCH   8   9
ENDBRANCH   4   8
ENDBRANCH   3   4
TORSDOF 4
ENDMDL
MODEL 4
REMARK VINA RESULT:      -3.9      0.976      4.237
REMARK  4 active torsions:
REMARK  status: ('A' for Active; 'I' for Inactive)
REMARK    1  A    between atoms: C7_7  and  C10_10 
REMARK    2  A    between atoms: C8_8  and  N11_11 
REMARK    3  A    between atoms: C9_9  and  N11_11 
REMARK    4  A    between atoms: C10_10  and  N11_11 
ROOT
HETATM    1  C1  UNL     1     -34.766  16.944  -0.397  1.00 20.00     0.013 C 
HETATM    2  C2  UNL     1     -34.289  16.604  -1.444  1.00 20.00    -0.087 C 
HETATM    3  C9  UNL     1     -33.702  16.189  -2.721  1.00 20.00     0.365 C 
ENDROOT
BRANCH   3   4
HETATM    4  N11 UNL     1     -34.747  15.837  -3.680  1.00 20.00     0.104 N 
BRANCH   4   5
HETATM    5  C8  UNL     1     -34.331  14.691  -4.489  1.00 20.00     0.224 A 
HETATM    6  C5  UNL     1     -33.575  13.552  -3.863  1.00 20.00     0.038 A 
HETATM    7  C6  UNL     1     -34.992  13.351  -4.312  1.00 20.00     0.038 A 
ENDBRANCH   4   5
BRANCH   4   8
HETATM    8  C10 UNL     1     -35.062  16.979  -4.538  1.00 20.00     0.278 C 
BRANCH   8   9
HETATM    9  C7  UNL     1     -34.025  17.162  -5.594  1.00 20.00     0.014 A 
HETATM   10  C3  UNL     1     -34.424  17.573  -6.984  1.00 20.00     0.007 A 
HETATM   11  C4  UNL     1     -33.692  18.539  -6.096  1.00 20.00     0.007 A 
ENDBRANCH   8   9
ENDBRANCH   4   8
ENDBRANCH   3   4
TORSDOF 4
ENDMDL
MODEL 5
REMARK VINA RESULT:      -3.8      1.688      4.327
REMARK  4 active torsions:
REMARK  status: ('A' for Active; 'I' for Inactive)
REMARK    1  A    between atoms: C7_7  and  C10_10 
REMARK    2  A    between atoms: C8_8  and  N11_11 
REMARK    3  A    between atoms: C9_9  and  N11_11 
REMARK    4  A    between atoms: C10_10  and  N11_11 
ROOT
HETATM    1  C1  UNL     1     -38.418  15.151  -3.733  1.00 20.00     0.013 C 
HETATM    2  C2  UNL     1     -37.352  14.647  -3.956  1.00 20.00    -0.087 C 
HETATM    3  C9  UNL     1     -36.052  14.027  -4.228  1.00 20.00     0.365 C 
ENDROOT
BRANCH   3   4
HETATM    4  N11 UNL     1     -35.002  15.041  -4.309  1.00 20.00     0.104 N 
BRANCH   4   5
HETATM    5  C8  UNL     1     -34.238  14.887  -5.547  1.00 20.00     0.224 A 
HETATM    6  C5  UNL     1     -34.945  14.654  -6.853  1.00 20.00     0.038 A 
HETATM    7  C6  UNL     1     -34.259  15.964  -6.596  1.00 20.00     0.038 A 
ENDBRANCH   4   5
BRANCH   4   8
HETATM    8  C10 UNL     1     -34.117  14.955  -3.148  1.00 20.00     0.278 C 
BRANCH   8   9
HETATM    9  C7  UNL     1     -34.004  16.272  -2.457  1.00 20.00     0.014 A 
HETATM   10  C3  UNL     1     -35.201  17.173  -2.345  1.00 20.00     0.007 A 
HETATM   11  C4  UNL     1     -34.663  16.484  -1.122  1.00 20.00     0.007 A 
ENDBRANCH   8   9
ENDBRANCH   4   8
ENDBRANCH   3   4
TORSDOF 4
ENDMDL
MODEL 6
REMARK VINA RESULT:      -3.8      1.006      4.115
REMARK  4 active torsions:
REMARK  status: ('A' for Active; 'I' for Inactive)
REMARK    1  A    between atoms: C7_7  and  C10_10 
REMARK    2  A    between atoms: C8_8  and  N11_11 
REMARK    3  A    between atoms: C9_9  and  N11_11 
REMARK    4  A    between atoms: C10_10  and  N11_11 
ROOT
HETATM    1  C1  UNL     1     -34.837  13.124  -4.344  1.00 20.00     0.013 C 
HETATM    2  C2  UNL     1     -34.471  14.112  -3.771  1.00 20.00    -0.087 C 
HETATM    3  C9  UNL     1     -34.019  15.317  -3.069  1.00 20.00     0.365 C 
ENDROOT
BRANCH   3   4
HETATM    4  N11 UNL     1     -34.901  16.446  -3.360  1.00 20.00     0.104 N 
BRANCH   4   5
HETATM    5  C8  UNL     1     -34.171  17.492  -4.076  1.00 20.00     0.224 A 
HETATM    6  C5  UNL     1     -33.397  17.163  -5.322  1.00 20.00     0.038 A 
HETATM    7  C6  UNL     1     -34.652  17.980  -5.414  1.00 20.00     0.038 A 
ENDBRANCH   4   5
BRANCH   4   8
HETATM    8  C10 UNL     1     -35.476  16.978  -2.125  1.00 20.00     0.278 C 
BRANCH   8   9
HETATM    9  C7  UNL     1     -34.579  16.727  -0.961  1.00 20.00     0.014 A 
HETATM   10  C3  UNL     1     -33.743  17.840  -0.394  1.00 20.00     0.007 A 
HETATM   11  C4  UNL     1     -34.910  17.305   0.387  1.00 20.00     0.007 A 
ENDBRANCH   8   9
ENDBRANCH   4   8
ENDBRANCH   3   4
TORSDOF 4
ENDMDL
MODEL 7
REMARK VINA RESULT:      -3.7      1.918      4.192
REMARK  4 active torsions:
REMARK  status: ('A' for Active; 'I' for Inactive)
REMARK    1  A    between atoms: C7_7  and  C10_10 
REMARK    2  A    between atoms: C8_8  and  N11_11 
REMARK    3  A    between atoms: C9_9  and  N11_11 
REMARK    4  A    between atoms: C10_10  and  N11_11 
ROOT
HETATM    1  C1  UNL     1     -34.775  16.965  -0.340  1.00 20.00     0.013 C 
HETATM    2  C2  UNL     1     -34.311  16.625  -1.393  1.00 20.00    -0.087 C 
HETATM    3  C9  UNL     1     -33.740  16.211  -2.677  1.00 20.00     0.365 C 
ENDROOT
BRANCH   3   4
HETATM    4  N11 UNL     1     -34.794  15.817  -3.610  1.00 20.00     0.104 N 
BRANCH   4   5
HETATM    5  C8  UNL     1     -34.339  14.717  -4.460  1.00 20.00     0.224 A 
HETATM    6  C5  UNL     1     -33.591  13.556  -3.866  1.00 20.00     0.038 A 
HETATM    7  C6  UNL     1     -34.990  13.364  -4.372  1.00 20.00     0.038 A 
ENDBRANCH   4   5
BRANCH   4   8
HETATM    8  C10 UNL     1     -35.207  16.957  -4.428  1.00 20.00     0.278 C 
BRANCH   8   9
HETATM    9  C7  UNL     1     -36.690  17.103  -4.440  1.00 20.00     0.014 A 
HETATM   10  C3  UNL     1     -37.523  16.468  -3.362  1.00 20.00     0.007 A 
HETATM   11  C4  UNL     1     -37.374  17.963  -3.414  1.00 20.00     0.007 A 
ENDBRANCH   8   9
ENDBRANCH   4   8
ENDBRANCH   3   4
TORSDOF 4
ENDMDL
MODEL 8
REMARK VINA RESULT:      -3.7      1.060      3.167
REMARK  4 active torsions:
REMARK  status: ('A' for Active; 'I' for Inactive)
REMARK    1  A    between atoms: C7_7  and  C10_10 
REMARK    2  A    between atoms: C8_8  and  N11_11 
REMARK    3  A    between atoms: C9_9  and  N11_11 
REMARK    4  A    between atoms: C10_10  and  N11_11 
ROOT
HETATM    1  C1  UNL     1     -34.680  13.275  -4.417  1.00 20.00     0.013 C 
HETATM    2  C2  UNL     1     -35.178  14.188  -3.820  1.00 20.00    -0.087 C 
HETATM    3  C9  UNL     1     -35.789  15.301  -3.088  1.00 20.00     0.365 C 
ENDROOT
BRANCH   3   4
HETATM    4  N11 UNL     1     -35.028  16.533  -3.291  1.00 20.00     0.104 N 
BRANCH   4   5
HETATM    5  C8  UNL     1     -34.973  17.308  -2.051  1.00 20.00     0.224 A 
HETATM    6  C5  UNL     1     -34.708  16.625  -0.738  1.00 20.00     0.038 A 
HETATM    7  C6  UNL     1     -33.664  17.519  -1.340  1.00 20.00     0.038 A 
ENDBRANCH   4   5
BRANCH   4   8
HETATM    8  C10 UNL     1     -35.620  17.331  -4.364  1.00 20.00     0.278 C 
BRANCH   8   9
HETATM    9  C7  UNL     1     -34.600  17.699  -5.387  1.00 20.00     0.014 A 
HETATM   10  C3  UNL     1     -33.406  16.816  -5.619  1.00 20.00     0.007 A 
HETATM   11  C4  UNL     1     -34.486  16.907  -6.660  1.00 20.00     0.007 A 
ENDBRANCH   8   9
ENDBRANCH   4   8
ENDBRANCH   3   4
TORSDOF 4
ENDMDL
MODEL 9
REMARK VINA RESULT:      -3.6      1.025      4.105
REMARK  4 active torsions:
REMARK  status: ('A' for Active; 'I' for Inactive)
REMARK    1  A    between atoms: C7_7  and  C10_10 
REMARK    2  A    between atoms: C8_8  and  N11_11 
REMARK    3  A    between atoms: C9_9  and  N11_11 
REMARK    4  A    between atoms: C10_10  and  N11_11 
ROOT
HETATM    1  C1  UNL     1     -33.496  13.313  -3.793  1.00 20.00     0.013 C 
HETATM    2  C2  UNL     1     -34.318  14.185  -3.843  1.00 20.00    -0.087 C 
HETATM    3  C9  UNL     1     -35.325  15.247  -3.905  1.00 20.00     0.365 C 
ENDROOT
BRANCH   3   4
HETATM    4  N11 UNL     1     -34.822  16.474  -3.290  1.00 20.00     0.104 N 
BRANCH   4   5
HETATM    5  C8  UNL     1     -33.650  16.965  -4.016  1.00 20.00     0.224 A 
HETATM    6  C5  UNL     1     -33.731  17.242  -5.491  1.00 20.00     0.038 A 
HETATM    7  C6  UNL     1     -33.604  18.380  -4.522  1.00 20.00     0.038 A 
ENDBRANCH   4   5
BRANCH   4   8
HETATM    8  C10 UNL     1     -34.492  16.245  -1.884  1.00 20.00     0.278 C 
BRANCH   8   9
HETATM    9  C7  UNL     1     -34.769  17.457  -1.061  1.00 20.00     0.014 A 
HETATM   10  C3  UNL     1     -34.978  17.333   0.423  1.00 20.00     0.007 A 
HETATM   11  C4  UNL     1     -33.728  17.978  -0.108  1.00 20.00     0.007 A 
ENDBRANCH   8   9
ENDBRANCH   4   8
ENDBRANCH   3   4
TORSDOF 4
ENDMDL
