MODEL 1
REMARK VINA RESULT:      -4.2      0.000      0.000
REMARK  3 active torsions:
REMARK  status: ('A' for Active; 'I' for Inactive)
REMARK    1  A    between atoms: C4_4  and  C6_6 
REMARK    2  A    between atoms: C5_5  and  C6_6 
REMARK    3  A    between atoms: C5_5  and  O8_8 
ROOT
HETATM    1  C1  UNL     1     -33.934   6.595   5.603  1.00 20.00     0.066 C 
HETATM    2  C6  UNL     1     -34.343   6.178   4.245  1.00 20.00     0.116 C 
HETATM    3  N7  UNL     1     -33.614   6.925   6.670  1.00 20.00    -0.197 NA
ENDROOT
BRANCH   2   4
HETATM    4  C4  UNL     1     -35.222   4.918   4.303  1.00 20.00     0.017 C 
HETATM    5  C2  UNL     1     -34.918   4.032   5.507  1.00 20.00     0.006 C 
ENDBRANCH   2   4
BRANCH   2   6
HETATM    6  C5  UNL     1     -33.100   5.916   3.388  1.00 20.00     0.186 C 
BRANCH   6   7
HETATM    7  O8  UNL     1     -32.154   6.962   3.584  1.00 20.00    -0.395 OA
HETATM    8  C3  UNL     1     -32.105   7.834   2.464  1.00 20.00     0.201 C 
ENDBRANCH   6   7
ENDBRANCH   2   6
TORSDOF 3
ENDMDL
MODEL 2
REMARK VINA RESULT:      -3.8     11.789     12.668
REMARK  3 active torsions:
REMARK  status: ('A' for Active; 'I' for Inactive)
REMARK    1  A    between atoms: C4_4  and  C6_6 
REMARK    2  A    between atoms: C5_5  and  C6_6 
REMARK    3  A    between atoms: C5_5  and  O8_8 
ROOT
HETATM    1  C1  UNL     1     -34.501  13.750  -3.824  1.00 20.00     0.066 C 
HETATM    2  C6  UNL     1     -33.941  14.964  -3.194  1.00 20.00     0.116 C 
HETATM    3  N7  UNL     1     -34.939  12.795  -4.319  1.00 20.00    -0.197 NA
ENDROOT
BRANCH   2   4
HETATM    4  C4  UNL     1     -35.048  15.781  -2.505  1.00 20.00     0.017 C 
HETATM    5  C2  UNL     1     -34.581  16.455  -1.220  1.00 20.00     0.006 C 
ENDBRANCH   2   4
BRANCH   2   6
HETATM    6  C5  UNL     1     -33.236  15.820  -4.252  1.00 20.00     0.186 C 
BRANCH   6   7
HETATM    7  O8  UNL     1     -34.168  16.724  -4.835  1.00 20.00    -0.395 OA
HETATM    8  C3  UNL     1     -33.545  17.946  -5.202  1.00 20.00     0.201 C 
ENDBRANCH   6   7
ENDBRANCH   2   6
TORSDOF 3
ENDMDL
MODEL 3
REMARK VINA RESULT:      -3.8     11.834     12.418
REMARK  3 active torsions:
REMARK  status: ('A' for Active; 'I' for Inactive)
REMARK    1  A    between atoms: C4_4  and  C6_6 
REMARK    2  A    between atoms: C5_5  and  C6_6 
REMARK    3  A    between atoms: C5_5  and  O8_8 
ROOT
HETATM    1  C1  UNL     1     -34.982  13.692  -4.266  1.00 20.00     0.066 C 
HETATM    2  C6  UNL     1     -35.201  15.097  -3.861  1.00 20.00     0.116 C 
HETATM    3  N7  UNL     1     -34.811  12.589  -4.585  1.00 20.00    -0.197 NA
ENDROOT
BRANCH   2   4
HETATM    4  C4  UNL     1     -34.142  15.541  -2.838  1.00 20.00     0.017 C 
HETATM    5  C2  UNL     1     -34.740  16.254  -1.631  1.00 20.00     0.006 C 
ENDBRANCH   2   4
BRANCH   2   6
HETATM    6  C5  UNL     1     -36.606  15.252  -3.267  1.00 20.00     0.186 C 
BRANCH   6   7
HETATM    7  O8  UNL     1     -37.454  14.226  -3.771  1.00 20.00    -0.395 OA
HETATM    8  C3  UNL     1     -38.741  14.729  -4.095  1.00 20.00     0.201 C 
ENDBRANCH   6   7
ENDBRANCH   2   6
TORSDOF 3
ENDMDL
MODEL 4
REMARK VINA RESULT:      -3.7     11.709     12.717
REMARK  3 active torsions:
REMARK  status: ('A' for Active; 'I' for Inactive)
REMARK    1  A    between atoms: C4_4  and  C6_6 
REMARK    2  A    between atoms: C5_5  and  C6_6 
REMARK    3  A    between atoms: C5_5  and  O8_8 
ROOT
HETATM    1  C1  UNL     1     -36.865  14.437  -4.210  1.00 20.00     0.066 C 
HETATM    2  C6  UNL     1     -35.565  14.513  -4.908  1.00 20.00     0.116 C 
HETATM    3  N7  UNL     1     -37.887  14.379  -3.660  1.00 20.00    -0.197 NA
ENDROOT
BRANCH   2   4
HETATM    4  C4  UNL     1     -35.766  14.789  -6.408  1.00 20.00     0.017 C 
HETATM    5  C2  UNL     1     -34.454  14.975  -7.162  1.00 20.00     0.006 C 
ENDBRANCH   2   4
BRANCH   2   6
HETATM    6  C5  UNL     1     -34.795  13.202  -4.712  1.00 20.00     0.186 C 
BRANCH   6   7
HETATM    7  O8  UNL     1     -33.935  13.317  -3.583  1.00 20.00    -0.395 OA
HETATM    8  C3  UNL     1     -33.126  14.480  -3.663  1.00 20.00     0.201 C 
ENDBRANCH   6   7
ENDBRANCH   2   6
TORSDOF 3
ENDMDL
MODEL 5
REMARK VINA RESULT:      -3.6     12.193     13.255
REMARK  3 active torsions:
REMARK  status: ('A' for Active; 'I' for Inactive)
REMARK    1  A    between atoms: C4_4  and  C6_6 
REMARK    2  A    between atoms: C5_5  and  C6_6 
REMARK    3  A    between atoms: C5_5  and  O8_8 
ROOT
HETATM    1  C1  UNL     1     -34.627  13.841  -4.940  1.00 20.00     0.066 C 
HETATM    2  C6  UNL     1     -34.471  15.252  -5.350  1.00 20.00     0.116 C 
HETATM    3  N7  UNL     1     -34.750  12.732  -4.617  1.00 20.00    -0.197 NA
ENDROOT
BRANCH   2   4
HETATM    4  C4  UNL     1     -34.239  15.357  -6.867  1.00 20.00     0.017 C 
HETATM    5  C2  UNL     1     -35.280  14.601  -7.684  1.00 20.00     0.006 C 
ENDBRANCH   2   4
BRANCH   2   6
HETATM    6  C5  UNL     1     -33.299  15.886  -4.592  1.00 20.00     0.186 C 
BRANCH   6   7
HETATM    7  O8  UNL     1     -33.320  15.459  -3.234  1.00 20.00    -0.395 OA
HETATM    8  C3  UNL     1     -33.850  16.463  -2.383  1.00 20.00     0.201 C 
ENDBRANCH   6   7
ENDBRANCH   2   6
TORSDOF 3
ENDMDL
MODEL 6
REMARK VINA RESULT:      -3.5     11.722     12.250
REMARK  3 active torsions:
REMARK  status: ('A' for Active; 'I' for Inactive)
REMARK    1  A    between atoms: C4_4  and  C6_6 
REMARK    2  A    between atoms: C5_5  and  C6_6 
REMARK    3  A    between atoms: C5_5  and  O8_8 
ROOT
HETATM    1  C1  UNL     1     -37.036  14.771  -3.761  1.00 20.00     0.066 C 
HETATM    2  C6  UNL     1     -35.664  15.320  -3.751  1.00 20.00     0.116 C 
HETATM    3  N7  UNL     1     -38.114  14.340  -3.770  1.00 20.00    -0.197 NA
ENDROOT
BRANCH   2   4
HETATM    4  C4  UNL     1     -34.632  14.207  -3.506  1.00 20.00     0.017 C 
HETATM    5  C2  UNL     1     -34.415  13.315  -4.724  1.00 20.00     0.006 C 
ENDBRANCH   2   4
BRANCH   2   6
HETATM    6  C5  UNL     1     -35.545  16.398  -2.667  1.00 20.00     0.186 C 
BRANCH   6   7
HETATM    7  O8  UNL     1     -34.593  15.990  -1.690  1.00 20.00    -0.395 OA
HETATM    8  C3  UNL     1     -34.627  16.833  -0.549  1.00 20.00     0.201 C 
ENDBRANCH   6   7
ENDBRANCH   2   6
TORSDOF 3
ENDMDL
MODEL 7
REMARK VINA RESULT:      -3.5      1.712      2.519
REMARK  3 active torsions:
REMARK  status: ('A' for Active; 'I' for Inactive)
REMARK    1  A    between atoms: C4_4  and  C6_6 
REMARK    2  A    between atoms: C5_5  and  C6_6 
REMARK    3  A    between atoms: C5_5  and  O8_8 
ROOT
HETATM    1  C1  UNL     1     -34.668   4.489   5.125  1.00 20.00     0.066 C 
HETATM    2  C6  UNL     1     -33.784   5.666   5.254  1.00 20.00     0.116 C 
HETATM    3  N7  UNL     1     -35.361   3.562   5.024  1.00 20.00    -0.197 NA
ENDROOT
BRANCH   2   4
HETATM    4  C4  UNL     1     -34.251   6.575   6.404  1.00 20.00     0.017 C 
HETATM    5  C2  UNL     1     -33.161   7.520   6.899  1.00 20.00     0.006 C 
ENDBRANCH   2   4
BRANCH   2   6
HETATM    6  C5  UNL     1     -33.768   6.449   3.936  1.00 20.00     0.186 C 
BRANCH   6   7
HETATM    7  O8  UNL     1     -32.467   6.387   3.359  1.00 20.00    -0.395 OA
HETATM    8  C3  UNL     1     -32.156   7.578   2.653  1.00 20.00     0.201 C 
ENDBRANCH   6   7
ENDBRANCH   2   6
TORSDOF 3
ENDMDL
MODEL 8
REMARK VINA RESULT:      -3.5     12.005     12.558
REMARK  3 active torsions:
REMARK  status: ('A' for Active; 'I' for Inactive)
REMARK    1  A    between atoms: C4_4  and  C6_6 
REMARK    2  A    between atoms: C5_5  and  C6_6 
REMARK    3  A    between atoms: C5_5  and  O8_8 
ROOT
HETATM    1  C1  UNL     1     -33.213  16.152  -4.437  1.00 20.00     0.066 C 
HETATM    2  C6  UNL     1     -33.363  15.222  -3.299  1.00 20.00     0.116 C 
HETATM    3  N7  UNL     1     -33.094  16.883  -5.331  1.00 20.00    -0.197 NA
ENDROOT
BRANCH   2   4
HETATM    4  C4  UNL     1     -33.710  13.807  -3.792  1.00 20.00     0.017 C 
HETATM    5  C2  UNL     1     -35.180  13.647  -4.163  1.00 20.00     0.006 C 
ENDBRANCH   2   4
BRANCH   2   6
HETATM    6  C5  UNL     1     -34.456  15.733  -2.352  1.00 20.00     0.186 C 
BRANCH   6   7
HETATM    7  O8  UNL     1     -33.913  16.726  -1.488  1.00 20.00    -0.395 OA
HETATM    8  C3  UNL     1     -34.744  16.938  -0.357  1.00 20.00     0.201 C 
ENDBRANCH   6   7
ENDBRANCH   2   6
TORSDOF 3
ENDMDL
MODEL 9
REMARK VINA RESULT:      -3.5     11.948     12.385
REMARK  3 active torsions:
REMARK  status: ('A' for Active; 'I' for Inactive)
REMARK    1  A    between atoms: C4_4  and  C6_6 
REMARK    2  A    between atoms: C5_5  and  C6_6 
REMARK    3  A    between atoms: C5_5  and  O8_8 
ROOT
HETATM    1  C1  UNL     1     -35.766  16.366  -3.421  1.00 20.00     0.066 C 
HETATM    2  C6  UNL     1     -34.802  15.650  -2.559  1.00 20.00     0.116 C 
HETATM    3  N7  UNL     1     -36.525  16.927  -4.097  1.00 20.00    -0.197 NA
ENDROOT
BRANCH   2   4
HETATM    4  C4  UNL     1     -34.030  16.637  -1.667  1.00 20.00     0.017 C 
HETATM    5  C2  UNL     1     -34.739  16.934  -0.351  1.00 20.00     0.006 C 
ENDBRANCH   2   4
BRANCH   2   6
HETATM    6  C5  UNL     1     -33.826  14.849  -3.428  1.00 20.00     0.186 C 
BRANCH   6   7
HETATM    7  O8  UNL     1     -34.242  13.488  -3.484  1.00 20.00    -0.395 OA
HETATM    8  C3  UNL     1     -34.706  13.141  -4.780  1.00 20.00     0.201 C 
ENDBRANCH   6   7
ENDBRANCH   2   6
TORSDOF 3
ENDMDL
