MODEL 1
REMARK VINA RESULT:      -4.5      0.000      0.000
REMARK  0 active torsions:
REMARK  status: ('A' for Active; 'I' for Inactive)
ROOT
HETATM    1  C1  UNL     1     -34.532  13.751  -4.564  1.00 20.00     0.004 C 
HETATM    2  C2  UNL     1     -35.712  14.371  -5.312  1.00 20.00     0.040 C 
HETATM    3  C3  UNL     1     -34.282  14.350  -3.177  1.00 20.00     0.009 C 
HETATM    4  C4  UNL     1     -36.134  16.068  -3.428  1.00 20.00     0.049 C 
HETATM    5  C5  UNL     1     -38.146  15.067  -4.733  1.00 20.00     0.207 A 
HETATM    6  C6  UNL     1     -36.676  15.032  -4.380  1.00 20.00     0.083 A 
HETATM    7  C7  UNL     1     -34.643  15.845  -3.061  1.00 20.00    -0.045 C 
HETATM    8  C8  UNL     1     -33.728  16.696  -3.964  1.00 20.00     0.015 C 
HETATM    9  C9  UNL     1     -34.411  16.300  -1.606  1.00 20.00     0.015 C 
HETATM   10  O10 UNL     1     -37.620  14.127  -3.785  1.00 20.00    -0.375 OA
ENDROOT
TORSDOF 0
ENDMDL
MODEL 2
REMARK VINA RESULT:      -4.4      1.960      2.513
REMARK  0 active torsions:
REMARK  status: ('A' for Active; 'I' for Inactive)
ROOT
HETATM    1  C1  UNL     1     -33.267  16.474  -4.820  1.00 20.00     0.004 C 
HETATM    2  C2  UNL     1     -34.190  15.410  -5.411  1.00 20.00     0.040 C 
HETATM    3  C3  UNL     1     -33.367  16.620  -3.299  1.00 20.00     0.009 C 
HETATM    4  C4  UNL     1     -35.225  14.901  -3.113  1.00 20.00     0.049 C 
HETATM    5  C5  UNL     1     -34.869  12.974  -4.820  1.00 20.00     0.207 A 
HETATM    6  C6  UNL     1     -34.599  14.398  -4.389  1.00 20.00     0.083 A 
HETATM    7  C7  UNL     1     -34.771  16.333  -2.729  1.00 20.00    -0.045 C 
HETATM    8  C8  UNL     1     -35.785  17.380  -3.234  1.00 20.00     0.015 C 
HETATM    9  C9  UNL     1     -34.715  16.447  -1.192  1.00 20.00     0.015 C 
HETATM   10  O10 UNL     1     -33.634  13.350  -4.194  1.00 20.00    -0.375 OA
ENDROOT
TORSDOF 0
ENDMDL
MODEL 3
REMARK VINA RESULT:      -4.3      1.278      1.885
REMARK  0 active torsions:
REMARK  status: ('A' for Active; 'I' for Inactive)
ROOT
HETATM    1  C1  UNL     1     -35.863  14.676  -6.490  1.00 20.00     0.004 C 
HETATM    2  C2  UNL     1     -36.778  15.570  -5.656  1.00 20.00     0.040 C 
HETATM    3  C3  UNL     1     -34.801  13.929  -5.678  1.00 20.00     0.009 C 
HETATM    4  C4  UNL     1     -35.491  15.031  -3.497  1.00 20.00     0.049 C 
HETATM    5  C5  UNL     1     -38.066  15.366  -3.410  1.00 20.00     0.207 A 
HETATM    6  C6  UNL     1     -36.808  15.152  -4.221  1.00 20.00     0.083 A 
HETATM    7  C7  UNL     1     -34.302  14.696  -4.436  1.00 20.00    -0.045 C 
HETATM    8  C8  UNL     1     -33.561  15.982  -4.855  1.00 20.00     0.015 C 
HETATM    9  C9  UNL     1     -33.296  13.809  -3.675  1.00 20.00     0.015 C 
HETATM   10  O10 UNL     1     -37.726  14.081  -3.949  1.00 20.00    -0.375 OA
ENDROOT
TORSDOF 0
ENDMDL
MODEL 4
REMARK VINA RESULT:      -4.2     10.841     12.190
REMARK  0 active torsions:
REMARK  status: ('A' for Active; 'I' for Inactive)
ROOT
HETATM    1  C1  UNL     1     -40.990   5.745  -0.235  1.00 20.00     0.004 C 
HETATM    2  C2  UNL     1     -42.052   6.737  -0.706  1.00 20.00     0.040 C 
HETATM    3  C3  UNL     1     -40.788   4.548  -1.169  1.00 20.00     0.009 C 
HETATM    4  C4  UNL     1     -42.642   5.280  -2.740  1.00 20.00     0.049 C 
HETATM    5  C5  UNL     1     -42.700   7.870  -2.951  1.00 20.00     0.207 A 
HETATM    6  C6  UNL     1     -42.295   6.635  -2.178  1.00 20.00     0.083 A 
HETATM    7  C7  UNL     1     -42.066   4.103  -1.910  1.00 20.00    -0.045 C 
HETATM    8  C8  UNL     1     -43.116   3.576  -0.911  1.00 20.00     0.015 C 
HETATM    9  C9  UNL     1     -41.710   2.944  -2.862  1.00 20.00     0.015 C 
HETATM   10  O10 UNL     1     -41.354   7.375  -2.973  1.00 20.00    -0.375 OA
ENDROOT
TORSDOF 0
ENDMDL
MODEL 5
REMARK VINA RESULT:      -4.2      1.941      2.445
REMARK  0 active torsions:
REMARK  status: ('A' for Active; 'I' for Inactive)
ROOT
HETATM    1  C1  UNL     1     -35.254  13.589  -4.657  1.00 20.00     0.004 C 
HETATM    2  C2  UNL     1     -34.721  14.110  -5.990  1.00 20.00     0.040 C 
HETATM    3  C3  UNL     1     -35.059  14.552  -3.482  1.00 20.00     0.009 C 
HETATM    4  C4  UNL     1     -33.807  16.248  -4.896  1.00 20.00     0.049 C 
HETATM    5  C5  UNL     1     -34.795  16.352  -7.297  1.00 20.00     0.207 A 
HETATM    6  C6  UNL     1     -34.603  15.600  -5.999  1.00 20.00     0.083 A 
HETATM    7  C7  UNL     1     -33.789  15.422  -3.583  1.00 20.00    -0.045 C 
HETATM    8  C8  UNL     1     -32.523  14.543  -3.511  1.00 20.00     0.015 C 
HETATM    9  C9  UNL     1     -33.751  16.387  -2.382  1.00 20.00     0.015 C 
HETATM   10  O10 UNL     1     -35.833  16.276  -6.309  1.00 20.00    -0.375 OA
ENDROOT
TORSDOF 0
ENDMDL
MODEL 6
REMARK VINA RESULT:      -4.1      2.335      3.174
REMARK  0 active torsions:
REMARK  status: ('A' for Active; 'I' for Inactive)
ROOT
HETATM    1  C1  UNL     1     -33.894  17.079  -5.390  1.00 20.00     0.004 C 
HETATM    2  C2  UNL     1     -35.132  16.563  -6.123  1.00 20.00     0.040 C 
HETATM    3  C3  UNL     1     -33.085  15.991  -4.678  1.00 20.00     0.009 C 
HETATM    4  C4  UNL     1     -34.730  14.161  -5.302  1.00 20.00     0.049 C 
HETATM    5  C5  UNL     1     -35.696  14.564  -7.680  1.00 20.00     0.207 A 
HETATM    6  C6  UNL     1     -35.025  15.106  -6.438  1.00 20.00     0.083 A 
HETATM    7  C7  UNL     1     -33.936  14.820  -4.144  1.00 20.00    -0.045 C 
HETATM    8  C8  UNL     1     -34.893  15.307  -3.036  1.00 20.00     0.015 C 
HETATM    9  C9  UNL     1     -32.997  13.770  -3.517  1.00 20.00     0.015 C 
HETATM   10  O10 UNL     1     -34.286  14.826  -7.639  1.00 20.00    -0.375 OA
ENDROOT
TORSDOF 0
ENDMDL
MODEL 7
REMARK VINA RESULT:      -4.1      2.006      3.641
REMARK  0 active torsions:
REMARK  status: ('A' for Active; 'I' for Inactive)
ROOT
HETATM    1  C1  UNL     1     -36.582  16.290  -3.252  1.00 20.00     0.004 C 
HETATM    2  C2  UNL     1     -35.648  17.367  -2.704  1.00 20.00     0.040 C 
HETATM    3  C3  UNL     1     -35.906  14.939  -3.502  1.00 20.00     0.009 C 
HETATM    4  C4  UNL     1     -33.613  15.803  -2.841  1.00 20.00     0.049 C 
HETATM    5  C5  UNL     1     -33.800  17.504  -0.885  1.00 20.00     0.207 A 
HETATM    6  C6  UNL     1     -34.444  16.777  -2.045  1.00 20.00     0.083 A 
HETATM    7  C7  UNL     1     -34.425  15.042  -3.921  1.00 20.00    -0.045 C 
HETATM    8  C8  UNL     1     -34.297  15.740  -5.291  1.00 20.00     0.015 C 
HETATM    9  C9  UNL     1     -33.851  13.619  -4.072  1.00 20.00     0.015 C 
HETATM   10  O10 UNL     1     -34.667  16.379  -0.682  1.00 20.00    -0.375 OA
ENDROOT
TORSDOF 0
ENDMDL
MODEL 8
REMARK VINA RESULT:      -4.1      2.095      3.688
REMARK  0 active torsions:
REMARK  status: ('A' for Active; 'I' for Inactive)
ROOT
HETATM    1  C1  UNL     1     -34.570  15.999  -2.398  1.00 20.00     0.004 C 
HETATM    2  C2  UNL     1     -34.830  17.127  -3.394  1.00 20.00     0.040 C 
HETATM    3  C3  UNL     1     -34.356  14.627  -3.043  1.00 20.00     0.009 C 
HETATM    4  C4  UNL     1     -34.782  15.504  -5.387  1.00 20.00     0.049 C 
HETATM    5  C5  UNL     1     -33.823  17.904  -5.658  1.00 20.00     0.207 A 
HETATM    6  C6  UNL     1     -34.319  16.794  -4.759  1.00 20.00     0.083 A 
HETATM    7  C7  UNL     1     -35.151  14.412  -4.348  1.00 20.00    -0.045 C 
HETATM    8  C8  UNL     1     -36.667  14.419  -4.067  1.00 20.00     0.015 C 
HETATM    9  C9  UNL     1     -34.792  13.028  -4.925  1.00 20.00     0.015 C 
HETATM   10  O10 UNL     1     -32.918  17.060  -4.933  1.00 20.00    -0.375 OA
ENDROOT
TORSDOF 0
ENDMDL
MODEL 9
REMARK VINA RESULT:      -4.1      1.617      2.264
REMARK  0 active torsions:
REMARK  status: ('A' for Active; 'I' for Inactive)
ROOT
HETATM    1  C1  UNL     1     -34.009  13.800  -4.139  1.00 20.00     0.004 C 
HETATM    2  C2  UNL     1     -35.496  13.511  -4.342  1.00 20.00     0.040 C 
HETATM    3  C3  UNL     1     -33.589  15.225  -4.511  1.00 20.00     0.009 C 
HETATM    4  C4  UNL     1     -35.912  15.852  -5.318  1.00 20.00     0.049 C 
HETATM    5  C5  UNL     1     -37.733  14.730  -3.841  1.00 20.00     0.207 A 
HETATM    6  C6  UNL     1     -36.311  14.764  -4.353  1.00 20.00     0.083 A 
HETATM    7  C7  UNL     1     -34.402  15.841  -5.669  1.00 20.00    -0.045 C 
HETATM    8  C8  UNL     1     -34.153  15.065  -6.978  1.00 20.00     0.015 C 
HETATM    9  C9  UNL     1     -33.927  17.290  -5.892  1.00 20.00     0.015 C 
HETATM   10  O10 UNL     1     -36.656  15.241  -3.042  1.00 20.00    -0.375 OA
ENDROOT
TORSDOF 0
ENDMDL
