MODEL 1
REMARK VINA RESULT:      -4.7      0.000      0.000
REMARK  2 active torsions:
REMARK  status: ('A' for Active; 'I' for Inactive)
REMARK    1  A    between atoms: C2_2  and  C9_9 
REMARK    2  A    between atoms: C9_9  and  N11_11 
ROOT
HETATM    1  C1  UNL     1     -34.606  16.914  -0.694  1.00 20.00    -0.109 C 
HETATM    2  C2  UNL     1     -34.259  16.595  -1.798  1.00 20.00    -0.077 C 
HETATM    3  C8  UNL     1     -35.027  17.304   0.652  1.00 20.00     0.112 C 
ENDROOT
BRANCH   2   4
HETATM    4  C9  UNL     1     -33.830  16.209  -3.146  1.00 20.00     0.367 C 
BRANCH   4   5
HETATM    5  N11 UNL     1     -34.981  15.951  -4.004  1.00 20.00     0.117 N 
HETATM    6  C6  UNL     1     -35.929  17.064  -3.998  1.00 20.00     0.275 C 
HETATM    7  C4  UNL     1     -37.143  16.441  -4.656  1.00 20.00     0.033 C 
HETATM    8  C5  UNL     1     -37.173  15.029  -4.088  1.00 20.00     0.053 C 
HETATM    9  C7  UNL     1     -35.740  14.755  -3.609  1.00 20.00     0.329 C 
HETATM   10  C3  UNL     1     -35.191  13.545  -4.235  1.00 20.00     0.095 C 
HETATM   11  N10 UNL     1     -34.757  12.590  -4.730  1.00 20.00    -0.195 NA
ENDBRANCH   4   5
ENDBRANCH   2   4
TORSDOF 2
ENDMDL
MODEL 2
REMARK VINA RESULT:      -4.6      1.402      2.443
REMARK  2 active torsions:
REMARK  status: ('A' for Active; 'I' for Inactive)
REMARK    1  A    between atoms: C2_2  and  C9_9 
REMARK    2  A    between atoms: C9_9  and  N11_11 
ROOT
HETATM    1  C1  UNL     1     -34.860  17.163  -0.426  1.00 20.00    -0.109 C 
HETATM    2  C2  UNL     1     -34.806  16.921  -1.601  1.00 20.00    -0.077 C 
HETATM    3  C8  UNL     1     -34.926  17.459   1.004  1.00 20.00     0.112 C 
ENDROOT
BRANCH   2   4
HETATM    4  C9  UNL     1     -34.737  16.630  -3.037  1.00 20.00     0.367 C 
BRANCH   4   5
HETATM    5  N11 UNL     1     -34.721  15.192  -3.277  1.00 20.00     0.117 N 
HETATM    6  C6  UNL     1     -33.374  14.699  -3.562  1.00 20.00     0.275 C 
HETATM    7  C4  UNL     1     -33.658  13.309  -4.093  1.00 20.00     0.033 C 
HETATM    8  C5  UNL     1     -34.912  13.498  -4.937  1.00 20.00     0.053 C 
HETATM    9  C7  UNL     1     -35.562  14.787  -4.413  1.00 20.00     0.329 C 
HETATM   10  C3  UNL     1     -36.948  14.550  -3.991  1.00 20.00     0.095 C 
HETATM   11  N10 UNL     1     -38.044  14.363  -3.657  1.00 20.00    -0.195 NA
ENDBRANCH   4   5
ENDBRANCH   2   4
TORSDOF 2
ENDMDL
MODEL 3
REMARK VINA RESULT:      -4.5      1.490      1.929
REMARK  2 active torsions:
REMARK  status: ('A' for Active; 'I' for Inactive)
REMARK    1  A    between atoms: C2_2  and  C9_9 
REMARK    2  A    between atoms: C9_9  and  N11_11 
ROOT
HETATM    1  C1  UNL     1     -34.526  17.282  -0.556  1.00 20.00    -0.109 C 
HETATM    2  C2  UNL     1     -34.950  16.655  -1.488  1.00 20.00    -0.077 C 
HETATM    3  C8  UNL     1     -34.008  18.046   0.580  1.00 20.00     0.112 C 
ENDROOT
BRANCH   2   4
HETATM    4  C9  UNL     1     -35.471  15.884  -2.621  1.00 20.00     0.367 C 
BRANCH   4   5
HETATM    5  N11 UNL     1     -34.493  15.822  -3.701  1.00 20.00     0.117 N 
HETATM    6  C6  UNL     1     -34.037  17.152  -4.103  1.00 20.00     0.275 C 
HETATM    7  C4  UNL     1     -33.325  16.854  -5.407  1.00 20.00     0.033 C 
HETATM    8  C5  UNL     1     -34.206  15.800  -6.063  1.00 20.00     0.053 C 
HETATM    9  C7  UNL     1     -35.013  15.175  -4.915  1.00 20.00     0.329 C 
HETATM   10  C3  UNL     1     -34.826  13.719  -4.864  1.00 20.00     0.095 C 
HETATM   11  N10 UNL     1     -34.678  12.569  -4.823  1.00 20.00    -0.195 NA
ENDBRANCH   4   5
ENDBRANCH   2   4
TORSDOF 2
ENDMDL
MODEL 4
REMARK VINA RESULT:      -4.4      1.338      2.657
REMARK  2 active torsions:
REMARK  status: ('A' for Active; 'I' for Inactive)
REMARK    1  A    between atoms: C2_2  and  C9_9 
REMARK    2  A    between atoms: C9_9  and  N11_11 
ROOT
HETATM    1  C1  UNL     1     -34.597  16.939  -0.588  1.00 20.00    -0.109 C 
HETATM    2  C2  UNL     1     -34.150  16.569  -1.639  1.00 20.00    -0.077 C 
HETATM    3  C8  UNL     1     -35.141  17.392   0.692  1.00 20.00     0.112 C 
ENDROOT
BRANCH   2   4
HETATM    4  C9  UNL     1     -33.601  16.122  -2.923  1.00 20.00     0.367 C 
BRANCH   4   5
HETATM    5  N11 UNL     1     -34.506  15.186  -3.578  1.00 20.00     0.117 N 
HETATM    6  C6  UNL     1     -33.928  13.846  -3.682  1.00 20.00     0.275 C 
HETATM    7  C4  UNL     1     -34.870  13.177  -4.661  1.00 20.00     0.033 C 
HETATM    8  C5  UNL     1     -35.176  14.273  -5.672  1.00 20.00     0.053 C 
HETATM    9  C7  UNL     1     -34.866  15.591  -4.946  1.00 20.00     0.329 C 
HETATM   10  C3  UNL     1     -36.031  16.485  -4.946  1.00 20.00     0.095 C 
HETATM   11  N10 UNL     1     -36.951  17.192  -4.946  1.00 20.00    -0.195 NA
ENDBRANCH   4   5
ENDBRANCH   2   4
TORSDOF 2
ENDMDL
MODEL 5
REMARK VINA RESULT:      -4.3      2.194      3.210
REMARK  2 active torsions:
REMARK  status: ('A' for Active; 'I' for Inactive)
REMARK    1  A    between atoms: C2_2  and  C9_9 
REMARK    2  A    between atoms: C9_9  and  N11_11 
ROOT
HETATM    1  C1  UNL     1     -34.480  16.320  -1.528  1.00 20.00    -0.109 C 
HETATM    2  C2  UNL     1     -34.155  15.657  -2.475  1.00 20.00    -0.077 C 
HETATM    3  C8  UNL     1     -34.877  17.126  -0.373  1.00 20.00     0.112 C 
ENDROOT
BRANCH   2   4
HETATM    4  C9  UNL     1     -33.759  14.842  -3.628  1.00 20.00     0.367 C 
BRANCH   4   5
HETATM    5  N11 UNL     1     -34.508  15.229  -4.818  1.00 20.00     0.117 N 
HETATM    6  C6  UNL     1     -35.081  14.071  -5.504  1.00 20.00     0.275 C 
HETATM    7  C4  UNL     1     -35.495  14.671  -6.832  1.00 20.00     0.033 C 
HETATM    8  C5  UNL     1     -34.361  15.634  -7.159  1.00 20.00     0.053 C 
HETATM    9  C7  UNL     1     -33.687  15.937  -5.813  1.00 20.00     0.329 C 
HETATM   10  C3  UNL     1     -33.658  17.381  -5.545  1.00 20.00     0.095 C 
HETATM   11  N10 UNL     1     -33.634  18.522  -5.334  1.00 20.00    -0.195 NA
ENDBRANCH   4   5
ENDBRANCH   2   4
TORSDOF 2
ENDMDL
MODEL 6
REMARK VINA RESULT:      -4.2      1.924      2.641
REMARK  2 active torsions:
REMARK  status: ('A' for Active; 'I' for Inactive)
REMARK    1  A    between atoms: C2_2  and  C9_9 
REMARK    2  A    between atoms: C9_9  and  N11_11 
ROOT
HETATM    1  C1  UNL     1     -34.138  16.100  -2.223  1.00 20.00    -0.109 C 
HETATM    2  C2  UNL     1     -34.325  15.104  -2.866  1.00 20.00    -0.077 C 
HETATM    3  C8  UNL     1     -33.912  17.315  -1.440  1.00 20.00     0.112 C 
ENDROOT
BRANCH   2   4
HETATM    4  C9  UNL     1     -34.558  13.889  -3.654  1.00 20.00     0.367 C 
BRANCH   4   5
HETATM    5  N11 UNL     1     -35.319  14.190  -4.861  1.00 20.00     0.117 N 
HETATM    6  C6  UNL     1     -34.453  14.607  -5.964  1.00 20.00     0.275 C 
HETATM    7  C4  UNL     1     -35.457  15.171  -6.948  1.00 20.00     0.033 C 
HETATM    8  C5  UNL     1     -36.459  15.899  -6.062  1.00 20.00     0.053 C 
HETATM    9  C7  UNL     1     -36.300  15.269  -4.671  1.00 20.00     0.329 C 
HETATM   10  C3  UNL     1     -37.579  14.742  -4.176  1.00 20.00     0.095 C 
HETATM   11  N10 UNL     1     -38.589  14.327  -3.785  1.00 20.00    -0.195 NA
ENDBRANCH   4   5
ENDBRANCH   2   4
TORSDOF 2
ENDMDL
MODEL 7
REMARK VINA RESULT:      -4.1      1.491      1.938
REMARK  2 active torsions:
REMARK  status: ('A' for Active; 'I' for Inactive)
REMARK    1  A    between atoms: C2_2  and  C9_9 
REMARK    2  A    between atoms: C9_9  and  N11_11 
ROOT
HETATM    1  C1  UNL     1     -34.396  17.017  -0.844  1.00 20.00    -0.109 C 
HETATM    2  C2  UNL     1     -34.422  16.260  -1.775  1.00 20.00    -0.077 C 
HETATM    3  C8  UNL     1     -34.363  17.940   0.291  1.00 20.00     0.112 C 
ENDROOT
BRANCH   2   4
HETATM    4  C9  UNL     1     -34.447  15.334  -2.912  1.00 20.00     0.367 C 
BRANCH   4   5
HETATM    5  N11 UNL     1     -35.230  15.884  -4.013  1.00 20.00     0.117 N 
HETATM    6  C6  UNL     1     -34.611  17.082  -4.579  1.00 20.00     0.275 C 
HETATM    7  C4  UNL     1     -35.734  17.636  -5.432  1.00 20.00     0.033 C 
HETATM    8  C5  UNL     1     -36.978  17.391  -4.590  1.00 20.00     0.053 C 
HETATM    9  C7  UNL     1     -36.594  16.266  -3.618  1.00 20.00     0.329 C 
HETATM   10  C3  UNL     1     -37.517  15.130  -3.727  1.00 20.00     0.095 C 
HETATM   11  N10 UNL     1     -38.247  14.231  -3.812  1.00 20.00    -0.195 NA
ENDBRANCH   4   5
ENDBRANCH   2   4
TORSDOF 2
ENDMDL
MODEL 8
REMARK VINA RESULT:      -4.0      2.045      3.800
REMARK  2 active torsions:
REMARK  status: ('A' for Active; 'I' for Inactive)
REMARK    1  A    between atoms: C2_2  and  C9_9 
REMARK    2  A    between atoms: C9_9  and  N11_11 
ROOT
HETATM    1  C1  UNL     1     -34.186  18.006  -5.689  1.00 20.00    -0.109 C 
HETATM    2  C2  UNL     1     -34.534  17.529  -4.643  1.00 20.00    -0.077 C 
HETATM    3  C8  UNL     1     -33.764  18.588  -6.963  1.00 20.00     0.112 C 
ENDROOT
BRANCH   2   4
HETATM    4  C9  UNL     1     -34.964  16.950  -3.366  1.00 20.00     0.367 C 
BRANCH   4   5
HETATM    5  N11 UNL     1     -34.805  15.500  -3.374  1.00 20.00     0.117 N 
HETATM    6  C6  UNL     1     -33.408  15.103  -3.541  1.00 20.00     0.275 C 
HETATM    7  C4  UNL     1     -33.541  13.626  -3.851  1.00 20.00     0.033 C 
HETATM    8  C5  UNL     1     -34.770  13.557  -4.747  1.00 20.00     0.053 C 
HETATM    9  C7  UNL     1     -35.557  14.842  -4.453  1.00 20.00     0.329 C 
HETATM   10  C3  UNL     1     -36.932  14.540  -4.035  1.00 20.00     0.095 C 
HETATM   11  N10 UNL     1     -38.019  14.301  -3.704  1.00 20.00    -0.195 NA
ENDBRANCH   4   5
ENDBRANCH   2   4
TORSDOF 2
ENDMDL
MODEL 9
REMARK VINA RESULT:      -3.8      2.315      3.733
REMARK  2 active torsions:
REMARK  status: ('A' for Active; 'I' for Inactive)
REMARK    1  A    between atoms: C2_2  and  C9_9 
REMARK    2  A    between atoms: C9_9  and  N11_11 
ROOT
HETATM    1  C1  UNL     1     -38.730  14.761  -4.227  1.00 20.00    -0.109 C 
HETATM    2  C2  UNL     1     -37.664  15.143  -3.826  1.00 20.00    -0.077 C 
HETATM    3  C8  UNL     1     -40.027  14.296  -4.717  1.00 20.00     0.112 C 
ENDROOT
BRANCH   2   4
HETATM    4  C9  UNL     1     -36.362  15.614  -3.342  1.00 20.00     0.367 C 
BRANCH   4   5
HETATM    5  N11 UNL     1     -35.390  15.660  -4.427  1.00 20.00     0.117 N 
HETATM    6  C6  UNL     1     -35.833  16.520  -5.524  1.00 20.00     0.275 C 
HETATM    7  C4  UNL     1     -34.861  16.145  -6.624  1.00 20.00     0.033 C 
HETATM    8  C5  UNL     1     -34.702  14.639  -6.464  1.00 20.00     0.053 C 
HETATM    9  C7  UNL     1     -35.118  14.340  -5.016  1.00 20.00     0.329 C 
HETATM   10  C3  UNL     1     -34.050  13.642  -4.289  1.00 20.00     0.095 C 
HETATM   11  N10 UNL     1     -33.206  13.091  -3.714  1.00 20.00    -0.195 NA
ENDBRANCH   4   5
ENDBRANCH   2   4
TORSDOF 2
ENDMDL
