MODEL 1
REMARK VINA RESULT:      -4.3      0.000      0.000
REMARK  0 active torsions:
REMARK  status: ('A' for Active; 'I' for Inactive)
ROOT
HETATM    1  C1  UNL     1     -34.284  14.841  -6.173  1.00 20.00     0.035 C 
HETATM    2  C2  UNL     1     -34.150  15.997  -5.182  1.00 20.00     0.011 C 
HETATM    3  C3  UNL     1     -34.997  14.626  -3.218  1.00 20.00     0.043 C 
HETATM    4  C4  UNL     1     -35.228  13.792  -5.686  1.00 20.00     0.151 A 
HETATM    5  C5  UNL     1     -35.552  13.664  -4.223  1.00 20.00     0.151 A 
HETATM    6  C6  UNL     1     -33.859  15.541  -3.733  1.00 20.00    -0.045 C 
HETATM    7  C7  UNL     1     -32.493  14.832  -3.640  1.00 20.00     0.015 C 
HETATM    8  C8  UNL     1     -33.790  16.793  -2.831  1.00 20.00     0.015 C 
HETATM    9  O9  UNL     1     -34.610  12.795  -4.851  1.00 20.00    -0.375 OA
ENDROOT
TORSDOF 0
ENDMDL
MODEL 2
REMARK VINA RESULT:      -4.1      1.201      1.895
REMARK  0 active torsions:
REMARK  status: ('A' for Active; 'I' for Inactive)
ROOT
HETATM    1  C1  UNL     1     -33.331  13.685  -3.745  1.00 20.00     0.035 C 
HETATM    2  C2  UNL     1     -32.984  15.173  -3.714  1.00 20.00     0.011 C 
HETATM    3  C3  UNL     1     -35.217  15.880  -4.698  1.00 20.00     0.043 C 
HETATM    4  C4  UNL     1     -34.431  13.387  -4.708  1.00 20.00     0.151 A 
HETATM    5  C5  UNL     1     -35.383  14.463  -5.151  1.00 20.00     0.151 A 
HETATM    6  C6  UNL     1     -34.215  16.094  -3.536  1.00 20.00    -0.045 C 
HETATM    7  C7  UNL     1     -34.891  15.857  -2.171  1.00 20.00     0.015 C 
HETATM    8  C8  UNL     1     -33.736  17.561  -3.565  1.00 20.00     0.015 C 
HETATM    9  O9  UNL     1     -35.749  13.519  -4.145  1.00 20.00    -0.375 OA
ENDROOT
TORSDOF 0
ENDMDL
MODEL 3
REMARK VINA RESULT:      -4.1      1.518      3.083
REMARK  0 active torsions:
REMARK  status: ('A' for Active; 'I' for Inactive)
ROOT
HETATM    1  C1  UNL     1     -33.370  16.305  -4.654  1.00 20.00     0.035 C 
HETATM    2  C2  UNL     1     -33.859  15.837  -6.025  1.00 20.00     0.011 C 
HETATM    3  C3  UNL     1     -34.624  13.575  -5.159  1.00 20.00     0.043 C 
HETATM    4  C4  UNL     1     -33.116  15.162  -3.730  1.00 20.00     0.151 A 
HETATM    5  C5  UNL     1     -33.763  13.824  -3.960  1.00 20.00     0.151 A 
HETATM    6  C6  UNL     1     -35.037  14.838  -5.955  1.00 20.00    -0.045 C 
HETATM    7  C7  UNL     1     -36.286  15.496  -5.338  1.00 20.00     0.015 C 
HETATM    8  C8  UNL     1     -35.404  14.413  -7.393  1.00 20.00     0.015 C 
HETATM    9  O9  UNL     1     -34.279  14.739  -2.993  1.00 20.00    -0.375 OA
ENDROOT
TORSDOF 0
ENDMDL
MODEL 4
REMARK VINA RESULT:      -4.1      1.235      1.988
REMARK  0 active torsions:
REMARK  status: ('A' for Active; 'I' for Inactive)
ROOT
HETATM    1  C1  UNL     1     -36.231  14.520  -3.983  1.00 20.00     0.035 C 
HETATM    2  C2  UNL     1     -35.656  15.415  -2.886  1.00 20.00     0.011 C 
HETATM    3  C3  UNL     1     -33.249  14.808  -3.426  1.00 20.00     0.043 C 
HETATM    4  C4  UNL     1     -35.265  13.463  -4.406  1.00 20.00     0.151 A 
HETATM    5  C5  UNL     1     -33.790  13.621  -4.162  1.00 20.00     0.151 A 
HETATM    6  C6  UNL     1     -34.249  15.970  -3.212  1.00 20.00    -0.045 C 
HETATM    7  C7  UNL     1     -34.291  16.898  -4.443  1.00 20.00     0.015 C 
HETATM    8  C8  UNL     1     -33.768  16.817  -2.014  1.00 20.00     0.015 C 
HETATM    9  O9  UNL     1     -34.361  13.882  -5.444  1.00 20.00    -0.375 OA
ENDROOT
TORSDOF 0
ENDMDL
MODEL 5
REMARK VINA RESULT:      -4.0      1.613      2.907
REMARK  0 active torsions:
REMARK  status: ('A' for Active; 'I' for Inactive)
ROOT
HETATM    1  C1  UNL     1     -34.463  14.905  -3.050  1.00 20.00     0.035 C 
HETATM    2  C2  UNL     1     -35.217  15.982  -3.829  1.00 20.00     0.011 C 
HETATM    3  C3  UNL     1     -35.661  14.462  -5.816  1.00 20.00     0.043 C 
HETATM    4  C4  UNL     1     -33.956  13.821  -3.941  1.00 20.00     0.151 A 
HETATM    5  C5  UNL     1     -34.570  13.580  -5.292  1.00 20.00     0.151 A 
HETATM    6  C6  UNL     1     -36.300  15.417  -4.778  1.00 20.00    -0.045 C 
HETATM    7  C7  UNL     1     -37.414  14.706  -3.985  1.00 20.00     0.015 C 
HETATM    8  C8  UNL     1     -36.953  16.595  -5.532  1.00 20.00     0.015 C 
HETATM    9  O9  UNL     1     -34.905  12.764  -4.170  1.00 20.00    -0.375 OA
ENDROOT
TORSDOF 0
ENDMDL
MODEL 6
REMARK VINA RESULT:      -4.0      1.721      2.044
REMARK  0 active torsions:
REMARK  status: ('A' for Active; 'I' for Inactive)
ROOT
HETATM    1  C1  UNL     1     -36.183  14.920  -5.905  1.00 20.00     0.035 C 
HETATM    2  C2  UNL     1     -34.781  15.349  -5.471  1.00 20.00     0.011 C 
HETATM    3  C3  UNL     1     -35.370  15.345  -2.999  1.00 20.00     0.043 C 
HETATM    4  C4  UNL     1     -37.205  15.204  -4.856  1.00 20.00     0.151 A 
HETATM    5  C5  UNL     1     -36.807  15.379  -3.416  1.00 20.00     0.151 A 
HETATM    6  C6  UNL     1     -34.379  14.828  -4.071  1.00 20.00    -0.045 C 
HETATM    7  C7  UNL     1     -34.301  13.288  -4.055  1.00 20.00     0.015 C 
HETATM    8  C8  UNL     1     -32.970  15.363  -3.736  1.00 20.00     0.015 C 
HETATM    9  O9  UNL     1     -37.356  14.148  -3.888  1.00 20.00    -0.375 OA
ENDROOT
TORSDOF 0
ENDMDL
MODEL 7
REMARK VINA RESULT:      -4.0      1.245      2.111
REMARK  0 active torsions:
REMARK  status: ('A' for Active; 'I' for Inactive)
ROOT
HETATM    1  C1  UNL     1     -36.397  14.596  -4.799  1.00 20.00     0.035 C 
HETATM    2  C2  UNL     1     -35.658  15.931  -4.895  1.00 20.00     0.011 C 
HETATM    3  C3  UNL     1     -33.395  14.901  -4.372  1.00 20.00     0.043 C 
HETATM    4  C4  UNL     1     -35.626  13.585  -4.017  1.00 20.00     0.151 A 
HETATM    5  C5  UNL     1     -34.140  13.717  -3.837  1.00 20.00     0.151 A 
HETATM    6  C6  UNL     1     -34.188  15.794  -5.358  1.00 20.00    -0.045 C 
HETATM    7  C7  UNL     1     -34.109  15.239  -6.794  1.00 20.00     0.015 C 
HETATM    8  C8  UNL     1     -33.547  17.199  -5.371  1.00 20.00     0.015 C 
HETATM    9  O9  UNL     1     -34.691  12.828  -4.807  1.00 20.00    -0.375 OA
ENDROOT
TORSDOF 0
ENDMDL
MODEL 8
REMARK VINA RESULT:      -3.9      1.698      3.237
REMARK  0 active torsions:
REMARK  status: ('A' for Active; 'I' for Inactive)
ROOT
HETATM    1  C1  UNL     1     -33.631  13.853  -3.891  1.00 20.00     0.035 C 
HETATM    2  C2  UNL     1     -35.109  13.960  -4.264  1.00 20.00     0.011 C 
HETATM    3  C3  UNL     1     -34.972  16.447  -4.764  1.00 20.00     0.043 C 
HETATM    4  C4  UNL     1     -33.049  15.178  -3.526  1.00 20.00     0.151 A 
HETATM    5  C5  UNL     1     -33.692  16.457  -3.987  1.00 20.00     0.151 A 
HETATM    6  C6  UNL     1     -35.409  15.063  -5.305  1.00 20.00    -0.045 C 
HETATM    7  C7  UNL     1     -34.723  14.755  -6.651  1.00 20.00     0.015 C 
HETATM    8  C8  UNL     1     -36.931  15.095  -5.561  1.00 20.00     0.015 C 
HETATM    9  O9  UNL     1     -32.547  15.923  -4.651  1.00 20.00    -0.375 OA
ENDROOT
TORSDOF 0
ENDMDL
MODEL 9
REMARK VINA RESULT:      -3.9      1.495      2.439
REMARK  0 active torsions:
REMARK  status: ('A' for Active; 'I' for Inactive)
ROOT
HETATM    1  C1  UNL     1     -34.754  13.318  -4.874  1.00 20.00     0.035 C 
HETATM    2  C2  UNL     1     -34.394  14.017  -3.563  1.00 20.00     0.011 C 
HETATM    3  C3  UNL     1     -34.709  16.345  -4.530  1.00 20.00     0.043 C 
HETATM    4  C4  UNL     1     -34.599  14.222  -6.051  1.00 20.00     0.151 A 
HETATM    5  C5  UNL     1     -34.612  15.716  -5.885  1.00 20.00     0.151 A 
HETATM    6  C6  UNL     1     -35.093  15.384  -3.377  1.00 20.00    -0.045 C 
HETATM    7  C7  UNL     1     -36.622  15.217  -3.283  1.00 20.00     0.015 C 
HETATM    8  C8  UNL     1     -34.615  16.001  -2.045  1.00 20.00     0.015 C 
HETATM    9  O9  UNL     1     -35.768  15.011  -6.337  1.00 20.00    -0.375 OA
ENDROOT
TORSDOF 0
ENDMDL
