MODEL 1
REMARK VINA RESULT:      -4.7      0.000      0.000
REMARK  3 active torsions:
REMARK  status: ('A' for Active; 'I' for Inactive)
REMARK    1  A    between atoms: C6_6  and  C10_10 
REMARK    2  A    between atoms: C7_7  and  N11_11 
REMARK    3  A    between atoms: C9_9  and  N11_11 
ROOT
HETATM    1  C1  UNL     1     -32.223   9.677   0.345  1.00 20.00     0.013 C 
HETATM    2  C2  UNL     1     -32.064   8.859   1.211  1.00 20.00    -0.087 C 
HETATM    3  C9  UNL     1     -31.864   7.864   2.267  1.00 20.00     0.362 C 
ENDROOT
BRANCH   3   4
HETATM    4  N11 UNL     1     -33.140   7.429   2.810  1.00 20.00     0.098 N 
HETATM    5  H28 UNL     1     -33.329   7.930   3.676  1.00 20.00     0.317 HD
BRANCH   4   6
HETATM    6  C7  UNL     1     -33.121   6.013   3.086  1.00 20.00     0.222 C 
HETATM    7  C4  UNL     1     -34.436   5.352   2.671  1.00 20.00     0.036 C 
HETATM    8  C3  UNL     1     -35.286   5.408   3.933  1.00 20.00     0.007 C 
HETATM    9  C6  UNL     1     -34.283   5.061   5.029  1.00 20.00    -0.013 C 
HETATM   10  C5  UNL     1     -32.982   5.749   4.592  1.00 20.00     0.040 C 
BRANCH   9  11
HETATM   11  C10 UNL     1     -34.747   5.477   6.414  1.00 20.00     0.000 C 
HETATM   12  C8  UNL     1     -34.095   6.746   6.865  1.00 20.00     0.005 C 
ENDBRANCH   9  11
ENDBRANCH   4   6
ENDBRANCH   3   4
TORSDOF 3
ENDMDL
MODEL 2
REMARK VINA RESULT:      -4.6     10.747     12.229
REMARK  3 active torsions:
REMARK  status: ('A' for Active; 'I' for Inactive)
REMARK    1  A    between atoms: C6_6  and  C10_10 
REMARK    2  A    between atoms: C7_7  and  N11_11 
REMARK    3  A    between atoms: C9_9  and  N11_11 
ROOT
HETATM    1  C1  UNL     1     -34.972  14.826  -7.829  1.00 20.00     0.013 C 
HETATM    2  C2  UNL     1     -34.507  15.556  -6.996  1.00 20.00    -0.087 C 
HETATM    3  C9  UNL     1     -33.945  16.450  -5.981  1.00 20.00     0.362 C 
ENDROOT
BRANCH   3   4
HETATM    4  N11 UNL     1     -32.886  15.785  -5.241  1.00 20.00     0.098 N 
HETATM    5  H28 UNL     1     -32.623  14.927  -5.721  1.00 20.00     0.317 HD
BRANCH   4   6
HETATM    6  C7  UNL     1     -33.325  15.457  -3.906  1.00 20.00     0.222 C 
HETATM    7  C4  UNL     1     -33.283  13.948  -3.665  1.00 20.00     0.036 C 
HETATM    8  C3  UNL     1     -34.679  13.478  -4.051  1.00 20.00     0.007 C 
HETATM    9  C6  UNL     1     -35.572  14.570  -3.468  1.00 20.00    -0.013 C 
HETATM   10  C5  UNL     1     -34.789  15.871  -3.693  1.00 20.00     0.040 C 
BRANCH   9  11
HETATM   11  C10 UNL     1     -36.962  14.591  -4.081  1.00 20.00     0.000 C 
HETATM   12  C8  UNL     1     -37.348  15.962  -4.542  1.00 20.00     0.005 C 
ENDBRANCH   9  11
ENDBRANCH   4   6
ENDBRANCH   3   4
TORSDOF 3
ENDMDL
MODEL 3
REMARK VINA RESULT:      -4.5     10.396     12.298
REMARK  3 active torsions:
REMARK  status: ('A' for Active; 'I' for Inactive)
REMARK    1  A    between atoms: C6_6  and  C10_10 
REMARK    2  A    between atoms: C7_7  and  N11_11 
REMARK    3  A    between atoms: C9_9  and  N11_11 
ROOT
HETATM    1  C1  UNL     1     -34.789  17.024  -0.126  1.00 20.00     0.013 C 
HETATM    2  C2  UNL     1     -34.348  17.114  -1.240  1.00 20.00    -0.087 C 
HETATM    3  C9  UNL     1     -33.808  17.229  -2.597  1.00 20.00     0.362 C 
ENDROOT
BRANCH   3   4
HETATM    4  N11 UNL     1     -33.512  15.916  -3.144  1.00 20.00     0.098 N 
HETATM    5  H28 UNL     1     -33.076  16.019  -4.058  1.00 20.00     0.317 HD
BRANCH   4   6
HETATM    6  C7  UNL     1     -34.719  15.137  -3.287  1.00 20.00     0.222 C 
HETATM    7  C4  UNL     1     -34.403  13.650  -3.437  1.00 20.00     0.036 C 
HETATM    8  C3  UNL     1     -34.303  13.447  -4.943  1.00 20.00     0.007 C 
HETATM    9  C6  UNL     1     -35.458  14.293  -5.471  1.00 20.00    -0.013 C 
HETATM   10  C5  UNL     1     -35.476  15.531  -4.564  1.00 20.00     0.040 C 
BRANCH   9  11
HETATM   11  C10 UNL     1     -35.322  14.630  -6.946  1.00 20.00     0.000 C 
HETATM   12  C8  UNL     1     -34.375  15.767  -7.175  1.00 20.00     0.005 C 
ENDBRANCH   9  11
ENDBRANCH   4   6
ENDBRANCH   3   4
TORSDOF 3
ENDMDL
MODEL 4
REMARK VINA RESULT:      -4.4     11.095     12.041
REMARK  3 active torsions:
REMARK  status: ('A' for Active; 'I' for Inactive)
REMARK    1  A    between atoms: C6_6  and  C10_10 
REMARK    2  A    between atoms: C7_7  and  N11_11 
REMARK    3  A    between atoms: C9_9  and  N11_11 
ROOT
HETATM    1  C1  UNL     1     -34.949  18.330  -6.243  1.00 20.00     0.013 C 
HETATM    2  C2  UNL     1     -34.232  17.399  -5.993  1.00 20.00    -0.087 C 
HETATM    3  C9  UNL     1     -33.354  16.268  -5.685  1.00 20.00     0.362 C 
ENDROOT
BRANCH   3   4
HETATM    4  N11 UNL     1     -34.063  15.009  -5.845  1.00 20.00     0.098 N 
HETATM    5  H28 UNL     1     -35.016  15.193  -6.152  1.00 20.00     0.317 HD
BRANCH   4   6
HETATM    6  C7  UNL     1     -34.106  14.285  -4.597  1.00 20.00     0.222 C 
HETATM    7  C4  UNL     1     -35.541  14.132  -4.096  1.00 20.00     0.036 C 
HETATM    8  C3  UNL     1     -35.745  15.344  -3.197  1.00 20.00     0.007 C 
HETATM    9  C6  UNL     1     -34.417  15.433  -2.449  1.00 20.00    -0.013 C 
HETATM   10  C5  UNL     1     -33.360  15.050  -3.494  1.00 20.00     0.040 C 
BRANCH   9  11
HETATM   11  C10 UNL     1     -34.177  16.796  -1.823  1.00 20.00     0.000 C 
HETATM   12  C8  UNL     1     -34.726  16.878  -0.433  1.00 20.00     0.005 C 
ENDBRANCH   9  11
ENDBRANCH   4   6
ENDBRANCH   3   4
TORSDOF 3
ENDMDL
MODEL 5
REMARK VINA RESULT:      -4.4      1.224      1.805
REMARK  3 active torsions:
REMARK  status: ('A' for Active; 'I' for Inactive)
REMARK    1  A    between atoms: C6_6  and  C10_10 
REMARK    2  A    between atoms: C7_7  and  N11_11 
REMARK    3  A    between atoms: C9_9  and  N11_11 
ROOT
HETATM    1  C1  UNL     1     -32.218   9.094   1.013  1.00 20.00     0.013 C 
HETATM    2  C2  UNL     1     -31.916   8.383   1.933  1.00 20.00    -0.087 C 
HETATM    3  C9  UNL     1     -31.545   7.521   3.057  1.00 20.00     0.362 C 
ENDROOT
BRANCH   3   4
HETATM    4  N11 UNL     1     -32.319   6.291   3.038  1.00 20.00     0.098 N 
HETATM    5  H28 UNL     1     -32.200   5.827   2.140  1.00 20.00     0.317 HD
BRANCH   4   6
HETATM    6  C7  UNL     1     -33.722   6.567   3.238  1.00 20.00     0.222 C 
HETATM    7  C4  UNL     1     -33.957   7.317   4.549  1.00 20.00     0.036 C 
HETATM    8  C3  UNL     1     -34.211   6.210   5.562  1.00 20.00     0.007 C 
HETATM    9  C6  UNL     1     -35.092   5.238   4.783  1.00 20.00    -0.013 C 
HETATM   10  C5  UNL     1     -34.526   5.264   3.356  1.00 20.00     0.040 C 
BRANCH   9  11
HETATM   11  C10 UNL     1     -35.126   3.847   5.391  1.00 20.00     0.000 C 
HETATM   12  C8  UNL     1     -34.019   3.640   6.376  1.00 20.00     0.005 C 
ENDBRANCH   9  11
ENDBRANCH   4   6
ENDBRANCH   3   4
TORSDOF 3
ENDMDL
MODEL 6
REMARK VINA RESULT:      -4.4      9.229     10.859
REMARK  3 active torsions:
REMARK  status: ('A' for Active; 'I' for Inactive)
REMARK    1  A    between atoms: C6_6  and  C10_10 
REMARK    2  A    between atoms: C7_7  and  N11_11 
REMARK    3  A    between atoms: C9_9  and  N11_11 
ROOT
HETATM    1  C1  UNL     1     -42.032   2.017  -3.588  1.00 20.00     0.013 C 
HETATM    2  C2  UNL     1     -41.572   2.857  -2.864  1.00 20.00    -0.087 C 
HETATM    3  C9  UNL     1     -41.008   3.885  -1.985  1.00 20.00     0.362 C 
ENDROOT
BRANCH   3   4
HETATM    4  N11 UNL     1     -41.698   3.902  -0.706  1.00 20.00     0.098 N 
HETATM    5  H28 UNL     1     -42.696   3.770  -0.856  1.00 20.00     0.317 HD
BRANCH   4   6
HETATM    6  C7  UNL     1     -41.490   5.159  -0.030  1.00 20.00     0.222 C 
HETATM    7  C4  UNL     1     -42.779   5.654   0.626  1.00 20.00     0.036 C 
HETATM    8  C3  UNL     1     -43.417   6.534  -0.440  1.00 20.00     0.007 C 
HETATM    9  C6  UNL     1     -42.221   7.289  -1.011  1.00 20.00    -0.013 C 
HETATM   10  C5  UNL     1     -41.084   6.256  -1.026  1.00 20.00     0.040 C 
BRANCH   9  11
HETATM   11  C10 UNL     1     -42.497   7.896  -2.376  1.00 20.00     0.000 C 
HETATM   12  C8  UNL     1     -42.886   6.858  -3.382  1.00 20.00     0.005 C 
ENDBRANCH   9  11
ENDBRANCH   4   6
ENDBRANCH   3   4
TORSDOF 3
ENDMDL
MODEL 7
REMARK VINA RESULT:      -4.3     11.082     12.893
REMARK  3 active torsions:
REMARK  status: ('A' for Active; 'I' for Inactive)
REMARK    1  A    between atoms: C6_6  and  C10_10 
REMARK    2  A    between atoms: C7_7  and  N11_11 
REMARK    3  A    between atoms: C9_9  and  N11_11 
ROOT
HETATM    1  C1  UNL     1     -34.799  17.022  -0.056  1.00 20.00     0.013 C 
HETATM    2  C2  UNL     1     -34.444  16.700  -1.158  1.00 20.00    -0.087 C 
HETATM    3  C9  UNL     1     -34.012  16.301  -2.499  1.00 20.00     0.362 C 
ENDROOT
BRANCH   3   4
HETATM    4  N11 UNL     1     -34.000  17.444  -3.396  1.00 20.00     0.098 N 
HETATM    5  H28 UNL     1     -34.956  17.746  -3.575  1.00 20.00     0.317 HD
BRANCH   4   6
HETATM    6  C7  UNL     1     -33.377  17.102  -4.652  1.00 20.00     0.222 C 
HETATM    7  C4  UNL     1     -34.148  17.694  -5.831  1.00 20.00     0.036 C 
HETATM    8  C3  UNL     1     -35.125  16.592  -6.218  1.00 20.00     0.007 C 
HETATM    9  C6  UNL     1     -34.274  15.332  -6.098  1.00 20.00    -0.013 C 
HETATM   10  C5  UNL     1     -33.385  15.582  -4.871  1.00 20.00     0.040 C 
BRANCH   9  11
HETATM   11  C10 UNL     1     -35.101  14.063  -5.991  1.00 20.00     0.000 C 
HETATM   12  C8  UNL     1     -34.895  13.369  -4.681  1.00 20.00     0.005 C 
ENDBRANCH   9  11
ENDBRANCH   4   6
ENDBRANCH   3   4
TORSDOF 3
ENDMDL
MODEL 8
REMARK VINA RESULT:      -4.3     10.735     12.135
REMARK  3 active torsions:
REMARK  status: ('A' for Active; 'I' for Inactive)
REMARK    1  A    between atoms: C6_6  and  C10_10 
REMARK    2  A    between atoms: C7_7  and  N11_11 
REMARK    3  A    between atoms: C9_9  and  N11_11 
ROOT
HETATM    1  C1  UNL     1     -38.323  15.568  -3.597  1.00 20.00     0.013 C 
HETATM    2  C2  UNL     1     -37.466  15.736  -4.421  1.00 20.00    -0.087 C 
HETATM    3  C9  UNL     1     -36.419  15.947  -5.424  1.00 20.00     0.362 C 
ENDROOT
BRANCH   3   4
HETATM    4  N11 UNL     1     -36.015  14.683  -6.018  1.00 20.00     0.098 N 
HETATM    5  H28 UNL     1     -36.541  13.923  -5.591  1.00 20.00     0.317 HD
BRANCH   4   6
HETATM    6  C7  UNL     1     -34.606  14.449  -5.812  1.00 20.00     0.222 C 
HETATM    7  C4  UNL     1     -34.375  13.282  -4.853  1.00 20.00     0.036 C 
HETATM    8  C3  UNL     1     -34.285  13.946  -3.485  1.00 20.00     0.007 C 
HETATM    9  C6  UNL     1     -33.458  15.196  -3.774  1.00 20.00    -0.013 C 
HETATM   10  C5  UNL     1     -33.939  15.666  -5.155  1.00 20.00     0.040 C 
BRANCH   9  11
HETATM   11  C10 UNL     1     -33.592  16.260  -2.698  1.00 20.00     0.000 C 
HETATM   12  C8  UNL     1     -34.819  16.060  -1.864  1.00 20.00     0.005 C 
ENDBRANCH   9  11
ENDBRANCH   4   6
ENDBRANCH   3   4
TORSDOF 3
ENDMDL
MODEL 9
REMARK VINA RESULT:      -4.2     10.884     12.559
REMARK  3 active torsions:
REMARK  status: ('A' for Active; 'I' for Inactive)
REMARK    1  A    between atoms: C6_6  and  C10_10 
REMARK    2  A    between atoms: C7_7  and  N11_11 
REMARK    3  A    between atoms: C9_9  and  N11_11 
ROOT
HETATM    1  C1  UNL     1     -33.490  18.477  -5.309  1.00 20.00     0.013 C 
HETATM    2  C2  UNL     1     -33.971  17.556  -5.911  1.00 20.00    -0.087 C 
HETATM    3  C9  UNL     1     -34.551  16.431  -6.648  1.00 20.00     0.362 C 
ENDROOT
BRANCH   3   4
HETATM    4  N11 UNL     1     -35.966  16.295  -6.346  1.00 20.00     0.098 N 
HETATM    5  H28 UNL     1     -36.209  16.911  -5.573  1.00 20.00     0.317 HD
BRANCH   4   6
HETATM    6  C7  UNL     1     -36.281  14.936  -5.977  1.00 20.00     0.222 C 
HETATM    7  C4  UNL     1     -36.959  14.878  -4.608  1.00 20.00     0.036 C 
HETATM    8  C3  UNL     1     -35.803  14.688  -3.636  1.00 20.00     0.007 C 
HETATM    9  C6  UNL     1     -34.913  13.685  -4.366  1.00 20.00    -0.013 C 
HETATM   10  C5  UNL     1     -35.004  14.094  -5.843  1.00 20.00     0.040 C 
BRANCH   9  11
HETATM   11  C10 UNL     1     -33.490  13.658  -3.836  1.00 20.00     0.000 C 
HETATM   12  C8  UNL     1     -32.966  15.034  -3.569  1.00 20.00     0.005 C 
ENDBRANCH   9  11
ENDBRANCH   4   6
ENDBRANCH   3   4
TORSDOF 3
ENDMDL
