MODEL 1
REMARK VINA RESULT:      -5.2      0.000      0.000
REMARK  6 active torsions:
REMARK  status: ('A' for Active; 'I' for Inactive)
REMARK    1  A    between atoms: C3_3  and  C10_10 
REMARK    2  A    between atoms: C6_6  and  C11_11 
REMARK    3  A    between atoms: C7_7  and  C8_8 
REMARK    4  A    between atoms: C7_7  and  C9_9 
REMARK    5  A    between atoms: C8_8  and  C10_10 
REMARK    6  A    between atoms: C9_9  and  C11_11 
ROOT
HETATM    1  C7  UNL     1     -33.756   5.428   2.849  1.00 20.00     0.002 C 
ENDROOT
BRANCH   1   2
HETATM    2  C8  UNL     1     -32.399   6.064   2.515  1.00 20.00     0.020 C 
BRANCH   2   3
HETATM    3  C10 UNL     1     -32.276   7.563   2.827  1.00 20.00     0.086 C 
HETATM    4 CL12 UNL     1     -31.216   7.856   4.235  1.00 20.00    -0.125 Cl
BRANCH   3   5
HETATM    5  C3  UNL     1     -31.790   8.379   1.666  1.00 20.00     0.004 A 
HETATM    6  C1  UNL     1     -32.708   8.680   0.514  1.00 20.00     0.006 A 
HETATM    7  C2  UNL     1     -32.300   9.778   1.457  1.00 20.00     0.006 A 
ENDBRANCH   3   5
ENDBRANCH   2   3
ENDBRANCH   1   2
BRANCH   1   8
HETATM    8  C9  UNL     1     -34.475   6.216   3.949  1.00 20.00     0.004 C 
BRANCH   8   9
HETATM    9  C11 UNL     1     -35.034   5.328   5.078  1.00 20.00    -0.019 C 
HETATM   10  C5  UNL     1     -34.852   3.851   4.712  1.00 20.00     0.010 C 
BRANCH   9  11
HETATM   11  C6  UNL     1     -34.454   5.633   6.474  1.00 20.00    -0.000 C 
HETATM   12  C4  UNL     1     -33.716   6.959   6.597  1.00 20.00     0.005 C 
ENDBRANCH   9  11
ENDBRANCH   8   9
ENDBRANCH   1   8
TORSDOF 6
ENDMDL
MODEL 2
REMARK VINA RESULT:      -5.0      0.508      1.653
REMARK  6 active torsions:
REMARK  status: ('A' for Active; 'I' for Inactive)
REMARK    1  A    between atoms: C3_3  and  C10_10 
REMARK    2  A    between atoms: C6_6  and  C11_11 
REMARK    3  A    between atoms: C7_7  and  C8_8 
REMARK    4  A    between atoms: C7_7  and  C9_9 
REMARK    5  A    between atoms: C8_8  and  C10_10 
REMARK    6  A    between atoms: C9_9  and  C11_11 
ROOT
HETATM    1  C7  UNL     1     -33.780   5.690   3.004  1.00 20.00     0.002 C 
ENDROOT
BRANCH   1   2
HETATM    2  C8  UNL     1     -32.426   6.243   2.539  1.00 20.00     0.020 C 
BRANCH   2   3
HETATM    3  C10 UNL     1     -32.189   7.735   2.816  1.00 20.00     0.086 C 
HETATM    4 CL12 UNL     1     -31.020   7.978   4.146  1.00 20.00    -0.125 Cl
BRANCH   3   5
HETATM    5  C3  UNL     1     -31.732   8.503   1.612  1.00 20.00     0.004 A 
HETATM    6  C1  UNL     1     -32.658   8.702   0.444  1.00 20.00     0.006 A 
HETATM    7  C2  UNL     1     -32.297   9.866   1.324  1.00 20.00     0.006 A 
ENDBRANCH   3   5
ENDBRANCH   2   3
ENDBRANCH   1   2
BRANCH   1   8
HETATM    8  C9  UNL     1     -34.334   6.510   4.175  1.00 20.00     0.004 C 
BRANCH   8   9
HETATM    9  C11 UNL     1     -33.906   5.981   5.557  1.00 20.00    -0.019 C 
HETATM   10  C5  UNL     1     -33.651   7.158   6.505  1.00 20.00     0.010 C 
BRANCH   9  11
HETATM   11  C6  UNL     1     -34.883   4.963   6.180  1.00 20.00    -0.000 C 
HETATM   12  C4  UNL     1     -35.118   3.701   5.362  1.00 20.00     0.005 C 
ENDBRANCH   9  11
ENDBRANCH   8   9
ENDBRANCH   1   8
TORSDOF 6
ENDMDL
MODEL 3
REMARK VINA RESULT:      -4.8      1.375      5.212
REMARK  6 active torsions:
REMARK  status: ('A' for Active; 'I' for Inactive)
REMARK    1  A    between atoms: C3_3  and  C10_10 
REMARK    2  A    between atoms: C6_6  and  C11_11 
REMARK    3  A    between atoms: C7_7  and  C8_8 
REMARK    4  A    between atoms: C7_7  and  C9_9 
REMARK    5  A    between atoms: C8_8  and  C10_10 
REMARK    6  A    between atoms: C9_9  and  C11_11 
ROOT
HETATM    1  C7  UNL     1     -33.869   5.742   2.879  1.00 20.00     0.002 C 
ENDROOT
BRANCH   1   2
HETATM    2  C8  UNL     1     -34.439   6.321   4.182  1.00 20.00     0.020 C 
BRANCH   2   3
HETATM    3  C10 UNL     1     -33.674   5.950   5.461  1.00 20.00     0.086 C 
HETATM    4 CL12 UNL     1     -33.869   7.195   6.727  1.00 20.00    -0.125 Cl
BRANCH   3   5
HETATM    5  C3  UNL     1     -34.056   4.612   6.021  1.00 20.00     0.004 A 
HETATM    6  C1  UNL     1     -35.412   4.409   6.638  1.00 20.00     0.006 A 
HETATM    7  C2  UNL     1     -35.080   3.762   5.322  1.00 20.00     0.006 A 
ENDBRANCH   3   5
ENDBRANCH   2   3
ENDBRANCH   1   2
BRANCH   1   8
HETATM    8  C9  UNL     1     -32.401   6.143   2.696  1.00 20.00     0.004 C 
BRANCH   8   9
HETATM    9  C11 UNL     1     -32.158   7.661   2.807  1.00 20.00    -0.019 C 
HETATM   10  C5  UNL     1     -31.107   7.937   3.888  1.00 20.00     0.010 C 
BRANCH   9  11
HETATM   11  C6  UNL     1     -31.783   8.344   1.476  1.00 20.00    -0.000 C 
HETATM   12  C4  UNL     1     -32.455   9.687   1.222  1.00 20.00     0.005 C 
ENDBRANCH   9  11
ENDBRANCH   8   9
ENDBRANCH   1   8
TORSDOF 6
ENDMDL
MODEL 4
REMARK VINA RESULT:      -4.8      1.706      5.582
REMARK  6 active torsions:
REMARK  status: ('A' for Active; 'I' for Inactive)
REMARK    1  A    between atoms: C3_3  and  C10_10 
REMARK    2  A    between atoms: C6_6  and  C11_11 
REMARK    3  A    between atoms: C7_7  and  C8_8 
REMARK    4  A    between atoms: C7_7  and  C9_9 
REMARK    5  A    between atoms: C8_8  and  C10_10 
REMARK    6  A    between atoms: C9_9  and  C11_11 
ROOT
HETATM    1  C7  UNL     1     -32.143   6.474   3.361  1.00 20.00     0.002 C 
ENDROOT
BRANCH   1   2
HETATM    2  C8  UNL     1     -33.307   6.459   4.362  1.00 20.00     0.020 C 
BRANCH   2   3
HETATM    3  C10 UNL     1     -34.628   5.882   3.831  1.00 20.00     0.086 C 
HETATM    4 CL12 UNL     1     -34.393   5.021   2.283  1.00 20.00    -0.125 Cl
BRANCH   3   5
HETATM    5  C3  UNL     1     -35.317   4.972   4.803  1.00 20.00     0.004 A 
HETATM    6  C1  UNL     1     -34.572   3.825   5.427  1.00 20.00     0.006 A 
HETATM    7  C2  UNL     1     -34.961   5.013   6.263  1.00 20.00     0.006 A 
ENDBRANCH   3   5
ENDBRANCH   2   3
ENDBRANCH   1   2
BRANCH   1   8
HETATM    8  C9  UNL     1     -31.681   7.908   3.078  1.00 20.00     0.004 C 
BRANCH   8   9
HETATM    9  C11 UNL     1     -32.401   8.564   1.884  1.00 20.00    -0.019 C 
HETATM   10  C5  UNL     1     -32.724  10.024   2.215  1.00 20.00     0.010 C 
BRANCH   9  11
HETATM   11  C6  UNL     1     -31.645   8.449   0.544  1.00 20.00    -0.000 C 
HETATM   12  C4  UNL     1     -32.508   8.576  -0.703  1.00 20.00     0.005 C 
ENDBRANCH   9  11
ENDBRANCH   8   9
ENDBRANCH   1   8
TORSDOF 6
ENDMDL
MODEL 5
REMARK VINA RESULT:      -4.7      1.789      5.061
REMARK  6 active torsions:
REMARK  status: ('A' for Active; 'I' for Inactive)
REMARK    1  A    between atoms: C3_3  and  C10_10 
REMARK    2  A    between atoms: C6_6  and  C11_11 
REMARK    3  A    between atoms: C7_7  and  C8_8 
REMARK    4  A    between atoms: C7_7  and  C9_9 
REMARK    5  A    between atoms: C8_8  and  C10_10 
REMARK    6  A    between atoms: C9_9  and  C11_11 
ROOT
HETATM    1  C7  UNL     1     -33.838   5.438   2.720  1.00 20.00     0.002 C 
ENDROOT
BRANCH   1   2
HETATM    2  C8  UNL     1     -34.812   6.052   3.736  1.00 20.00     0.020 C 
BRANCH   2   3
HETATM    3  C10 UNL     1     -35.334   5.093   4.816  1.00 20.00     0.086 C 
HETATM    4 CL12 UNL     1     -34.849   3.406   4.485  1.00 20.00    -0.125 Cl
BRANCH   3   5
HETATM    5  C3  UNL     1     -34.907   5.466   6.205  1.00 20.00     0.004 A 
HETATM    6  C1  UNL     1     -33.505   5.185   6.668  1.00 20.00     0.006 A 
HETATM    7  C2  UNL     1     -33.946   6.602   6.423  1.00 20.00     0.006 A 
ENDBRANCH   3   5
ENDBRANCH   2   3
ENDBRANCH   1   2
BRANCH   1   8
HETATM    8  C9  UNL     1     -32.405   5.914   2.978  1.00 20.00     0.004 C 
BRANCH   8   9
HETATM    9  C11 UNL     1     -32.263   7.447   3.033  1.00 20.00    -0.019 C 
HETATM   10  C5  UNL     1     -31.221   7.832   4.089  1.00 20.00     0.010 C 
BRANCH   9  11
HETATM   11  C6  UNL     1     -31.951   8.106   1.674  1.00 20.00    -0.000 C 
HETATM   12  C4  UNL     1     -32.450   9.536   1.514  1.00 20.00     0.005 C 
ENDBRANCH   9  11
ENDBRANCH   8   9
ENDBRANCH   1   8
TORSDOF 6
ENDMDL
MODEL 6
REMARK VINA RESULT:      -4.7     10.523     12.033
REMARK  6 active torsions:
REMARK  status: ('A' for Active; 'I' for Inactive)
REMARK    1  A    between atoms: C3_3  and  C10_10 
REMARK    2  A    between atoms: C6_6  and  C11_11 
REMARK    3  A    between atoms: C7_7  and  C8_8 
REMARK    4  A    between atoms: C7_7  and  C9_9 
REMARK    5  A    between atoms: C8_8  and  C10_10 
REMARK    6  A    between atoms: C9_9  and  C11_11 
ROOT
HETATM    1  C7  UNL     1     -34.017  13.904  -3.417  1.00 20.00     0.002 C 
ENDROOT
BRANCH   1   2
HETATM    2  C8  UNL     1     -34.405  13.370  -4.804  1.00 20.00     0.020 C 
BRANCH   2   3
HETATM    3  C10 UNL     1     -35.751  13.866  -5.351  1.00 20.00     0.086 C 
HETATM    4 CL12 UNL     1     -36.819  14.447  -4.041  1.00 20.00    -0.125 Cl
BRANCH   3   5
HETATM    5  C3  UNL     1     -35.617  14.939  -6.391  1.00 20.00     0.004 A 
HETATM    6  C1  UNL     1     -34.294  15.185  -7.059  1.00 20.00     0.006 A 
HETATM    7  C2  UNL     1     -35.426  14.573  -7.836  1.00 20.00     0.006 A 
ENDBRANCH   3   5
ENDBRANCH   2   3
ENDBRANCH   1   2
BRANCH   1   8
HETATM    8  C9  UNL     1     -33.106  15.131  -3.538  1.00 20.00     0.004 C 
BRANCH   8   9
HETATM    9  C11 UNL     1     -33.674  16.391  -2.856  1.00 20.00    -0.019 C 
HETATM   10  C5  UNL     1     -34.242  17.340  -3.917  1.00 20.00     0.010 C 
BRANCH   9  11
HETATM   11  C6  UNL     1     -34.711  16.104  -1.751  1.00 20.00    -0.000 C 
HETATM   12  C4  UNL     1     -34.570  16.947  -0.491  1.00 20.00     0.005 C 
ENDBRANCH   9  11
ENDBRANCH   8   9
ENDBRANCH   1   8
TORSDOF 6
ENDMDL
MODEL 7
REMARK VINA RESULT:      -4.6     10.698     12.090
REMARK  6 active torsions:
REMARK  status: ('A' for Active; 'I' for Inactive)
REMARK    1  A    between atoms: C3_3  and  C10_10 
REMARK    2  A    between atoms: C6_6  and  C11_11 
REMARK    3  A    between atoms: C7_7  and  C8_8 
REMARK    4  A    between atoms: C7_7  and  C9_9 
REMARK    5  A    between atoms: C8_8  and  C10_10 
REMARK    6  A    between atoms: C9_9  and  C11_11 
ROOT
HETATM    1  C7  UNL     1     -34.143  13.798  -3.492  1.00 20.00     0.002 C 
ENDROOT
BRANCH   1   2
HETATM    2  C8  UNL     1     -34.976  13.446  -4.732  1.00 20.00     0.020 C 
BRANCH   2   3
HETATM    3  C10 UNL     1     -35.439  14.639  -5.580  1.00 20.00     0.086 C 
HETATM    4 CL12 UNL     1     -35.144  14.362  -7.321  1.00 20.00    -0.125 Cl
BRANCH   3   5
HETATM    5  C3  UNL     1     -36.880  14.998  -5.375  1.00 20.00     0.004 A 
HETATM    6  C1  UNL     1     -37.533  14.777  -4.039  1.00 20.00     0.006 A 
HETATM    7  C2  UNL     1     -37.254  16.175  -4.517  1.00 20.00     0.006 A 
ENDBRANCH   3   5
ENDBRANCH   2   3
ENDBRANCH   1   2
BRANCH   1   8
HETATM    8  C9  UNL     1     -33.244  15.010  -3.761  1.00 20.00     0.004 C 
BRANCH   8   9
HETATM    9  C11 UNL     1     -33.563  16.226  -2.869  1.00 20.00    -0.019 C 
HETATM   10  C5  UNL     1     -33.818  17.456  -3.745  1.00 20.00     0.010 C 
BRANCH   9  11
HETATM   11  C6  UNL     1     -34.719  15.999  -1.874  1.00 20.00    -0.000 C 
HETATM   12  C4  UNL     1     -34.627  16.790  -0.577  1.00 20.00     0.005 C 
ENDBRANCH   9  11
ENDBRANCH   8   9
ENDBRANCH   1   8
TORSDOF 6
ENDMDL
MODEL 8
REMARK VINA RESULT:      -4.5     10.604     12.050
REMARK  6 active torsions:
REMARK  status: ('A' for Active; 'I' for Inactive)
REMARK    1  A    between atoms: C3_3  and  C10_10 
REMARK    2  A    between atoms: C6_6  and  C11_11 
REMARK    3  A    between atoms: C7_7  and  C8_8 
REMARK    4  A    between atoms: C7_7  and  C9_9 
REMARK    5  A    between atoms: C8_8  and  C10_10 
REMARK    6  A    between atoms: C9_9  and  C11_11 
ROOT
HETATM    1  C7  UNL     1     -34.073  13.676  -3.615  1.00 20.00     0.002 C 
ENDROOT
BRANCH   1   2
HETATM    2  C8  UNL     1     -33.079  14.832  -3.794  1.00 20.00     0.020 C 
BRANCH   2   3
HETATM    3  C10 UNL     1     -33.393  16.105  -2.994  1.00 20.00     0.086 C 
HETATM    4 CL12 UNL     1     -33.631  17.513  -4.068  1.00 20.00    -0.125 Cl
BRANCH   3   5
HETATM    5  C3  UNL     1     -34.583  15.967  -2.091  1.00 20.00     0.004 A 
HETATM    6  C1  UNL     1     -34.616  16.679  -0.768  1.00 20.00     0.006 A 
HETATM    7  C2  UNL     1     -35.516  17.127  -1.886  1.00 20.00     0.006 A 
ENDBRANCH   3   5
ENDBRANCH   2   3
ENDBRANCH   1   2
BRANCH   1   8
HETATM    8  C9  UNL     1     -34.868  13.433  -4.902  1.00 20.00     0.004 C 
BRANCH   8   9
HETATM    9  C11 UNL     1     -35.302  14.729  -5.614  1.00 20.00    -0.019 C 
HETATM   10  C5  UNL     1     -34.899  14.667  -7.091  1.00 20.00     0.010 C 
BRANCH   9  11
HETATM   11  C6  UNL     1     -36.798  15.071  -5.458  1.00 20.00    -0.000 C 
HETATM   12  C4  UNL     1     -37.411  14.711  -4.111  1.00 20.00     0.005 C 
ENDBRANCH   9  11
ENDBRANCH   8   9
ENDBRANCH   1   8
TORSDOF 6
ENDMDL
MODEL 9
REMARK VINA RESULT:      -4.5     10.802     12.381
REMARK  6 active torsions:
REMARK  status: ('A' for Active; 'I' for Inactive)
REMARK    1  A    between atoms: C3_3  and  C10_10 
REMARK    2  A    between atoms: C6_6  and  C11_11 
REMARK    3  A    between atoms: C7_7  and  C8_8 
REMARK    4  A    between atoms: C7_7  and  C9_9 
REMARK    5  A    between atoms: C8_8  and  C10_10 
REMARK    6  A    between atoms: C9_9  and  C11_11 
ROOT
HETATM    1  C7  UNL     1     -33.177  16.215  -4.872  1.00 20.00     0.002 C 
ENDROOT
BRANCH   1   2
HETATM    2  C8  UNL     1     -33.744  17.633  -4.720  1.00 20.00     0.020 C 
BRANCH   2   3
HETATM    3  C10 UNL     1     -34.132  18.042  -3.292  1.00 20.00     0.086 C 
HETATM    4 CL12 UNL     1     -35.883  18.374  -3.156  1.00 20.00    -0.125 Cl
BRANCH   3   5
HETATM    5  C3  UNL     1     -33.738  17.035  -2.252  1.00 20.00     0.004 A 
HETATM    6  C1  UNL     1     -33.914  17.345  -0.792  1.00 20.00     0.006 A 
HETATM    7  C2  UNL     1     -34.792  16.320  -1.454  1.00 20.00     0.006 A 
ENDBRANCH   3   5
ENDBRANCH   2   3
ENDBRANCH   1   2
BRANCH   1   8
HETATM    8  C9  UNL     1     -34.169  15.303  -5.603  1.00 20.00     0.004 C 
BRANCH   8   9
HETATM    9  C11 UNL     1     -34.518  14.020  -4.824  1.00 20.00    -0.019 C 
HETATM   10  C5  UNL     1     -33.412  13.716  -3.808  1.00 20.00     0.010 C 
BRANCH   9  11
HETATM   11  C6  UNL     1     -35.905  14.042  -4.151  1.00 20.00    -0.000 C 
HETATM   12  C4  UNL     1     -36.817  15.185  -4.576  1.00 20.00     0.005 C 
ENDBRANCH   9  11
ENDBRANCH   8   9
ENDBRANCH   1   8
TORSDOF 6
ENDMDL
