MODEL 1
REMARK VINA RESULT:      -4.4      0.000      0.000
REMARK  1 active torsions:
REMARK  status: ('A' for Active; 'I' for Inactive)
REMARK    1  A    between atoms: C5_5  and  C8_8 
ROOT
HETATM    1  C1  UNL     1     -35.604   5.540   3.536  1.00 20.00     0.007 C 
HETATM    2  C2  UNL     1     -34.334   5.557   2.679  1.00 20.00     0.041 C 
HETATM    3  C3  UNL     1     -33.866   6.448   4.936  1.00 20.00     0.045 C 
HETATM    4  C4  UNL     1     -32.208   7.092   2.986  1.00 20.00     0.207 A 
HETATM    5  C5  UNL     1     -35.097   5.525   4.985  1.00 20.00    -0.012 C 
HETATM    6  C6  UNL     1     -33.342   6.270   3.544  1.00 20.00     0.083 A 
HETATM    7  O9  UNL     1     -32.005   5.756   3.464  1.00 20.00    -0.375 OA
ENDROOT
BRANCH   5   8
HETATM    8  C8  UNL     1     -34.733   4.115   5.449  1.00 20.00     0.000 C 
HETATM    9  C7  UNL     1     -33.796   4.134   6.618  1.00 20.00     0.005 C 
ENDBRANCH   5   8
TORSDOF 1
ENDMDL
MODEL 2
REMARK VINA RESULT:      -4.1     11.883     12.440
REMARK  1 active torsions:
REMARK  status: ('A' for Active; 'I' for Inactive)
REMARK    1  A    between atoms: C5_5  and  C8_8 
ROOT
HETATM    1  C1  UNL     1     -36.087  16.285  -3.406  1.00 20.00     0.007 C 
HETATM    2  C2  UNL     1     -36.124  14.768  -3.618  1.00 20.00     0.041 C 
HETATM    3  C3  UNL     1     -33.793  15.589  -3.653  1.00 20.00     0.045 C 
HETATM    4  C4  UNL     1     -34.301  13.264  -4.795  1.00 20.00     0.207 A 
HETATM    5  C5  UNL     1     -34.679  16.569  -2.863  1.00 20.00    -0.012 C 
HETATM    6  C6  UNL     1     -34.698  14.425  -3.920  1.00 20.00     0.083 A 
HETATM    7  O9  UNL     1     -34.256  13.179  -3.365  1.00 20.00    -0.375 OA
ENDROOT
BRANCH   5   8
HETATM    8  C8  UNL     1     -34.588  16.330  -1.356  1.00 20.00     0.000 C 
HETATM    9  C7  UNL     1     -33.937  17.476  -0.646  1.00 20.00     0.005 C 
ENDBRANCH   5   8
TORSDOF 1
ENDMDL
MODEL 3
REMARK VINA RESULT:      -4.0     12.297     13.153
REMARK  1 active torsions:
REMARK  status: ('A' for Active; 'I' for Inactive)
REMARK    1  A    between atoms: C5_5  and  C8_8 
ROOT
HETATM    1  C1  UNL     1     -33.173  15.515  -4.000  1.00 20.00     0.007 C 
HETATM    2  C2  UNL     1     -33.840  15.854  -5.337  1.00 20.00     0.041 C 
HETATM    3  C3  UNL     1     -35.031  13.997  -4.222  1.00 20.00     0.045 C 
HETATM    4  C4  UNL     1     -35.343  14.277  -6.828  1.00 20.00     0.207 A 
HETATM    5  C5  UNL     1     -34.275  14.834  -3.175  1.00 20.00    -0.012 C 
HETATM    6  C6  UNL     1     -34.876  14.784  -5.488  1.00 20.00     0.083 A 
HETATM    7  O9  UNL     1     -36.107  15.228  -6.075  1.00 20.00    -0.375 OA
ENDROOT
BRANCH   5   8
HETATM    8  C8  UNL     1     -35.188  15.851  -2.492  1.00 20.00     0.000 C 
HETATM    9  C7  UNL     1     -34.539  16.471  -1.293  1.00 20.00     0.005 C 
ENDBRANCH   5   8
TORSDOF 1
ENDMDL
MODEL 4
REMARK VINA RESULT:      -4.0     11.899     12.705
REMARK  1 active torsions:
REMARK  status: ('A' for Active; 'I' for Inactive)
REMARK    1  A    between atoms: C5_5  and  C8_8 
ROOT
HETATM    1  C1  UNL     1     -34.074  16.797  -4.053  1.00 20.00     0.007 C 
HETATM    2  C2  UNL     1     -35.052  15.876  -4.790  1.00 20.00     0.041 C 
HETATM    3  C3  UNL     1     -33.596  14.563  -3.285  1.00 20.00     0.045 C 
HETATM    4  C4  UNL     1     -34.774  13.296  -5.279  1.00 20.00     0.207 A 
HETATM    5  C5  UNL     1     -33.682  16.018  -2.790  1.00 20.00    -0.012 C 
HETATM    6  C6  UNL     1     -34.603  14.504  -4.394  1.00 20.00     0.083 A 
HETATM    7  O9  UNL     1     -35.668  13.565  -4.191  1.00 20.00    -0.375 OA
ENDROOT
BRANCH   5   8
HETATM    8  C8  UNL     1     -34.715  16.180  -1.675  1.00 20.00     0.000 C 
HETATM    9  C7  UNL     1     -34.263  17.151  -0.629  1.00 20.00     0.005 C 
ENDBRANCH   5   8
TORSDOF 1
ENDMDL
MODEL 5
REMARK VINA RESULT:      -3.9      1.588      3.656
REMARK  1 active torsions:
REMARK  status: ('A' for Active; 'I' for Inactive)
REMARK    1  A    between atoms: C5_5  and  C8_8 
ROOT
HETATM    1  C1  UNL     1     -34.018   7.264   5.131  1.00 20.00     0.007 C 
HETATM    2  C2  UNL     1     -33.968   6.139   6.170  1.00 20.00     0.041 C 
HETATM    3  C3  UNL     1     -34.899   5.306   4.038  1.00 20.00     0.045 C 
HETATM    4  C4  UNL     1     -35.434   3.944   6.235  1.00 20.00     0.207 A 
HETATM    5  C5  UNL     1     -34.023   6.543   3.776  1.00 20.00    -0.012 C 
HETATM    6  C6  UNL     1     -34.668   5.005   5.487  1.00 20.00     0.083 A 
HETATM    7  O9  UNL     1     -34.105   3.712   5.752  1.00 20.00    -0.375 OA
ENDROOT
BRANCH   5   8
HETATM    8  C8  UNL     1     -32.613   6.158   3.328  1.00 20.00     0.000 C 
HETATM    9  C7  UNL     1     -31.796   7.356   2.955  1.00 20.00     0.005 C 
ENDBRANCH   5   8
TORSDOF 1
ENDMDL
MODEL 6
REMARK VINA RESULT:      -3.9     11.742     13.081
REMARK  1 active torsions:
REMARK  status: ('A' for Active; 'I' for Inactive)
REMARK    1  A    between atoms: C5_5  and  C8_8 
ROOT
HETATM    1  C1  UNL     1     -33.994  13.690  -3.565  1.00 20.00     0.007 C 
HETATM    2  C2  UNL     1     -35.286  13.575  -4.380  1.00 20.00     0.041 C 
HETATM    3  C3  UNL     1     -35.302  15.638  -3.019  1.00 20.00     0.045 C 
HETATM    4  C4  UNL     1     -37.620  14.695  -3.858  1.00 20.00     0.207 A 
HETATM    5  C5  UNL     1     -33.851  15.189  -3.268  1.00 20.00    -0.012 C 
HETATM    6  C6  UNL     1     -36.113  14.720  -3.881  1.00 20.00     0.083 A 
HETATM    7  O9  UNL     1     -36.893  15.374  -4.891  1.00 20.00    -0.375 OA
ENDROOT
BRANCH   5   8
HETATM    8  C8  UNL     1     -33.214  15.945  -4.433  1.00 20.00     0.000 C 
HETATM    9  C7  UNL     1     -33.627  17.384  -4.461  1.00 20.00     0.005 C 
ENDBRANCH   5   8
TORSDOF 1
ENDMDL
MODEL 7
REMARK VINA RESULT:      -3.8     12.225     13.057
REMARK  1 active torsions:
REMARK  status: ('A' for Active; 'I' for Inactive)
REMARK    1  A    between atoms: C5_5  and  C8_8 
ROOT
HETATM    1  C1  UNL     1     -35.616  13.811  -4.231  1.00 20.00     0.007 C 
HETATM    2  C2  UNL     1     -36.043  15.016  -3.386  1.00 20.00     0.041 C 
HETATM    3  C3  UNL     1     -33.581  14.925  -3.579  1.00 20.00     0.045 C 
HETATM    4  C4  UNL     1     -34.612  16.297  -1.574  1.00 20.00     0.207 A 
HETATM    5  C5  UNL     1     -34.224  14.182  -4.763  1.00 20.00    -0.012 C 
HETATM    6  C6  UNL     1     -34.744  15.567  -2.886  1.00 20.00     0.083 A 
HETATM    7  O9  UNL     1     -34.691  16.999  -2.821  1.00 20.00    -0.375 OA
ENDROOT
BRANCH   5   8
HETATM    8  C8  UNL     1     -34.305  15.061  -6.011  1.00 20.00     0.000 C 
HETATM    9  C7  UNL     1     -35.228  14.488  -7.041  1.00 20.00     0.005 C 
ENDBRANCH   5   8
TORSDOF 1
ENDMDL
MODEL 8
REMARK VINA RESULT:      -3.8     12.313     13.433
REMARK  1 active torsions:
REMARK  status: ('A' for Active; 'I' for Inactive)
REMARK    1  A    between atoms: C5_5  and  C8_8 
ROOT
HETATM    1  C1  UNL     1     -34.094  14.781  -3.091  1.00 20.00     0.007 C 
HETATM    2  C2  UNL     1     -33.259  15.412  -4.210  1.00 20.00     0.041 C 
HETATM    3  C3  UNL     1     -35.226  16.819  -3.699  1.00 20.00     0.045 C 
HETATM    4  C4  UNL     1     -34.072  17.118  -6.054  1.00 20.00     0.207 A 
HETATM    5  C5  UNL     1     -34.873  15.952  -2.477  1.00 20.00    -0.012 C 
HETATM    6  C6  UNL     1     -34.091  16.578  -4.647  1.00 20.00     0.083 A 
HETATM    7  O9  UNL     1     -33.339  17.748  -4.996  1.00 20.00    -0.375 OA
ENDROOT
BRANCH   5   8
HETATM    8  C8  UNL     1     -34.038  16.723  -1.455  1.00 20.00     0.000 C 
HETATM    9  C7  UNL     1     -34.820  17.043  -0.219  1.00 20.00     0.005 C 
ENDBRANCH   5   8
TORSDOF 1
ENDMDL
MODEL 9
REMARK VINA RESULT:      -3.7     12.313     13.645
REMARK  1 active torsions:
REMARK  status: ('A' for Active; 'I' for Inactive)
REMARK    1  A    between atoms: C5_5  and  C8_8 
ROOT
HETATM    1  C1  UNL     1     -34.004  16.326  -2.219  1.00 20.00     0.007 C 
HETATM    2  C2  UNL     1     -34.599  17.420  -3.112  1.00 20.00     0.041 C 
HETATM    3  C3  UNL     1     -33.071  15.977  -4.413  1.00 20.00     0.045 C 
HETATM    4  C4  UNL     1     -33.596  18.386  -5.355  1.00 20.00     0.207 A 
HETATM    5  C5  UNL     1     -33.598  15.208  -3.188  1.00 20.00    -0.012 C 
HETATM    6  C6  UNL     1     -33.867  17.246  -4.406  1.00 20.00     0.083 A 
HETATM    7  O9  UNL     1     -34.668  17.461  -5.576  1.00 20.00    -0.375 OA
ENDROOT
BRANCH   5   8
HETATM    8  C8  UNL     1     -34.779  14.307  -3.548  1.00 20.00     0.000 C 
HETATM    9  C7  UNL     1     -34.459  13.393  -4.690  1.00 20.00     0.005 C 
ENDBRANCH   5   8
TORSDOF 1
ENDMDL
