MODEL 1
REMARK VINA RESULT:      -4.9      0.000      0.000
REMARK  2 active torsions:
REMARK  status: ('A' for Active; 'I' for Inactive)
REMARK    1  A    between atoms: C4_4  and  C10_10 
REMARK    2  A    between atoms: C8_8  and  C10_10 
ROOT
HETATM    1  C5  UNL     1     -34.136  13.753  -3.618  1.00 20.00     0.006 C 
HETATM    2  C6  UNL     1     -34.828  13.264  -4.882  1.00 20.00     0.020 C 
HETATM    3  C7  UNL     1     -34.758  15.666  -5.020  1.00 20.00     0.025 C 
HETATM    4  C8  UNL     1     -34.469  15.249  -3.565  1.00 20.00    -0.009 C 
HETATM    5  C9  UNL     1     -34.552  14.402  -5.853  1.00 20.00     0.082 C 
HETATM    6 CL12 UNL     1     -35.605  14.345  -7.273  1.00 20.00    -0.125 Cl
ENDROOT
BRANCH   4   7
HETATM    7  C10 UNL     1     -33.361  16.068  -2.920  1.00 20.00     0.043 C 
BRANCH   7   8
HETATM    8  C4  UNL     1     -33.892  16.983  -1.849  1.00 20.00    -0.051 A 
HETATM    9  C1  UNL     1     -34.694  16.547  -0.755  1.00 20.00     0.014 A 
HETATM   10  C2  UNL     1     -35.045  17.586   0.077  1.00 20.00     0.050 A 
HETATM   11  S11 UNL     1     -34.409  19.083  -0.461  1.00 20.00    -0.113 SA
HETATM   12  C3  UNL     1     -33.661  18.341  -1.811  1.00 20.00     0.056 A 
ENDBRANCH   7   8
ENDBRANCH   4   7
TORSDOF 2
ENDMDL
MODEL 2
REMARK VINA RESULT:      -4.8      3.771      5.835
REMARK  2 active torsions:
REMARK  status: ('A' for Active; 'I' for Inactive)
REMARK    1  A    between atoms: C4_4  and  C10_10 
REMARK    2  A    between atoms: C8_8  and  C10_10 
ROOT
HETATM    1  C5  UNL     1     -35.296  17.471   0.440  1.00 20.00     0.006 C 
HETATM    2  C6  UNL     1     -34.251  18.127   1.332  1.00 20.00     0.020 C 
HETATM    3  C7  UNL     1     -33.203  17.766  -0.805  1.00 20.00     0.025 C 
HETATM    4  C8  UNL     1     -34.484  16.913  -0.736  1.00 20.00    -0.009 C 
HETATM    5  C9  UNL     1     -33.343  18.798   0.314  1.00 20.00     0.082 C 
HETATM    6 CL12 UNL     1     -31.782  19.263   1.006  1.00 20.00    -0.125 Cl
ENDROOT
BRANCH   4   7
HETATM    7  C10 UNL     1     -35.272  16.914  -2.037  1.00 20.00     0.043 C 
BRANCH   7   8
HETATM    8  C4  UNL     1     -34.980  15.695  -2.870  1.00 20.00    -0.051 A 
HETATM    9  C1  UNL     1     -33.671  15.179  -3.093  1.00 20.00     0.014 A 
HETATM   10  C2  UNL     1     -33.685  14.057  -3.891  1.00 20.00     0.050 A 
HETATM   11  S11 UNL     1     -35.273  13.629  -4.370  1.00 20.00    -0.113 SA
HETATM   12  C3  UNL     1     -35.946  14.947  -3.507  1.00 20.00     0.056 A 
ENDBRANCH   7   8
ENDBRANCH   4   7
TORSDOF 2
ENDMDL
MODEL 3
REMARK VINA RESULT:      -4.6      3.484      5.561
REMARK  2 active torsions:
REMARK  status: ('A' for Active; 'I' for Inactive)
REMARK    1  A    between atoms: C4_4  and  C10_10 
REMARK    2  A    between atoms: C8_8  and  C10_10 
ROOT
HETATM    1  C5  UNL     1     -33.677  18.355  -2.094  1.00 20.00     0.006 C 
HETATM    2  C6  UNL     1     -34.351  18.846  -0.820  1.00 20.00     0.020 C 
HETATM    3  C7  UNL     1     -34.707  16.468  -0.913  1.00 20.00     0.025 C 
HETATM    4  C8  UNL     1     -34.260  16.952  -2.306  1.00 20.00    -0.009 C 
HETATM    5  C9  UNL     1     -34.336  17.598   0.047  1.00 20.00     0.082 C 
HETATM    6 CL12 UNL     1     -35.449  17.716   1.417  1.00 20.00    -0.125 Cl
ENDROOT
BRANCH   4   7
HETATM    7  C10 UNL     1     -33.273  16.009  -2.977  1.00 20.00     0.043 C 
BRANCH   7   8
HETATM    8  C4  UNL     1     -33.942  15.138  -4.006  1.00 20.00    -0.051 A 
HETATM    9  C1  UNL     1     -34.130  13.733  -3.859  1.00 20.00     0.014 A 
HETATM   10  C2  UNL     1     -34.768  13.178  -4.945  1.00 20.00     0.050 A 
HETATM   11  S11 UNL     1     -35.138  14.349  -6.140  1.00 20.00    -0.113 SA
HETATM   12  C3  UNL     1     -34.444  15.603  -5.202  1.00 20.00     0.056 A 
ENDBRANCH   7   8
ENDBRANCH   4   7
TORSDOF 2
ENDMDL
MODEL 4
REMARK VINA RESULT:      -4.6      1.386      1.464
REMARK  2 active torsions:
REMARK  status: ('A' for Active; 'I' for Inactive)
REMARK    1  A    between atoms: C4_4  and  C10_10 
REMARK    2  A    between atoms: C8_8  and  C10_10 
ROOT
HETATM    1  C5  UNL     1     -34.356  14.271  -3.390  1.00 20.00     0.006 C 
HETATM    2  C6  UNL     1     -35.558  13.874  -4.235  1.00 20.00     0.020 C 
HETATM    3  C7  UNL     1     -35.939  16.139  -3.516  1.00 20.00     0.025 C 
HETATM    4  C8  UNL     1     -34.821  15.530  -2.648  1.00 20.00    -0.009 C 
HETATM    5  C9  UNL     1     -36.052  15.223  -4.734  1.00 20.00     0.082 C 
HETATM    6 CL12 UNL     1     -37.700  15.143  -5.372  1.00 20.00    -0.125 Cl
ENDROOT
BRANCH   4   7
HETATM    7  C10 UNL     1     -33.681  16.500  -2.380  1.00 20.00     0.043 C 
BRANCH   7   8
HETATM    8  C4  UNL     1     -33.886  17.266  -1.100  1.00 20.00    -0.051 A 
HETATM    9  C1  UNL     1     -34.891  16.955  -0.139  1.00 20.00     0.014 A 
HETATM   10  C2  UNL     1     -34.861  17.812   0.938  1.00 20.00     0.050 A 
HETATM   11  S11 UNL     1     -33.625  18.988   0.789  1.00 20.00    -0.113 SA
HETATM   12  C3  UNL     1     -33.126  18.351  -0.720  1.00 20.00     0.056 A 
ENDBRANCH   7   8
ENDBRANCH   4   7
TORSDOF 2
ENDMDL
MODEL 5
REMARK VINA RESULT:      -4.4      1.666      2.545
REMARK  2 active torsions:
REMARK  status: ('A' for Active; 'I' for Inactive)
REMARK    1  A    between atoms: C4_4  and  C10_10 
REMARK    2  A    between atoms: C8_8  and  C10_10 
ROOT
HETATM    1  C5  UNL     1     -33.677  17.026  -3.677  1.00 20.00     0.006 C 
HETATM    2  C6  UNL     1     -33.434  15.885  -4.656  1.00 20.00     0.020 C 
HETATM    3  C7  UNL     1     -34.623  14.946  -2.786  1.00 20.00     0.025 C 
HETATM    4  C8  UNL     1     -34.062  16.320  -2.371  1.00 20.00    -0.009 C 
HETATM    5  C9  UNL     1     -34.564  14.929  -4.313  1.00 20.00     0.082 C 
HETATM    6 CL12 UNL     1     -34.294  13.305  -4.963  1.00 20.00    -0.125 Cl
ENDROOT
BRANCH   4   7
HETATM    7  C10 UNL     1     -35.039  17.135  -1.538  1.00 20.00     0.043 C 
BRANCH   7   8
HETATM    8  C4  UNL     1     -34.375  17.741  -0.330  1.00 20.00    -0.051 A 
HETATM    9  C1  UNL     1     -33.077  18.328  -0.346  1.00 20.00     0.014 A 
HETATM   10  C2  UNL     1     -32.709  18.806   0.891  1.00 20.00     0.050 A 
HETATM   11  S11 UNL     1     -33.926  18.547   2.068  1.00 20.00    -0.113 SA
HETATM   12  C3  UNL     1     -34.950  17.793   0.922  1.00 20.00     0.056 A 
ENDBRANCH   7   8
ENDBRANCH   4   7
TORSDOF 2
ENDMDL
MODEL 6
REMARK VINA RESULT:      -4.4      3.981      6.081
REMARK  2 active torsions:
REMARK  status: ('A' for Active; 'I' for Inactive)
REMARK    1  A    between atoms: C4_4  and  C10_10 
REMARK    2  A    between atoms: C8_8  and  C10_10 
ROOT
HETATM    1  C5  UNL     1     -33.114  18.284  -0.208  1.00 20.00     0.006 C 
HETATM    2  C6  UNL     1     -33.170  19.073   1.092  1.00 20.00     0.020 C 
HETATM    3  C7  UNL     1     -35.196  17.778   0.985  1.00 20.00     0.025 C 
HETATM    4  C8  UNL     1     -34.557  17.806  -0.416  1.00 20.00    -0.009 C 
HETATM    5  C9  UNL     1     -34.089  18.212   1.945  1.00 20.00     0.082 C 
HETATM    6 CL12 UNL     1     -34.713  19.083   3.353  1.00 20.00    -0.125 Cl
ENDROOT
BRANCH   4   7
HETATM    7  C10 UNL     1     -34.628  16.465  -1.130  1.00 20.00     0.043 C 
BRANCH   7   8
HETATM    8  C4  UNL     1     -34.192  16.571  -2.567  1.00 20.00    -0.051 A 
HETATM    9  C1  UNL     1     -33.327  15.637  -3.207  1.00 20.00     0.014 A 
HETATM   10  C2  UNL     1     -33.088  15.968  -4.522  1.00 20.00     0.050 A 
HETATM   11  S11 UNL     1     -33.906  17.402  -4.982  1.00 20.00    -0.113 SA
HETATM   12  C3  UNL     1     -34.582  17.582  -3.419  1.00 20.00     0.056 A 
ENDBRANCH   7   8
ENDBRANCH   4   7
TORSDOF 2
ENDMDL
MODEL 7
REMARK VINA RESULT:      -4.3     13.344     14.999
REMARK  2 active torsions:
REMARK  status: ('A' for Active; 'I' for Inactive)
REMARK    1  A    between atoms: C4_4  and  C10_10 
REMARK    2  A    between atoms: C8_8  and  C10_10 
ROOT
HETATM    1  C5  UNL     1     -41.337   1.987  -4.134  1.00 20.00     0.006 C 
HETATM    2  C6  UNL     1     -41.553   0.482  -4.058  1.00 20.00     0.020 C 
HETATM    3  C7  UNL     1     -43.119   1.481  -2.527  1.00 20.00     0.025 C 
HETATM    4  C8  UNL     1     -42.049   2.529  -2.889  1.00 20.00    -0.009 C 
HETATM    5  C9  UNL     1     -42.999   0.394  -3.594  1.00 20.00     0.082 C 
HETATM    6 CL12 UNL     1     -43.412  -1.212  -2.977  1.00 20.00    -0.125 Cl
ENDROOT
BRANCH   4   7
HETATM    7  C10 UNL     1     -42.627   3.919  -3.109  1.00 20.00     0.043 C 
BRANCH   7   8
HETATM    8  C4  UNL     1     -41.993   4.940  -2.203  1.00 20.00    -0.051 A 
HETATM    9  C1  UNL     1     -41.094   4.616  -1.146  1.00 20.00     0.014 A 
HETATM   10  C2  UNL     1     -40.660   5.737  -0.473  1.00 20.00     0.050 A 
HETATM   11  S11 UNL     1     -41.337   7.173  -1.115  1.00 20.00    -0.113 SA
HETATM   12  C3  UNL     1     -42.212   6.297  -2.297  1.00 20.00     0.056 A 
ENDBRANCH   7   8
ENDBRANCH   4   7
TORSDOF 2
ENDMDL
MODEL 8
REMARK VINA RESULT:      -4.3      3.611      5.669
REMARK  2 active torsions:
REMARK  status: ('A' for Active; 'I' for Inactive)
REMARK    1  A    between atoms: C4_4  and  C10_10 
REMARK    2  A    between atoms: C8_8  and  C10_10 
ROOT
HETATM    1  C5  UNL     1     -33.681  18.111  -2.606  1.00 20.00     0.006 C 
HETATM    2  C6  UNL     1     -34.208  18.589  -1.260  1.00 20.00     0.020 C 
HETATM    3  C7  UNL     1     -34.719  16.241  -1.405  1.00 20.00     0.025 C 
HETATM    4  C8  UNL     1     -34.368  16.755  -2.814  1.00 20.00    -0.009 C 
HETATM    5  C9  UNL     1     -34.195  17.307  -0.443  1.00 20.00     0.082 C 
HETATM    6 CL12 UNL     1     -35.173  17.434   1.026  1.00 20.00    -0.125 Cl
ENDROOT
BRANCH   4   7
HETATM    7  C10 UNL     1     -33.506  15.783  -3.605  1.00 20.00     0.043 C 
BRANCH   7   8
HETATM    8  C4  UNL     1     -34.017  15.595  -5.009  1.00 20.00    -0.051 A 
HETATM    9  C1  UNL     1     -33.946  16.594  -6.022  1.00 20.00     0.014 A 
HETATM   10  C2  UNL     1     -34.485  16.163  -7.213  1.00 20.00     0.050 A 
HETATM   11  S11 UNL     1     -35.074  14.558  -7.109  1.00 20.00    -0.113 SA
HETATM   12  C3  UNL     1     -34.608  14.437  -5.465  1.00 20.00     0.056 A 
ENDBRANCH   7   8
ENDBRANCH   4   7
TORSDOF 2
ENDMDL
MODEL 9
REMARK VINA RESULT:      -4.2      1.676      2.254
REMARK  2 active torsions:
REMARK  status: ('A' for Active; 'I' for Inactive)
REMARK    1  A    between atoms: C4_4  and  C10_10 
REMARK    2  A    between atoms: C8_8  and  C10_10 
ROOT
HETATM    1  C5  UNL     1     -34.557  14.458  -5.871  1.00 20.00     0.006 C 
HETATM    2  C6  UNL     1     -35.893  14.723  -6.551  1.00 20.00     0.020 C 
HETATM    3  C7  UNL     1     -36.364  14.395  -4.214  1.00 20.00     0.025 C 
HETATM    4  C8  UNL     1     -34.944  13.875  -4.506  1.00 20.00    -0.009 C 
HETATM    5  C9  UNL     1     -36.726  15.279  -5.407  1.00 20.00     0.082 C 
HETATM    6 CL12 UNL     1     -38.458  15.262  -5.764  1.00 20.00    -0.125 Cl
ENDROOT
BRANCH   4   7
HETATM    7  C10 UNL     1     -33.943  14.232  -3.418  1.00 20.00     0.043 C 
BRANCH   7   8
HETATM    8  C4  UNL     1     -34.080  15.666  -2.979  1.00 20.00    -0.051 A 
HETATM    9  C1  UNL     1     -34.703  16.069  -1.763  1.00 20.00     0.014 A 
HETATM   10  C2  UNL     1     -34.694  17.437  -1.605  1.00 20.00     0.050 A 
HETATM   11  S11 UNL     1     -33.937  18.230  -2.921  1.00 20.00    -0.113 SA
HETATM   12  C3  UNL     1     -33.619  16.742  -3.705  1.00 20.00     0.056 A 
ENDBRANCH   7   8
ENDBRANCH   4   7
TORSDOF 2
ENDMDL
