MODEL 1
REMARK VINA RESULT:      -5.8      0.000      0.000
REMARK  3 active torsions:
REMARK  status: ('A' for Active; 'I' for Inactive)
REMARK    1  A    between atoms: C1_1  and  C4_4 
REMARK    2  A    between atoms: C1_1  and  C5_5 
REMARK    3  A    between atoms: C5_5  and  C6_6 
ROOT
HETATM    1  C1  UNL     1     -34.416   5.632   3.694  1.00 20.00     0.139 C 
HETATM    2  O7  UNL     1     -34.453   5.134   2.577  1.00 20.00    -0.297 OA
ENDROOT
BRANCH   1   3
HETATM    3  C4  UNL     1     -35.244   5.057   4.794  1.00 20.00     0.056 A 
HETATM    4  C2  UNL     1     -34.719   3.874   5.538  1.00 20.00     0.013 A 
HETATM    5  C3  UNL     1     -34.770   5.218   6.201  1.00 20.00     0.013 A 
ENDBRANCH   1   3
BRANCH   1   6
HETATM    6  C5  UNL     1     -33.572   6.828   4.078  1.00 20.00     0.196 C 
BRANCH   6   7
HETATM    7  C6  UNL     1     -32.250   6.865   3.349  1.00 20.00     0.394 C 
HETATM    8  F8  UNL     1     -32.385   7.370   2.103  1.00 20.00    -0.171 F 
HETATM    9  F9  UNL     1     -31.705   5.634   3.247  1.00 20.00    -0.171 F 
HETATM   10  F10 UNL     1     -31.369   7.647   4.012  1.00 20.00    -0.171 F 
ENDBRANCH   6   7
ENDBRANCH   1   6
TORSDOF 3
ENDMDL
MODEL 2
REMARK VINA RESULT:      -5.5      2.612      3.959
REMARK  3 active torsions:
REMARK  status: ('A' for Active; 'I' for Inactive)
REMARK    1  A    between atoms: C1_1  and  C4_4 
REMARK    2  A    between atoms: C1_1  and  C5_5 
REMARK    3  A    between atoms: C5_5  and  C6_6 
ROOT
HETATM    1  C1  UNL     1     -33.548   5.949   3.535  1.00 20.00     0.139 C 
HETATM    2  O7  UNL     1     -34.284   5.311   2.793  1.00 20.00    -0.297 OA
ENDROOT
BRANCH   1   3
HETATM    3  C4  UNL     1     -32.226   6.431   3.039  1.00 20.00     0.056 A 
HETATM    4  C2  UNL     1     -32.156   7.767   2.377  1.00 20.00     0.013 A 
HETATM    5  C3  UNL     1     -31.574   7.573   3.744  1.00 20.00     0.013 A 
ENDBRANCH   1   3
BRANCH   1   6
HETATM    6  C5  UNL     1     -33.871   6.310   4.968  1.00 20.00     0.196 C 
BRANCH   6   7
HETATM    7  C6  UNL     1     -34.679   5.243   5.669  1.00 20.00     0.394 C 
HETATM    8  F8  UNL     1     -33.970   4.104   5.819  1.00 20.00    -0.171 F 
HETATM    9  F9  UNL     1     -35.809   4.951   4.989  1.00 20.00    -0.171 F 
HETATM   10  F10 UNL     1     -35.043   5.663   6.902  1.00 20.00    -0.171 F 
ENDBRANCH   6   7
ENDBRANCH   1   6
TORSDOF 3
ENDMDL
MODEL 3
REMARK VINA RESULT:      -5.4      1.525      2.033
REMARK  3 active torsions:
REMARK  status: ('A' for Active; 'I' for Inactive)
REMARK    1  A    between atoms: C1_1  and  C4_4 
REMARK    2  A    between atoms: C1_1  and  C5_5 
REMARK    3  A    between atoms: C5_5  and  C6_6 
ROOT
HETATM    1  C1  UNL     1     -33.793   6.261   5.340  1.00 20.00     0.139 C 
HETATM    2  O7  UNL     1     -33.605   6.942   6.340  1.00 20.00    -0.297 OA
ENDROOT
BRANCH   1   3
HETATM    3  C4  UNL     1     -34.049   4.798   5.473  1.00 20.00     0.056 A 
HETATM    4  C2  UNL     1     -35.243   4.350   6.250  1.00 20.00     0.013 A 
HETATM    5  C3  UNL     1     -35.220   4.211   4.758  1.00 20.00     0.013 A 
ENDBRANCH   1   3
BRANCH   1   6
HETATM    6  C5  UNL     1     -33.789   6.790   3.923  1.00 20.00     0.196 C 
BRANCH   6   7
HETATM    7  C6  UNL     1     -32.401   6.856   3.329  1.00 20.00     0.394 C 
HETATM    8  F8  UNL     1     -31.896   5.622   3.113  1.00 20.00    -0.171 F 
HETATM    9  F9  UNL     1     -31.549   7.525   4.136  1.00 20.00    -0.171 F 
HETATM   10  F10 UNL     1     -32.428   7.500   2.141  1.00 20.00    -0.171 F 
ENDBRANCH   6   7
ENDBRANCH   1   6
TORSDOF 3
ENDMDL
MODEL 4
REMARK VINA RESULT:      -5.3      1.507      1.674
REMARK  3 active torsions:
REMARK  status: ('A' for Active; 'I' for Inactive)
REMARK    1  A    between atoms: C1_1  and  C4_4 
REMARK    2  A    between atoms: C1_1  and  C5_5 
REMARK    3  A    between atoms: C5_5  and  C6_6 
ROOT
HETATM    1  C1  UNL     1     -33.916   6.387   5.495  1.00 20.00     0.139 C 
HETATM    2  O7  UNL     1     -33.245   6.913   6.372  1.00 20.00    -0.297 OA
ENDROOT
BRANCH   1   3
HETATM    3  C4  UNL     1     -34.864   5.287   5.840  1.00 20.00     0.056 A 
HETATM    4  C2  UNL     1     -35.276   4.337   4.765  1.00 20.00     0.013 A 
HETATM    5  C3  UNL     1     -34.354   3.885   5.857  1.00 20.00     0.013 A 
ENDBRANCH   1   3
BRANCH   1   6
HETATM    6  C5  UNL     1     -33.872   6.765   4.031  1.00 20.00     0.196 C 
BRANCH   6   7
HETATM    7  C6  UNL     1     -32.470   6.752   3.468  1.00 20.00     0.394 C 
HETATM    8  F8  UNL     1     -32.436   7.244   2.211  1.00 20.00    -0.171 F 
HETATM    9  F9  UNL     1     -31.958   5.502   3.445  1.00 20.00    -0.171 F 
HETATM   10  F10 UNL     1     -31.651   7.514   4.227  1.00 20.00    -0.171 F 
ENDBRANCH   6   7
ENDBRANCH   1   6
TORSDOF 3
ENDMDL
MODEL 5
REMARK VINA RESULT:      -5.3      2.867      3.957
REMARK  3 active torsions:
REMARK  status: ('A' for Active; 'I' for Inactive)
REMARK    1  A    between atoms: C1_1  and  C4_4 
REMARK    2  A    between atoms: C1_1  and  C5_5 
REMARK    3  A    between atoms: C5_5  and  C6_6 
ROOT
HETATM    1  C1  UNL     1     -34.635   5.750   3.848  1.00 20.00     0.139 C 
HETATM    2  O7  UNL     1     -35.784   5.599   3.455  1.00 20.00    -0.297 OA
ENDROOT
BRANCH   1   3
HETATM    3  C4  UNL     1     -33.523   5.900   2.864  1.00 20.00     0.056 A 
HETATM    4  C2  UNL     1     -32.730   7.164   2.870  1.00 20.00     0.013 A 
HETATM    5  C3  UNL     1     -32.119   5.890   3.368  1.00 20.00     0.013 A 
ENDBRANCH   1   3
BRANCH   1   6
HETATM    6  C5  UNL     1     -34.220   5.803   5.302  1.00 20.00     0.196 C 
BRANCH   6   7
HETATM    7  C6  UNL     1     -34.580   4.544   6.056  1.00 20.00     0.394 C 
HETATM    8  F8  UNL     1     -33.628   4.216   6.956  1.00 20.00    -0.171 F 
HETATM    9  F9  UNL     1     -34.748   3.497   5.219  1.00 20.00    -0.171 F 
HETATM   10  F10 UNL     1     -35.738   4.714   6.732  1.00 20.00    -0.171 F 
ENDBRANCH   6   7
ENDBRANCH   1   6
TORSDOF 3
ENDMDL
MODEL 6
REMARK VINA RESULT:      -5.2      2.507      3.828
REMARK  3 active torsions:
REMARK  status: ('A' for Active; 'I' for Inactive)
REMARK    1  A    between atoms: C1_1  and  C4_4 
REMARK    2  A    between atoms: C1_1  and  C5_5 
REMARK    3  A    between atoms: C5_5  and  C6_6 
ROOT
HETATM    1  C1  UNL     1     -34.361   5.549   3.517  1.00 20.00     0.139 C 
HETATM    2  O7  UNL     1     -34.353   4.990   2.428  1.00 20.00    -0.297 OA
ENDROOT
BRANCH   1   3
HETATM    3  C4  UNL     1     -33.297   6.539   3.854  1.00 20.00     0.056 A 
HETATM    4  C2  UNL     1     -31.908   6.288   3.367  1.00 20.00     0.013 A 
HETATM    5  C3  UNL     1     -32.733   7.380   2.757  1.00 20.00     0.013 A 
ENDBRANCH   1   3
BRANCH   1   6
HETATM    6  C5  UNL     1     -35.394   5.320   4.597  1.00 20.00     0.196 C 
BRANCH   6   7
HETATM    7  C6  UNL     1     -34.787   4.812   5.885  1.00 20.00     0.394 C 
HETATM    8  F8  UNL     1     -34.318   5.825   6.644  1.00 20.00    -0.171 F 
HETATM    9  F9  UNL     1     -33.771   3.955   5.649  1.00 20.00    -0.171 F 
HETATM   10  F10 UNL     1     -35.715   4.152   6.614  1.00 20.00    -0.171 F 
ENDBRANCH   6   7
ENDBRANCH   1   6
TORSDOF 3
ENDMDL
MODEL 7
REMARK VINA RESULT:      -4.7      2.652      4.450
REMARK  3 active torsions:
REMARK  status: ('A' for Active; 'I' for Inactive)
REMARK    1  A    between atoms: C1_1  and  C4_4 
REMARK    2  A    between atoms: C1_1  and  C5_5 
REMARK    3  A    between atoms: C5_5  and  C6_6 
ROOT
HETATM    1  C1  UNL     1     -32.044   7.368   2.974  1.00 20.00     0.139 C 
HETATM    2  O7  UNL     1     -31.284   7.921   3.757  1.00 20.00    -0.297 OA
ENDROOT
BRANCH   1   3
HETATM    3  C4  UNL     1     -32.556   8.107   1.783  1.00 20.00     0.056 A 
HETATM    4  C2  UNL     1     -32.437   9.595   1.762  1.00 20.00     0.013 A 
HETATM    5  C3  UNL     1     -31.570   8.758   0.871  1.00 20.00     0.013 A 
ENDBRANCH   1   3
BRANCH   1   6
HETATM    6  C5  UNL     1     -32.532   5.942   3.108  1.00 20.00     0.196 C 
BRANCH   6   7
HETATM    7  C6  UNL     1     -33.894   5.852   3.756  1.00 20.00     0.394 C 
HETATM    8  F8  UNL     1     -33.848   5.152   4.910  1.00 20.00    -0.171 F 
HETATM    9  F9  UNL     1     -34.793   5.260   2.939  1.00 20.00    -0.171 F 
HETATM   10  F10 UNL     1     -34.360   7.087   4.046  1.00 20.00    -0.171 F 
ENDBRANCH   6   7
ENDBRANCH   1   6
TORSDOF 3
ENDMDL
MODEL 8
REMARK VINA RESULT:      -4.5     11.737     12.753
REMARK  3 active torsions:
REMARK  status: ('A' for Active; 'I' for Inactive)
REMARK    1  A    between atoms: C1_1  and  C4_4 
REMARK    2  A    between atoms: C1_1  and  C5_5 
REMARK    3  A    between atoms: C5_5  and  C6_6 
ROOT
HETATM    1  C1  UNL     1     -34.791  13.791  -4.982  1.00 20.00     0.139 C 
HETATM    2  O7  UNL     1     -34.498  12.614  -4.819  1.00 20.00    -0.297 OA
ENDROOT
BRANCH   1   3
HETATM    3  C4  UNL     1     -35.315  14.253  -6.300  1.00 20.00     0.056 A 
HETATM    4  C2  UNL     1     -35.505  15.717  -6.519  1.00 20.00     0.013 A 
HETATM    5  C3  UNL     1     -34.395  14.989  -7.215  1.00 20.00     0.013 A 
ENDBRANCH   1   3
BRANCH   1   6
HETATM    6  C5  UNL     1     -34.665  14.866  -3.925  1.00 20.00     0.196 C 
BRANCH   6   7
HETATM    7  C6  UNL     1     -33.229  15.250  -3.654  1.00 20.00     0.394 C 
HETATM    8  F8  UNL     1     -32.732  16.034  -4.635  1.00 20.00    -0.171 F 
HETATM    9  F9  UNL     1     -32.437  14.161  -3.543  1.00 20.00    -0.171 F 
HETATM   10  F10 UNL     1     -33.137  15.940  -2.495  1.00 20.00    -0.171 F 
ENDBRANCH   6   7
ENDBRANCH   1   6
TORSDOF 3
ENDMDL
MODEL 9
REMARK VINA RESULT:      -4.5      1.945      2.503
REMARK  3 active torsions:
REMARK  status: ('A' for Active; 'I' for Inactive)
REMARK    1  A    between atoms: C1_1  and  C4_4 
REMARK    2  A    between atoms: C1_1  and  C5_5 
REMARK    3  A    between atoms: C5_5  and  C6_6 
ROOT
HETATM    1  C1  UNL     1     -32.542   6.579   3.219  1.00 20.00     0.139 C 
HETATM    2  O7  UNL     1     -32.115   5.501   2.824  1.00 20.00    -0.297 OA
ENDROOT
BRANCH   1   3
HETATM    3  C4  UNL     1     -33.872   6.652   3.890  1.00 20.00     0.056 A 
HETATM    4  C2  UNL     1     -34.814   5.505   3.737  1.00 20.00     0.013 A 
HETATM    5  C3  UNL     1     -34.136   5.751   5.050  1.00 20.00     0.013 A 
ENDBRANCH   1   3
BRANCH   1   6
HETATM    6  C5  UNL     1     -31.813   7.897   3.083  1.00 20.00     0.196 C 
BRANCH   6   7
HETATM    7  C6  UNL     1     -32.112   8.596   1.777  1.00 20.00     0.394 C 
HETATM    8  F8  UNL     1     -32.500   9.874   1.976  1.00 20.00    -0.171 F 
HETATM    9  F9  UNL     1     -33.086   7.962   1.088  1.00 20.00    -0.171 F 
HETATM   10  F10 UNL     1     -31.010   8.621   0.994  1.00 20.00    -0.171 F 
ENDBRANCH   6   7
ENDBRANCH   1   6
TORSDOF 3
ENDMDL
