MODEL 1
REMARK VINA RESULT:      -6.3      0.000      0.000
REMARK  3 active torsions:
REMARK  status: ('A' for Active; 'I' for Inactive)
REMARK    1  A    between atoms: C6_6  and  C9_9 
REMARK    2  A    between atoms: C7_7  and  O10_10 
REMARK    3  A    between atoms: C8_8  and  C9_9 
ROOT
HETATM    1  C1  UNL     1     -32.203   9.151   1.054  1.00 20.00     0.012 C 
HETATM    2  C2  UNL     1     -32.034   8.407   1.981  1.00 20.00    -0.117 C 
HETATM    3  C8  UNL     1     -31.824   7.502   3.118  1.00 20.00     0.093 C 
ENDROOT
BRANCH   3   4
HETATM    4  C9  UNL     1     -32.713   6.276   2.992  1.00 20.00     0.017 C 
BRANCH   4   5
HETATM    5  C6  UNL     1     -33.863   6.332   3.985  1.00 20.00    -0.011 C 
HETATM    6  C3  UNL     1     -33.427   6.050   5.419  1.00 20.00     0.007 C 
HETATM    7  C4  UNL     1     -34.735   5.672   6.100  1.00 20.00     0.032 C 
HETATM    8  C7  UNL     1     -35.428   4.789   5.069  1.00 20.00     0.118 C 
HETATM    9  C5  UNL     1     -34.960   5.294   3.699  1.00 20.00     0.036 C 
BRANCH   8  10
HETATM   10  O10 UNL     1     -35.001   3.440   5.227  1.00 20.00    -0.396 OA
HETATM   11  H24 UNL     1     -34.901   3.074   4.335  1.00 20.00     0.210 HD
ENDBRANCH   8  10
ENDBRANCH   4   5
ENDBRANCH   3   4
TORSDOF 3
ENDMDL
MODEL 2
REMARK VINA RESULT:      -5.4     10.976     11.973
REMARK  3 active torsions:
REMARK  status: ('A' for Active; 'I' for Inactive)
REMARK    1  A    between atoms: C6_6  and  C9_9 
REMARK    2  A    between atoms: C7_7  and  O10_10 
REMARK    3  A    between atoms: C8_8  and  C9_9 
ROOT
HETATM    1  C1  UNL     1     -34.739  17.404   0.239  1.00 20.00     0.012 C 
HETATM    2  C2  UNL     1     -34.744  16.732  -0.756  1.00 20.00    -0.117 C 
HETATM    3  C8  UNL     1     -34.754  15.910  -1.973  1.00 20.00     0.093 C 
ENDROOT
BRANCH   3   4
HETATM    4  C9  UNL     1     -33.586  16.276  -2.872  1.00 20.00     0.017 C 
BRANCH   4   5
HETATM    5  C6  UNL     1     -33.541  15.381  -4.100  1.00 20.00    -0.011 C 
HETATM    6  C3  UNL     1     -34.788  15.501  -4.972  1.00 20.00     0.007 C 
HETATM    7  C4  UNL     1     -34.745  14.224  -5.797  1.00 20.00     0.032 C 
HETATM    8  C7  UNL     1     -34.325  13.163  -4.786  1.00 20.00     0.118 C 
HETATM    9  C5  UNL     1     -33.447  13.886  -3.758  1.00 20.00     0.036 C 
BRANCH   8  10
HETATM   10  O10 UNL     1     -35.475  12.650  -4.122  1.00 20.00    -0.396 OA
HETATM   11  H24 UNL     1     -36.214  12.728  -4.745  1.00 20.00     0.210 HD
ENDBRANCH   8  10
ENDBRANCH   4   5
ENDBRANCH   3   4
TORSDOF 3
ENDMDL
MODEL 3
REMARK VINA RESULT:      -4.8      1.038      1.636
REMARK  3 active torsions:
REMARK  status: ('A' for Active; 'I' for Inactive)
REMARK    1  A    between atoms: C6_6  and  C9_9 
REMARK    2  A    between atoms: C7_7  and  O10_10 
REMARK    3  A    between atoms: C8_8  and  C9_9 
ROOT
HETATM    1  C1  UNL     1     -32.174   9.418   0.927  1.00 20.00     0.012 C 
HETATM    2  C2  UNL     1     -32.178   8.529   1.734  1.00 20.00    -0.117 C 
HETATM    3  C8  UNL     1     -32.176   7.442   2.721  1.00 20.00     0.093 C 
ENDROOT
BRANCH   3   4
HETATM    4  C9  UNL     1     -33.562   7.263   3.317  1.00 20.00     0.017 C 
BRANCH   4   5
HETATM    5  C6  UNL     1     -33.759   5.845   3.828  1.00 20.00    -0.011 C 
HETATM    6  C3  UNL     1     -35.208   5.376   3.742  1.00 20.00     0.007 C 
HETATM    7  C4  UNL     1     -35.243   4.211   4.721  1.00 20.00     0.032 C 
HETATM    8  C7  UNL     1     -34.418   4.715   5.900  1.00 20.00     0.118 C 
HETATM    9  C5  UNL     1     -33.381   5.676   5.309  1.00 20.00     0.036 C 
BRANCH   8  10
HETATM   10  O10 UNL     1     -35.254   5.442   6.796  1.00 20.00    -0.396 OA
HETATM   11  H24 UNL     1     -36.145   5.069   6.708  1.00 20.00     0.210 HD
ENDBRANCH   8  10
ENDBRANCH   4   5
ENDBRANCH   3   4
TORSDOF 3
ENDMDL
MODEL 4
REMARK VINA RESULT:      -4.8     11.439     12.289
REMARK  3 active torsions:
REMARK  status: ('A' for Active; 'I' for Inactive)
REMARK    1  A    between atoms: C6_6  and  C9_9 
REMARK    2  A    between atoms: C7_7  and  O10_10 
REMARK    3  A    between atoms: C8_8  and  C9_9 
ROOT
HETATM    1  C1  UNL     1     -34.924  17.388   0.391  1.00 20.00     0.012 C 
HETATM    2  C2  UNL     1     -34.683  16.836  -0.647  1.00 20.00    -0.117 C 
HETATM    3  C8  UNL     1     -34.383  16.158  -1.915  1.00 20.00     0.093 C 
ENDROOT
BRANCH   3   4
HETATM    4  C9  UNL     1     -35.618  16.112  -2.798  1.00 20.00     0.017 C 
BRANCH   4   5
HETATM    5  C6  UNL     1     -35.653  14.835  -3.622  1.00 20.00    -0.011 C 
HETATM    6  C3  UNL     1     -34.336  14.066  -3.587  1.00 20.00     0.007 C 
HETATM    7  C4  UNL     1     -34.438  13.168  -4.811  1.00 20.00     0.032 C 
HETATM    8  C7  UNL     1     -35.039  14.084  -5.872  1.00 20.00     0.118 C 
HETATM    9  C5  UNL     1     -35.920  15.084  -5.115  1.00 20.00     0.036 C 
BRANCH   8  10
HETATM   10  O10 UNL     1     -34.001  14.801  -6.532  1.00 20.00    -0.396 OA
HETATM   11  H24 UNL     1     -34.412  15.587  -6.923  1.00 20.00     0.210 HD
ENDBRANCH   8  10
ENDBRANCH   4   5
ENDBRANCH   3   4
TORSDOF 3
ENDMDL
MODEL 5
REMARK VINA RESULT:      -4.5     11.041     12.213
REMARK  3 active torsions:
REMARK  status: ('A' for Active; 'I' for Inactive)
REMARK    1  A    between atoms: C6_6  and  C9_9 
REMARK    2  A    between atoms: C7_7  and  O10_10 
REMARK    3  A    between atoms: C8_8  and  C9_9 
ROOT
HETATM    1  C1  UNL     1     -33.691  19.201  -2.986  1.00 20.00     0.012 C 
HETATM    2  C2  UNL     1     -33.700  18.227  -2.284  1.00 20.00    -0.117 C 
HETATM    3  C8  UNL     1     -33.710  17.039  -1.421  1.00 20.00     0.093 C 
ENDROOT
BRANCH   3   4
HETATM    4  C9  UNL     1     -34.778  16.060  -1.876  1.00 20.00     0.017 C 
BRANCH   4   5
HETATM    5  C6  UNL     1     -34.561  15.648  -3.323  1.00 20.00    -0.011 C 
HETATM    6  C3  UNL     1     -35.863  15.523  -4.110  1.00 20.00     0.007 C 
HETATM    7  C4  UNL     1     -35.458  14.658  -5.295  1.00 20.00     0.032 C 
HETATM    8  C7  UNL     1     -34.557  13.599  -4.669  1.00 20.00     0.118 C 
HETATM    9  C5  UNL     1     -33.885  14.275  -3.468  1.00 20.00     0.036 C 
BRANCH   8  10
HETATM   10  O10 UNL     1     -35.349  12.514  -4.196  1.00 20.00    -0.396 OA
HETATM   11  H24 UNL     1     -35.639  12.751  -3.301  1.00 20.00     0.210 HD
ENDBRANCH   8  10
ENDBRANCH   4   5
ENDBRANCH   3   4
TORSDOF 3
ENDMDL
MODEL 6
REMARK VINA RESULT:      -4.4     11.751     12.905
REMARK  3 active torsions:
REMARK  status: ('A' for Active; 'I' for Inactive)
REMARK    1  A    between atoms: C6_6  and  C9_9 
REMARK    2  A    between atoms: C7_7  and  O10_10 
REMARK    3  A    between atoms: C8_8  and  C9_9 
ROOT
HETATM    1  C1  UNL     1     -34.789  16.980  -0.333  1.00 20.00     0.012 C 
HETATM    2  C2  UNL     1     -34.313  16.649  -1.384  1.00 20.00    -0.117 C 
HETATM    3  C8  UNL     1     -33.726  16.246  -2.669  1.00 20.00     0.093 C 
ENDROOT
BRANCH   3   4
HETATM    4  C9  UNL     1     -34.325  14.931  -3.138  1.00 20.00     0.017 C 
BRANCH   4   5
HETATM    5  C6  UNL     1     -34.014  14.683  -4.605  1.00 20.00    -0.011 C 
HETATM    6  C3  UNL     1     -34.032  15.958  -5.443  1.00 20.00     0.007 C 
HETATM    7  C4  UNL     1     -34.198  15.427  -6.859  1.00 20.00     0.032 C 
HETATM    8  C7  UNL     1     -35.228  14.314  -6.702  1.00 20.00     0.118 C 
HETATM    9  C5  UNL     1     -35.028  13.752  -5.290  1.00 20.00     0.036 C 
BRANCH   8  10
HETATM   10  O10 UNL     1     -36.542  14.858  -6.793  1.00 20.00    -0.396 OA
HETATM   11  H24 UNL     1     -36.749  15.228  -5.921  1.00 20.00     0.210 HD
ENDBRANCH   8  10
ENDBRANCH   4   5
ENDBRANCH   3   4
TORSDOF 3
ENDMDL
MODEL 7
REMARK VINA RESULT:      -4.4      9.590     10.578
REMARK  3 active torsions:
REMARK  status: ('A' for Active; 'I' for Inactive)
REMARK    1  A    between atoms: C6_6  and  C9_9 
REMARK    2  A    between atoms: C7_7  and  O10_10 
REMARK    3  A    between atoms: C8_8  and  C9_9 
ROOT
HETATM    1  C1  UNL     1     -41.724   9.183  -5.458  1.00 20.00     0.012 C 
HETATM    2  C2  UNL     1     -42.439   8.524  -4.755  1.00 20.00    -0.117 C 
HETATM    3  C8  UNL     1     -43.315   7.714  -3.899  1.00 20.00     0.093 C 
ENDROOT
BRANCH   3   4
HETATM    4  C9  UNL     1     -42.876   7.809  -2.448  1.00 20.00     0.017 C 
BRANCH   4   5
HETATM    5  C6  UNL     1     -41.722   6.861  -2.163  1.00 20.00    -0.011 C 
HETATM    6  C3  UNL     1     -42.138   5.393  -2.178  1.00 20.00     0.007 C 
HETATM    7  C4  UNL     1     -41.013   4.717  -1.409  1.00 20.00     0.032 C 
HETATM    8  C7  UNL     1     -40.749   5.674  -0.252  1.00 20.00     0.118 C 
HETATM    9  C5  UNL     1     -41.091   7.073  -0.777  1.00 20.00     0.036 C 
BRANCH   8  10
HETATM   10  O10 UNL     1     -41.622   5.369   0.832  1.00 20.00    -0.396 OA
HETATM   11  H24 UNL     1     -42.393   5.950   0.739  1.00 20.00     0.210 HD
ENDBRANCH   8  10
ENDBRANCH   4   5
ENDBRANCH   3   4
TORSDOF 3
ENDMDL
MODEL 8
REMARK VINA RESULT:      -4.2     11.602     12.757
REMARK  3 active torsions:
REMARK  status: ('A' for Active; 'I' for Inactive)
REMARK    1  A    between atoms: C6_6  and  C9_9 
REMARK    2  A    between atoms: C7_7  and  O10_10 
REMARK    3  A    between atoms: C8_8  and  C9_9 
ROOT
HETATM    1  C1  UNL     1     -36.079  14.855  -7.714  1.00 20.00     0.012 C 
HETATM    2  C2  UNL     1     -36.394  15.063  -6.574  1.00 20.00    -0.117 C 
HETATM    3  C8  UNL     1     -36.782  15.320  -5.181  1.00 20.00     0.093 C 
ENDROOT
BRANCH   3   4
HETATM    4  C9  UNL     1     -36.382  14.154  -4.294  1.00 20.00     0.017 C 
BRANCH   4   5
HETATM    5  C6  UNL     1     -35.190  14.515  -3.421  1.00 20.00    -0.011 C 
HETATM    6  C3  UNL     1     -35.050  16.017  -3.195  1.00 20.00     0.007 C 
HETATM    7  C4  UNL     1     -33.598  16.157  -2.762  1.00 20.00     0.032 C 
HETATM    8  C7  UNL     1     -32.856  15.208  -3.696  1.00 20.00     0.118 C 
HETATM    9  C5  UNL     1     -33.845  14.083  -4.025  1.00 20.00     0.036 C 
BRANCH   8  10
HETATM   10  O10 UNL     1     -32.521  15.887  -4.903  1.00 20.00    -0.396 OA
HETATM   11  H24 UNL     1     -31.848  16.545  -4.673  1.00 20.00     0.210 HD
ENDBRANCH   8  10
ENDBRANCH   4   5
ENDBRANCH   3   4
TORSDOF 3
ENDMDL
MODEL 9
REMARK VINA RESULT:      -4.2     11.097     12.209
REMARK  3 active torsions:
REMARK  status: ('A' for Active; 'I' for Inactive)
REMARK    1  A    between atoms: C6_6  and  C9_9 
REMARK    2  A    between atoms: C7_7  and  O10_10 
REMARK    3  A    between atoms: C8_8  and  C9_9 
ROOT
HETATM    1  C1  UNL     1     -34.405  15.135  -7.020  1.00 20.00     0.012 C 
HETATM    2  C2  UNL     1     -34.633  14.322  -6.167  1.00 20.00    -0.117 C 
HETATM    3  C8  UNL     1     -34.913  13.324  -5.126  1.00 20.00     0.093 C 
ENDROOT
BRANCH   3   4
HETATM    4  C9  UNL     1     -34.349  13.777  -3.790  1.00 20.00     0.017 C 
BRANCH   4   5
HETATM    5  C6  UNL     1     -34.505  15.278  -3.612  1.00 20.00    -0.011 C 
HETATM    6  C3  UNL     1     -33.267  15.940  -3.013  1.00 20.00     0.007 C 
HETATM    7  C4  UNL     1     -33.813  17.258  -2.484  1.00 20.00     0.032 C 
HETATM    8  C7  UNL     1     -35.144  16.862  -1.855  1.00 20.00     0.118 C 
HETATM    9  C5  UNL     1     -35.650  15.660  -2.660  1.00 20.00     0.036 C 
BRANCH   8  10
HETATM   10  O10 UNL     1     -34.936  16.452  -0.507  1.00 20.00    -0.396 OA
HETATM   11  H24 UNL     1     -35.043  15.488  -0.491  1.00 20.00     0.210 HD
ENDBRANCH   8  10
ENDBRANCH   4   5
ENDBRANCH   3   4
TORSDOF 3
ENDMDL
