MODEL 1
REMARK VINA RESULT:      -4.2      0.000      0.000
REMARK  1 active torsions:
REMARK  status: ('A' for Active; 'I' for Inactive)
REMARK    1  A    between atoms: C6_6  and  C7_7 
ROOT
HETATM    1  C3  UNL     1     -33.318   6.410   5.666  1.00 20.00     0.006 C 
HETATM    2  C4  UNL     1     -34.641   5.946   6.279  1.00 20.00     0.020 C 
HETATM    3  C5  UNL     1     -34.823   5.565   3.941  1.00 20.00     0.025 C 
HETATM    4  C7  UNL     1     -33.392   6.065   4.170  1.00 20.00    -0.009 C 
HETATM    5  C8  UNL     1     -35.231   4.960   5.278  1.00 20.00     0.082 C 
HETATM    6 CL9  UNL     1     -34.519   3.335   5.492  1.00 20.00    -0.125 Cl
ENDROOT
BRANCH   4   7
HETATM    7  C6  UNL     1     -33.029   7.237   3.270  1.00 20.00    -0.010 A 
HETATM    8  C1  UNL     1     -31.672   7.875   3.366  1.00 20.00     0.005 A 
HETATM    9  C2  UNL     1     -32.033   7.057   2.158  1.00 20.00     0.005 A 
ENDBRANCH   4   7
TORSDOF 1
ENDMDL
MODEL 2
REMARK VINA RESULT:      -4.2     11.884     13.503
REMARK  1 active torsions:
REMARK  status: ('A' for Active; 'I' for Inactive)
REMARK    1  A    between atoms: C6_6  and  C7_7 
ROOT
HETATM    1  C3  UNL     1     -34.433  13.731  -4.904  1.00 20.00     0.006 C 
HETATM    2  C4  UNL     1     -33.399  13.777  -3.776  1.00 20.00     0.020 C 
HETATM    3  C5  UNL     1     -33.367  15.924  -4.795  1.00 20.00     0.025 C 
HETATM    4  C7  UNL     1     -34.491  15.149  -5.494  1.00 20.00    -0.009 C 
HETATM    5  C8  UNL     1     -33.235  15.253  -3.434  1.00 20.00     0.082 C 
HETATM    6 CL9  UNL     1     -34.525  15.794  -2.323  1.00 20.00    -0.125 Cl
ENDROOT
BRANCH   4   7
HETATM    7  C6  UNL     1     -34.362  15.170  -7.009  1.00 20.00    -0.010 A 
HETATM    8  C1  UNL     1     -35.412  14.521  -7.868  1.00 20.00     0.005 A 
HETATM    9  C2  UNL     1     -35.288  16.019  -7.836  1.00 20.00     0.005 A 
ENDBRANCH   4   7
TORSDOF 1
ENDMDL
MODEL 3
REMARK VINA RESULT:      -4.2     11.787     12.449
REMARK  1 active torsions:
REMARK  status: ('A' for Active; 'I' for Inactive)
REMARK    1  A    between atoms: C6_6  and  C7_7 
ROOT
HETATM    1  C3  UNL     1     -33.288  14.896  -3.356  1.00 20.00     0.006 C 
HETATM    2  C4  UNL     1     -33.598  13.546  -4.007  1.00 20.00     0.020 C 
HETATM    3  C5  UNL     1     -35.697  14.580  -3.591  1.00 20.00     0.025 C 
HETATM    4  C7  UNL     1     -34.638  15.612  -3.185  1.00 20.00    -0.009 C 
HETATM    5  C8  UNL     1     -34.990  13.693  -4.608  1.00 20.00     0.082 C 
HETATM    6 CL9  UNL     1     -34.911  14.487  -6.207  1.00 20.00    -0.125 Cl
ENDROOT
BRANCH   4   7
HETATM    7  C6  UNL     1     -34.853  16.150  -1.778  1.00 20.00    -0.010 A 
HETATM    8  C1  UNL     1     -33.910  17.171  -1.205  1.00 20.00     0.005 A 
HETATM    9  C2  UNL     1     -35.313  17.566  -1.572  1.00 20.00     0.005 A 
ENDBRANCH   4   7
TORSDOF 1
ENDMDL
MODEL 4
REMARK VINA RESULT:      -4.1      2.439      4.106
REMARK  1 active torsions:
REMARK  status: ('A' for Active; 'I' for Inactive)
REMARK    1  A    between atoms: C6_6  and  C7_7 
ROOT
HETATM    1  C3  UNL     1     -32.703   7.305   4.827  1.00 20.00     0.006 C 
HETATM    2  C4  UNL     1     -31.423   7.660   4.065  1.00 20.00     0.020 C 
HETATM    3  C5  UNL     1     -32.652   6.194   2.655  1.00 20.00     0.025 C 
HETATM    4  C7  UNL     1     -33.548   6.445   3.873  1.00 20.00    -0.009 C 
HETATM    5  C8  UNL     1     -31.743   7.415   2.595  1.00 20.00     0.082 C 
HETATM    6 CL9  UNL     1     -32.596   8.817   1.889  1.00 20.00    -0.125 Cl
ENDROOT
BRANCH   4   7
HETATM    7  C6  UNL     1     -34.041   5.156   4.513  1.00 20.00    -0.010 A 
HETATM    8  C1  UNL     1     -34.724   5.188   5.852  1.00 20.00     0.005 A 
HETATM    9  C2  UNL     1     -35.515   4.876   4.612  1.00 20.00     0.005 A 
ENDBRANCH   4   7
TORSDOF 1
ENDMDL
MODEL 5
REMARK VINA RESULT:      -4.0     11.879     12.675
REMARK  1 active torsions:
REMARK  status: ('A' for Active; 'I' for Inactive)
REMARK    1  A    between atoms: C6_6  and  C7_7 
ROOT
HETATM    1  C3  UNL     1     -35.684  16.319  -3.450  1.00 20.00     0.006 C 
HETATM    2  C4  UNL     1     -35.217  15.858  -4.833  1.00 20.00     0.020 C 
HETATM    3  C5  UNL     1     -33.525  15.189  -3.304  1.00 20.00     0.025 C 
HETATM    4  C7  UNL     1     -34.644  15.793  -2.447  1.00 20.00    -0.009 C 
HETATM    5  C8  UNL     1     -34.229  14.727  -4.573  1.00 20.00     0.082 C 
HETATM    6 CL9  UNL     1     -35.087  13.183  -4.307  1.00 20.00    -0.125 Cl
ENDROOT
BRANCH   4   7
HETATM    7  C6  UNL     1     -34.138  16.867  -1.495  1.00 20.00    -0.010 A 
HETATM    8  C1  UNL     1     -34.997  18.057  -1.170  1.00 20.00     0.005 A 
HETATM    9  C2  UNL     1     -34.740  17.008  -0.125  1.00 20.00     0.005 A 
ENDBRANCH   4   7
TORSDOF 1
ENDMDL
MODEL 6
REMARK VINA RESULT:      -3.9     12.163     13.185
REMARK  1 active torsions:
REMARK  status: ('A' for Active; 'I' for Inactive)
REMARK    1  A    between atoms: C6_6  and  C7_7 
ROOT
HETATM    1  C3  UNL     1     -33.776  17.235  -3.987  1.00 20.00     0.006 C 
HETATM    2  C4  UNL     1     -33.350  16.280  -5.104  1.00 20.00     0.020 C 
HETATM    3  C5  UNL     1     -34.169  14.914  -3.340  1.00 20.00     0.025 C 
HETATM    4  C7  UNL     1     -34.406  16.361  -2.890  1.00 20.00    -0.009 C 
HETATM    5  C8  UNL     1     -34.130  14.994  -4.861  1.00 20.00     0.082 C 
HETATM    6 CL9  UNL     1     -35.778  15.112  -5.541  1.00 20.00    -0.125 Cl
ENDROOT
BRANCH   4   7
HETATM    7  C6  UNL     1     -33.841  16.643  -1.506  1.00 20.00    -0.010 A 
HETATM    8  C1  UNL     1     -33.839  18.044  -0.960  1.00 20.00     0.005 A 
HETATM    9  C2  UNL     1     -34.760  17.010  -0.374  1.00 20.00     0.005 A 
ENDBRANCH   4   7
TORSDOF 1
ENDMDL
MODEL 7
REMARK VINA RESULT:      -3.9     11.827     12.926
REMARK  1 active torsions:
REMARK  status: ('A' for Active; 'I' for Inactive)
REMARK    1  A    between atoms: C6_6  and  C7_7 
ROOT
HETATM    1  C3  UNL     1     -33.757  17.381  -3.324  1.00 20.00     0.006 C 
HETATM    2  C4  UNL     1     -34.429  18.488  -2.507  1.00 20.00     0.020 C 
HETATM    3  C5  UNL     1     -34.644  16.496  -1.229  1.00 20.00     0.025 C 
HETATM    4  C7  UNL     1     -33.800  16.116  -2.451  1.00 20.00    -0.009 C 
HETATM    5  C8  UNL     1     -34.419  17.994  -1.066  1.00 20.00     0.082 C 
HETATM    6 CL9  UNL     1     -32.844  18.326  -0.291  1.00 20.00    -0.125 Cl
ENDROOT
BRANCH   4   7
HETATM    7  C6  UNL     1     -34.349  14.903  -3.188  1.00 20.00    -0.010 A 
HETATM    8  C1  UNL     1     -34.197  14.789  -4.679  1.00 20.00     0.005 A 
HETATM    9  C2  UNL     1     -33.411  13.884  -3.772  1.00 20.00     0.005 A 
ENDBRANCH   4   7
TORSDOF 1
ENDMDL
MODEL 8
REMARK VINA RESULT:      -3.8      9.664     11.007
REMARK  1 active torsions:
REMARK  status: ('A' for Active; 'I' for Inactive)
REMARK    1  A    between atoms: C6_6  and  C7_7 
ROOT
HETATM    1  C3  UNL     1     -40.905   4.412  -1.303  1.00 20.00     0.006 C 
HETATM    2  C4  UNL     1     -41.024   5.885  -0.905  1.00 20.00     0.020 C 
HETATM    3  C5  UNL     1     -43.170   5.232  -1.689  1.00 20.00     0.025 C 
HETATM    4  C7  UNL     1     -42.317   3.959  -1.708  1.00 20.00    -0.009 C 
HETATM    5  C8  UNL     1     -42.507   6.117  -0.641  1.00 20.00     0.082 C 
HETATM    6 CL9  UNL     1     -42.947   5.597   1.011  1.00 20.00    -0.125 Cl
ENDROOT
BRANCH   4   7
HETATM    7  C6  UNL     1     -42.352   3.250  -3.053  1.00 20.00    -0.010 A 
HETATM    8  C1  UNL     1     -41.290   2.247  -3.409  1.00 20.00     0.005 A 
HETATM    9  C2  UNL     1     -42.694   1.787  -3.129  1.00 20.00     0.005 A 
ENDBRANCH   4   7
TORSDOF 1
ENDMDL
MODEL 9
REMARK VINA RESULT:      -3.8     12.375     13.548
REMARK  1 active torsions:
REMARK  status: ('A' for Active; 'I' for Inactive)
REMARK    1  A    between atoms: C6_6  and  C7_7 
ROOT
HETATM    1  C3  UNL     1     -34.247  16.221  -5.501  1.00 20.00     0.006 C 
HETATM    2  C4  UNL     1     -34.202  15.369  -6.772  1.00 20.00     0.020 C 
HETATM    3  C5  UNL     1     -35.252  14.031  -5.113  1.00 20.00     0.025 C 
HETATM    4  C7  UNL     1     -35.021  15.399  -4.459  1.00 20.00    -0.009 C 
HETATM    5  C8  UNL     1     -35.304  14.331  -6.606  1.00 20.00     0.082 C 
HETATM    6 CL9  UNL     1     -36.891  15.008  -7.071  1.00 20.00    -0.125 Cl
ENDROOT
BRANCH   4   7
HETATM    7  C6  UNL     1     -34.298  15.295  -3.124  1.00 20.00    -0.010 A 
HETATM    8  C1  UNL     1     -33.627  16.502  -2.530  1.00 20.00     0.005 A 
HETATM    9  C2  UNL     1     -34.873  15.948  -1.898  1.00 20.00     0.005 A 
ENDBRANCH   4   7
TORSDOF 1
ENDMDL
