MODEL 1
REMARK VINA RESULT:      -4.9      0.000      0.000
REMARK  6 active torsions:
REMARK  status: ('A' for Active; 'I' for Inactive)
REMARK    1  A    between atoms: C1_1  and  C4_4 
REMARK    2  A    between atoms: C1_1  and  C8_8 
REMARK    3  A    between atoms: C8_8  and  C9_9 
REMARK    4  A    between atoms: C9_9  and  C10_10 
REMARK    5  A    between atoms: C10_10  and  C11_11 
REMARK    6  A    between atoms: C11_11  and  C12_12 
ROOT
HETATM    1  C9  UNL     1     -34.626  15.223  -2.826  1.00 20.00     0.007 C 
ENDROOT
BRANCH   1   2
HETATM    2  C8  UNL     1     -33.757  14.663  -3.951  1.00 20.00     0.079 C 
BRANCH   2   3
HETATM    3  C1  UNL     1     -34.504  13.736  -4.886  1.00 20.00     0.131 C 
HETATM    4  O13 UNL     1     -34.907  12.619  -4.584  1.00 20.00    -0.298 OA
BRANCH   3   5
HETATM    5  C4  UNL     1     -34.710  14.252  -6.270  1.00 20.00     0.055 A 
HETATM    6  C2  UNL     1     -35.691  15.357  -6.481  1.00 20.00     0.013 A 
HETATM    7  C3  UNL     1     -34.220  15.622  -6.600  1.00 20.00     0.013 A 
ENDBRANCH   3   5
ENDBRANCH   2   3
ENDBRANCH   1   2
BRANCH   1   8
HETATM    8  C10 UNL     1     -33.979  16.428  -2.132  1.00 20.00     0.001 C 
BRANCH   8   9
HETATM    9  C11 UNL     1     -34.603  16.665  -0.751  1.00 20.00     0.008 C 
BRANCH   9  10
HETATM   10  C12 UNL     1     -34.335  18.058  -0.119  1.00 20.00    -0.051 C 
HETATM   11  C5  UNL     1     -35.236  19.087  -0.831  1.00 20.00     0.014 C 
HETATM   12  C6  UNL     1     -32.869  18.482  -0.306  1.00 20.00     0.014 C 
HETATM   13  C7  UNL     1     -34.678  18.065   1.380  1.00 20.00     0.014 C 
ENDBRANCH   9  10
ENDBRANCH   8   9
ENDBRANCH   1   8
TORSDOF 6
ENDMDL
MODEL 2
REMARK VINA RESULT:      -4.9      0.684      1.420
REMARK  6 active torsions:
REMARK  status: ('A' for Active; 'I' for Inactive)
REMARK    1  A    between atoms: C1_1  and  C4_4 
REMARK    2  A    between atoms: C1_1  and  C8_8 
REMARK    3  A    between atoms: C8_8  and  C9_9 
REMARK    4  A    between atoms: C9_9  and  C10_10 
REMARK    5  A    between atoms: C10_10  and  C11_11 
REMARK    6  A    between atoms: C11_11  and  C12_12 
ROOT
HETATM    1  C9  UNL     1     -33.682  14.994  -3.270  1.00 20.00     0.007 C 
ENDROOT
BRANCH   1   2
HETATM    2  C8  UNL     1     -35.069  14.665  -3.819  1.00 20.00     0.079 C 
BRANCH   2   3
HETATM    3  C1  UNL     1     -35.047  13.663  -4.954  1.00 20.00     0.131 C 
HETATM    4  O13 UNL     1     -34.775  12.475  -4.829  1.00 20.00    -0.298 OA
BRANCH   3   5
HETATM    5  C4  UNL     1     -35.354  14.218  -6.305  1.00 20.00     0.055 A 
HETATM    6  C2  UNL     1     -35.615  15.682  -6.432  1.00 20.00     0.013 A 
HETATM    7  C3  UNL     1     -34.341  15.096  -6.960  1.00 20.00     0.013 A 
ENDBRANCH   3   5
ENDBRANCH   2   3
ENDBRANCH   1   2
BRANCH   1   8
HETATM    8  C10 UNL     1     -33.644  16.344  -2.545  1.00 20.00     0.001 C 
BRANCH   8   9
HETATM    9  C11 UNL     1     -34.643  16.370  -1.380  1.00 20.00     0.008 C 
BRANCH   9  10
HETATM   10  C12 UNL     1     -34.655  17.670  -0.531  1.00 20.00    -0.051 C 
HETATM   11  C5  UNL     1     -33.207  18.191  -0.432  1.00 20.00     0.014 C 
HETATM   12  C6  UNL     1     -35.173  17.401   0.892  1.00 20.00     0.014 C 
HETATM   13  C7  UNL     1     -35.521  18.756  -1.188  1.00 20.00     0.014 C 
ENDBRANCH   9  10
ENDBRANCH   8   9
ENDBRANCH   1   8
TORSDOF 6
ENDMDL
MODEL 3
REMARK VINA RESULT:      -4.8      1.869      5.672
REMARK  6 active torsions:
REMARK  status: ('A' for Active; 'I' for Inactive)
REMARK    1  A    between atoms: C1_1  and  C4_4 
REMARK    2  A    between atoms: C1_1  and  C8_8 
REMARK    3  A    between atoms: C8_8  and  C9_9 
REMARK    4  A    between atoms: C9_9  and  C10_10 
REMARK    5  A    between atoms: C10_10  and  C11_11 
REMARK    6  A    between atoms: C11_11  and  C12_12 
ROOT
HETATM    1  C9  UNL     1     -34.075  13.745  -3.492  1.00 20.00     0.007 C 
ENDROOT
BRANCH   1   2
HETATM    2  C8  UNL     1     -33.169  14.951  -3.737  1.00 20.00     0.079 C 
BRANCH   2   3
HETATM    3  C1  UNL     1     -33.717  16.243  -3.170  1.00 20.00     0.131 C 
HETATM    4  O13 UNL     1     -33.533  17.352  -3.658  1.00 20.00    -0.298 OA
BRANCH   3   5
HETATM    5  C4  UNL     1     -34.502  16.107  -1.908  1.00 20.00     0.055 A 
HETATM    6  C2  UNL     1     -34.215  17.047  -0.785  1.00 20.00     0.013 A 
HETATM    7  C3  UNL     1     -35.488  17.173  -1.565  1.00 20.00     0.013 A 
ENDBRANCH   3   5
ENDBRANCH   2   3
ENDBRANCH   1   2
BRANCH   1   8
HETATM    8  C10 UNL     1     -35.201  13.639  -4.527  1.00 20.00     0.001 C 
BRANCH   8   9
HETATM    9  C11 UNL     1     -34.702  14.033  -5.923  1.00 20.00     0.008 C 
BRANCH   9  10
HETATM   10  C12 UNL     1     -35.460  15.204  -6.606  1.00 20.00    -0.051 C 
HETATM   11  C5  UNL     1     -36.563  15.686  -5.642  1.00 20.00     0.014 C 
HETATM   12  C6  UNL     1     -36.122  14.750  -7.917  1.00 20.00     0.014 C 
HETATM   13  C7  UNL     1     -34.517  16.383  -6.896  1.00 20.00     0.014 C 
ENDBRANCH   9  10
ENDBRANCH   8   9
ENDBRANCH   1   8
TORSDOF 6
ENDMDL
MODEL 4
REMARK VINA RESULT:      -4.6     11.433     12.411
REMARK  6 active torsions:
REMARK  status: ('A' for Active; 'I' for Inactive)
REMARK    1  A    between atoms: C1_1  and  C4_4 
REMARK    2  A    between atoms: C1_1  and  C8_8 
REMARK    3  A    between atoms: C8_8  and  C9_9 
REMARK    4  A    between atoms: C9_9  and  C10_10 
REMARK    5  A    between atoms: C10_10  and  C11_11 
REMARK    6  A    between atoms: C11_11  and  C12_12 
ROOT
HETATM    1  C9  UNL     1     -33.716   5.558   2.674  1.00 20.00     0.007 C 
ENDROOT
BRANCH   1   2
HETATM    2  C8  UNL     1     -32.291   5.907   3.102  1.00 20.00     0.079 C 
BRANCH   2   3
HETATM    3  C1  UNL     1     -31.985   7.388   3.031  1.00 20.00     0.131 C 
HETATM    4  O13 UNL     1     -31.333   8.005   3.864  1.00 20.00    -0.298 OA
BRANCH   3   5
HETATM    5  C4  UNL     1     -32.567   8.107   1.860  1.00 20.00     0.055 A 
HETATM    6  C2  UNL     1     -32.453   9.594   1.808  1.00 20.00     0.013 A 
HETATM    7  C3  UNL     1     -31.637   8.743   0.882  1.00 20.00     0.013 A 
ENDBRANCH   3   5
ENDBRANCH   2   3
ENDBRANCH   1   2
BRANCH   1   8
HETATM    8  C10 UNL     1     -34.768   6.085   3.657  1.00 20.00     0.001 C 
BRANCH   8   9
HETATM    9  C11 UNL     1     -35.239   4.974   4.604  1.00 20.00     0.008 C 
BRANCH   9  10
HETATM   10  C12 UNL     1     -34.595   4.976   6.018  1.00 20.00    -0.051 C 
HETATM   11  C5  UNL     1     -35.690   4.614   7.042  1.00 20.00     0.014 C 
HETATM   12  C6  UNL     1     -34.036   6.364   6.373  1.00 20.00     0.014 C 
HETATM   13  C7  UNL     1     -33.469   3.934   6.118  1.00 20.00     0.014 C 
ENDBRANCH   9  10
ENDBRANCH   8   9
ENDBRANCH   1   8
TORSDOF 6
ENDMDL
MODEL 5
REMARK VINA RESULT:      -4.5      2.620      4.715
REMARK  6 active torsions:
REMARK  status: ('A' for Active; 'I' for Inactive)
REMARK    1  A    between atoms: C1_1  and  C4_4 
REMARK    2  A    between atoms: C1_1  and  C8_8 
REMARK    3  A    between atoms: C8_8  and  C9_9 
REMARK    4  A    between atoms: C9_9  and  C10_10 
REMARK    5  A    between atoms: C10_10  and  C11_11 
REMARK    6  A    between atoms: C11_11  and  C12_12 
ROOT
HETATM    1  C9  UNL     1     -35.519  14.323  -7.052  1.00 20.00     0.007 C 
ENDROOT
BRANCH   1   2
HETATM    2  C8  UNL     1     -34.479  14.673  -5.988  1.00 20.00     0.079 C 
BRANCH   2   3
HETATM    3  C1  UNL     1     -34.404  13.663  -4.863  1.00 20.00     0.131 C 
HETATM    4  O13 UNL     1     -34.846  12.521  -4.920  1.00 20.00    -0.298 OA
BRANCH   3   5
HETATM    5  C4  UNL     1     -33.767  14.151  -3.605  1.00 20.00     0.055 A 
HETATM    6  C2  UNL     1     -33.113  15.493  -3.611  1.00 20.00     0.013 A 
HETATM    7  C3  UNL     1     -34.404  15.287  -2.878  1.00 20.00     0.013 A 
ENDBRANCH   3   5
ENDBRANCH   2   3
ENDBRANCH   1   2
BRANCH   1   8
HETATM    8  C10 UNL     1     -36.776  15.196  -6.952  1.00 20.00     0.001 C 
BRANCH   8   9
HETATM    9  C11 UNL     1     -36.652  16.206  -5.804  1.00 20.00     0.008 C 
BRANCH   9  10
HETATM   10  C12 UNL     1     -37.770  16.145  -4.728  1.00 20.00    -0.051 C 
HETATM   11  C5  UNL     1     -39.114  16.455  -5.416  1.00 20.00     0.014 C 
HETATM   12  C6  UNL     1     -37.537  17.188  -3.623  1.00 20.00     0.014 C 
HETATM   13  C7  UNL     1     -37.857  14.746  -4.095  1.00 20.00     0.014 C 
ENDBRANCH   9  10
ENDBRANCH   8   9
ENDBRANCH   1   8
TORSDOF 6
ENDMDL
MODEL 6
REMARK VINA RESULT:      -4.5      1.784      2.579
REMARK  6 active torsions:
REMARK  status: ('A' for Active; 'I' for Inactive)
REMARK    1  A    between atoms: C1_1  and  C4_4 
REMARK    2  A    between atoms: C1_1  and  C8_8 
REMARK    3  A    between atoms: C8_8  and  C9_9 
REMARK    4  A    between atoms: C9_9  and  C10_10 
REMARK    5  A    between atoms: C10_10  and  C11_11 
REMARK    6  A    between atoms: C11_11  and  C12_12 
ROOT
HETATM    1  C9  UNL     1     -33.174  15.193  -3.402  1.00 20.00     0.007 C 
ENDROOT
BRANCH   1   2
HETATM    2  C8  UNL     1     -34.205  14.066  -3.397  1.00 20.00     0.079 C 
BRANCH   2   3
HETATM    3  C1  UNL     1     -34.609  13.612  -4.784  1.00 20.00     0.131 C 
HETATM    4  O13 UNL     1     -34.906  12.461  -5.081  1.00 20.00    -0.298 OA
BRANCH   3   5
HETATM    5  C4  UNL     1     -34.598  14.672  -5.834  1.00 20.00     0.055 A 
HETATM    6  C2  UNL     1     -35.139  14.342  -7.186  1.00 20.00     0.013 A 
HETATM    7  C3  UNL     1     -35.901  15.253  -6.272  1.00 20.00     0.013 A 
ENDBRANCH   3   5
ENDBRANCH   2   3
ENDBRANCH   1   2
BRANCH   1   8
HETATM    8  C10 UNL     1     -33.669  16.443  -2.664  1.00 20.00     0.001 C 
BRANCH   8   9
HETATM    9  C11 UNL     1     -35.104  16.249  -2.159  1.00 20.00     0.008 C 
BRANCH   9  10
HETATM   10  C12 UNL     1     -36.156  17.247  -2.715  1.00 20.00    -0.051 C 
HETATM   11  C5  UNL     1     -36.641  18.131  -1.549  1.00 20.00     0.014 C 
HETATM   12  C6  UNL     1     -37.370  16.507  -3.303  1.00 20.00     0.014 C 
HETATM   13  C7  UNL     1     -35.545  18.155  -3.795  1.00 20.00     0.014 C 
ENDBRANCH   9  10
ENDBRANCH   8   9
ENDBRANCH   1   8
TORSDOF 6
ENDMDL
MODEL 7
REMARK VINA RESULT:      -4.5      2.589      4.856
REMARK  6 active torsions:
REMARK  status: ('A' for Active; 'I' for Inactive)
REMARK    1  A    between atoms: C1_1  and  C4_4 
REMARK    2  A    between atoms: C1_1  and  C8_8 
REMARK    3  A    between atoms: C8_8  and  C9_9 
REMARK    4  A    between atoms: C9_9  and  C10_10 
REMARK    5  A    between atoms: C10_10  and  C11_11 
REMARK    6  A    between atoms: C11_11  and  C12_12 
ROOT
HETATM    1  C9  UNL     1     -35.599  14.488  -6.835  1.00 20.00     0.007 C 
ENDROOT
BRANCH   1   2
HETATM    2  C8  UNL     1     -35.678  14.658  -5.319  1.00 20.00     0.079 C 
BRANCH   2   3
HETATM    3  C1  UNL     1     -34.863  13.638  -4.554  1.00 20.00     0.131 C 
HETATM    4  O13 UNL     1     -34.839  12.438  -4.801  1.00 20.00    -0.298 OA
BRANCH   3   5
HETATM    5  C4  UNL     1     -34.074  14.177  -3.408  1.00 20.00     0.055 A 
HETATM    6  C2  UNL     1     -33.028  15.205  -3.683  1.00 20.00     0.013 A 
HETATM    7  C3  UNL     1     -34.300  15.591  -2.991  1.00 20.00     0.013 A 
ENDBRANCH   3   5
ENDBRANCH   2   3
ENDBRANCH   1   2
BRANCH   1   8
HETATM    8  C10 UNL     1     -35.329  15.813  -7.560  1.00 20.00     0.001 C 
BRANCH   8   9
HETATM    9  C11 UNL     1     -34.161  16.565  -6.909  1.00 20.00     0.008 C 
BRANCH   9  10
HETATM   10  C12 UNL     1     -34.432  18.052  -6.552  1.00 20.00    -0.051 C 
HETATM   11  C5  UNL     1     -34.035  18.916  -7.766  1.00 20.00     0.014 C 
HETATM   12  C6  UNL     1     -33.592  18.497  -5.343  1.00 20.00     0.014 C 
HETATM   13  C7  UNL     1     -35.921  18.290  -6.250  1.00 20.00     0.014 C 
ENDBRANCH   9  10
ENDBRANCH   8   9
ENDBRANCH   1   8
TORSDOF 6
ENDMDL
MODEL 8
REMARK VINA RESULT:      -4.5      1.448      2.331
REMARK  6 active torsions:
REMARK  status: ('A' for Active; 'I' for Inactive)
REMARK    1  A    between atoms: C1_1  and  C4_4 
REMARK    2  A    between atoms: C1_1  and  C8_8 
REMARK    3  A    between atoms: C8_8  and  C9_9 
REMARK    4  A    between atoms: C9_9  and  C10_10 
REMARK    5  A    between atoms: C10_10  and  C11_11 
REMARK    6  A    between atoms: C11_11  and  C12_12 
ROOT
HETATM    1  C9  UNL     1     -34.292  17.038  -3.290  1.00 20.00     0.007 C 
ENDROOT
BRANCH   1   2
HETATM    2  C8  UNL     1     -33.551  16.387  -4.457  1.00 20.00     0.079 C 
BRANCH   2   3
HETATM    3  C1  UNL     1     -34.455  15.599  -5.381  1.00 20.00     0.131 C 
HETATM    4  O13 UNL     1     -35.228  16.098  -6.192  1.00 20.00    -0.298 OA
BRANCH   3   5
HETATM    5  C4  UNL     1     -34.388  14.116  -5.234  1.00 20.00     0.055 A 
HETATM    6  C2  UNL     1     -33.710  13.549  -4.030  1.00 20.00     0.013 A 
HETATM    7  C3  UNL     1     -35.201  13.469  -4.163  1.00 20.00     0.013 A 
ENDBRANCH   3   5
ENDBRANCH   2   3
ENDBRANCH   1   2
BRANCH   1   8
HETATM    8  C10 UNL     1     -33.689  16.662  -1.931  1.00 20.00     0.001 C 
BRANCH   8   9
HETATM    9  C11 UNL     1     -34.754  16.709  -0.827  1.00 20.00     0.008 C 
BRANCH   9  10
HETATM   10  C12 UNL     1     -34.715  17.958   0.094  1.00 20.00    -0.051 C 
HETATM   11  C5  UNL     1     -35.261  17.550   1.477  1.00 20.00     0.014 C 
HETATM   12  C6  UNL     1     -35.596  19.089  -0.462  1.00 20.00     0.014 C 
HETATM   13  C7  UNL     1     -33.278  18.475   0.271  1.00 20.00     0.014 C 
ENDBRANCH   9  10
ENDBRANCH   8   9
ENDBRANCH   1   8
TORSDOF 6
ENDMDL
MODEL 9
REMARK VINA RESULT:      -4.5     10.581     11.963
REMARK  6 active torsions:
REMARK  status: ('A' for Active; 'I' for Inactive)
REMARK    1  A    between atoms: C1_1  and  C4_4 
REMARK    2  A    between atoms: C1_1  and  C8_8 
REMARK    3  A    between atoms: C8_8  and  C9_9 
REMARK    4  A    between atoms: C9_9  and  C10_10 
REMARK    5  A    between atoms: C10_10  and  C11_11 
REMARK    6  A    between atoms: C11_11  and  C12_12 
ROOT
HETATM    1  C9  UNL     1     -32.335   5.887   3.316  1.00 20.00     0.007 C 
ENDROOT
BRANCH   1   2
HETATM    2  C8  UNL     1     -33.742   5.585   2.803  1.00 20.00     0.079 C 
BRANCH   2   3
HETATM    3  C1  UNL     1     -34.754   5.372   3.909  1.00 20.00     0.131 C 
HETATM    4  O13 UNL     1     -35.964   5.518   3.784  1.00 20.00    -0.298 OA
BRANCH   3   5
HETATM    5  C4  UNL     1     -34.185   4.989   5.234  1.00 20.00     0.055 A 
HETATM    6  C2  UNL     1     -34.444   5.877   6.406  1.00 20.00     0.013 A 
HETATM    7  C3  UNL     1     -35.119   4.543   6.308  1.00 20.00     0.013 A 
ENDBRANCH   3   5
ENDBRANCH   2   3
ENDBRANCH   1   2
BRANCH   1   8
HETATM    8  C10 UNL     1     -31.894   7.322   3.002  1.00 20.00     0.001 C 
BRANCH   8   9
HETATM    9  C11 UNL     1     -32.920   8.028   2.108  1.00 20.00     0.008 C 
BRANCH   9  10
HETATM   10  C12 UNL     1     -32.338   9.028   1.072  1.00 20.00    -0.051 C 
HETATM   11  C5  UNL     1     -32.428  10.446   1.672  1.00 20.00     0.014 C 
HETATM   12  C6  UNL     1     -33.141   9.002  -0.240  1.00 20.00     0.014 C 
HETATM   13  C7  UNL     1     -30.862   8.719   0.769  1.00 20.00     0.014 C 
ENDBRANCH   9  10
ENDBRANCH   8   9
ENDBRANCH   1   8
TORSDOF 6
ENDMDL
