MODEL 1
REMARK VINA RESULT:      -4.9      0.000      0.000
REMARK  1 active torsions:
REMARK  status: ('A' for Active; 'I' for Inactive)
REMARK    1  A    between atoms: C8_8  and  C10_10 
ROOT
HETATM    1  C1  UNL     1     -34.871  16.994  -0.362  1.00 20.00     0.012 C 
HETATM    2  C2  UNL     1     -34.248  16.697  -1.345  1.00 20.00    -0.117 C 
HETATM    3  C10 UNL     1     -33.473  16.336  -2.531  1.00 20.00     0.097 C 
ENDROOT
BRANCH   3   4
HETATM    4  C8  UNL     1     -34.391  16.162  -3.749  1.00 20.00    -0.002 C 
HETATM    5  C5  UNL     1     -35.400  15.030  -3.500  1.00 20.00     0.005 C 
HETATM    6  C3  UNL     1     -34.910  13.619  -3.824  1.00 20.00     0.000 C 
HETATM    7  C4  UNL     1     -34.628  13.310  -5.302  1.00 20.00     0.001 C 
HETATM    8  C6  UNL     1     -35.103  14.368  -6.296  1.00 20.00     0.016 C 
HETATM    9  C9  UNL     1     -34.242  15.633  -6.310  1.00 20.00     0.058 C 
HETATM   10  C7  UNL     1     -33.527  16.012  -5.013  1.00 20.00     0.021 C 
HETATM   11 BR11 UNL     1     -35.319  17.142  -6.952  1.00 20.00    -0.091 Br
ENDBRANCH   3   4
TORSDOF 1
ENDMDL
MODEL 2
REMARK VINA RESULT:      -4.8      1.032      1.263
REMARK  1 active torsions:
REMARK  status: ('A' for Active; 'I' for Inactive)
REMARK    1  A    between atoms: C8_8  and  C10_10 
ROOT
HETATM    1  C1  UNL     1     -33.283  18.292  -0.544  1.00 20.00     0.012 C 
HETATM    2  C2  UNL     1     -33.901  17.370  -1.001  1.00 20.00    -0.117 C 
HETATM    3  C10 UNL     1     -34.655  16.239  -1.541  1.00 20.00     0.097 C 
ENDROOT
BRANCH   3   4
HETATM    4  C8  UNL     1     -34.863  16.395  -3.053  1.00 20.00    -0.002 C 
HETATM    5  C5  UNL     1     -35.911  15.390  -3.556  1.00 20.00     0.005 C 
HETATM    6  C3  UNL     1     -35.386  13.996  -3.898  1.00 20.00     0.000 C 
HETATM    7  C4  UNL     1     -34.428  13.895  -5.093  1.00 20.00     0.001 C 
HETATM    8  C6  UNL     1     -34.307  15.156  -5.946  1.00 20.00     0.016 C 
HETATM    9  C9  UNL     1     -33.497  16.273  -5.285  1.00 20.00     0.058 C 
HETATM   10  C7  UNL     1     -33.496  16.333  -3.757  1.00 20.00     0.021 C 
HETATM   11 BR11 UNL     1     -34.052  18.003  -6.027  1.00 20.00    -0.091 Br
ENDBRANCH   3   4
TORSDOF 1
ENDMDL
MODEL 3
REMARK VINA RESULT:      -4.6      1.517      1.756
REMARK  1 active torsions:
REMARK  status: ('A' for Active; 'I' for Inactive)
REMARK    1  A    between atoms: C8_8  and  C10_10 
ROOT
HETATM    1  C1  UNL     1     -34.820  17.077  -0.221  1.00 20.00     0.012 C 
HETATM    2  C2  UNL     1     -34.495  16.527  -1.238  1.00 20.00    -0.117 C 
HETATM    3  C10 UNL     1     -34.082  15.857  -2.471  1.00 20.00     0.097 C 
ENDROOT
BRANCH   3   4
HETATM    4  C8  UNL     1     -35.299  15.524  -3.344  1.00 20.00    -0.002 C 
HETATM    5  C5  UNL     1     -35.221  14.071  -3.837  1.00 20.00     0.005 C 
HETATM    6  C3  UNL     1     -34.404  13.841  -5.108  1.00 20.00     0.000 C 
HETATM    7  C4  UNL     1     -34.955  14.459  -6.401  1.00 20.00     0.001 C 
HETATM    8  C6  UNL     1     -36.374  15.017  -6.310  1.00 20.00     0.016 C 
HETATM    9  C9  UNL     1     -36.471  16.336  -5.541  1.00 20.00     0.058 C 
HETATM   10  C7  UNL     1     -35.436  16.589  -4.445  1.00 20.00     0.021 C 
HETATM   11 BR11 UNL     1     -38.283  16.531  -4.815  1.00 20.00    -0.091 Br
ENDBRANCH   3   4
TORSDOF 1
ENDMDL
MODEL 4
REMARK VINA RESULT:      -4.6      1.838      2.192
REMARK  1 active torsions:
REMARK  status: ('A' for Active; 'I' for Inactive)
REMARK    1  A    between atoms: C8_8  and  C10_10 
ROOT
HETATM    1  C1  UNL     1     -35.167  17.389   0.595  1.00 20.00     0.012 C 
HETATM    2  C2  UNL     1     -34.682  17.047  -0.448  1.00 20.00    -0.117 C 
HETATM    3  C10 UNL     1     -34.075  16.639  -1.715  1.00 20.00     0.097 C 
ENDROOT
BRANCH   3   4
HETATM    4  C8  UNL     1     -35.035  15.752  -2.518  1.00 20.00    -0.002 C 
HETATM    5  C5  UNL     1     -34.300  14.509  -3.044  1.00 20.00     0.005 C 
HETATM    6  C3  UNL     1     -33.556  14.686  -4.367  1.00 20.00     0.000 C 
HETATM    7  C4  UNL     1     -34.416  14.948  -5.612  1.00 20.00     0.001 C 
HETATM    8  C6  UNL     1     -35.920  14.756  -5.423  1.00 20.00     0.016 C 
HETATM    9  C9  UNL     1     -36.589  15.875  -4.623  1.00 20.00     0.058 C 
HETATM   10  C7  UNL     1     -35.736  16.607  -3.587  1.00 20.00     0.021 C 
HETATM   11 BR11 UNL     1     -38.222  15.184  -3.784  1.00 20.00    -0.091 Br
ENDBRANCH   3   4
TORSDOF 1
ENDMDL
MODEL 5
REMARK VINA RESULT:      -4.5      2.271      3.365
REMARK  1 active torsions:
REMARK  status: ('A' for Active; 'I' for Inactive)
REMARK    1  A    between atoms: C8_8  and  C10_10 
ROOT
HETATM    1  C1  UNL     1     -32.129  18.933   0.111  1.00 20.00     0.012 C 
HETATM    2  C2  UNL     1     -33.044  18.218  -0.197  1.00 20.00    -0.117 C 
HETATM    3  C10 UNL     1     -34.167  17.353  -0.555  1.00 20.00     0.097 C 
ENDROOT
BRANCH   3   4
HETATM    4  C8  UNL     1     -33.939  16.705  -1.927  1.00 20.00    -0.002 C 
HETATM    5  C5  UNL     1     -33.768  17.786  -3.006  1.00 20.00     0.005 C 
HETATM    6  C3  UNL     1     -35.061  18.328  -3.616  1.00 20.00     0.000 C 
HETATM    7  C4  UNL     1     -35.893  17.344  -4.452  1.00 20.00     0.001 C 
HETATM    8  C6  UNL     1     -35.210  16.017  -4.777  1.00 20.00     0.016 C 
HETATM    9  C9  UNL     1     -35.122  15.060  -3.587  1.00 20.00     0.058 C 
HETATM   10  C7  UNL     1     -35.053  15.678  -2.190  1.00 20.00     0.021 C 
HETATM   11 BR11 UNL     1     -33.617  13.830  -3.855  1.00 20.00    -0.091 Br
ENDBRANCH   3   4
TORSDOF 1
ENDMDL
MODEL 6
REMARK VINA RESULT:      -4.4     12.054     13.986
REMARK  1 active torsions:
REMARK  status: ('A' for Active; 'I' for Inactive)
REMARK    1  A    between atoms: C8_8  and  C10_10 
ROOT
HETATM    1  C1  UNL     1     -41.150   1.408  -4.123  1.00 20.00     0.012 C 
HETATM    2  C2  UNL     1     -41.859   2.088  -3.432  1.00 20.00    -0.117 C 
HETATM    3  C10 UNL     1     -42.733   2.901  -2.586  1.00 20.00     0.097 C 
ENDROOT
BRANCH   3   4
HETATM    4  C8  UNL     1     -42.225   4.347  -2.510  1.00 20.00    -0.002 C 
HETATM    5  C5  UNL     1     -41.067   4.455  -1.507  1.00 20.00     0.005 C 
HETATM    6  C3  UNL     1     -41.468   4.651  -0.045  1.00 20.00     0.000 C 
HETATM    7  C4  UNL     1     -42.158   5.976   0.308  1.00 20.00     0.001 C 
HETATM    8  C6  UNL     1     -42.140   7.039  -0.790  1.00 20.00     0.016 C 
HETATM    9  C9  UNL     1     -43.101   6.750  -1.944  1.00 20.00     0.058 C 
HETATM   10  C7  UNL     1     -43.416   5.285  -2.249  1.00 20.00     0.021 C 
HETATM   11 BR11 UNL     1     -42.458   7.652  -3.564  1.00 20.00    -0.091 Br
ENDBRANCH   3   4
TORSDOF 1
ENDMDL
MODEL 7
REMARK VINA RESULT:      -4.4      2.454      4.404
REMARK  1 active torsions:
REMARK  status: ('A' for Active; 'I' for Inactive)
REMARK    1  A    between atoms: C8_8  and  C10_10 
ROOT
HETATM    1  C1  UNL     1     -34.492  13.200  -4.908  1.00 20.00     0.012 C 
HETATM    2  C2  UNL     1     -35.413  13.808  -4.435  1.00 20.00    -0.117 C 
HETATM    3  C10 UNL     1     -36.547  14.536  -3.866  1.00 20.00     0.097 C 
ENDROOT
BRANCH   3   4
HETATM    4  C8  UNL     1     -36.070  15.786  -3.116  1.00 20.00    -0.002 C 
HETATM    5  C5  UNL     1     -36.217  17.031  -4.004  1.00 20.00     0.005 C 
HETATM    6  C3  UNL     1     -35.054  17.311  -4.955  1.00 20.00     0.000 C 
HETATM    7  C4  UNL     1     -33.712  17.686  -4.310  1.00 20.00     0.001 C 
HETATM    8  C6  UNL     1     -33.762  17.975  -2.811  1.00 20.00     0.016 C 
HETATM    9  C9  UNL     1     -33.921  16.723  -1.947  1.00 20.00     0.058 C 
HETATM   10  C7  UNL     1     -34.658  15.532  -2.561  1.00 20.00     0.021 C 
HETATM   11 BR11 UNL     1     -34.747  17.217  -0.237  1.00 20.00    -0.091 Br
ENDBRANCH   3   4
TORSDOF 1
ENDMDL
MODEL 8
REMARK VINA RESULT:      -4.4      1.748      2.411
REMARK  1 active torsions:
REMARK  status: ('A' for Active; 'I' for Inactive)
REMARK    1  A    between atoms: C8_8  and  C10_10 
ROOT
HETATM    1  C1  UNL     1     -33.064  18.608  -0.884  1.00 20.00     0.012 C 
HETATM    2  C2  UNL     1     -33.785  17.649  -0.920  1.00 20.00    -0.117 C 
HETATM    3  C10 UNL     1     -34.661  16.478  -0.944  1.00 20.00     0.097 C 
ENDROOT
BRANCH   3   4
HETATM    4  C8  UNL     1     -35.181  16.217  -2.364  1.00 20.00    -0.002 C 
HETATM    5  C5  UNL     1     -34.391  15.075  -3.022  1.00 20.00     0.005 C 
HETATM    6  C3  UNL     1     -33.086  15.479  -3.709  1.00 20.00     0.000 C 
HETATM    7  C4  UNL     1     -33.210  16.374  -4.950  1.00 20.00     0.001 C 
HETATM    8  C6  UNL     1     -34.627  16.552  -5.493  1.00 20.00     0.016 C 
HETATM    9  C9  UNL     1     -35.504  17.471  -4.641  1.00 20.00     0.058 C 
HETATM   10  C7  UNL     1     -35.202  17.543  -3.144  1.00 20.00     0.021 C 
HETATM   11 BR11 UNL     1     -37.390  17.015  -4.926  1.00 20.00    -0.091 Br
ENDBRANCH   3   4
TORSDOF 1
ENDMDL
MODEL 9
REMARK VINA RESULT:      -4.2      2.333      3.862
REMARK  1 active torsions:
REMARK  status: ('A' for Active; 'I' for Inactive)
REMARK    1  A    between atoms: C8_8  and  C10_10 
ROOT
HETATM    1  C1  UNL     1     -39.347  15.432  -5.669  1.00 20.00     0.012 C 
HETATM    2  C2  UNL     1     -38.532  15.107  -4.850  1.00 20.00    -0.117 C 
HETATM    3  C10 UNL     1     -37.552  14.699  -3.843  1.00 20.00     0.097 C 
ENDROOT
BRANCH   3   4
HETATM    4  C8  UNL     1     -36.186  15.337  -4.124  1.00 20.00    -0.002 C 
HETATM    5  C5  UNL     1     -35.427  14.530  -5.188  1.00 20.00     0.005 C 
HETATM    6  C3  UNL     1     -34.623  13.337  -4.671  1.00 20.00     0.000 C 
HETATM    7  C4  UNL     1     -33.421  13.654  -3.770  1.00 20.00     0.001 C 
HETATM    8  C6  UNL     1     -33.025  15.128  -3.699  1.00 20.00     0.016 C 
HETATM    9  C9  UNL     1     -33.981  15.984  -2.865  1.00 20.00     0.058 C 
HETATM   10  C7  UNL     1     -35.442  15.539  -2.792  1.00 20.00     0.021 C 
HETATM   11 BR11 UNL     1     -33.873  17.848  -3.467  1.00 20.00    -0.091 Br
ENDBRANCH   3   4
TORSDOF 1
ENDMDL
