MODEL 1
REMARK VINA RESULT:      -4.8      0.000      0.000
REMARK  1 active torsions:
REMARK  status: ('A' for Active; 'I' for Inactive)
REMARK    1  A    between atoms: C4_4  and  C7_7 
ROOT
HETATM    1  C1  UNL     1     -34.201   5.461   2.942  1.00 20.00     0.006 C 
HETATM    2  C2  UNL     1     -34.960   4.629   3.981  1.00 20.00     0.020 C 
HETATM    3  C3  UNL     1     -33.632   6.206   5.182  1.00 20.00     0.024 C 
HETATM    4  C4  UNL     1     -33.545   6.618   3.712  1.00 20.00    -0.013 C 
HETATM    5  C5  UNL     1     -34.973   5.491   5.237  1.00 20.00     0.082 C 
HETATM    6 CL8  UNL     1     -35.166   4.532   6.711  1.00 20.00    -0.125 Cl
ENDROOT
BRANCH   4   7
HETATM    7  C7  UNL     1     -32.124   6.909   3.260  1.00 20.00     0.000 C 
HETATM    8  C6  UNL     1     -32.075   8.016   2.257  1.00 20.00     0.005 C 
ENDBRANCH   4   7
TORSDOF 1
ENDMDL
MODEL 2
REMARK VINA RESULT:      -4.3      2.461      3.864
REMARK  1 active torsions:
REMARK  status: ('A' for Active; 'I' for Inactive)
REMARK    1  A    between atoms: C4_4  and  C7_7 
ROOT
HETATM    1  C1  UNL     1     -34.564   5.103   3.715  1.00 20.00     0.006 C 
HETATM    2  C2  UNL     1     -33.982   5.898   2.541  1.00 20.00     0.020 C 
HETATM    3  C3  UNL     1     -32.961   6.737   4.528  1.00 20.00     0.024 C 
HETATM    4  C4  UNL     1     -33.729   5.483   4.948  1.00 20.00    -0.013 C 
HETATM    5  C5  UNL     1     -32.664   6.457   3.063  1.00 20.00     0.082 C 
HETATM    6 CL8  UNL     1     -32.153   7.907   2.189  1.00 20.00    -0.125 Cl
ENDROOT
BRANCH   4   7
HETATM    7  C7  UNL     1     -34.567   5.690   6.198  1.00 20.00     0.000 C 
HETATM    8  C6  UNL     1     -35.289   4.444   6.598  1.00 20.00     0.005 C 
ENDBRANCH   4   7
TORSDOF 1
ENDMDL
MODEL 3
REMARK VINA RESULT:      -4.3      1.753      2.329
REMARK  1 active torsions:
REMARK  status: ('A' for Active; 'I' for Inactive)
REMARK    1  A    between atoms: C4_4  and  C7_7 
ROOT
HETATM    1  C1  UNL     1     -34.878   4.479   5.054  1.00 20.00     0.006 C 
HETATM    2  C2  UNL     1     -34.422   5.065   6.394  1.00 20.00     0.020 C 
HETATM    3  C3  UNL     1     -33.867   6.660   4.709  1.00 20.00     0.024 C 
HETATM    4  C4  UNL     1     -34.736   5.607   4.020  1.00 20.00    -0.013 C 
HETATM    5  C5  UNL     1     -34.332   6.567   6.154  1.00 20.00     0.082 C 
HETATM    6 CL8  UNL     1     -33.220   7.364   7.274  1.00 20.00    -0.125 Cl
ENDROOT
BRANCH   4   7
HETATM    7  C7  UNL     1     -34.161   5.136   2.695  1.00 20.00     0.000 C 
HETATM    8  C6  UNL     1     -32.785   5.672   2.463  1.00 20.00     0.005 C 
ENDBRANCH   4   7
TORSDOF 1
ENDMDL
MODEL 4
REMARK VINA RESULT:      -4.0      2.415      4.055
REMARK  1 active torsions:
REMARK  status: ('A' for Active; 'I' for Inactive)
REMARK    1  A    between atoms: C4_4  and  C7_7 
ROOT
HETATM    1  C1  UNL     1     -34.030   6.327   5.415  1.00 20.00     0.006 C 
HETATM    2  C2  UNL     1     -32.884   7.120   4.777  1.00 20.00     0.020 C 
HETATM    3  C3  UNL     1     -33.818   5.744   3.067  1.00 20.00     0.024 C 
HETATM    4  C4  UNL     1     -34.769   5.635   4.259  1.00 20.00    -0.013 C 
HETATM    5  C5  UNL     1     -33.185   7.110   3.284  1.00 20.00     0.082 C 
HETATM    6 CL8  UNL     1     -31.734   7.344   2.301  1.00 20.00    -0.125 Cl
ENDROOT
BRANCH   4   7
HETATM    7  C7  UNL     1     -35.165   4.202   4.574  1.00 20.00     0.000 C 
HETATM    8  C6  UNL     1     -34.823   3.826   5.980  1.00 20.00     0.005 C 
ENDBRANCH   4   7
TORSDOF 1
ENDMDL
MODEL 5
REMARK VINA RESULT:      -3.9     11.727     12.733
REMARK  1 active torsions:
REMARK  status: ('A' for Active; 'I' for Inactive)
REMARK    1  A    between atoms: C4_4  and  C7_7 
ROOT
HETATM    1  C1  UNL     1     -34.292  13.853  -3.484  1.00 20.00     0.006 C 
HETATM    2  C2  UNL     1     -35.075  13.411  -4.725  1.00 20.00     0.020 C 
HETATM    3  C3  UNL     1     -34.229  15.596  -5.175  1.00 20.00     0.024 C 
HETATM    4  C4  UNL     1     -33.558  15.145  -3.877  1.00 20.00    -0.013 C 
HETATM    5  C5  UNL     1     -34.531  14.271  -5.858  1.00 20.00     0.082 C 
HETATM    6 CL8  UNL     1     -35.684  14.445  -7.187  1.00 20.00    -0.125 Cl
ENDROOT
BRANCH   4   7
HETATM    7  C7  UNL     1     -33.592  16.207  -2.790  1.00 20.00     0.000 C 
HETATM    8  C6  UNL     1     -34.774  16.043  -1.889  1.00 20.00     0.005 C 
ENDBRANCH   4   7
TORSDOF 1
ENDMDL
MODEL 6
REMARK VINA RESULT:      -3.7     11.810     12.983
REMARK  1 active torsions:
REMARK  status: ('A' for Active; 'I' for Inactive)
REMARK    1  A    between atoms: C4_4  and  C7_7 
ROOT
HETATM    1  C1  UNL     1     -33.578  16.622  -4.773  1.00 20.00     0.006 C 
HETATM    2  C2  UNL     1     -33.789  17.291  -3.410  1.00 20.00     0.020 C 
HETATM    3  C3  UNL     1     -34.446  15.009  -3.178  1.00 20.00     0.024 C 
HETATM    4  C4  UNL     1     -33.772  15.115  -4.547  1.00 20.00    -0.013 C 
HETATM    5  C5  UNL     1     -33.789  16.145  -2.408  1.00 20.00     0.082 C 
HETATM    6 CL8  UNL     1     -34.663  16.546  -0.924  1.00 20.00    -0.125 Cl
ENDROOT
BRANCH   4   7
HETATM    7  C7  UNL     1     -34.565  14.441  -5.653  1.00 20.00     0.000 C 
HETATM    8  C6  UNL     1     -34.362  15.112  -6.973  1.00 20.00     0.005 C 
ENDBRANCH   4   7
TORSDOF 1
ENDMDL
MODEL 7
REMARK VINA RESULT:      -3.7     11.766     12.712
REMARK  1 active torsions:
REMARK  status: ('A' for Active; 'I' for Inactive)
REMARK    1  A    between atoms: C4_4  and  C7_7 
ROOT
HETATM    1  C1  UNL     1     -33.650  17.048  -4.032  1.00 20.00     0.006 C 
HETATM    2  C2  UNL     1     -33.659  15.845  -4.982  1.00 20.00     0.020 C 
HETATM    3  C3  UNL     1     -34.536  15.093  -2.895  1.00 20.00     0.024 C 
HETATM    4  C4  UNL     1     -34.434  16.615  -2.783  1.00 20.00    -0.013 C 
HETATM    5  C5  UNL     1     -34.689  14.890  -4.394  1.00 20.00     0.082 C 
HETATM    6 CL8  UNL     1     -34.410  13.213  -4.880  1.00 20.00    -0.125 Cl
ENDROOT
BRANCH   4   7
HETATM    7  C7  UNL     1     -33.792  17.073  -1.484  1.00 20.00     0.000 C 
HETATM    8  C6  UNL     1     -34.732  16.960  -0.328  1.00 20.00     0.005 C 
ENDBRANCH   4   7
TORSDOF 1
ENDMDL
MODEL 8
REMARK VINA RESULT:      -3.7     11.310     12.721
REMARK  1 active torsions:
REMARK  status: ('A' for Active; 'I' for Inactive)
REMARK    1  A    between atoms: C4_4  and  C7_7 
ROOT
HETATM    1  C1  UNL     1     -34.692  13.263  -4.639  1.00 20.00     0.006 C 
HETATM    2  C2  UNL     1     -33.979  13.861  -3.421  1.00 20.00     0.020 C 
HETATM    3  C3  UNL     1     -35.045  15.665  -4.561  1.00 20.00     0.024 C 
HETATM    4  C4  UNL     1     -35.565  14.386  -5.220  1.00 20.00    -0.013 C 
HETATM    5  C5  UNL     1     -34.688  15.184  -3.163  1.00 20.00     0.082 C 
HETATM    6 CL8  UNL     1     -33.668  16.337  -2.293  1.00 20.00    -0.125 Cl
ENDROOT
BRANCH   4   7
HETATM    7  C7  UNL     1     -35.532  14.445  -6.738  1.00 20.00     0.000 C 
HETATM    8  C6  UNL     1     -34.417  15.306  -7.239  1.00 20.00     0.005 C 
ENDBRANCH   4   7
TORSDOF 1
ENDMDL
MODEL 9
REMARK VINA RESULT:      -3.7     12.486     13.351
REMARK  1 active torsions:
REMARK  status: ('A' for Active; 'I' for Inactive)
REMARK    1  A    between atoms: C4_4  and  C7_7 
ROOT
HETATM    1  C1  UNL     1     -34.481  15.074  -3.071  1.00 20.00     0.006 C 
HETATM    2  C2  UNL     1     -34.367  15.476  -4.545  1.00 20.00     0.020 C 
HETATM    3  C3  UNL     1     -33.810  17.401  -3.251  1.00 20.00     0.024 C 
HETATM    4  C4  UNL     1     -33.891  16.239  -2.261  1.00 20.00    -0.013 C 
HETATM    5  C5  UNL     1     -33.452  16.693  -4.549  1.00 20.00     0.082 C 
HETATM    6 CL8  UNL     1     -33.700  17.719  -5.968  1.00 20.00    -0.125 Cl
ENDROOT
BRANCH   4   7
HETATM    7  C7  UNL     1     -34.698  16.573  -1.017  1.00 20.00     0.000 C 
HETATM    8  C6  UNL     1     -34.064  17.667  -0.219  1.00 20.00     0.005 C 
ENDBRANCH   4   7
TORSDOF 1
ENDMDL
