MODEL 1
REMARK VINA RESULT:      -5.0      0.000      0.000
REMARK  2 active torsions:
REMARK  status: ('A' for Active; 'I' for Inactive)
REMARK    1  A    between atoms: C2_2  and  C9_9 
REMARK    2  A    between atoms: C7_7  and  C9_9 
ROOT
HETATM    1  C3  UNL     1     -34.567   5.046   2.623  1.00 20.00     0.002 C 
HETATM    2  C4  UNL     1     -33.201   5.711   2.434  1.00 20.00     0.005 C 
HETATM    3  C5  UNL     1     -35.167   5.258   4.016  1.00 20.00     0.020 C 
HETATM    4  C6  UNL     1     -33.224   6.699   4.771  1.00 20.00     0.025 C 
HETATM    5  C7  UNL     1     -33.071   6.989   3.265  1.00 20.00    -0.010 C 
HETATM    6  C8  UNL     1     -34.078   5.459   5.065  1.00 20.00     0.082 C 
HETATM    7 CL10 UNL     1     -34.797   5.578   6.695  1.00 20.00    -0.125 Cl
ENDROOT
BRANCH   5   8
HETATM    8  C9  UNL     1     -31.753   7.706   2.980  1.00 20.00     0.031 C 
BRANCH   8   9
HETATM    9  C2  UNL     1     -31.792   8.401   1.656  1.00 20.00    -0.037 C 
HETATM   10  C1  UNL     1     -32.437   9.552   1.436  1.00 20.00     0.007 C 
ENDBRANCH   8   9
ENDBRANCH   5   8
TORSDOF 2
ENDMDL
MODEL 2
REMARK VINA RESULT:      -4.5     11.233     12.190
REMARK  2 active torsions:
REMARK  status: ('A' for Active; 'I' for Inactive)
REMARK    1  A    between atoms: C2_2  and  C9_9 
REMARK    2  A    between atoms: C7_7  and  C9_9 
ROOT
HETATM    1  C3  UNL     1     -34.872  13.618  -4.074  1.00 20.00     0.002 C 
HETATM    2  C4  UNL     1     -34.827  14.690  -2.983  1.00 20.00     0.005 C 
HETATM    3  C5  UNL     1     -34.462  14.130  -5.458  1.00 20.00     0.020 C 
HETATM    4  C6  UNL     1     -33.969  16.458  -4.587  1.00 20.00     0.025 C 
HETATM    5  C7  UNL     1     -33.735  15.727  -3.250  1.00 20.00    -0.010 C 
HETATM    6  C8  UNL     1     -34.751  15.620  -5.607  1.00 20.00     0.082 C 
HETATM    7 CL10 UNL     1     -34.381  16.165  -7.266  1.00 20.00    -0.125 Cl
ENDROOT
BRANCH   5   8
HETATM    8  C9  UNL     1     -33.620  16.724  -2.099  1.00 20.00     0.031 C 
BRANCH   8   9
HETATM    9  C2  UNL     1     -34.710  16.516  -1.095  1.00 20.00    -0.037 C 
HETATM   10  C1  UNL     1     -34.811  17.204   0.048  1.00 20.00     0.007 C 
ENDBRANCH   8   9
ENDBRANCH   5   8
TORSDOF 2
ENDMDL
MODEL 3
REMARK VINA RESULT:      -4.4     11.048     12.071
REMARK  2 active torsions:
REMARK  status: ('A' for Active; 'I' for Inactive)
REMARK    1  A    between atoms: C2_2  and  C9_9 
REMARK    2  A    between atoms: C7_7  and  C9_9 
ROOT
HETATM    1  C3  UNL     1     -34.440  13.261  -4.770  1.00 20.00     0.002 C 
HETATM    2  C4  UNL     1     -34.206  14.074  -3.495  1.00 20.00     0.005 C 
HETATM    3  C5  UNL     1     -35.117  14.054  -5.891  1.00 20.00     0.020 C 
HETATM    4  C6  UNL     1     -35.164  16.187  -4.523  1.00 20.00     0.025 C 
HETATM    5  C7  UNL     1     -33.959  15.553  -3.802  1.00 20.00    -0.010 C 
HETATM    6  C8  UNL     1     -35.987  15.175  -5.331  1.00 20.00     0.082 C 
HETATM    7 CL10 UNL     1     -36.862  16.004  -6.649  1.00 20.00    -0.125 Cl
ENDROOT
BRANCH   5   8
HETATM    8  C9  UNL     1     -33.610  16.332  -2.536  1.00 20.00     0.031 C 
BRANCH   8   9
HETATM    9  C2  UNL     1     -34.718  16.258  -1.534  1.00 20.00    -0.037 C 
HETATM   10  C1  UNL     1     -34.730  16.941  -0.383  1.00 20.00     0.007 C 
ENDBRANCH   8   9
ENDBRANCH   5   8
TORSDOF 2
ENDMDL
MODEL 4
REMARK VINA RESULT:      -4.4      9.426     11.173
REMARK  2 active torsions:
REMARK  status: ('A' for Active; 'I' for Inactive)
REMARK    1  A    between atoms: C2_2  and  C9_9 
REMARK    2  A    between atoms: C7_7  and  C9_9 
ROOT
HETATM    1  C3  UNL     1     -40.751   5.958  -0.541  1.00 20.00     0.002 C 
HETATM    2  C4  UNL     1     -40.955   4.598  -1.213  1.00 20.00     0.005 C 
HETATM    3  C5  UNL     1     -41.579   7.084  -1.166  1.00 20.00     0.020 C 
HETATM    4  C6  UNL     1     -42.680   5.521  -2.829  1.00 20.00     0.025 C 
HETATM    5  C7  UNL     1     -42.373   4.446  -1.768  1.00 20.00    -0.010 C 
HETATM    6  C8  UNL     1     -41.869   6.809  -2.637  1.00 20.00     0.082 C 
HETATM    7 CL10 UNL     1     -42.726   8.192  -3.374  1.00 20.00    -0.125 Cl
ENDROOT
BRANCH   5   8
HETATM    8  C9  UNL     1     -42.603   3.045  -2.330  1.00 20.00     0.031 C 
BRANCH   8   9
HETATM    9  C2  UNL     1     -41.447   2.605  -3.171  1.00 20.00    -0.037 C 
HETATM   10  C1  UNL     1     -41.502   1.589  -4.040  1.00 20.00     0.007 C 
ENDBRANCH   8   9
ENDBRANCH   5   8
TORSDOF 2
ENDMDL
MODEL 5
REMARK VINA RESULT:      -4.4      1.427      2.332
REMARK  2 active torsions:
REMARK  status: ('A' for Active; 'I' for Inactive)
REMARK    1  A    between atoms: C2_2  and  C9_9 
REMARK    2  A    between atoms: C7_7  and  C9_9 
ROOT
HETATM    1  C3  UNL     1     -35.067   4.152   5.823  1.00 20.00     0.002 C 
HETATM    2  C4  UNL     1     -34.259   4.268   4.528  1.00 20.00     0.005 C 
HETATM    3  C5  UNL     1     -35.077   5.434   6.660  1.00 20.00     0.020 C 
HETATM    4  C6  UNL     1     -33.696   6.705   4.957  1.00 20.00     0.025 C 
HETATM    5  C7  UNL     1     -34.293   5.690   3.963  1.00 20.00    -0.010 C 
HETATM    6  C8  UNL     1     -33.819   6.263   6.421  1.00 20.00     0.082 C 
HETATM    7 CL10 UNL     1     -33.795   7.687   7.499  1.00 20.00    -0.125 Cl
ENDROOT
BRANCH   5   8
HETATM    8  C9  UNL     1     -33.584   5.768   2.613  1.00 20.00     0.031 C 
BRANCH   8   9
HETATM    9  C2  UNL     1     -32.312   6.548   2.716  1.00 20.00    -0.037 C 
HETATM   10  C1  UNL     1     -32.159   7.790   2.244  1.00 20.00     0.007 C 
ENDBRANCH   8   9
ENDBRANCH   5   8
TORSDOF 2
ENDMDL
MODEL 6
REMARK VINA RESULT:      -4.3     10.378     11.890
REMARK  2 active torsions:
REMARK  status: ('A' for Active; 'I' for Inactive)
REMARK    1  A    between atoms: C2_2  and  C9_9 
REMARK    2  A    between atoms: C7_7  and  C9_9 
ROOT
HETATM    1  C3  UNL     1     -33.034  19.112  -1.092  1.00 20.00     0.002 C 
HETATM    2  C4  UNL     1     -33.603  18.289  -2.251  1.00 20.00     0.005 C 
HETATM    3  C5  UNL     1     -33.449  18.598   0.290  1.00 20.00     0.020 C 
HETATM    4  C6  UNL     1     -34.742  16.649  -0.686  1.00 20.00     0.025 C 
HETATM    5  C7  UNL     1     -33.772  16.817  -1.872  1.00 20.00    -0.010 C 
HETATM    6  C8  UNL     1     -34.791  17.876   0.233  1.00 20.00     0.082 C 
HETATM    7 CL10 UNL     1     -35.312  17.397   1.873  1.00 20.00    -0.125 Cl
ENDROOT
BRANCH   5   8
HETATM    8  C9  UNL     1     -34.228  15.984  -3.069  1.00 20.00     0.031 C 
BRANCH   8   9
HETATM    9  C2  UNL     1     -33.178  14.998  -3.472  1.00 20.00    -0.037 C 
HETATM   10  C1  UNL     1     -33.435  13.726  -3.797  1.00 20.00     0.007 C 
ENDBRANCH   8   9
ENDBRANCH   5   8
TORSDOF 2
ENDMDL
MODEL 7
REMARK VINA RESULT:      -4.3      9.624     10.712
REMARK  2 active torsions:
REMARK  status: ('A' for Active; 'I' for Inactive)
REMARK    1  A    between atoms: C2_2  and  C9_9 
REMARK    2  A    between atoms: C7_7  and  C9_9 
ROOT
HETATM    1  C3  UNL     1     -40.707   5.949  -0.333  1.00 20.00     0.002 C 
HETATM    2  C4  UNL     1     -41.652   7.033  -0.857  1.00 20.00     0.005 C 
HETATM    3  C5  UNL     1     -40.770   4.641  -1.127  1.00 20.00     0.020 C 
HETATM    4  C6  UNL     1     -42.465   5.572  -2.765  1.00 20.00     0.025 C 
HETATM    5  C7  UNL     1     -41.852   6.930  -2.370  1.00 20.00    -0.010 C 
HETATM    6  C8  UNL     1     -42.138   4.448  -1.772  1.00 20.00     0.082 C 
HETATM    7 CL10 UNL     1     -42.226   2.861  -2.586  1.00 20.00    -0.125 Cl
ENDROOT
BRANCH   5   8
HETATM    8  C9  UNL     1     -42.700   8.084  -2.899  1.00 20.00     0.031 C 
BRANCH   8   9
HETATM    9  C2  UNL     1     -42.687   8.122  -4.394  1.00 20.00    -0.037 C 
HETATM   10  C1  UNL     1     -41.981   9.003  -5.112  1.00 20.00     0.007 C 
ENDBRANCH   8   9
ENDBRANCH   5   8
TORSDOF 2
ENDMDL
MODEL 8
REMARK VINA RESULT:      -4.3     11.078     12.208
REMARK  2 active torsions:
REMARK  status: ('A' for Active; 'I' for Inactive)
REMARK    1  A    between atoms: C2_2  and  C9_9 
REMARK    2  A    between atoms: C7_7  and  C9_9 
ROOT
HETATM    1  C3  UNL     1     -33.978  16.839  -5.710  1.00 20.00     0.002 C 
HETATM    2  C4  UNL     1     -33.432  17.250  -4.340  1.00 20.00     0.005 C 
HETATM    3  C5  UNL     1     -34.658  15.467  -5.716  1.00 20.00     0.020 C 
HETATM    4  C6  UNL     1     -34.297  15.139  -3.229  1.00 20.00     0.025 C 
HETATM    5  C7  UNL     1     -34.276  16.680  -3.199  1.00 20.00    -0.010 C 
HETATM    6  C8  UNL     1     -34.085  14.559  -4.634  1.00 20.00     0.082 C 
HETATM    7 CL10 UNL     1     -34.805  12.928  -4.741  1.00 20.00    -0.125 Cl
ENDROOT
BRANCH   5   8
HETATM    8  C9  UNL     1     -33.795  17.191  -1.842  1.00 20.00     0.031 C 
BRANCH   8   9
HETATM    9  C2  UNL     1     -34.645  16.659  -0.733  1.00 20.00    -0.037 C 
HETATM   10  C1  UNL     1     -34.965  17.358   0.362  1.00 20.00     0.007 C 
ENDBRANCH   8   9
ENDBRANCH   5   8
TORSDOF 2
ENDMDL
MODEL 9
REMARK VINA RESULT:      -4.2     10.981     11.651
REMARK  2 active torsions:
REMARK  status: ('A' for Active; 'I' for Inactive)
REMARK    1  A    between atoms: C2_2  and  C9_9 
REMARK    2  A    between atoms: C7_7  and  C9_9 
ROOT
HETATM    1  C3  UNL     1     -37.124  15.877  -3.502  1.00 20.00     0.002 C 
HETATM    2  C4  UNL     1     -36.088  16.778  -2.825  1.00 20.00     0.005 C 
HETATM    3  C5  UNL     1     -36.560  14.532  -3.969  1.00 20.00     0.020 C 
HETATM    4  C6  UNL     1     -34.254  15.038  -3.047  1.00 20.00     0.025 C 
HETATM    5  C7  UNL     1     -35.025  15.963  -2.085  1.00 20.00    -0.010 C 
HETATM    6  C8  UNL     1     -35.071  14.633  -4.281  1.00 20.00     0.082 C 
HETATM    7 CL10 UNL     1     -34.466  13.087  -4.940  1.00 20.00    -0.125 Cl
ENDROOT
BRANCH   5   8
HETATM    8  C9  UNL     1     -34.066  16.869  -1.316  1.00 20.00     0.031 C 
BRANCH   8   9
HETATM    9  C2  UNL     1     -34.674  17.333  -0.031  1.00 20.00    -0.037 C 
HETATM   10  C1  UNL     1     -34.096  18.215   0.792  1.00 20.00     0.007 C 
ENDBRANCH   8   9
ENDBRANCH   5   8
TORSDOF 2
ENDMDL
