MODEL 1
REMARK VINA RESULT:      -5.7      0.000      0.000
REMARK  2 active torsions:
REMARK  status: ('A' for Active; 'I' for Inactive)
REMARK    1  A    between atoms: C6_6  and  C9_9 
REMARK    2  A    between atoms: C8_8  and  C9_9 
ROOT
HETATM    1  C1  UNL     1     -32.403   9.130   0.737  1.00 20.00     0.012 C 
HETATM    2  C2  UNL     1     -32.071   8.580   1.750  1.00 20.00    -0.117 C 
HETATM    3  C8  UNL     1     -31.662   7.913   2.993  1.00 20.00     0.093 C 
ENDROOT
BRANCH   3   4
HETATM    4  C9  UNL     1     -32.221   6.501   3.045  1.00 20.00     0.017 C 
BRANCH   4   5
HETATM    5  C6  UNL     1     -33.626   6.491   3.626  1.00 20.00    -0.012 C 
HETATM    6  C3  UNL     1     -34.520   5.429   2.975  1.00 20.00     0.006 C 
HETATM    7  C4  UNL     1     -35.461   5.001   4.091  1.00 20.00     0.020 C 
HETATM    8  C7  UNL     1     -34.526   4.949   5.288  1.00 20.00     0.082 C 
HETATM    9  C5  UNL     1     -33.652   6.193   5.136  1.00 20.00     0.024 C 
HETATM   10 CL10 UNL     1     -35.403   4.918   6.826  1.00 20.00    -0.125 Cl
ENDBRANCH   4   5
ENDBRANCH   3   4
TORSDOF 2
ENDMDL
MODEL 2
REMARK VINA RESULT:      -5.0     11.112     12.162
REMARK  2 active torsions:
REMARK  status: ('A' for Active; 'I' for Inactive)
REMARK    1  A    between atoms: C6_6  and  C9_9 
REMARK    2  A    between atoms: C8_8  and  C9_9 
ROOT
HETATM    1  C1  UNL     1     -34.719  17.417   0.255  1.00 20.00     0.012 C 
HETATM    2  C2  UNL     1     -34.757  16.734  -0.730  1.00 20.00    -0.117 C 
HETATM    3  C8  UNL     1     -34.811  15.895  -1.935  1.00 20.00     0.093 C 
ENDROOT
BRANCH   3   4
HETATM    4  C9  UNL     1     -33.596  16.149  -2.811  1.00 20.00     0.017 C 
BRANCH   4   5
HETATM    5  C6  UNL     1     -33.475  15.092  -3.898  1.00 20.00    -0.012 C 
HETATM    6  C3  UNL     1     -34.286  13.830  -3.579  1.00 20.00     0.006 C 
HETATM    7  C4  UNL     1     -34.720  13.314  -4.943  1.00 20.00     0.020 C 
HETATM    8  C7  UNL     1     -35.083  14.601  -5.666  1.00 20.00     0.082 C 
HETATM    9  C5  UNL     1     -33.977  15.579  -5.270  1.00 20.00     0.024 C 
HETATM   10 CL10 UNL     1     -35.199  14.379  -7.418  1.00 20.00    -0.125 Cl
ENDBRANCH   4   5
ENDBRANCH   3   4
TORSDOF 2
ENDMDL
MODEL 3
REMARK VINA RESULT:      -4.9      1.331      1.934
REMARK  2 active torsions:
REMARK  status: ('A' for Active; 'I' for Inactive)
REMARK    1  A    between atoms: C6_6  and  C9_9 
REMARK    2  A    between atoms: C8_8  and  C9_9 
ROOT
HETATM    1  C1  UNL     1     -32.089   8.394   1.850  1.00 20.00     0.012 C 
HETATM    2  C2  UNL     1     -32.183   7.312   2.359  1.00 20.00    -0.117 C 
HETATM    3  C8  UNL     1     -32.293   5.987   2.986  1.00 20.00     0.093 C 
ENDROOT
BRANCH   3   4
HETATM    4  C9  UNL     1     -33.703   5.443   2.830  1.00 20.00     0.017 C 
BRANCH   4   5
HETATM    5  C6  UNL     1     -34.566   5.811   4.026  1.00 20.00    -0.012 C 
HETATM    6  C3  UNL     1     -34.745   4.640   5.001  1.00 20.00     0.006 C 
HETATM    7  C4  UNL     1     -34.859   5.306   6.364  1.00 20.00     0.020 C 
HETATM    8  C7  UNL     1     -33.808   6.400   6.269  1.00 20.00     0.082 C 
HETATM    9  C5  UNL     1     -33.980   6.965   4.860  1.00 20.00     0.024 C 
HETATM   10 CL10 UNL     1     -34.004   7.632   7.525  1.00 20.00    -0.125 Cl
ENDBRANCH   4   5
ENDBRANCH   3   4
TORSDOF 2
ENDMDL
MODEL 4
REMARK VINA RESULT:      -4.7      0.944      1.564
REMARK  2 active torsions:
REMARK  status: ('A' for Active; 'I' for Inactive)
REMARK    1  A    between atoms: C6_6  and  C9_9 
REMARK    2  A    between atoms: C8_8  and  C9_9 
ROOT
HETATM    1  C1  UNL     1     -32.230   9.520   0.658  1.00 20.00     0.012 C 
HETATM    2  C2  UNL     1     -32.060   8.727   1.542  1.00 20.00    -0.117 C 
HETATM    3  C8  UNL     1     -31.846   7.759   2.626  1.00 20.00     0.093 C 
ENDROOT
BRANCH   3   4
HETATM    4  C9  UNL     1     -33.088   6.909   2.830  1.00 20.00     0.017 C 
BRANCH   4   5
HETATM    5  C6  UNL     1     -33.039   6.180   4.163  1.00 20.00    -0.012 C 
HETATM    6  C3  UNL     1     -33.368   7.099   5.346  1.00 20.00     0.006 C 
HETATM    7  C4  UNL     1     -34.049   6.183   6.350  1.00 20.00     0.020 C 
HETATM    8  C7  UNL     1     -34.928   5.328   5.451  1.00 20.00     0.082 C 
HETATM    9  C5  UNL     1     -34.040   5.012   4.249  1.00 20.00     0.024 C 
HETATM   10 CL10 UNL     1     -35.509   3.869   6.268  1.00 20.00    -0.125 Cl
ENDBRANCH   4   5
ENDBRANCH   3   4
TORSDOF 2
ENDMDL
MODEL 5
REMARK VINA RESULT:      -4.4      2.546      4.812
REMARK  2 active torsions:
REMARK  status: ('A' for Active; 'I' for Inactive)
REMARK    1  A    between atoms: C6_6  and  C9_9 
REMARK    2  A    between atoms: C8_8  and  C9_9 
ROOT
HETATM    1  C1  UNL     1     -34.354   6.013   6.672  1.00 20.00     0.012 C 
HETATM    2  C2  UNL     1     -34.697   5.415   5.690  1.00 20.00    -0.117 C 
HETATM    3  C8  UNL     1     -35.121   4.679   4.492  1.00 20.00     0.093 C 
ENDROOT
BRANCH   3   4
HETATM    4  C9  UNL     1     -34.459   5.258   3.253  1.00 20.00     0.017 C 
BRANCH   4   5
HETATM    5  C6  UNL     1     -33.563   6.434   3.611  1.00 20.00    -0.012 C 
HETATM    6  C3  UNL     1     -32.081   6.139   3.353  1.00 20.00     0.006 C 
HETATM    7  C4  UNL     1     -31.496   7.490   2.969  1.00 20.00     0.020 C 
HETATM    8  C7  UNL     1     -32.589   8.067   2.084  1.00 20.00     0.082 C 
HETATM    9  C5  UNL     1     -33.886   7.705   2.805  1.00 20.00     0.024 C 
HETATM   10 CL10 UNL     1     -32.409   9.812   1.843  1.00 20.00    -0.125 Cl
ENDBRANCH   4   5
ENDBRANCH   3   4
TORSDOF 2
ENDMDL
MODEL 6
REMARK VINA RESULT:      -4.2     12.034     13.102
REMARK  2 active torsions:
REMARK  status: ('A' for Active; 'I' for Inactive)
REMARK    1  A    between atoms: C6_6  and  C9_9 
REMARK    2  A    between atoms: C8_8  and  C9_9 
ROOT
HETATM    1  C1  UNL     1     -34.903  17.055  -0.159  1.00 20.00     0.012 C 
HETATM    2  C2  UNL     1     -34.336  16.754  -1.172  1.00 20.00    -0.117 C 
HETATM    3  C8  UNL     1     -33.637  16.388  -2.412  1.00 20.00     0.093 C 
ENDROOT
BRANCH   3   4
HETATM    4  C9  UNL     1     -34.343  15.230  -3.096  1.00 20.00     0.017 C 
BRANCH   4   5
HETATM    5  C6  UNL     1     -33.918  15.114  -4.552  1.00 20.00    -0.012 C 
HETATM    6  C3  UNL     1     -34.771  14.105  -5.331  1.00 20.00     0.006 C 
HETATM    7  C4  UNL     1     -34.811  14.667  -6.744  1.00 20.00     0.020 C 
HETATM    8  C7  UNL     1     -34.976  16.156  -6.487  1.00 20.00     0.082 C 
HETATM    9  C5  UNL     1     -34.032  16.443  -5.321  1.00 20.00     0.024 C 
HETATM   10 CL10 UNL     1     -34.606  17.131  -7.917  1.00 20.00    -0.125 Cl
ENDBRANCH   4   5
ENDBRANCH   3   4
TORSDOF 2
ENDMDL
MODEL 7
REMARK VINA RESULT:      -4.2     11.736     12.945
REMARK  2 active torsions:
REMARK  status: ('A' for Active; 'I' for Inactive)
REMARK    1  A    between atoms: C6_6  and  C9_9 
REMARK    2  A    between atoms: C8_8  and  C9_9 
ROOT
HETATM    1  C1  UNL     1     -33.179  18.221  -0.643  1.00 20.00     0.012 C 
HETATM    2  C2  UNL     1     -33.855  17.325  -1.065  1.00 20.00    -0.117 C 
HETATM    3  C8  UNL     1     -34.688  16.228  -1.578  1.00 20.00     0.093 C 
ENDROOT
BRANCH   3   4
HETATM    4  C9  UNL     1     -34.001  15.543  -2.746  1.00 20.00     0.017 C 
BRANCH   4   5
HETATM    5  C6  UNL     1     -34.569  16.023  -4.073  1.00 20.00    -0.012 C 
HETATM    6  C3  UNL     1     -33.492  16.616  -4.989  1.00 20.00     0.006 C 
HETATM    7  C4  UNL     1     -33.975  16.282  -6.393  1.00 20.00     0.020 C 
HETATM    8  C7  UNL     1     -34.494  14.863  -6.217  1.00 20.00     0.082 C 
HETATM    9  C5  UNL     1     -35.238  14.898  -4.884  1.00 20.00     0.024 C 
HETATM   10 CL10 UNL     1     -35.529  14.355  -7.561  1.00 20.00    -0.125 Cl
ENDBRANCH   4   5
ENDBRANCH   3   4
TORSDOF 2
ENDMDL
MODEL 8
REMARK VINA RESULT:      -4.2     11.457     11.959
REMARK  2 active torsions:
REMARK  status: ('A' for Active; 'I' for Inactive)
REMARK    1  A    between atoms: C6_6  and  C9_9 
REMARK    2  A    between atoms: C8_8  and  C9_9 
ROOT
HETATM    1  C1  UNL     1     -34.170  15.821  -2.603  1.00 20.00     0.012 C 
HETATM    2  C2  UNL     1     -34.424  16.342  -1.552  1.00 20.00    -0.117 C 
HETATM    3  C8  UNL     1     -34.738  16.975  -0.264  1.00 20.00     0.093 C 
ENDROOT
BRANCH   3   4
HETATM    4  C9  UNL     1     -33.767  18.108   0.020  1.00 20.00     0.017 C 
BRANCH   4   5
HETATM    5  C6  UNL     1     -34.043  18.737   1.377  1.00 20.00    -0.012 C 
HETATM    6  C3  UNL     1     -34.980  17.881   2.239  1.00 20.00     0.006 C 
HETATM    7  C4  UNL     1     -34.520  18.149   3.664  1.00 20.00     0.020 C 
HETATM    8  C7  UNL     1     -33.008  18.163   3.510  1.00 20.00     0.082 C 
HETATM    9  C5  UNL     1     -32.769  18.941   2.217  1.00 20.00     0.024 C 
HETATM   10 CL10 UNL     1     -32.196  18.893   4.903  1.00 20.00    -0.125 Cl
ENDBRANCH   4   5
ENDBRANCH   3   4
TORSDOF 2
ENDMDL
MODEL 9
REMARK VINA RESULT:      -4.1     11.048     11.970
REMARK  2 active torsions:
REMARK  status: ('A' for Active; 'I' for Inactive)
REMARK    1  A    between atoms: C6_6  and  C9_9 
REMARK    2  A    between atoms: C8_8  and  C9_9 
ROOT
HETATM    1  C1  UNL     1     -34.688  14.795  -7.218  1.00 20.00     0.012 C 
HETATM    2  C2  UNL     1     -34.842  14.164  -6.210  1.00 20.00    -0.117 C 
HETATM    3  C8  UNL     1     -35.035  13.387  -4.977  1.00 20.00     0.093 C 
ENDROOT
BRANCH   3   4
HETATM    4  C9  UNL     1     -34.166  13.940  -3.861  1.00 20.00     0.017 C 
BRANCH   4   5
HETATM    5  C6  UNL     1     -34.488  15.402  -3.591  1.00 20.00    -0.012 C 
HETATM    6  C3  UNL     1     -35.895  15.592  -3.010  1.00 20.00     0.006 C 
HETATM    7  C4  UNL     1     -35.760  16.805  -2.102  1.00 20.00     0.020 C 
HETATM    8  C7  UNL     1     -34.412  16.557  -1.444  1.00 20.00     0.082 C 
HETATM    9  C5  UNL     1     -33.525  16.054  -2.582  1.00 20.00     0.024 C 
HETATM   10 CL10 UNL     1     -33.764  18.011  -0.669  1.00 20.00    -0.125 Cl
ENDBRANCH   4   5
ENDBRANCH   3   4
TORSDOF 2
ENDMDL
