MODEL 1
REMARK VINA RESULT:      -5.4      0.000      0.000
REMARK  4 active torsions:
REMARK  status: ('A' for Active; 'I' for Inactive)
REMARK    1  A    between atoms: C5_5  and  C6_6 
REMARK    2  A    between atoms: C6_6  and  C7_7 
REMARK    3  A    between atoms: C7_7  and  C9_9 
REMARK    4  A    between atoms: C8_8  and  C9_9 
ROOT
HETATM    1  C1  UNL     1     -32.182   9.026   0.832  1.00 20.00     0.012 C 
HETATM    2  C2  UNL     1     -31.859   8.438   1.827  1.00 20.00    -0.117 C 
HETATM    3  C5  UNL     1     -31.459   7.720   3.046  1.00 20.00     0.093 C 
ENDROOT
BRANCH   3   4
HETATM    4  C6  UNL     1     -32.224   6.405   3.221  1.00 20.00     0.014 C 
BRANCH   4   5
HETATM    5  C7  UNL     1     -33.715   6.620   3.514  1.00 20.00     0.021 C 
BRANCH   5   6
HETATM    6  C9  UNL     1     -34.408   5.378   4.102  1.00 20.00     0.085 C 
HETATM    7 CL10 UNL     1     -36.162   5.484   3.710  1.00 20.00    -0.125 Cl
BRANCH   6   8
HETATM    8  C8  UNL     1     -34.186   5.148   5.619  1.00 20.00    -0.004 C 
HETATM    9  C3  UNL     1     -34.083   6.471   6.389  1.00 20.00     0.011 C 
HETATM   10  C4  UNL     1     -35.240   4.249   6.273  1.00 20.00     0.011 C 
ENDBRANCH   6   8
ENDBRANCH   5   6
ENDBRANCH   4   5
ENDBRANCH   3   4
TORSDOF 4
ENDMDL
MODEL 2
REMARK VINA RESULT:      -5.0      1.557      1.930
REMARK  4 active torsions:
REMARK  status: ('A' for Active; 'I' for Inactive)
REMARK    1  A    between atoms: C5_5  and  C6_6 
REMARK    2  A    between atoms: C6_6  and  C7_7 
REMARK    3  A    between atoms: C7_7  and  C9_9 
REMARK    4  A    between atoms: C8_8  and  C9_9 
ROOT
HETATM    1  C1  UNL     1     -32.529   9.317   0.149  1.00 20.00     0.012 C 
HETATM    2  C2  UNL     1     -32.173   8.820   1.183  1.00 20.00    -0.117 C 
HETATM    3  C5  UNL     1     -31.734   8.214   2.448  1.00 20.00     0.093 C 
ENDROOT
BRANCH   3   4
HETATM    4  C6  UNL     1     -32.438   6.885   2.729  1.00 20.00     0.014 C 
BRANCH   4   5
HETATM    5  C7  UNL     1     -32.433   6.513   4.218  1.00 20.00     0.021 C 
BRANCH   5   6
HETATM    6  C9  UNL     1     -33.838   6.480   4.845  1.00 20.00     0.085 C 
HETATM    7 CL10 UNL     1     -33.673   6.865   6.596  1.00 20.00    -0.125 Cl
BRANCH   6   8
HETATM    8  C8  UNL     1     -34.631   5.165   4.633  1.00 20.00    -0.004 C 
HETATM    9  C3  UNL     1     -35.033   4.517   5.964  1.00 20.00     0.011 C 
HETATM   10  C4  UNL     1     -35.866   5.320   3.739  1.00 20.00     0.011 C 
ENDBRANCH   6   8
ENDBRANCH   5   6
ENDBRANCH   4   5
ENDBRANCH   3   4
TORSDOF 4
ENDMDL
MODEL 3
REMARK VINA RESULT:      -4.6      1.999      5.371
REMARK  4 active torsions:
REMARK  status: ('A' for Active; 'I' for Inactive)
REMARK    1  A    between atoms: C5_5  and  C6_6 
REMARK    2  A    between atoms: C6_6  and  C7_7 
REMARK    3  A    between atoms: C7_7  and  C9_9 
REMARK    4  A    between atoms: C8_8  and  C9_9 
ROOT
HETATM    1  C1  UNL     1     -35.116   4.276   6.169  1.00 20.00     0.012 C 
HETATM    2  C2  UNL     1     -35.016   4.781   5.084  1.00 20.00    -0.117 C 
HETATM    3  C5  UNL     1     -34.894   5.397   3.755  1.00 20.00     0.093 C 
ENDROOT
BRANCH   3   4
HETATM    4  C6  UNL     1     -33.895   6.556   3.743  1.00 20.00     0.014 C 
BRANCH   4   5
HETATM    5  C7  UNL     1     -32.603   6.219   2.986  1.00 20.00     0.021 C 
BRANCH   5   6
HETATM    6  C9  UNL     1     -31.744   7.455   2.661  1.00 20.00     0.085 C 
HETATM    7 CL10 UNL     1     -31.323   8.261   4.214  1.00 20.00    -0.125 Cl
BRANCH   6   8
HETATM    8  C8  UNL     1     -32.375   8.458   1.661  1.00 20.00    -0.004 C 
HETATM    9  C3  UNL     1     -32.639   9.823   2.309  1.00 20.00     0.011 C 
HETATM   10  C4  UNL     1     -31.565   8.645   0.374  1.00 20.00     0.011 C 
ENDBRANCH   6   8
ENDBRANCH   5   6
ENDBRANCH   4   5
ENDBRANCH   3   4
TORSDOF 4
ENDMDL
MODEL 4
REMARK VINA RESULT:      -4.5      1.498      4.610
REMARK  4 active torsions:
REMARK  status: ('A' for Active; 'I' for Inactive)
REMARK    1  A    between atoms: C5_5  and  C6_6 
REMARK    2  A    between atoms: C6_6  and  C7_7 
REMARK    3  A    between atoms: C7_7  and  C9_9 
REMARK    4  A    between atoms: C8_8  and  C9_9 
ROOT
HETATM    1  C1  UNL     1     -33.651   7.139   6.764  1.00 20.00     0.012 C 
HETATM    2  C2  UNL     1     -34.176   6.174   6.279  1.00 20.00    -0.117 C 
HETATM    3  C5  UNL     1     -34.817   4.990   5.689  1.00 20.00     0.093 C 
ENDROOT
BRANCH   3   4
HETATM    4  C6  UNL     1     -34.639   4.931   4.170  1.00 20.00     0.014 C 
BRANCH   4   5
HETATM    5  C7  UNL     1     -34.468   6.319   3.538  1.00 20.00     0.021 C 
BRANCH   5   6
HETATM    6  C9  UNL     1     -33.165   6.468   2.731  1.00 20.00     0.085 C 
HETATM    7 CL10 UNL     1     -32.075   5.108   3.183  1.00 20.00    -0.125 Cl
BRANCH   6   8
HETATM    8  C8  UNL     1     -32.447   7.834   2.874  1.00 20.00    -0.004 C 
HETATM    9  C3  UNL     1     -31.266   7.761   3.850  1.00 20.00     0.011 C 
HETATM   10  C4  UNL     1     -31.982   8.435   1.544  1.00 20.00     0.011 C 
ENDBRANCH   6   8
ENDBRANCH   5   6
ENDBRANCH   4   5
ENDBRANCH   3   4
TORSDOF 4
ENDMDL
MODEL 5
REMARK VINA RESULT:      -4.4     11.415     12.751
REMARK  4 active torsions:
REMARK  status: ('A' for Active; 'I' for Inactive)
REMARK    1  A    between atoms: C5_5  and  C6_6 
REMARK    2  A    between atoms: C6_6  and  C7_7 
REMARK    3  A    between atoms: C7_7  and  C9_9 
REMARK    4  A    between atoms: C8_8  and  C9_9 
ROOT
HETATM    1  C1  UNL     1     -34.770  17.371   0.319  1.00 20.00     0.012 C 
HETATM    2  C2  UNL     1     -34.777  16.761  -0.715  1.00 20.00    -0.117 C 
HETATM    3  C5  UNL     1     -34.786  16.010  -1.978  1.00 20.00     0.093 C 
ENDROOT
BRANCH   3   4
HETATM    4  C6  UNL     1     -33.507  16.225  -2.790  1.00 20.00     0.014 C 
BRANCH   4   5
HETATM    5  C7  UNL     1     -33.282  15.133  -3.845  1.00 20.00     0.021 C 
BRANCH   5   6
HETATM    6  C9  UNL     1     -34.519  14.862  -4.720  1.00 20.00     0.085 C 
HETATM    7 CL10 UNL     1     -35.071  13.180  -4.393  1.00 20.00    -0.125 Cl
BRANCH   6   8
HETATM    8  C8  UNL     1     -34.324  15.103  -6.239  1.00 20.00    -0.004 C 
HETATM    9  C3  UNL     1     -35.400  14.396  -7.073  1.00 20.00     0.011 C 
HETATM   10  C4  UNL     1     -34.255  16.582  -6.630  1.00 20.00     0.011 C 
ENDBRANCH   6   8
ENDBRANCH   5   6
ENDBRANCH   4   5
ENDBRANCH   3   4
TORSDOF 4
ENDMDL
MODEL 6
REMARK VINA RESULT:      -4.3     11.116     12.758
REMARK  4 active torsions:
REMARK  status: ('A' for Active; 'I' for Inactive)
REMARK    1  A    between atoms: C5_5  and  C6_6 
REMARK    2  A    between atoms: C6_6  and  C7_7 
REMARK    3  A    between atoms: C7_7  and  C9_9 
REMARK    4  A    between atoms: C8_8  and  C9_9 
ROOT
HETATM    1  C1  UNL     1     -34.806  14.780  -7.115  1.00 20.00     0.012 C 
HETATM    2  C2  UNL     1     -34.775  14.114  -6.116  1.00 20.00    -0.117 C 
HETATM    3  C5  UNL     1     -34.740  13.297  -4.895  1.00 20.00     0.093 C 
ENDROOT
BRANCH   3   4
HETATM    4  C6  UNL     1     -33.883  13.931  -3.797  1.00 20.00     0.014 C 
BRANCH   4   5
HETATM    5  C7  UNL     1     -34.659  14.949  -2.951  1.00 20.00     0.021 C 
BRANCH   5   6
HETATM    6  C9  UNL     1     -33.936  16.300  -2.803  1.00 20.00     0.085 C 
HETATM    7 CL10 UNL     1     -34.120  16.843  -1.096  1.00 20.00    -0.125 Cl
BRANCH   6   8
HETATM    8  C8  UNL     1     -34.384  17.406  -3.793  1.00 20.00    -0.004 C 
HETATM    9  C3  UNL     1     -33.450  17.500  -5.006  1.00 20.00     0.011 C 
HETATM   10  C4  UNL     1     -35.834  17.266  -4.267  1.00 20.00     0.011 C 
ENDBRANCH   6   8
ENDBRANCH   5   6
ENDBRANCH   4   5
ENDBRANCH   3   4
TORSDOF 4
ENDMDL
MODEL 7
REMARK VINA RESULT:      -4.3     11.823     12.873
REMARK  4 active torsions:
REMARK  status: ('A' for Active; 'I' for Inactive)
REMARK    1  A    between atoms: C5_5  and  C6_6 
REMARK    2  A    between atoms: C6_6  and  C7_7 
REMARK    3  A    between atoms: C7_7  and  C9_9 
REMARK    4  A    between atoms: C8_8  and  C9_9 
ROOT
HETATM    1  C1  UNL     1     -34.805  17.695   0.673  1.00 20.00     0.012 C 
HETATM    2  C2  UNL     1     -34.787  17.024  -0.323  1.00 20.00    -0.117 C 
HETATM    3  C5  UNL     1     -34.766  16.199  -1.539  1.00 20.00     0.093 C 
ENDROOT
BRANCH   3   4
HETATM    4  C6  UNL     1     -33.571  16.521  -2.438  1.00 20.00     0.014 C 
BRANCH   4   5
HETATM    5  C7  UNL     1     -33.264  15.402  -3.443  1.00 20.00     0.021 C 
BRANCH   5   6
HETATM    6  C9  UNL     1     -33.469  15.823  -4.909  1.00 20.00     0.085 C 
HETATM    7 CL10 UNL     1     -33.622  17.616  -4.955  1.00 20.00    -0.125 Cl
BRANCH   6   8
HETATM    8  C8  UNL     1     -34.655  15.140  -5.637  1.00 20.00    -0.004 C 
HETATM    9  C3  UNL     1     -34.412  15.028  -7.148  1.00 20.00     0.011 C 
HETATM   10  C4  UNL     1     -35.024  13.765  -5.070  1.00 20.00     0.011 C 
ENDBRANCH   6   8
ENDBRANCH   5   6
ENDBRANCH   4   5
ENDBRANCH   3   4
TORSDOF 4
ENDMDL
MODEL 8
REMARK VINA RESULT:      -4.3     11.425     12.405
REMARK  4 active torsions:
REMARK  status: ('A' for Active; 'I' for Inactive)
REMARK    1  A    between atoms: C5_5  and  C6_6 
REMARK    2  A    between atoms: C6_6  and  C7_7 
REMARK    3  A    between atoms: C7_7  and  C9_9 
REMARK    4  A    between atoms: C8_8  and  C9_9 
ROOT
HETATM    1  C1  UNL     1     -34.218  15.823  -6.735  1.00 20.00     0.012 C 
HETATM    2  C2  UNL     1     -34.458  14.808  -6.140  1.00 20.00    -0.117 C 
HETATM    3  C5  UNL     1     -34.754  13.564  -5.415  1.00 20.00     0.093 C 
ENDROOT
BRANCH   3   4
HETATM    4  C6  UNL     1     -35.052  13.813  -3.935  1.00 20.00     0.014 C 
BRANCH   4   5
HETATM    5  C7  UNL     1     -36.317  14.654  -3.717  1.00 20.00     0.021 C 
BRANCH   5   6
HETATM    6  C9  UNL     1     -36.044  16.005  -3.032  1.00 20.00     0.085 C 
HETATM    7 CL10 UNL     1     -36.399  17.311  -4.219  1.00 20.00    -0.125 Cl
BRANCH   6   8
HETATM    8  C8  UNL     1     -34.626  16.168  -2.426  1.00 20.00    -0.004 C 
HETATM    9  C3  UNL     1     -33.776  17.170  -3.219  1.00 20.00     0.011 C 
HETATM   10  C4  UNL     1     -34.623  16.548  -0.942  1.00 20.00     0.011 C 
ENDBRANCH   6   8
ENDBRANCH   5   6
ENDBRANCH   4   5
ENDBRANCH   3   4
TORSDOF 4
ENDMDL
MODEL 9
REMARK VINA RESULT:      -4.2     11.300     12.341
REMARK  4 active torsions:
REMARK  status: ('A' for Active; 'I' for Inactive)
REMARK    1  A    between atoms: C5_5  and  C6_6 
REMARK    2  A    between atoms: C6_6  and  C7_7 
REMARK    3  A    between atoms: C7_7  and  C9_9 
REMARK    4  A    between atoms: C8_8  and  C9_9 
ROOT
HETATM    1  C1  UNL     1     -34.747  16.415  -1.276  1.00 20.00     0.012 C 
HETATM    2  C2  UNL     1     -34.091  16.173  -2.253  1.00 20.00    -0.117 C 
HETATM    3  C5  UNL     1     -33.289  15.881  -3.449  1.00 20.00     0.093 C 
ENDROOT
BRANCH   3   4
HETATM    4  C6  UNL     1     -33.370  14.408  -3.856  1.00 20.00     0.014 C 
BRANCH   4   5
HETATM    5  C7  UNL     1     -34.803  13.859  -3.814  1.00 20.00     0.021 C 
BRANCH   5   6
HETATM    6  C9  UNL     1     -35.582  14.080  -5.123  1.00 20.00     0.085 C 
HETATM    7 CL10 UNL     1     -34.407  14.589  -6.389  1.00 20.00    -0.125 Cl
BRANCH   6   8
HETATM    8  C8  UNL     1     -36.770  15.071  -5.030  1.00 20.00    -0.004 C 
HETATM    9  C3  UNL     1     -37.466  15.005  -3.664  1.00 20.00     0.011 C 
HETATM   10  C4  UNL     1     -36.397  16.522  -5.349  1.00 20.00     0.011 C 
ENDBRANCH   6   8
ENDBRANCH   5   6
ENDBRANCH   4   5
ENDBRANCH   3   4
TORSDOF 4
ENDMDL
