MODEL 1
REMARK VINA RESULT:      -5.9      0.000      0.000
REMARK  2 active torsions:
REMARK  status: ('A' for Active; 'I' for Inactive)
REMARK    1  A    between atoms: C9_9  and  C11_11 
REMARK    2  A    between atoms: C10_10  and  C11_11 
ROOT
HETATM    1  C1  UNL     1     -32.168   8.712   1.249  1.00 20.00     0.012 C 
HETATM    2  C2  UNL     1     -32.004   8.022   2.218  1.00 20.00    -0.117 C 
HETATM    3  C10 UNL     1     -31.802   7.182   3.405  1.00 20.00     0.093 C 
ENDROOT
BRANCH   3   4
HETATM    4  C11 UNL     1     -32.750   6.002   3.372  1.00 20.00     0.017 C 
BRANCH   4   5
HETATM    5  C9  UNL     1     -34.184   6.458   3.646  1.00 20.00    -0.007 C 
HETATM    6  C5  UNL     1     -34.292   7.343   4.891  1.00 20.00     0.082 C 
HETATM    7  C3  UNL     1     -33.977   6.644   6.193  1.00 20.00     0.127 C 
HETATM    8  C4  UNL     1     -34.845   5.473   6.590  1.00 20.00     0.078 C 
HETATM    9  O12 UNL     1     -33.050   7.022   6.910  1.00 20.00    -0.298 OA
HETATM   10  C6  UNL     1     -34.378   4.214   5.882  1.00 20.00     0.007 C 
HETATM   11  C7  UNL     1     -34.873   4.049   4.444  1.00 20.00     0.001 C 
HETATM   12  C8  UNL     1     -35.203   5.308   3.641  1.00 20.00     0.005 C 
ENDBRANCH   4   5
ENDBRANCH   3   4
TORSDOF 2
ENDMDL
MODEL 2
REMARK VINA RESULT:      -5.4     11.200     12.404
REMARK  2 active torsions:
REMARK  status: ('A' for Active; 'I' for Inactive)
REMARK    1  A    between atoms: C9_9  and  C11_11 
REMARK    2  A    between atoms: C10_10  and  C11_11 
ROOT
HETATM    1  C1  UNL     1     -35.437  17.732   1.196  1.00 20.00     0.012 C 
HETATM    2  C2  UNL     1     -34.810  17.454   0.210  1.00 20.00    -0.117 C 
HETATM    3  C10 UNL     1     -34.039  17.116  -0.993  1.00 20.00     0.093 C 
ENDROOT
BRANCH   3   4
HETATM    4  C11 UNL     1     -34.805  16.118  -1.836  1.00 20.00     0.017 C 
BRANCH   4   5
HETATM    5  C9  UNL     1     -34.672  16.456  -3.321  1.00 20.00    -0.007 C 
HETATM    6  C5  UNL     1     -35.899  16.032  -4.135  1.00 20.00     0.082 C 
HETATM    7  C3  UNL     1     -36.118  14.539  -4.215  1.00 20.00     0.127 C 
HETATM    8  C4  UNL     1     -35.036  13.704  -4.859  1.00 20.00     0.078 C 
HETATM    9  O12 UNL     1     -37.147  14.022  -3.779  1.00 20.00    -0.298 OA
HETATM   10  C6  UNL     1     -33.932  13.417  -3.858  1.00 20.00     0.007 C 
HETATM   11  C7  UNL     1     -32.908  14.538  -3.672  1.00 20.00     0.001 C 
HETATM   12  C8  UNL     1     -33.351  15.977  -3.942  1.00 20.00     0.005 C 
ENDBRANCH   4   5
ENDBRANCH   3   4
TORSDOF 2
ENDMDL
MODEL 3
REMARK VINA RESULT:      -5.4     11.673     12.958
REMARK  2 active torsions:
REMARK  status: ('A' for Active; 'I' for Inactive)
REMARK    1  A    between atoms: C9_9  and  C11_11 
REMARK    2  A    between atoms: C10_10  and  C11_11 
ROOT
HETATM    1  C1  UNL     1     -35.101  17.337   0.529  1.00 20.00     0.012 C 
HETATM    2  C2  UNL     1     -34.523  17.177  -0.511  1.00 20.00    -0.117 C 
HETATM    3  C10 UNL     1     -33.812  16.984  -1.781  1.00 20.00     0.093 C 
ENDROOT
BRANCH   3   4
HETATM    4  C11 UNL     1     -34.331  15.747  -2.483  1.00 20.00     0.017 C 
BRANCH   4   5
HETATM    5  C9  UNL     1     -33.274  15.186  -3.435  1.00 20.00    -0.007 C 
HETATM    6  C5  UNL     1     -33.016  16.103  -4.635  1.00 20.00     0.082 C 
HETATM    7  C3  UNL     1     -34.184  16.248  -5.582  1.00 20.00     0.127 C 
HETATM    8  C4  UNL     1     -34.689  15.001  -6.269  1.00 20.00     0.078 C 
HETATM    9  O12 UNL     1     -34.700  17.346  -5.793  1.00 20.00    -0.298 OA
HETATM   10  C6  UNL     1     -35.623  14.238  -5.348  1.00 20.00     0.007 C 
HETATM   11  C7  UNL     1     -34.936  13.347  -4.311  1.00 20.00     0.001 C 
HETATM   12  C8  UNL     1     -33.530  13.727  -3.844  1.00 20.00     0.005 C 
ENDBRANCH   4   5
ENDBRANCH   3   4
TORSDOF 2
ENDMDL
MODEL 4
REMARK VINA RESULT:      -5.4     11.757     13.008
REMARK  2 active torsions:
REMARK  status: ('A' for Active; 'I' for Inactive)
REMARK    1  A    between atoms: C9_9  and  C11_11 
REMARK    2  A    between atoms: C10_10  and  C11_11 
ROOT
HETATM    1  C1  UNL     1     -34.901  17.229   0.236  1.00 20.00     0.012 C 
HETATM    2  C2  UNL     1     -34.358  17.104  -0.827  1.00 20.00    -0.117 C 
HETATM    3  C10 UNL     1     -33.690  16.954  -2.126  1.00 20.00     0.093 C 
ENDROOT
BRANCH   3   4
HETATM    4  C11 UNL     1     -34.100  15.647  -2.772  1.00 20.00     0.017 C 
BRANCH   4   5
HETATM    5  C9  UNL     1     -35.482  15.776  -3.414  1.00 20.00    -0.007 C 
HETATM    6  C5  UNL     1     -36.077  14.420  -3.807  1.00 20.00     0.082 C 
HETATM    7  C3  UNL     1     -35.334  13.698  -4.906  1.00 20.00     0.127 C 
HETATM    8  C4  UNL     1     -35.238  14.377  -6.252  1.00 20.00     0.078 C 
HETATM    9  O12 UNL     1     -34.831  12.590  -4.714  1.00 20.00    -0.298 OA
HETATM   10  C6  UNL     1     -34.106  15.388  -6.248  1.00 20.00     0.007 C 
HETATM   11  C7  UNL     1     -34.442  16.745  -5.625  1.00 20.00     0.001 C 
HETATM   12  C8  UNL     1     -35.534  16.802  -4.555  1.00 20.00     0.005 C 
ENDBRANCH   4   5
ENDBRANCH   3   4
TORSDOF 2
ENDMDL
MODEL 5
REMARK VINA RESULT:      -4.8     11.414     13.318
REMARK  2 active torsions:
REMARK  status: ('A' for Active; 'I' for Inactive)
REMARK    1  A    between atoms: C9_9  and  C11_11 
REMARK    2  A    between atoms: C10_10  and  C11_11 
ROOT
HETATM    1  C1  UNL     1     -39.023  14.696  -4.141  1.00 20.00     0.012 C 
HETATM    2  C2  UNL     1     -38.258  15.052  -4.995  1.00 20.00    -0.117 C 
HETATM    3  C10 UNL     1     -37.324  15.486  -6.042  1.00 20.00     0.093 C 
ENDROOT
BRANCH   3   4
HETATM    4  C11 UNL     1     -36.123  16.164  -5.417  1.00 20.00     0.017 C 
BRANCH   4   5
HETATM    5  C9  UNL     1     -34.830  15.665  -6.062  1.00 20.00    -0.007 C 
HETATM    6  C5  UNL     1     -34.726  14.136  -6.067  1.00 20.00     0.082 C 
HETATM    7  C3  UNL     1     -34.606  13.507  -4.698  1.00 20.00     0.127 C 
HETATM    8  C4  UNL     1     -33.408  13.880  -3.856  1.00 20.00     0.078 C 
HETATM    9  O12 UNL     1     -35.451  12.711  -4.288  1.00 20.00    -0.298 OA
HETATM   10  C6  UNL     1     -33.657  15.200  -3.150  1.00 20.00     0.007 C 
HETATM   11  C7  UNL     1     -33.410  16.452  -3.994  1.00 20.00     0.001 C 
HETATM   12  C8  UNL     1     -33.568  16.346  -5.512  1.00 20.00     0.005 C 
ENDBRANCH   4   5
ENDBRANCH   3   4
TORSDOF 2
ENDMDL
MODEL 6
REMARK VINA RESULT:      -4.7     11.466     13.045
REMARK  2 active torsions:
REMARK  status: ('A' for Active; 'I' for Inactive)
REMARK    1  A    between atoms: C9_9  and  C11_11 
REMARK    2  A    between atoms: C10_10  and  C11_11 
ROOT
HETATM    1  C1  UNL     1     -36.694  16.799  -7.608  1.00 20.00     0.012 C 
HETATM    2  C2  UNL     1     -36.170  15.742  -7.382  1.00 20.00    -0.117 C 
HETATM    3  C10 UNL     1     -35.530  14.449  -7.109  1.00 20.00     0.093 C 
ENDROOT
BRANCH   3   4
HETATM    4  C11 UNL     1     -34.443  14.618  -6.068  1.00 20.00     0.017 C 
BRANCH   4   5
HETATM    5  C9  UNL     1     -34.721  13.732  -4.853  1.00 20.00    -0.007 C 
HETATM    6  C5  UNL     1     -36.013  14.119  -4.126  1.00 20.00     0.082 C 
HETATM    7  C3  UNL     1     -35.983  15.480  -3.468  1.00 20.00     0.127 C 
HETATM    8  C4  UNL     1     -34.955  15.715  -2.387  1.00 20.00     0.078 C 
HETATM    9  O12 UNL     1     -36.777  16.362  -3.797  1.00 20.00    -0.298 OA
HETATM   10  C6  UNL     1     -33.615  16.065  -3.007  1.00 20.00     0.007 C 
HETATM   11  C7  UNL     1     -32.785  14.873  -3.489  1.00 20.00     0.001 C 
HETATM   12  C8  UNL     1     -33.520  13.598  -3.905  1.00 20.00     0.005 C 
ENDBRANCH   4   5
ENDBRANCH   3   4
TORSDOF 2
ENDMDL
MODEL 7
REMARK VINA RESULT:      -4.7     11.859     13.104
REMARK  2 active torsions:
REMARK  status: ('A' for Active; 'I' for Inactive)
REMARK    1  A    between atoms: C9_9  and  C11_11 
REMARK    2  A    between atoms: C10_10  and  C11_11 
ROOT
HETATM    1  C1  UNL     1     -32.995  18.702  -0.715  1.00 20.00     0.012 C 
HETATM    2  C2  UNL     1     -33.720  17.748  -0.789  1.00 20.00    -0.117 C 
HETATM    3  C10 UNL     1     -34.608  16.581  -0.874  1.00 20.00     0.093 C 
ENDROOT
BRANCH   3   4
HETATM    4  C11 UNL     1     -35.279  16.538  -2.231  1.00 20.00     0.017 C 
BRANCH   4   5
HETATM    5  C9  UNL     1     -35.209  15.129  -2.820  1.00 20.00    -0.007 C 
HETATM    6  C5  UNL     1     -33.882  14.854  -3.536  1.00 20.00     0.082 C 
HETATM    7  C3  UNL     1     -33.653  15.680  -4.780  1.00 20.00     0.127 C 
HETATM    8  C4  UNL     1     -34.637  15.526  -5.917  1.00 20.00     0.078 C 
HETATM    9  O12 UNL     1     -32.693  16.446  -4.868  1.00 20.00    -0.298 OA
HETATM   10  C6  UNL     1     -35.866  16.378  -5.663  1.00 20.00     0.007 C 
HETATM   11  C7  UNL     1     -36.907  15.765  -4.725  1.00 20.00     0.001 C 
HETATM   12  C8  UNL     1     -36.433  14.761  -3.673  1.00 20.00     0.005 C 
ENDBRANCH   4   5
ENDBRANCH   3   4
TORSDOF 2
ENDMDL
MODEL 8
REMARK VINA RESULT:      -4.5     11.885     13.183
REMARK  2 active torsions:
REMARK  status: ('A' for Active; 'I' for Inactive)
REMARK    1  A    between atoms: C9_9  and  C11_11 
REMARK    2  A    between atoms: C10_10  and  C11_11 
ROOT
HETATM    1  C1  UNL     1     -34.889  13.170  -4.960  1.00 20.00     0.012 C 
HETATM    2  C2  UNL     1     -34.073  13.755  -4.302  1.00 20.00    -0.117 C 
HETATM    3  C10 UNL     1     -33.072  14.468  -3.498  1.00 20.00     0.093 C 
ENDROOT
BRANCH   3   4
HETATM    4  C11 UNL     1     -33.478  15.917  -3.331  1.00 20.00     0.017 C 
BRANCH   4   5
HETATM    5  C9  UNL     1     -34.768  16.021  -2.516  1.00 20.00    -0.007 C 
HETATM    6  C5  UNL     1     -35.851  16.839  -3.228  1.00 20.00     0.082 C 
HETATM    7  C3  UNL     1     -35.523  18.303  -3.405  1.00 20.00     0.127 C 
HETATM    8  C4  UNL     1     -35.304  19.129  -2.159  1.00 20.00     0.078 C 
HETATM    9  O12 UNL     1     -35.445  18.807  -4.526  1.00 20.00    -0.298 OA
HETATM   10  C6  UNL     1     -33.885  18.946  -1.653  1.00 20.00     0.007 C 
HETATM   11  C7  UNL     1     -33.645  17.686  -0.818  1.00 20.00     0.001 C 
HETATM   12  C8  UNL     1     -34.541  16.471  -1.064  1.00 20.00     0.005 C 
ENDBRANCH   4   5
ENDBRANCH   3   4
TORSDOF 2
ENDMDL
MODEL 9
REMARK VINA RESULT:      -4.5     12.165     13.363
REMARK  2 active torsions:
REMARK  status: ('A' for Active; 'I' for Inactive)
REMARK    1  A    between atoms: C9_9  and  C11_11 
REMARK    2  A    between atoms: C10_10  and  C11_11 
ROOT
HETATM    1  C1  UNL     1     -34.669  17.101  -0.231  1.00 20.00     0.012 C 
HETATM    2  C2  UNL     1     -34.333  16.552  -1.244  1.00 20.00    -0.117 C 
HETATM    3  C10 UNL     1     -33.918  15.878  -2.481  1.00 20.00     0.093 C 
ENDROOT
BRANCH   3   4
HETATM    4  C11 UNL     1     -35.006  15.999  -3.527  1.00 20.00     0.017 C 
BRANCH   4   5
HETATM    5  C9  UNL     1     -35.534  14.616  -3.914  1.00 20.00    -0.007 C 
HETATM    6  C5  UNL     1     -34.800  14.023  -5.121  1.00 20.00     0.082 C 
HETATM    7  C3  UNL     1     -35.012  14.767  -6.418  1.00 20.00     0.127 C 
HETATM    8  C4  UNL     1     -36.423  14.861  -6.950  1.00 20.00     0.078 C 
HETATM    9  O12 UNL     1     -34.067  15.271  -7.025  1.00 20.00    -0.298 OA
HETATM   10  C6  UNL     1     -37.166  15.992  -6.263  1.00 20.00     0.007 C 
HETATM   11  C7  UNL     1     -37.745  15.654  -4.887  1.00 20.00     0.001 C 
HETATM   12  C8  UNL     1     -37.062  14.563  -4.061  1.00 20.00     0.005 C 
ENDBRANCH   4   5
ENDBRANCH   3   4
TORSDOF 2
ENDMDL
