MODEL 1
REMARK VINA RESULT:      -4.7      0.000      0.000
REMARK  3 active torsions:
REMARK  status: ('A' for Active; 'I' for Inactive)
REMARK    1  A    between atoms: C3_3  and  C5_5 
REMARK    2  A    between atoms: C5_5  and  C6_6 
REMARK    3  A    between atoms: C6_6  and  C7_7 
ROOT
HETATM    1  C5  UNL     1     -34.715   5.471   3.663  1.00 20.00     0.006 C 
ENDROOT
BRANCH   1   2
HETATM    2  C3  UNL     1     -35.290   4.942   4.943  1.00 20.00    -0.014 A 
HETATM    3  C1  UNL     1     -34.526   3.937   5.759  1.00 20.00     0.005 A 
HETATM    4  C2  UNL     1     -34.694   5.343   6.263  1.00 20.00     0.005 A 
ENDBRANCH   1   2
BRANCH   1   5
HETATM    5  C6  UNL     1     -34.009   6.814   3.875  1.00 20.00     0.015 C 
BRANCH   5   6
HETATM    6  C7  UNL     1     -32.523   6.780   3.510  1.00 20.00     0.053 C 
HETATM    7  C4  UNL     1     -32.118   5.430   2.931  1.00 20.00     0.022 C 
HETATM    8 BR8  UNL     1     -32.126   8.152   2.165  1.00 20.00    -0.092 Br
ENDBRANCH   5   6
ENDBRANCH   1   5
TORSDOF 3
ENDMDL
MODEL 2
REMARK VINA RESULT:      -4.6      1.939      4.016
REMARK  3 active torsions:
REMARK  status: ('A' for Active; 'I' for Inactive)
REMARK    1  A    between atoms: C3_3  and  C5_5 
REMARK    2  A    between atoms: C5_5  and  C6_6 
REMARK    3  A    between atoms: C6_6  and  C7_7 
ROOT
HETATM    1  C5  UNL     1     -34.023   6.749   3.475  1.00 20.00     0.006 C 
ENDROOT
BRANCH   1   2
HETATM    2  C3  UNL     1     -32.625   6.703   2.934  1.00 20.00    -0.014 A 
HETATM    3  C1  UNL     1     -32.039   7.906   2.248  1.00 20.00     0.005 A 
HETATM    4  C2  UNL     1     -31.531   7.491   3.601  1.00 20.00     0.005 A 
ENDBRANCH   1   2
BRANCH   1   5
HETATM    5  C6  UNL     1     -34.550   5.346   3.797  1.00 20.00     0.015 C 
BRANCH   5   6
HETATM    6  C7  UNL     1     -35.016   5.195   5.247  1.00 20.00     0.053 C 
HETATM    7  C4  UNL     1     -34.795   3.780   5.764  1.00 20.00     0.022 C 
HETATM    8 BR8  UNL     1     -34.016   6.420   6.408  1.00 20.00    -0.092 Br
ENDBRANCH   5   6
ENDBRANCH   1   5
TORSDOF 3
ENDMDL
MODEL 3
REMARK VINA RESULT:      -4.6      2.516      4.708
REMARK  3 active torsions:
REMARK  status: ('A' for Active; 'I' for Inactive)
REMARK    1  A    between atoms: C3_3  and  C5_5 
REMARK    2  A    between atoms: C5_5  and  C6_6 
REMARK    3  A    between atoms: C6_6  and  C7_7 
ROOT
HETATM    1  C5  UNL     1     -31.814   7.533   3.168  1.00 20.00     0.006 C 
ENDROOT
BRANCH   1   2
HETATM    2  C3  UNL     1     -32.495   8.146   1.981  1.00 20.00    -0.014 A 
HETATM    3  C1  UNL     1     -32.437   9.632   1.759  1.00 20.00     0.005 A 
HETATM    4  C2  UNL     1     -31.681   8.705   0.848  1.00 20.00     0.005 A 
ENDBRANCH   1   2
BRANCH   1   5
HETATM    5  C6  UNL     1     -32.491   6.226   3.595  1.00 20.00     0.015 C 
BRANCH   5   6
HETATM    6  C7  UNL     1     -33.923   6.425   4.097  1.00 20.00     0.053 C 
HETATM    7  C4  UNL     1     -34.865   5.365   3.541  1.00 20.00     0.022 C 
HETATM    8 BR8  UNL     1     -33.974   6.304   6.055  1.00 20.00    -0.092 Br
ENDBRANCH   5   6
ENDBRANCH   1   5
TORSDOF 3
ENDMDL
MODEL 4
REMARK VINA RESULT:      -4.3      1.025      1.498
REMARK  3 active torsions:
REMARK  status: ('A' for Active; 'I' for Inactive)
REMARK    1  A    between atoms: C3_3  and  C5_5 
REMARK    2  A    between atoms: C5_5  and  C6_6 
REMARK    3  A    between atoms: C6_6  and  C7_7 
ROOT
HETATM    1  C5  UNL     1     -34.280   5.844   3.692  1.00 20.00     0.006 C 
ENDROOT
BRANCH   1   2
HETATM    2  C3  UNL     1     -33.962   5.268   5.039  1.00 20.00    -0.014 A 
HETATM    3  C1  UNL     1     -34.344   6.011   6.289  1.00 20.00     0.005 A 
HETATM    4  C2  UNL     1     -35.065   4.745   5.917  1.00 20.00     0.005 A 
ENDBRANCH   1   2
BRANCH   1   5
HETATM    5  C6  UNL     1     -33.008   6.152   2.895  1.00 20.00     0.015 C 
BRANCH   5   6
HETATM    6  C7  UNL     1     -32.497   7.580   3.102  1.00 20.00     0.053 C 
HETATM    7  C4  UNL     1     -31.263   7.611   3.994  1.00 20.00     0.022 C 
HETATM    8 BR8  UNL     1     -32.011   8.379   1.377  1.00 20.00    -0.092 Br
ENDBRANCH   5   6
ENDBRANCH   1   5
TORSDOF 3
ENDMDL
MODEL 5
REMARK VINA RESULT:      -3.6     11.713     12.337
REMARK  3 active torsions:
REMARK  status: ('A' for Active; 'I' for Inactive)
REMARK    1  A    between atoms: C3_3  and  C5_5 
REMARK    2  A    between atoms: C5_5  and  C6_6 
REMARK    3  A    between atoms: C6_6  and  C7_7 
ROOT
HETATM    1  C5  UNL     1     -35.499  16.686  -2.189  1.00 20.00     0.006 C 
ENDROOT
BRANCH   1   2
HETATM    2  C3  UNL     1     -34.564  16.569  -1.022  1.00 20.00    -0.014 A 
HETATM    3  C1  UNL     1     -33.688  17.728  -0.634  1.00 20.00     0.005 A 
HETATM    4  C2  UNL     1     -34.840  17.328   0.246  1.00 20.00     0.005 A 
ENDBRANCH   1   2
BRANCH   1   5
HETATM    5  C6  UNL     1     -35.493  15.417  -3.048  1.00 20.00     0.015 C 
BRANCH   5   6
HETATM    6  C7  UNL     1     -34.085  14.948  -3.421  1.00 20.00     0.053 C 
HETATM    7  C4  UNL     1     -34.107  13.579  -4.087  1.00 20.00     0.022 C 
HETATM    8 BR8  UNL     1     -33.264  16.212  -4.678  1.00 20.00    -0.092 Br
ENDBRANCH   5   6
ENDBRANCH   1   5
TORSDOF 3
ENDMDL
MODEL 6
REMARK VINA RESULT:      -3.6     12.000     12.888
REMARK  3 active torsions:
REMARK  status: ('A' for Active; 'I' for Inactive)
REMARK    1  A    between atoms: C3_3  and  C5_5 
REMARK    2  A    between atoms: C5_5  and  C6_6 
REMARK    3  A    between atoms: C6_6  and  C7_7 
ROOT
HETATM    1  C5  UNL     1     -33.364  15.747  -3.078  1.00 20.00     0.006 C 
ENDROOT
BRANCH   1   2
HETATM    2  C3  UNL     1     -34.168  16.783  -2.352  1.00 20.00    -0.014 A 
HETATM    3  C1  UNL     1     -34.711  16.496  -0.979  1.00 20.00     0.005 A 
HETATM    4  C2  UNL     1     -33.591  17.484  -1.153  1.00 20.00     0.005 A 
ENDBRANCH   1   2
BRANCH   1   5
HETATM    5  C6  UNL     1     -33.451  15.928  -4.598  1.00 20.00     0.015 C 
BRANCH   5   6
HETATM    6  C7  UNL     1     -34.655  15.218  -5.222  1.00 20.00     0.053 C 
HETATM    7  C4  UNL     1     -34.437  14.941  -6.703  1.00 20.00     0.022 C 
HETATM    8 BR8  UNL     1     -34.961  13.498  -4.329  1.00 20.00    -0.092 Br
ENDBRANCH   5   6
ENDBRANCH   1   5
TORSDOF 3
ENDMDL
MODEL 7
REMARK VINA RESULT:      -3.6     11.686     12.833
REMARK  3 active torsions:
REMARK  status: ('A' for Active; 'I' for Inactive)
REMARK    1  A    between atoms: C3_3  and  C5_5 
REMARK    2  A    between atoms: C5_5  and  C6_6 
REMARK    3  A    between atoms: C6_6  and  C7_7 
ROOT
HETATM    1  C5  UNL     1     -33.108  14.695  -3.595  1.00 20.00     0.006 C 
ENDROOT
BRANCH   1   2
HETATM    2  C3  UNL     1     -33.903  13.620  -4.275  1.00 20.00    -0.014 A 
HETATM    3  C1  UNL     1     -35.404  13.615  -4.182  1.00 20.00     0.005 A 
HETATM    4  C2  UNL     1     -34.732  13.945  -5.486  1.00 20.00     0.005 A 
ENDBRANCH   1   2
BRANCH   1   5
HETATM    5  C6  UNL     1     -33.187  16.023  -4.356  1.00 20.00     0.015 C 
BRANCH   5   6
HETATM    6  C7  UNL     1     -33.936  17.114  -3.588  1.00 20.00     0.053 C 
HETATM    7  C4  UNL     1     -35.242  17.489  -4.275  1.00 20.00     0.022 C 
HETATM    8 BR8  UNL     1     -34.368  16.490  -1.779  1.00 20.00    -0.092 Br
ENDBRANCH   5   6
ENDBRANCH   1   5
TORSDOF 3
ENDMDL
MODEL 8
REMARK VINA RESULT:      -3.6     11.777     12.405
REMARK  3 active torsions:
REMARK  status: ('A' for Active; 'I' for Inactive)
REMARK    1  A    between atoms: C3_3  and  C5_5 
REMARK    2  A    between atoms: C5_5  and  C6_6 
REMARK    3  A    between atoms: C6_6  and  C7_7 
ROOT
HETATM    1  C5  UNL     1     -34.936  15.513  -2.510  1.00 20.00     0.006 C 
ENDROOT
BRANCH   1   2
HETATM    2  C3  UNL     1     -34.904  16.843  -1.819  1.00 20.00    -0.014 A 
HETATM    3  C1  UNL     1     -34.744  16.917  -0.326  1.00 20.00     0.005 A 
HETATM    4  C2  UNL     1     -33.622  17.355  -1.225  1.00 20.00     0.005 A 
ENDBRANCH   1   2
BRANCH   1   5
HETATM    5  C6  UNL     1     -33.706  15.309  -3.401  1.00 20.00     0.015 C 
BRANCH   5   6
HETATM    6  C7  UNL     1     -33.946  14.322  -4.545  1.00 20.00     0.053 C 
HETATM    7  C4  UNL     1     -35.075  13.352  -4.223  1.00 20.00     0.022 C 
HETATM    8 BR8  UNL     1     -34.436  15.290  -6.180  1.00 20.00    -0.092 Br
ENDBRANCH   5   6
ENDBRANCH   1   5
TORSDOF 3
ENDMDL
MODEL 9
REMARK VINA RESULT:      -3.5      1.766      2.667
REMARK  3 active torsions:
REMARK  status: ('A' for Active; 'I' for Inactive)
REMARK    1  A    between atoms: C3_3  and  C5_5 
REMARK    2  A    between atoms: C5_5  and  C6_6 
REMARK    3  A    between atoms: C6_6  and  C7_7 
ROOT
HETATM    1  C5  UNL     1     -32.453   6.322   3.281  1.00 20.00     0.006 C 
ENDROOT
BRANCH   1   2
HETATM    2  C3  UNL     1     -33.828   6.477   3.858  1.00 20.00    -0.014 A 
HETATM    3  C1  UNL     1     -34.838   5.372   3.717  1.00 20.00     0.005 A 
HETATM    4  C2  UNL     1     -34.237   5.675   5.061  1.00 20.00     0.005 A 
ENDBRANCH   1   2
BRANCH   1   5
HETATM    5  C6  UNL     1     -31.818   7.679   2.961  1.00 20.00     0.015 C 
BRANCH   5   6
HETATM    6  C7  UNL     1     -32.573   8.460   1.884  1.00 20.00     0.053 C 
HETATM    7  C4  UNL     1     -32.736   9.926   2.263  1.00 20.00     0.022 C 
HETATM    8 BR8  UNL     1     -31.595   8.386   0.185  1.00 20.00    -0.092 Br
ENDBRANCH   5   6
ENDBRANCH   1   5
TORSDOF 3
ENDMDL
