MODEL 1
REMARK VINA RESULT:      -5.0      0.000      0.000
REMARK  1 active torsions:
REMARK  status: ('A' for Active; 'I' for Inactive)
REMARK    1  A    between atoms: C8_8  and  C10_10 
ROOT
HETATM    1  C1  UNL     1     -34.676  16.988  -0.520  1.00 20.00     0.012 C 
HETATM    2  C2  UNL     1     -34.542  16.292  -1.489  1.00 20.00    -0.117 C 
HETATM    3  C10 UNL     1     -34.360  15.441  -2.665  1.00 20.00     0.097 C 
ENDROOT
BRANCH   3   4
HETATM    4  C8  UNL     1     -35.642  15.378  -3.490  1.00 20.00    -0.002 C 
HETATM    5  C5  UNL     1     -35.827  14.033  -4.210  1.00 20.00     0.005 C 
HETATM    6  C3  UNL     1     -34.803  13.665  -5.277  1.00 20.00     0.000 C 
HETATM    7  C4  UNL     1     -34.695  14.655  -6.434  1.00 20.00     0.001 C 
HETATM    8  C6  UNL     1     -33.924  15.917  -6.060  1.00 20.00     0.020 C 
HETATM    9  C9  UNL     1     -34.756  17.008  -5.387  1.00 20.00     0.082 C 
HETATM   10  C7  UNL     1     -35.867  16.579  -4.422  1.00 20.00     0.025 C 
HETATM   11 CL11 UNL     1     -33.645  18.179  -4.592  1.00 20.00    -0.125 Cl
ENDBRANCH   3   4
TORSDOF 1
ENDMDL
MODEL 2
REMARK VINA RESULT:      -5.0      1.954      2.638
REMARK  1 active torsions:
REMARK  status: ('A' for Active; 'I' for Inactive)
REMARK    1  A    between atoms: C8_8  and  C10_10 
ROOT
HETATM    1  C1  UNL     1     -33.612  17.555  -0.701  1.00 20.00     0.012 C 
HETATM    2  C2  UNL     1     -34.246  16.862  -1.449  1.00 20.00    -0.117 C 
HETATM    3  C10 UNL     1     -35.034  16.027  -2.356  1.00 20.00     0.097 C 
ENDROOT
BRANCH   3   4
HETATM    4  C8  UNL     1     -34.154  14.975  -3.024  1.00 20.00    -0.002 C 
HETATM    5  C5  UNL     1     -32.992  15.585  -3.825  1.00 20.00     0.005 C 
HETATM    6  C3  UNL     1     -33.352  16.443  -5.033  1.00 20.00     0.000 C 
HETATM    7  C4  UNL     1     -34.165  15.728  -6.109  1.00 20.00     0.001 C 
HETATM    8  C6  UNL     1     -35.633  15.565  -5.728  1.00 20.00     0.020 C 
HETATM    9  C9  UNL     1     -35.947  14.338  -4.873  1.00 20.00     0.082 C 
HETATM   10  C7  UNL     1     -34.919  13.907  -3.821  1.00 20.00     0.025 C 
HETATM   11 CL11 UNL     1     -37.568  14.552  -4.123  1.00 20.00    -0.125 Cl
ENDBRANCH   3   4
TORSDOF 1
ENDMDL
MODEL 3
REMARK VINA RESULT:      -4.8      1.977      2.940
REMARK  1 active torsions:
REMARK  status: ('A' for Active; 'I' for Inactive)
REMARK    1  A    between atoms: C8_8  and  C10_10 
ROOT
HETATM    1  C1  UNL     1     -34.799  17.353   0.209  1.00 20.00     0.012 C 
HETATM    2  C2  UNL     1     -34.776  16.705  -0.801  1.00 20.00    -0.117 C 
HETATM    3  C10 UNL     1     -34.764  15.906  -2.027  1.00 20.00     0.097 C 
ENDROOT
BRANCH   3   4
HETATM    4  C8  UNL     1     -33.582  16.292  -2.912  1.00 20.00    -0.002 C 
HETATM    5  C5  UNL     1     -33.726  17.693  -3.527  1.00 20.00     0.005 C 
HETATM    6  C3  UNL     1     -34.876  17.913  -4.503  1.00 20.00     0.000 C 
HETATM    7  C4  UNL     1     -34.860  17.005  -5.731  1.00 20.00     0.001 C 
HETATM    8  C6  UNL     1     -35.329  15.588  -5.422  1.00 20.00     0.020 C 
HETATM    9  C9  UNL     1     -34.247  14.650  -4.887  1.00 20.00     0.082 C 
HETATM   10  C7  UNL     1     -33.182  15.233  -3.951  1.00 20.00     0.025 C 
HETATM   11 CL11 UNL     1     -35.038  13.221  -4.133  1.00 20.00    -0.125 Cl
ENDBRANCH   3   4
TORSDOF 1
ENDMDL
MODEL 4
REMARK VINA RESULT:      -4.6     12.250     13.442
REMARK  1 active torsions:
REMARK  status: ('A' for Active; 'I' for Inactive)
REMARK    1  A    between atoms: C8_8  and  C10_10 
ROOT
HETATM    1  C1  UNL     1     -31.882   8.005   2.119  1.00 20.00     0.012 C 
HETATM    2  C2  UNL     1     -32.156   7.326   3.070  1.00 20.00    -0.117 C 
HETATM    3  C10 UNL     1     -32.474   6.488   4.227  1.00 20.00     0.097 C 
ENDROOT
BRANCH   3   4
HETATM    4  C8  UNL     1     -33.769   6.949   4.889  1.00 20.00    -0.002 C 
HETATM    5  C5  UNL     1     -33.889   6.498   6.353  1.00 20.00     0.005 C 
HETATM    6  C3  UNL     1     -33.971   5.000   6.618  1.00 20.00     0.000 C 
HETATM    7  C4  UNL     1     -35.147   4.292   5.949  1.00 20.00     0.001 C 
HETATM    8  C6  UNL     1     -34.927   4.065   4.457  1.00 20.00     0.020 C 
HETATM    9  C9  UNL     1     -35.307   5.244   3.560  1.00 20.00     0.082 C 
HETATM   10  C7  UNL     1     -35.043   6.662   4.080  1.00 20.00     0.025 C 
HETATM   11 CL11 UNL     1     -34.554   5.011   1.944  1.00 20.00    -0.125 Cl
ENDBRANCH   3   4
TORSDOF 1
ENDMDL
MODEL 5
REMARK VINA RESULT:      -4.5     11.225     12.973
REMARK  1 active torsions:
REMARK  status: ('A' for Active; 'I' for Inactive)
REMARK    1  A    between atoms: C8_8  and  C10_10 
ROOT
HETATM    1  C1  UNL     1     -42.702   8.921  -4.530  1.00 20.00     0.012 C 
HETATM    2  C2  UNL     1     -42.713   7.845  -3.998  1.00 20.00    -0.117 C 
HETATM    3  C10 UNL     1     -42.720   6.526  -3.365  1.00 20.00     0.097 C 
ENDROOT
BRANCH   3   4
HETATM    4  C8  UNL     1     -43.243   6.616  -1.934  1.00 20.00    -0.002 C 
HETATM    5  C5  UNL     1     -42.473   7.633  -1.077  1.00 20.00     0.005 C 
HETATM    6  C3  UNL     1     -41.001   7.347  -0.808  1.00 20.00     0.000 C 
HETATM    7  C4  UNL     1     -40.722   6.025  -0.096  1.00 20.00     0.001 C 
HETATM    8  C6  UNL     1     -40.836   4.820  -1.023  1.00 20.00     0.020 C 
HETATM    9  C9  UNL     1     -42.251   4.268  -1.196  1.00 20.00     0.082 C 
HETATM   10  C7  UNL     1     -43.417   5.263  -1.226  1.00 20.00     0.025 C 
HETATM   11 CL11 UNL     1     -42.287   3.206  -2.647  1.00 20.00    -0.125 Cl
ENDBRANCH   3   4
TORSDOF 1
ENDMDL
MODEL 6
REMARK VINA RESULT:      -4.4     11.880     13.729
REMARK  1 active torsions:
REMARK  status: ('A' for Active; 'I' for Inactive)
REMARK    1  A    between atoms: C8_8  and  C10_10 
ROOT
HETATM    1  C1  UNL     1     -41.553   2.032  -3.423  1.00 20.00     0.012 C 
HETATM    2  C2  UNL     1     -41.864   3.096  -2.961  1.00 20.00    -0.117 C 
HETATM    3  C10 UNL     1     -42.257   4.394  -2.412  1.00 20.00     0.097 C 
ENDROOT
BRANCH   3   4
HETATM    4  C8  UNL     1     -41.413   4.741  -1.188  1.00 20.00    -0.002 C 
HETATM    5  C5  UNL     1     -42.021   4.224   0.125  1.00 20.00     0.005 C 
HETATM    6  C3  UNL     1     -43.364   4.807   0.550  1.00 20.00     0.000 C 
HETATM    7  C4  UNL     1     -43.375   6.321   0.746  1.00 20.00     0.001 C 
HETATM    8  C6  UNL     1     -43.405   7.086  -0.574  1.00 20.00     0.020 C 
HETATM    9  C9  UNL     1     -42.040   7.319  -1.219  1.00 20.00     0.082 C 
HETATM   10  C7  UNL     1     -40.984   6.213  -1.098  1.00 20.00     0.025 C 
HETATM   11 CL11 UNL     1     -42.282   7.777  -2.942  1.00 20.00    -0.125 Cl
ENDBRANCH   3   4
TORSDOF 1
ENDMDL
MODEL 7
REMARK VINA RESULT:      -4.4      1.740      3.692
REMARK  1 active torsions:
REMARK  status: ('A' for Active; 'I' for Inactive)
REMARK    1  A    between atoms: C8_8  and  C10_10 
ROOT
HETATM    1  C1  UNL     1     -33.664  19.203  -6.878  1.00 20.00     0.012 C 
HETATM    2  C2  UNL     1     -33.707  18.504  -5.903  1.00 20.00    -0.117 C 
HETATM    3  C10 UNL     1     -33.767  17.668  -4.703  1.00 20.00     0.097 C 
ENDROOT
BRANCH   3   4
HETATM    4  C8  UNL     1     -33.280  16.254  -5.007  1.00 20.00    -0.002 C 
HETATM    5  C5  UNL     1     -34.054  15.585  -6.153  1.00 20.00     0.005 C 
HETATM    6  C3  UNL     1     -35.538  15.317  -5.930  1.00 20.00     0.000 C 
HETATM    7  C4  UNL     1     -35.857  14.418  -4.738  1.00 20.00     0.001 C 
HETATM    8  C6  UNL     1     -35.738  15.145  -3.403  1.00 20.00     0.020 C 
HETATM    9  C9  UNL     1     -34.328  15.191  -2.813  1.00 20.00     0.082 C 
HETATM   10  C7  UNL     1     -33.146  15.341  -3.778  1.00 20.00     0.025 C 
HETATM   11 CL11 UNL     1     -34.272  16.460  -1.540  1.00 20.00    -0.125 Cl
ENDBRANCH   3   4
TORSDOF 1
ENDMDL
MODEL 8
REMARK VINA RESULT:      -4.4      1.782      2.940
REMARK  1 active torsions:
REMARK  status: ('A' for Active; 'I' for Inactive)
REMARK    1  A    between atoms: C8_8  and  C10_10 
ROOT
HETATM    1  C1  UNL     1     -38.725  14.741  -4.051  1.00 20.00     0.012 C 
HETATM    2  C2  UNL     1     -37.672  15.240  -4.340  1.00 20.00    -0.117 C 
HETATM    3  C10 UNL     1     -36.393  15.863  -4.682  1.00 20.00     0.097 C 
ENDROOT
BRANCH   3   4
HETATM    4  C8  UNL     1     -35.546  14.925  -5.537  1.00 20.00    -0.002 C 
HETATM    5  C5  UNL     1     -35.255  13.583  -4.848  1.00 20.00     0.005 C 
HETATM    6  C3  UNL     1     -34.415  13.619  -3.576  1.00 20.00     0.000 C 
HETATM    7  C4  UNL     1     -33.023  14.223  -3.742  1.00 20.00     0.001 C 
HETATM    8  C6  UNL     1     -33.047  15.745  -3.827  1.00 20.00     0.020 C 
HETATM    9  C9  UNL     1     -33.306  16.312  -5.223  1.00 20.00     0.082 C 
HETATM   10  C7  UNL     1     -34.284  15.564  -6.137  1.00 20.00     0.025 C 
HETATM   11 CL11 UNL     1     -33.779  18.040  -5.070  1.00 20.00    -0.125 Cl
ENDBRANCH   3   4
TORSDOF 1
ENDMDL
MODEL 9
REMARK VINA RESULT:      -4.3      1.927      3.468
REMARK  1 active torsions:
REMARK  status: ('A' for Active; 'I' for Inactive)
REMARK    1  A    between atoms: C8_8  and  C10_10 
ROOT
HETATM    1  C1  UNL     1     -38.312  15.891  -6.808  1.00 20.00     0.012 C 
HETATM    2  C2  UNL     1     -37.494  15.530  -6.007  1.00 20.00    -0.117 C 
HETATM    3  C10 UNL     1     -36.506  15.098  -5.017  1.00 20.00     0.097 C 
ENDROOT
BRANCH   3   4
HETATM    4  C8  UNL     1     -35.351  14.363  -5.691  1.00 20.00    -0.002 C 
HETATM    5  C5  UNL     1     -34.693  13.315  -4.780  1.00 20.00     0.005 C 
HETATM    6  C3  UNL     1     -33.993  13.823  -3.525  1.00 20.00     0.000 C 
HETATM    7  C4  UNL     1     -32.858  14.812  -3.777  1.00 20.00     0.001 C 
HETATM    8  C6  UNL     1     -33.360  16.210  -4.121  1.00 20.00     0.020 C 
HETATM    9  C9  UNL     1     -33.695  16.433  -5.596  1.00 20.00     0.082 C 
HETATM   10  C7  UNL     1     -34.322  15.274  -6.378  1.00 20.00     0.025 C 
HETATM   11 CL11 UNL     1     -34.703  17.916  -5.745  1.00 20.00    -0.125 Cl
ENDBRANCH   3   4
TORSDOF 1
ENDMDL
