MODEL 1
REMARK VINA RESULT:      -5.0      0.000      0.000
REMARK  1 active torsions:
REMARK  status: ('A' for Active; 'I' for Inactive)
REMARK    1  A    between atoms: C4_4  and  C8_8 
ROOT
HETATM    1  C1  UNL     1     -35.215  13.207  -4.573  1.00 20.00     0.135 A 
HETATM    2  C2  UNL     1     -36.067  14.193  -4.124  1.00 20.00     0.136 A 
HETATM    3  C3  UNL     1     -33.461  14.256  -3.547  1.00 20.00     0.143 A 
HETATM    4  C4  UNL     1     -34.312  15.243  -3.099  1.00 20.00     0.056 A 
HETATM    5  N10 UNL     1     -33.896  13.222  -4.292  1.00 20.00    -0.270 NA
HETATM    6  N11 UNL     1     -35.631  15.227  -3.378  1.00 20.00    -0.262 NA
ENDROOT
BRANCH   4   7
HETATM    7  C8  UNL     1     -33.787  16.388  -2.264  1.00 20.00     0.041 C 
HETATM    8  C5  UNL     1     -33.825  17.763  -2.966  1.00 20.00     0.012 C 
HETATM    9  C6  UNL     1     -34.676  18.665  -2.073  1.00 20.00     0.021 C 
HETATM   10  C9  UNL     1     -34.540  18.072  -0.677  1.00 20.00     0.083 C 
HETATM   11  C7  UNL     1     -34.570  16.572  -0.949  1.00 20.00     0.031 C 
HETATM   12 CL12 UNL     1     -32.993  18.553   0.075  1.00 20.00    -0.125 Cl
ENDBRANCH   4   7
TORSDOF 1
ENDMDL
MODEL 2
REMARK VINA RESULT:      -4.8      2.857      4.885
REMARK  1 active torsions:
REMARK  status: ('A' for Active; 'I' for Inactive)
REMARK    1  A    between atoms: C4_4  and  C8_8 
ROOT
HETATM    1  C1  UNL     1     -34.142  18.428  -0.067  1.00 20.00     0.135 A 
HETATM    2  C2  UNL     1     -34.689  17.165  -0.001  1.00 20.00     0.136 A 
HETATM    3  C3  UNL     1     -33.675  18.109  -2.282  1.00 20.00     0.143 A 
HETATM    4  C4  UNL     1     -34.221  16.846  -2.217  1.00 20.00     0.056 A 
HETATM    5  N10 UNL     1     -33.625  18.922  -1.209  1.00 20.00    -0.270 NA
HETATM    6  N11 UNL     1     -34.740  16.352  -1.074  1.00 20.00    -0.262 NA
ENDROOT
BRANCH   4   7
HETATM    7  C8  UNL     1     -34.260  15.962  -3.443  1.00 20.00     0.041 C 
HETATM    8  C5  UNL     1     -32.968  15.154  -3.691  1.00 20.00     0.012 C 
HETATM    9  C6  UNL     1     -33.390  13.686  -3.706  1.00 20.00     0.021 C 
HETATM   10  C9  UNL     1     -34.853  13.704  -4.126  1.00 20.00     0.083 C 
HETATM   11  C7  UNL     1     -35.396  14.921  -3.388  1.00 20.00     0.031 C 
HETATM   12 CL12 UNL     1     -35.007  13.909  -5.894  1.00 20.00    -0.125 Cl
ENDBRANCH   4   7
TORSDOF 1
ENDMDL
MODEL 3
REMARK VINA RESULT:      -4.8      3.023      4.915
REMARK  1 active torsions:
REMARK  status: ('A' for Active; 'I' for Inactive)
REMARK    1  A    between atoms: C4_4  and  C8_8 
ROOT
HETATM    1  C1  UNL     1     -34.086  18.430  -0.049  1.00 20.00     0.135 A 
HETATM    2  C2  UNL     1     -33.580  18.868  -1.253  1.00 20.00     0.136 A 
HETATM    3  C3  UNL     1     -34.678  16.446  -1.019  1.00 20.00     0.143 A 
HETATM    4  C4  UNL     1     -34.172  16.883  -2.224  1.00 20.00     0.056 A 
HETATM    5  N10 UNL     1     -34.644  17.211   0.089  1.00 20.00    -0.270 NA
HETATM    6  N11 UNL     1     -33.613  18.103  -2.362  1.00 20.00    -0.262 NA
ENDROOT
BRANCH   4   7
HETATM    7  C8  UNL     1     -34.228  15.997  -3.447  1.00 20.00     0.041 C 
HETATM    8  C5  UNL     1     -32.947  15.172  -3.700  1.00 20.00     0.012 C 
HETATM    9  C6  UNL     1     -33.386  13.709  -3.707  1.00 20.00     0.021 C 
HETATM   10  C9  UNL     1     -34.852  13.743  -4.120  1.00 20.00     0.083 C 
HETATM   11  C7  UNL     1     -35.376  14.969  -3.382  1.00 20.00     0.031 C 
HETATM   12 CL12 UNL     1     -35.013  13.944  -5.888  1.00 20.00    -0.125 Cl
ENDBRANCH   4   7
TORSDOF 1
ENDMDL
MODEL 4
REMARK VINA RESULT:      -4.7      0.814      1.400
REMARK  1 active torsions:
REMARK  status: ('A' for Active; 'I' for Inactive)
REMARK    1  A    between atoms: C4_4  and  C8_8 
ROOT
HETATM    1  C1  UNL     1     -35.506  13.481  -4.509  1.00 20.00     0.135 A 
HETATM    2  C2  UNL     1     -34.144  13.559  -4.319  1.00 20.00     0.136 A 
HETATM    3  C3  UNL     1     -35.796  15.324  -3.188  1.00 20.00     0.143 A 
HETATM    4  C4  UNL     1     -34.434  15.404  -2.997  1.00 20.00     0.056 A 
HETATM    5  N10 UNL     1     -36.357  14.362  -3.946  1.00 20.00    -0.270 NA
HETATM    6  N11 UNL     1     -33.583  14.523  -3.561  1.00 20.00    -0.262 NA
ENDROOT
BRANCH   4   7
HETATM    7  C8  UNL     1     -33.842  16.498  -2.140  1.00 20.00     0.041 C 
HETATM    8  C5  UNL     1     -33.829  17.894  -2.800  1.00 20.00     0.012 C 
HETATM    9  C6  UNL     1     -34.622  18.806  -1.864  1.00 20.00     0.021 C 
HETATM   10  C9  UNL     1     -34.490  18.165  -0.489  1.00 20.00     0.083 C 
HETATM   11  C7  UNL     1     -34.593  16.678  -0.805  1.00 20.00     0.031 C 
HETATM   12 CL12 UNL     1     -32.909  18.553   0.247  1.00 20.00    -0.125 Cl
ENDBRANCH   4   7
TORSDOF 1
ENDMDL
MODEL 5
REMARK VINA RESULT:      -4.4     12.787     15.011
REMARK  1 active torsions:
REMARK  status: ('A' for Active; 'I' for Inactive)
REMARK    1  A    between atoms: C4_4  and  C8_8 
ROOT
HETATM    1  C1  UNL     1     -41.189   6.878  -1.217  1.00 20.00     0.135 A 
HETATM    2  C2  UNL     1     -42.195   6.666  -2.135  1.00 20.00     0.136 A 
HETATM    3  C3  UNL     1     -40.790   4.629  -1.136  1.00 20.00     0.143 A 
HETATM    4  C4  UNL     1     -41.795   4.415  -2.054  1.00 20.00     0.056 A 
HETATM    5  N10 UNL     1     -40.469   5.862  -0.701  1.00 20.00    -0.270 NA
HETATM    6  N11 UNL     1     -42.515   5.431  -2.571  1.00 20.00    -0.262 NA
ENDROOT
BRANCH   4   7
HETATM    7  C8  UNL     1     -42.126   3.016  -2.518  1.00 20.00     0.041 C 
HETATM    8  C5  UNL     1     -43.417   2.907  -3.357  1.00 20.00     0.012 C 
HETATM    9  C6  UNL     1     -42.997   2.300  -4.695  1.00 20.00     0.021 C 
HETATM   10  C9  UNL     1     -41.738   1.502  -4.384  1.00 20.00     0.083 C 
HETATM   11  C7  UNL     1     -41.012   2.402  -3.390  1.00 20.00     0.031 C 
HETATM   12 CL12 UNL     1     -42.146  -0.071  -3.641  1.00 20.00    -0.125 Cl
ENDBRANCH   4   7
TORSDOF 1
ENDMDL
MODEL 6
REMARK VINA RESULT:      -4.4      2.962      4.877
REMARK  1 active torsions:
REMARK  status: ('A' for Active; 'I' for Inactive)
REMARK    1  A    between atoms: C4_4  and  C8_8 
ROOT
HETATM    1  C1  UNL     1     -33.714  18.889  -0.597  1.00 20.00     0.135 A 
HETATM    2  C2  UNL     1     -34.240  17.760  -0.006  1.00 20.00     0.136 A 
HETATM    3  C3  UNL     1     -33.701  17.822  -2.619  1.00 20.00     0.143 A 
HETATM    4  C4  UNL     1     -34.226  16.693  -2.029  1.00 20.00     0.056 A 
HETATM    5  N10 UNL     1     -33.435  18.939  -1.915  1.00 20.00    -0.270 NA
HETATM    6  N11 UNL     1     -34.505  16.643  -0.711  1.00 20.00    -0.262 NA
ENDROOT
BRANCH   4   7
HETATM    7  C8  UNL     1     -34.510  15.459  -2.853  1.00 20.00     0.041 C 
HETATM    8  C5  UNL     1     -35.968  15.339  -3.347  1.00 20.00     0.012 C 
HETATM    9  C6  UNL     1     -35.889  15.259  -4.870  1.00 20.00     0.021 C 
HETATM   10  C9  UNL     1     -34.509  14.684  -5.160  1.00 20.00     0.083 C 
HETATM   11  C7  UNL     1     -33.636  15.377  -4.120  1.00 20.00     0.031 C 
HETATM   12 CL12 UNL     1     -34.494  12.913  -4.928  1.00 20.00    -0.125 Cl
ENDBRANCH   4   7
TORSDOF 1
ENDMDL
MODEL 7
REMARK VINA RESULT:      -4.3      3.648      5.626
REMARK  1 active torsions:
REMARK  status: ('A' for Active; 'I' for Inactive)
REMARK    1  A    between atoms: C4_4  and  C8_8 
ROOT
HETATM    1  C1  UNL     1     -31.804  19.203   2.320  1.00 20.00     0.135 A 
HETATM    2  C2  UNL     1     -33.095  18.782   2.554  1.00 20.00     0.136 A 
HETATM    3  C3  UNL     1     -32.108  18.886   0.076  1.00 20.00     0.143 A 
HETATM    4  C4  UNL     1     -33.399  18.465   0.310  1.00 20.00     0.056 A 
HETATM    5  N10 UNL     1     -31.288  19.263   1.076  1.00 20.00    -0.270 NA
HETATM    6  N11 UNL     1     -33.915  18.406   1.554  1.00 20.00    -0.262 NA
ENDROOT
BRANCH   4   7
HETATM    7  C8  UNL     1     -34.290  18.050  -0.839  1.00 20.00     0.041 C 
HETATM    8  C5  UNL     1     -33.640  18.177  -2.233  1.00 20.00     0.012 C 
HETATM    9  C6  UNL     1     -33.692  16.779  -2.848  1.00 20.00     0.021 C 
HETATM   10  C9  UNL     1     -34.873  16.098  -2.169  1.00 20.00     0.083 C 
HETATM   11  C7  UNL     1     -34.754  16.584  -0.730  1.00 20.00     0.031 C 
HETATM   12 CL12 UNL     1     -36.417  16.626  -2.895  1.00 20.00    -0.125 Cl
ENDBRANCH   4   7
TORSDOF 1
ENDMDL
MODEL 8
REMARK VINA RESULT:      -4.2      2.988      4.290
REMARK  1 active torsions:
REMARK  status: ('A' for Active; 'I' for Inactive)
REMARK    1  A    between atoms: C4_4  and  C8_8 
ROOT
HETATM    1  C1  UNL     1     -39.569  16.272  -3.469  1.00 20.00     0.135 A 
HETATM    2  C2  UNL     1     -39.401  14.922  -3.682  1.00 20.00     0.136 A 
HETATM    3  C3  UNL     1     -37.300  16.554  -3.475  1.00 20.00     0.143 A 
HETATM    4  C4  UNL     1     -37.131  15.204  -3.688  1.00 20.00     0.056 A 
HETATM    5  N10 UNL     1     -38.521  17.113  -3.361  1.00 20.00    -0.270 NA
HETATM    6  N11 UNL     1     -38.180  14.363  -3.797  1.00 20.00    -0.262 NA
ENDROOT
BRANCH   4   7
HETATM    7  C8  UNL     1     -35.746  14.614  -3.811  1.00 20.00     0.041 C 
HETATM    8  C5  UNL     1     -35.148  14.670  -5.234  1.00 20.00     0.012 C 
HETATM    9  C6  UNL     1     -33.843  15.454  -5.109  1.00 20.00     0.021 C 
HETATM   10  C9  UNL     1     -33.401  15.249  -3.666  1.00 20.00     0.083 C 
HETATM   11  C7  UNL     1     -34.718  15.318  -2.902  1.00 20.00     0.031 C 
HETATM   12 CL12 UNL     1     -32.625  13.654  -3.456  1.00 20.00    -0.125 Cl
ENDBRANCH   4   7
TORSDOF 1
ENDMDL
MODEL 9
REMARK VINA RESULT:      -4.2      2.897      4.006
REMARK  1 active torsions:
REMARK  status: ('A' for Active; 'I' for Inactive)
REMARK    1  A    between atoms: C4_4  and  C8_8 
ROOT
HETATM    1  C1  UNL     1     -39.397  15.253  -5.172  1.00 20.00     0.135 A 
HETATM    2  C2  UNL     1     -38.943  14.641  -4.024  1.00 20.00     0.136 A 
HETATM    3  C3  UNL     1     -37.246  15.431  -5.927  1.00 20.00     0.143 A 
HETATM    4  C4  UNL     1     -36.791  14.819  -4.779  1.00 20.00     0.056 A 
HETATM    5  N10 UNL     1     -38.556  15.660  -6.144  1.00 20.00    -0.270 NA
HETATM    6  N11 UNL     1     -37.633  14.412  -3.808  1.00 20.00    -0.262 NA
ENDROOT
BRANCH   4   7
HETATM    7  C8  UNL     1     -35.314  14.580  -4.572  1.00 20.00     0.041 C 
HETATM    8  C5  UNL     1     -34.404  15.211  -5.648  1.00 20.00     0.012 C 
HETATM    9  C6  UNL     1     -33.457  16.147  -4.898  1.00 20.00     0.021 C 
HETATM   10  C9  UNL     1     -33.372  15.572  -3.491  1.00 20.00     0.083 C 
HETATM   11  C7  UNL     1     -34.807  15.133  -3.225  1.00 20.00     0.031 C 
HETATM   12 CL12 UNL     1     -32.258  14.176  -3.438  1.00 20.00    -0.125 Cl
ENDBRANCH   4   7
TORSDOF 1
ENDMDL
