MODEL 1
REMARK VINA RESULT:      -4.8      0.000      0.000
REMARK  2 active torsions:
REMARK  status: ('A' for Active; 'I' for Inactive)
REMARK    1  A    between atoms: C2_2  and  C10_10 
REMARK    2  A    between atoms: C7_7  and  C10_10 
ROOT
HETATM    1  C1  UNL     1     -33.038  18.231  -0.423  1.00 20.00    -0.111 C 
HETATM    2  C2  UNL     1     -33.748  17.388  -0.900  1.00 20.00    -0.107 C 
HETATM    3  C9  UNL     1     -32.174  19.256   0.158  1.00 20.00     0.112 C 
ENDROOT
BRANCH   2   4
HETATM    4  C10 UNL     1     -34.610  16.362  -1.494  1.00 20.00     0.098 C 
BRANCH   4   5
HETATM    5  C7  UNL     1     -34.029  15.857  -2.813  1.00 20.00    -0.002 C 
HETATM    6  C4  UNL     1     -34.709  14.548  -3.238  1.00 20.00     0.005 C 
HETATM    7  C3  UNL     1     -34.183  14.049  -4.582  1.00 20.00     0.002 C 
HETATM    8  C5  UNL     1     -34.313  15.114  -5.668  1.00 20.00     0.020 C 
HETATM    9  C8  UNL     1     -33.631  16.416  -5.248  1.00 20.00     0.082 C 
HETATM   10  C6  UNL     1     -34.164  16.925  -3.909  1.00 20.00     0.025 C 
HETATM   11 CL11 UNL     1     -33.869  17.660  -6.509  1.00 20.00    -0.125 Cl
ENDBRANCH   4   5
ENDBRANCH   2   4
TORSDOF 2
ENDMDL
MODEL 2
REMARK VINA RESULT:      -4.7     11.710     12.959
REMARK  2 active torsions:
REMARK  status: ('A' for Active; 'I' for Inactive)
REMARK    1  A    between atoms: C2_2  and  C10_10 
REMARK    2  A    between atoms: C7_7  and  C10_10 
ROOT
HETATM    1  C1  UNL     1     -32.238   8.530   1.643  1.00 20.00    -0.111 C 
HETATM    2  C2  UNL     1     -32.371   7.435   2.118  1.00 20.00    -0.107 C 
HETATM    3  C9  UNL     1     -32.075   9.863   1.066  1.00 20.00     0.112 C 
ENDROOT
BRANCH   2   4
HETATM    4  C10 UNL     1     -32.545   6.099   2.696  1.00 20.00     0.098 C 
BRANCH   4   5
HETATM    5  C7  UNL     1     -33.632   6.107   3.768  1.00 20.00    -0.002 C 
HETATM    6  C4  UNL     1     -34.070   4.675   4.106  1.00 20.00     0.005 C 
HETATM    7  C3  UNL     1     -35.119   4.651   5.215  1.00 20.00     0.002 C 
HETATM    8  C5  UNL     1     -34.636   5.386   6.463  1.00 20.00     0.020 C 
HETATM    9  C8  UNL     1     -34.206   6.815   6.129  1.00 20.00     0.082 C 
HETATM   10  C6  UNL     1     -33.146   6.841   5.028  1.00 20.00     0.025 C 
HETATM   11 CL11 UNL     1     -33.577   7.617   7.597  1.00 20.00    -0.125 Cl
ENDBRANCH   4   5
ENDBRANCH   2   4
TORSDOF 2
ENDMDL
MODEL 3
REMARK VINA RESULT:      -4.6      2.414      2.872
REMARK  2 active torsions:
REMARK  status: ('A' for Active; 'I' for Inactive)
REMARK    1  A    between atoms: C2_2  and  C10_10 
REMARK    2  A    between atoms: C7_7  and  C10_10 
ROOT
HETATM    1  C1  UNL     1     -35.026  17.429   0.863  1.00 20.00    -0.111 C 
HETATM    2  C2  UNL     1     -34.620  17.114  -0.223  1.00 20.00    -0.107 C 
HETATM    3  C9  UNL     1     -35.520  17.814   2.183  1.00 20.00     0.112 C 
ENDROOT
BRANCH   2   4
HETATM    4  C10 UNL     1     -34.115  16.723  -1.542  1.00 20.00     0.098 C 
BRANCH   4   5
HETATM    5  C7  UNL     1     -35.143  15.876  -2.290  1.00 20.00    -0.002 C 
HETATM    6  C4  UNL     1     -36.139  16.772  -3.040  1.00 20.00     0.005 C 
HETATM    7  C3  UNL     1     -37.146  15.950  -3.840  1.00 20.00     0.002 C 
HETATM    8  C5  UNL     1     -36.451  14.982  -4.795  1.00 20.00     0.020 C 
HETATM    9  C8  UNL     1     -35.464  14.085  -4.049  1.00 20.00     0.082 C 
HETATM   10  C6  UNL     1     -34.446  14.906  -3.256  1.00 20.00     0.025 C 
HETATM   11 CL11 UNL     1     -34.616  13.021  -5.207  1.00 20.00    -0.125 Cl
ENDBRANCH   4   5
ENDBRANCH   2   4
TORSDOF 2
ENDMDL
MODEL 4
REMARK VINA RESULT:      -4.5      1.634      2.292
REMARK  2 active torsions:
REMARK  status: ('A' for Active; 'I' for Inactive)
REMARK    1  A    between atoms: C2_2  and  C10_10 
REMARK    2  A    between atoms: C7_7  and  C10_10 
ROOT
HETATM    1  C1  UNL     1     -32.859  18.410   0.041  1.00 20.00    -0.111 C 
HETATM    2  C2  UNL     1     -33.756  17.709  -0.344  1.00 20.00    -0.107 C 
HETATM    3  C9  UNL     1     -31.767  19.262   0.507  1.00 20.00     0.112 C 
ENDROOT
BRANCH   2   4
HETATM    4  C10 UNL     1     -34.850  16.848  -0.802  1.00 20.00     0.098 C 
BRANCH   4   5
HETATM    5  C7  UNL     1     -34.824  16.695  -2.321  1.00 20.00    -0.002 C 
HETATM    6  C4  UNL     1     -33.800  17.653  -2.944  1.00 20.00     0.005 C 
HETATM    7  C3  UNL     1     -33.716  17.483  -4.459  1.00 20.00     0.002 C 
HETATM    8  C5  UNL     1     -33.422  16.037  -4.848  1.00 20.00     0.020 C 
HETATM    9  C8  UNL     1     -34.445  15.082  -4.233  1.00 20.00     0.082 C 
HETATM   10  C6  UNL     1     -34.523  15.241  -2.715  1.00 20.00     0.025 C 
HETATM   11 CL11 UNL     1     -34.026  13.395  -4.647  1.00 20.00    -0.125 Cl
ENDBRANCH   4   5
ENDBRANCH   2   4
TORSDOF 2
ENDMDL
MODEL 5
REMARK VINA RESULT:      -4.5      1.775      2.214
REMARK  2 active torsions:
REMARK  status: ('A' for Active; 'I' for Inactive)
REMARK    1  A    between atoms: C2_2  and  C10_10 
REMARK    2  A    between atoms: C7_7  and  C10_10 
ROOT
HETATM    1  C1  UNL     1     -34.426  17.264  -1.093  1.00 20.00    -0.111 C 
HETATM    2  C2  UNL     1     -34.091  17.292  -2.246  1.00 20.00    -0.107 C 
HETATM    3  C9  UNL     1     -34.834  17.228   0.310  1.00 20.00     0.112 C 
ENDROOT
BRANCH   2   4
HETATM    4  C10 UNL     1     -33.686  17.338  -3.654  1.00 20.00     0.098 C 
BRANCH   4   5
HETATM    5  C7  UNL     1     -33.640  15.934  -4.254  1.00 20.00    -0.002 C 
HETATM    6  C4  UNL     1     -34.112  14.892  -3.231  1.00 20.00     0.005 C 
HETATM    7  C3  UNL     1     -34.127  13.485  -3.823  1.00 20.00     0.002 C 
HETATM    8  C5  UNL     1     -34.963  13.419  -5.099  1.00 20.00     0.020 C 
HETATM    9  C8  UNL     1     -34.489  14.452  -6.121  1.00 20.00     0.082 C 
HETATM   10  C6  UNL     1     -34.485  15.864  -5.535  1.00 20.00     0.025 C 
HETATM   11 CL11 UNL     1     -35.537  14.398  -7.568  1.00 20.00    -0.125 Cl
ENDBRANCH   4   5
ENDBRANCH   2   4
TORSDOF 2
ENDMDL
MODEL 6
REMARK VINA RESULT:      -4.4      1.896      2.722
REMARK  2 active torsions:
REMARK  status: ('A' for Active; 'I' for Inactive)
REMARK    1  A    between atoms: C2_2  and  C10_10 
REMARK    2  A    between atoms: C7_7  and  C10_10 
ROOT
HETATM    1  C1  UNL     1     -34.743  16.774  -0.744  1.00 20.00    -0.111 C 
HETATM    2  C2  UNL     1     -34.466  16.136  -1.723  1.00 20.00    -0.107 C 
HETATM    3  C9  UNL     1     -35.080  17.548   0.449  1.00 20.00     0.112 C 
ENDROOT
BRANCH   2   4
HETATM    4  C10 UNL     1     -34.123  15.369  -2.924  1.00 20.00     0.098 C 
BRANCH   4   5
HETATM    5  C7  UNL     1     -34.604  16.084  -4.184  1.00 20.00    -0.002 C 
HETATM    6  C4  UNL     1     -33.507  17.005  -4.737  1.00 20.00     0.005 C 
HETATM    7  C3  UNL     1     -33.943  17.692  -6.029  1.00 20.00     0.002 C 
HETATM    8  C5  UNL     1     -34.393  16.681  -7.080  1.00 20.00     0.020 C 
HETATM    9  C8  UNL     1     -35.490  15.768  -6.534  1.00 20.00     0.082 C 
HETATM   10  C6  UNL     1     -35.052  15.068  -5.247  1.00 20.00     0.025 C 
HETATM   11 CL11 UNL     1     -35.937  14.552  -7.765  1.00 20.00    -0.125 Cl
ENDBRANCH   4   5
ENDBRANCH   2   4
TORSDOF 2
ENDMDL
MODEL 7
REMARK VINA RESULT:      -4.3      2.274      2.631
REMARK  2 active torsions:
REMARK  status: ('A' for Active; 'I' for Inactive)
REMARK    1  A    between atoms: C2_2  and  C10_10 
REMARK    2  A    between atoms: C7_7  and  C10_10 
ROOT
HETATM    1  C1  UNL     1     -34.498  17.317  -0.691  1.00 20.00    -0.111 C 
HETATM    2  C2  UNL     1     -34.106  17.327  -1.826  1.00 20.00    -0.107 C 
HETATM    3  C9  UNL     1     -34.973  17.304   0.691  1.00 20.00     0.112 C 
ENDROOT
BRANCH   2   4
HETATM    4  C10 UNL     1     -33.635  17.351  -3.214  1.00 20.00     0.098 C 
BRANCH   4   5
HETATM    5  C7  UNL     1     -34.175  16.154  -3.993  1.00 20.00    -0.002 C 
HETATM    6  C4  UNL     1     -33.422  14.872  -3.608  1.00 20.00     0.005 C 
HETATM    7  C3  UNL     1     -33.978  13.650  -4.334  1.00 20.00     0.002 C 
HETATM    8  C5  UNL     1     -35.479  13.494  -4.106  1.00 20.00     0.020 C 
HETATM    9  C8  UNL     1     -36.231  14.767  -4.496  1.00 20.00     0.082 C 
HETATM   10  C6  UNL     1     -35.685  15.991  -3.761  1.00 20.00     0.025 C 
HETATM   11 CL11 UNL     1     -37.973  14.575  -4.144  1.00 20.00    -0.125 Cl
ENDBRANCH   4   5
ENDBRANCH   2   4
TORSDOF 2
ENDMDL
MODEL 8
REMARK VINA RESULT:      -4.3      2.809      5.138
REMARK  2 active torsions:
REMARK  status: ('A' for Active; 'I' for Inactive)
REMARK    1  A    between atoms: C2_2  and  C10_10 
REMARK    2  A    between atoms: C7_7  and  C10_10 
ROOT
HETATM    1  C1  UNL     1     -36.916  14.825  -3.732  1.00 20.00    -0.111 C 
HETATM    2  C2  UNL     1     -35.730  14.837  -3.544  1.00 20.00    -0.107 C 
HETATM    3  C9  UNL     1     -38.360  14.812  -3.960  1.00 20.00     0.112 C 
ENDROOT
BRANCH   2   4
HETATM    4  C10 UNL     1     -34.281  14.841  -3.323  1.00 20.00     0.098 C 
BRANCH   4   5
HETATM    5  C7  UNL     1     -33.849  16.096  -2.568  1.00 20.00    -0.002 C 
HETATM    6  C4  UNL     1     -34.034  17.345  -3.441  1.00 20.00     0.005 C 
HETATM    7  C3  UNL     1     -33.659  18.621  -2.690  1.00 20.00     0.002 C 
HETATM    8  C5  UNL     1     -34.429  18.749  -1.378  1.00 20.00     0.020 C 
HETATM    9  C8  UNL     1     -34.240  17.508  -0.505  1.00 20.00     0.082 C 
HETATM   10  C6  UNL     1     -34.627  16.230  -1.249  1.00 20.00     0.025 C 
HETATM   11 CL11 UNL     1     -35.214  17.662   0.986  1.00 20.00    -0.125 Cl
ENDBRANCH   4   5
ENDBRANCH   2   4
TORSDOF 2
ENDMDL
MODEL 9
REMARK VINA RESULT:      -4.3      2.406      2.964
REMARK  2 active torsions:
REMARK  status: ('A' for Active; 'I' for Inactive)
REMARK    1  A    between atoms: C2_2  and  C10_10 
REMARK    2  A    between atoms: C7_7  and  C10_10 
ROOT
HETATM    1  C1  UNL     1     -34.662  16.947  -0.426  1.00 20.00    -0.111 C 
HETATM    2  C2  UNL     1     -34.262  16.504  -1.468  1.00 20.00    -0.107 C 
HETATM    3  C9  UNL     1     -35.148  17.487   0.842  1.00 20.00     0.112 C 
ENDROOT
BRANCH   2   4
HETATM    4  C10 UNL     1     -33.769  15.953  -2.734  1.00 20.00     0.098 C 
BRANCH   4   5
HETATM    5  C7  UNL     1     -34.803  16.128  -3.844  1.00 20.00    -0.002 C 
HETATM    6  C4  UNL     1     -34.249  15.625  -5.184  1.00 20.00     0.005 C 
HETATM    7  C3  UNL     1     -35.283  15.739  -6.302  1.00 20.00     0.002 C 
HETATM    8  C5  UNL     1     -36.582  15.022  -5.942  1.00 20.00     0.020 C 
HETATM    9  C8  UNL     1     -37.139  15.526  -4.610  1.00 20.00     0.082 C 
HETATM   10  C6  UNL     1     -36.110  15.402  -3.486  1.00 20.00     0.025 C 
HETATM   11 CL11 UNL     1     -38.615  14.614  -4.186  1.00 20.00    -0.125 Cl
ENDBRANCH   4   5
ENDBRANCH   2   4
TORSDOF 2
ENDMDL
