MODEL 1
REMARK VINA RESULT:      -5.5      0.000      0.000
REMARK  4 active torsions:
REMARK  status: ('A' for Active; 'I' for Inactive)
REMARK    1  A    between atoms: C1_1  and  C6_6 
REMARK    2  A    between atoms: C1_1  and  C8_8 
REMARK    3  A    between atoms: C7_7  and  C9_9 
REMARK    4  A    between atoms: C8_8  and  C9_9 
ROOT
HETATM    1  C1  UNL     1     -34.358   5.636   3.732  1.00 20.00     0.131 C 
HETATM    2  O10 UNL     1     -34.574   5.143   2.626  1.00 20.00    -0.298 OA
ENDROOT
BRANCH   1   3
HETATM    3  C6  UNL     1     -35.180   5.245   4.932  1.00 20.00     0.055 A 
HETATM    4  C2  UNL     1     -34.771   4.038   5.696  1.00 20.00     0.013 A 
HETATM    5  C3  UNL     1     -34.569   5.406   6.277  1.00 20.00     0.013 A 
ENDBRANCH   1   3
BRANCH   1   6
HETATM    6  C8  UNL     1     -33.264   6.662   3.977  1.00 20.00     0.079 C 
BRANCH   6   7
HETATM    7  C9  UNL     1     -32.210   6.668   2.875  1.00 20.00     0.012 C 
BRANCH   7   8
HETATM    8  C7  UNL     1     -31.787   8.084   2.517  1.00 20.00    -0.014 A 
HETATM    9  C4  UNL     1     -31.716   8.513   1.077  1.00 20.00     0.005 A 
HETATM   10  C5  UNL     1     -32.793   9.059   1.972  1.00 20.00     0.005 A 
ENDBRANCH   7   8
ENDBRANCH   6   7
ENDBRANCH   1   6
TORSDOF 4
ENDMDL
MODEL 2
REMARK VINA RESULT:      -5.3      0.948      4.898
REMARK  4 active torsions:
REMARK  status: ('A' for Active; 'I' for Inactive)
REMARK    1  A    between atoms: C1_1  and  C6_6 
REMARK    2  A    between atoms: C1_1  and  C8_8 
REMARK    3  A    between atoms: C7_7  and  C9_9 
REMARK    4  A    between atoms: C8_8  and  C9_9 
ROOT
HETATM    1  C1  UNL     1     -32.493   6.764   3.076  1.00 20.00     0.131 C 
HETATM    2  O10 UNL     1     -31.846   5.718   3.047  1.00 20.00    -0.298 OA
ENDROOT
BRANCH   1   3
HETATM    3  C6  UNL     1     -31.878   8.069   2.641  1.00 20.00     0.055 A 
HETATM    4  C2  UNL     1     -31.773   8.341   1.185  1.00 20.00     0.013 A 
HETATM    5  C3  UNL     1     -32.769   9.086   2.023  1.00 20.00     0.013 A 
ENDBRANCH   1   3
BRANCH   1   6
HETATM    6  C8  UNL     1     -33.937   6.828   3.543  1.00 20.00     0.079 C 
BRANCH   6   7
HETATM    7  C9  UNL     1     -34.613   5.461   3.546  1.00 20.00     0.012 C 
BRANCH   7   8
HETATM    8  C7  UNL     1     -35.269   5.166   4.884  1.00 20.00    -0.014 A 
HETATM    9  C4  UNL     1     -34.804   4.002   5.717  1.00 20.00     0.005 A 
HETATM   10  C5  UNL     1     -34.519   5.408   6.164  1.00 20.00     0.005 A 
ENDBRANCH   7   8
ENDBRANCH   6   7
ENDBRANCH   1   6
TORSDOF 4
ENDMDL
MODEL 3
REMARK VINA RESULT:      -5.2      1.385      1.539
REMARK  4 active torsions:
REMARK  status: ('A' for Active; 'I' for Inactive)
REMARK    1  A    between atoms: C1_1  and  C6_6 
REMARK    2  A    between atoms: C1_1  and  C8_8 
REMARK    3  A    between atoms: C7_7  and  C9_9 
REMARK    4  A    between atoms: C8_8  and  C9_9 
ROOT
HETATM    1  C1  UNL     1     -33.740   6.163   4.672  1.00 20.00     0.131 C 
HETATM    2  O10 UNL     1     -33.263   6.837   5.583  1.00 20.00    -0.298 OA
ENDROOT
BRANCH   1   3
HETATM    3  C6  UNL     1     -34.971   5.323   4.890  1.00 20.00     0.055 A 
HETATM    4  C2  UNL     1     -34.807   3.848   4.966  1.00 20.00     0.013 A 
HETATM    5  C3  UNL     1     -35.124   4.638   6.200  1.00 20.00     0.013 A 
ENDBRANCH   1   3
BRANCH   1   6
HETATM    6  C8  UNL     1     -33.141   6.121   3.276  1.00 20.00     0.079 C 
BRANCH   6   7
HETATM    7  C9  UNL     1     -32.190   7.284   3.013  1.00 20.00     0.012 C 
BRANCH   7   8
HETATM    8  C7  UNL     1     -32.638   8.111   1.819  1.00 20.00    -0.014 A 
HETATM    9  C4  UNL     1     -32.438   9.602   1.813  1.00 20.00     0.005 A 
HETATM   10  C5  UNL     1     -31.619   8.731   0.903  1.00 20.00     0.005 A 
ENDBRANCH   7   8
ENDBRANCH   6   7
ENDBRANCH   1   6
TORSDOF 4
ENDMDL
MODEL 4
REMARK VINA RESULT:      -4.8      1.233      4.637
REMARK  4 active torsions:
REMARK  status: ('A' for Active; 'I' for Inactive)
REMARK    1  A    between atoms: C1_1  and  C6_6 
REMARK    2  A    between atoms: C1_1  and  C8_8 
REMARK    3  A    between atoms: C7_7  and  C9_9 
REMARK    4  A    between atoms: C8_8  and  C9_9 
ROOT
HETATM    1  C1  UNL     1     -32.905   5.940   2.939  1.00 20.00     0.131 C 
HETATM    2  O10 UNL     1     -31.913   5.215   3.000  1.00 20.00    -0.298 OA
ENDROOT
BRANCH   1   3
HETATM    3  C6  UNL     1     -32.788   7.433   3.104  1.00 20.00     0.055 A 
HETATM    4  C2  UNL     1     -31.456   7.997   3.444  1.00 20.00     0.013 A 
HETATM    5  C3  UNL     1     -32.031   8.190   2.073  1.00 20.00     0.013 A 
ENDBRANCH   1   3
BRANCH   1   6
HETATM    6  C8  UNL     1     -34.305   5.403   2.695  1.00 20.00     0.079 C 
BRANCH   6   7
HETATM    7  C9  UNL     1     -35.173   5.442   3.949  1.00 20.00     0.012 C 
BRANCH   7   8
HETATM    8  C7  UNL     1     -34.393   5.008   5.180  1.00 20.00    -0.014 A 
HETATM    9  C4  UNL     1     -34.403   5.857   6.422  1.00 20.00     0.005 A 
HETATM   10  C5  UNL     1     -35.120   4.537   6.409  1.00 20.00     0.005 A 
ENDBRANCH   7   8
ENDBRANCH   6   7
ENDBRANCH   1   6
TORSDOF 4
ENDMDL
MODEL 5
REMARK VINA RESULT:      -4.7     10.750     12.067
REMARK  4 active torsions:
REMARK  status: ('A' for Active; 'I' for Inactive)
REMARK    1  A    between atoms: C1_1  and  C6_6 
REMARK    2  A    between atoms: C1_1  and  C8_8 
REMARK    3  A    between atoms: C7_7  and  C9_9 
REMARK    4  A    between atoms: C8_8  and  C9_9 
ROOT
HETATM    1  C1  UNL     1     -34.314  13.655  -4.784  1.00 20.00     0.131 C 
HETATM    2  O10 UNL     1     -34.895  12.573  -4.833  1.00 20.00    -0.298 OA
ENDROOT
BRANCH   1   3
HETATM    3  C6  UNL     1     -34.549  14.711  -5.833  1.00 20.00     0.055 A 
HETATM    4  C2  UNL     1     -35.250  14.313  -7.081  1.00 20.00     0.013 A 
HETATM    5  C3  UNL     1     -35.946  15.166  -6.062  1.00 20.00     0.013 A 
ENDBRANCH   1   3
BRANCH   1   6
HETATM    6  C8  UNL     1     -33.330  14.015  -3.684  1.00 20.00     0.079 C 
BRANCH   6   7
HETATM    7  C9  UNL     1     -33.447  15.472  -3.247  1.00 20.00     0.012 C 
BRANCH   7   8
HETATM    8  C7  UNL     1     -34.608  15.673  -2.287  1.00 20.00    -0.014 A 
HETATM    9  C4  UNL     1     -34.485  16.640  -1.141  1.00 20.00     0.005 A 
HETATM   10  C5  UNL     1     -35.386  16.959  -2.300  1.00 20.00     0.005 A 
ENDBRANCH   7   8
ENDBRANCH   6   7
ENDBRANCH   1   6
TORSDOF 4
ENDMDL
MODEL 6
REMARK VINA RESULT:      -4.6      1.067      4.426
REMARK  4 active torsions:
REMARK  status: ('A' for Active; 'I' for Inactive)
REMARK    1  A    between atoms: C1_1  and  C6_6 
REMARK    2  A    between atoms: C1_1  and  C8_8 
REMARK    3  A    between atoms: C7_7  and  C9_9 
REMARK    4  A    between atoms: C8_8  and  C9_9 
ROOT
HETATM    1  C1  UNL     1     -33.711   5.614   2.777  1.00 20.00     0.131 C 
HETATM    2  O10 UNL     1     -33.923   4.851   1.838  1.00 20.00    -0.298 OA
ENDROOT
BRANCH   1   3
HETATM    3  C6  UNL     1     -32.345   6.210   3.002  1.00 20.00     0.055 A 
HETATM    4  C2  UNL     1     -32.093   7.588   2.508  1.00 20.00     0.013 A 
HETATM    5  C3  UNL     1     -32.223   7.323   3.979  1.00 20.00     0.013 A 
ENDBRANCH   1   3
BRANCH   1   6
HETATM    6  C8  UNL     1     -34.787   6.016   3.773  1.00 20.00     0.079 C 
BRANCH   6   7
HETATM    7  C9  UNL     1     -35.406   4.816   4.481  1.00 20.00     0.012 C 
BRANCH   7   8
HETATM    8  C7  UNL     1     -35.175   4.874   5.982  1.00 20.00    -0.014 A 
HETATM    9  C4  UNL     1     -33.829   4.525   6.556  1.00 20.00     0.005 A 
HETATM   10  C5  UNL     1     -34.306   5.950   6.573  1.00 20.00     0.005 A 
ENDBRANCH   7   8
ENDBRANCH   6   7
ENDBRANCH   1   6
TORSDOF 4
ENDMDL
MODEL 7
REMARK VINA RESULT:      -4.4     11.096     12.269
REMARK  4 active torsions:
REMARK  status: ('A' for Active; 'I' for Inactive)
REMARK    1  A    between atoms: C1_1  and  C6_6 
REMARK    2  A    between atoms: C1_1  and  C8_8 
REMARK    3  A    between atoms: C7_7  and  C9_9 
REMARK    4  A    between atoms: C8_8  and  C9_9 
ROOT
HETATM    1  C1  UNL     1     -34.476  15.573  -5.432  1.00 20.00     0.131 C 
HETATM    2  O10 UNL     1     -35.391  16.147  -6.020  1.00 20.00    -0.298 OA
ENDROOT
BRANCH   1   3
HETATM    3  C6  UNL     1     -34.465  14.073  -5.287  1.00 20.00     0.055 A 
HETATM    4  C2  UNL     1     -33.785  13.491  -4.101  1.00 20.00     0.013 A 
HETATM    5  C3  UNL     1     -35.281  13.474  -4.199  1.00 20.00     0.013 A 
ENDBRANCH   1   3
BRANCH   1   6
HETATM    6  C8  UNL     1     -33.299  16.312  -4.816  1.00 20.00     0.079 C 
BRANCH   6   7
HETATM    7  C9  UNL     1     -33.721  17.242  -3.684  1.00 20.00     0.012 C 
BRANCH   7   8
HETATM    8  C7  UNL     1     -33.595  16.563  -2.329  1.00 20.00    -0.014 A 
HETATM    9  C4  UNL     1     -33.855  17.338  -1.066  1.00 20.00     0.005 A 
HETATM   10  C5  UNL     1     -34.822  16.277  -1.510  1.00 20.00     0.005 A 
ENDBRANCH   7   8
ENDBRANCH   6   7
ENDBRANCH   1   6
TORSDOF 4
ENDMDL
MODEL 8
REMARK VINA RESULT:      -4.4     10.863     12.110
REMARK  4 active torsions:
REMARK  status: ('A' for Active; 'I' for Inactive)
REMARK    1  A    between atoms: C1_1  and  C6_6 
REMARK    2  A    between atoms: C1_1  and  C8_8 
REMARK    3  A    between atoms: C7_7  and  C9_9 
REMARK    4  A    between atoms: C8_8  and  C9_9 
ROOT
HETATM    1  C1  UNL     1     -33.391  14.997  -3.357  1.00 20.00     0.131 C 
HETATM    2  O10 UNL     1     -32.215  14.772  -3.638  1.00 20.00    -0.298 OA
ENDROOT
BRANCH   1   3
HETATM    3  C6  UNL     1     -33.806  16.306  -2.738  1.00 20.00     0.055 A 
HETATM    4  C2  UNL     1     -35.240  16.687  -2.802  1.00 20.00     0.013 A 
HETATM    5  C3  UNL     1     -34.628  16.262  -1.501  1.00 20.00     0.013 A 
ENDBRANCH   1   3
BRANCH   1   6
HETATM    6  C8  UNL     1     -34.505  13.994  -3.607  1.00 20.00     0.079 C 
BRANCH   6   7
HETATM    7  C9  UNL     1     -34.580  13.554  -5.065  1.00 20.00     0.012 C 
BRANCH   7   8
HETATM    8  C7  UNL     1     -35.162  14.646  -5.948  1.00 20.00    -0.014 A 
HETATM    9  C4  UNL     1     -34.312  15.304  -7.000  1.00 20.00     0.005 A 
HETATM   10  C5  UNL     1     -35.427  14.381  -7.403  1.00 20.00     0.005 A 
ENDBRANCH   7   8
ENDBRANCH   6   7
ENDBRANCH   1   6
TORSDOF 4
ENDMDL
MODEL 9
REMARK VINA RESULT:      -4.3     10.636     12.502
REMARK  4 active torsions:
REMARK  status: ('A' for Active; 'I' for Inactive)
REMARK    1  A    between atoms: C1_1  and  C6_6 
REMARK    2  A    between atoms: C1_1  and  C8_8 
REMARK    3  A    between atoms: C7_7  and  C9_9 
REMARK    4  A    between atoms: C8_8  and  C9_9 
ROOT
HETATM    1  C1  UNL     1     -34.929  13.654  -4.462  1.00 20.00     0.131 C 
HETATM    2  O10 UNL     1     -34.895  12.478  -4.820  1.00 20.00    -0.298 OA
ENDROOT
BRANCH   1   3
HETATM    3  C6  UNL     1     -34.055  14.149  -3.339  1.00 20.00     0.055 A 
HETATM    4  C2  UNL     1     -32.927  15.054  -3.677  1.00 20.00     0.013 A 
HETATM    5  C3  UNL     1     -34.139  15.588  -2.974  1.00 20.00     0.013 A 
ENDBRANCH   1   3
BRANCH   1   6
HETATM    6  C8  UNL     1     -35.835  14.687  -5.109  1.00 20.00     0.079 C 
BRANCH   6   7
HETATM    7  C9  UNL     1     -35.694  14.721  -6.627  1.00 20.00     0.012 C 
BRANCH   7   8
HETATM    8  C7  UNL     1     -34.517  15.581  -7.058  1.00 20.00    -0.014 A 
HETATM    9  C4  UNL     1     -34.740  16.797  -7.915  1.00 20.00     0.005 A 
HETATM   10  C5  UNL     1     -34.333  16.956  -6.478  1.00 20.00     0.005 A 
ENDBRANCH   7   8
ENDBRANCH   6   7
ENDBRANCH   1   6
TORSDOF 4
ENDMDL
