MODEL 1
REMARK VINA RESULT:      -4.9      0.000      0.000
REMARK  2 active torsions:
REMARK  status: ('A' for Active; 'I' for Inactive)
REMARK    1  A    between atoms: C7_7  and  C10_10 
REMARK    2  A    between atoms: C9_9  and  C10_10 
ROOT
HETATM    1  C2  UNL     1     -33.522  14.079  -3.757  1.00 20.00     0.006 C 
HETATM    2  C3  UNL     1     -34.349  13.175  -4.662  1.00 20.00     0.020 C 
HETATM    3  C5  UNL     1     -35.641  15.169  -4.352  1.00 20.00     0.025 C 
HETATM    4  C7  UNL     1     -34.491  15.188  -3.329  1.00 20.00    -0.011 C 
HETATM    5  C8  UNL     1     -35.252  14.143  -5.415  1.00 20.00     0.082 C 
HETATM    6 CL12 UNL     1     -34.362  14.932  -6.751  1.00 20.00    -0.125 Cl
ENDROOT
BRANCH   4   7
HETATM    7  C10 UNL     1     -33.808  16.545  -3.232  1.00 20.00     0.036 C 
BRANCH   7   8
HETATM    8  C9  UNL     1     -33.619  16.981  -1.791  1.00 20.00     0.121 C 
HETATM    9  C4  UNL     1     -34.738  16.529  -0.869  1.00 20.00     0.034 C 
HETATM   10  C1  UNL     1     -34.669  17.570   0.220  1.00 20.00     0.029 C 
HETATM   11  C6  UNL     1     -34.349  18.824  -0.565  1.00 20.00     0.168 C 
HETATM   12  O11 UNL     1     -33.593  18.417  -1.715  1.00 20.00    -0.386 OA
ENDBRANCH   7   8
ENDBRANCH   4   7
TORSDOF 2
ENDMDL
MODEL 2
REMARK VINA RESULT:      -4.6      1.424      1.758
REMARK  2 active torsions:
REMARK  status: ('A' for Active; 'I' for Inactive)
REMARK    1  A    between atoms: C7_7  and  C10_10 
REMARK    2  A    between atoms: C9_9  and  C10_10 
ROOT
HETATM    1  C2  UNL     1     -34.319  15.964  -5.839  1.00 20.00     0.006 C 
HETATM    2  C3  UNL     1     -34.537  14.476  -6.077  1.00 20.00     0.020 C 
HETATM    3  C5  UNL     1     -33.575  14.667  -3.890  1.00 20.00     0.025 C 
HETATM    4  C7  UNL     1     -33.429  16.030  -4.590  1.00 20.00    -0.011 C 
HETATM    5  C8  UNL     1     -34.636  13.894  -4.672  1.00 20.00     0.082 C 
HETATM    6 CL12 UNL     1     -36.258  14.183  -3.979  1.00 20.00    -0.125 Cl
ENDROOT
BRANCH   4   7
HETATM    7  C10 UNL     1     -33.788  17.201  -3.686  1.00 20.00     0.036 C 
BRANCH   7   8
HETATM    8  C9  UNL     1     -33.751  16.815  -2.220  1.00 20.00     0.121 C 
HETATM    9  C4  UNL     1     -35.129  16.699  -1.589  1.00 20.00     0.034 C 
HETATM   10  C1  UNL     1     -34.818  16.967  -0.138  1.00 20.00     0.029 C 
HETATM   11  C6  UNL     1     -33.758  18.043  -0.238  1.00 20.00     0.168 C 
HETATM   12  O11 UNL     1     -33.051  17.820  -1.468  1.00 20.00    -0.386 OA
ENDBRANCH   7   8
ENDBRANCH   4   7
TORSDOF 2
ENDMDL
MODEL 3
REMARK VINA RESULT:      -4.5      2.423      5.055
REMARK  2 active torsions:
REMARK  status: ('A' for Active; 'I' for Inactive)
REMARK    1  A    between atoms: C7_7  and  C10_10 
REMARK    2  A    between atoms: C9_9  and  C10_10 
ROOT
HETATM    1  C2  UNL     1     -34.716  16.594  -0.592  1.00 20.00     0.006 C 
HETATM    2  C3  UNL     1     -34.976  17.769   0.341  1.00 20.00     0.020 C 
HETATM    3  C5  UNL     1     -33.601  18.615  -1.430  1.00 20.00     0.025 C 
HETATM    4  C7  UNL     1     -33.597  17.079  -1.523  1.00 20.00    -0.011 C 
HETATM    5  C8  UNL     1     -34.795  18.989  -0.553  1.00 20.00     0.082 C 
HETATM    6 CL12 UNL     1     -36.249  19.260  -1.558  1.00 20.00    -0.125 Cl
ENDROOT
BRANCH   4   7
HETATM    7  C10 UNL     1     -33.772  16.573  -2.948  1.00 20.00     0.036 C 
BRANCH   7   8
HETATM    8  C9  UNL     1     -34.565  15.281  -2.996  1.00 20.00     0.121 C 
HETATM    9  C4  UNL     1     -33.854  14.160  -3.736  1.00 20.00     0.034 C 
HETATM   10  C1  UNL     1     -35.018  13.315  -4.191  1.00 20.00     0.029 C 
HETATM   11  C6  UNL     1     -36.049  14.366  -4.544  1.00 20.00     0.168 C 
HETATM   12  O11 UNL     1     -35.805  15.495  -3.690  1.00 20.00    -0.386 OA
ENDBRANCH   7   8
ENDBRANCH   4   7
TORSDOF 2
ENDMDL
MODEL 4
REMARK VINA RESULT:      -4.5     11.240     12.053
REMARK  2 active torsions:
REMARK  status: ('A' for Active; 'I' for Inactive)
REMARK    1  A    between atoms: C7_7  and  C10_10 
REMARK    2  A    between atoms: C9_9  and  C10_10 
ROOT
HETATM    1  C2  UNL     1     -33.558   6.482   5.584  1.00 20.00     0.006 C 
HETATM    2  C3  UNL     1     -34.691   5.779   6.320  1.00 20.00     0.020 C 
HETATM    3  C5  UNL     1     -35.109   5.453   3.983  1.00 20.00     0.025 C 
HETATM    4  C7  UNL     1     -34.015   6.526   4.120  1.00 20.00    -0.011 C 
HETATM    5  C8  UNL     1     -35.171   4.729   5.327  1.00 20.00     0.082 C 
HETATM    6 CL12 UNL     1     -34.081   3.311   5.325  1.00 20.00    -0.125 Cl
ENDROOT
BRANCH   4   7
HETATM    7  C10 UNL     1     -32.861   6.323   3.149  1.00 20.00     0.036 C 
BRANCH   7   8
HETATM    8  C9  UNL     1     -32.208   7.636   2.764  1.00 20.00     0.121 C 
HETATM    9  C4  UNL     1     -33.189   8.791   2.651  1.00 20.00     0.034 C 
HETATM   10  C1  UNL     1     -32.472   9.701   1.686  1.00 20.00     0.029 C 
HETATM   11  C6  UNL     1     -31.847   8.710   0.727  1.00 20.00     0.168 C 
HETATM   12  O11 UNL     1     -31.586   7.512   1.474  1.00 20.00    -0.386 OA
ENDBRANCH   7   8
ENDBRANCH   4   7
TORSDOF 2
ENDMDL
MODEL 5
REMARK VINA RESULT:      -4.4      1.657      2.280
REMARK  2 active torsions:
REMARK  status: ('A' for Active; 'I' for Inactive)
REMARK    1  A    between atoms: C7_7  and  C10_10 
REMARK    2  A    between atoms: C9_9  and  C10_10 
ROOT
HETATM    1  C2  UNL     1     -35.076  16.517  -4.066  1.00 20.00     0.006 C 
HETATM    2  C3  UNL     1     -34.581  15.727  -5.270  1.00 20.00     0.020 C 
HETATM    3  C5  UNL     1     -33.250  15.012  -3.410  1.00 20.00     0.025 C 
HETATM    4  C7  UNL     1     -34.017  16.276  -2.982  1.00 20.00    -0.011 C 
HETATM    5  C8  UNL     1     -33.958  14.480  -4.654  1.00 20.00     0.082 C 
HETATM    6 CL12 UNL     1     -35.221  13.299  -4.199  1.00 20.00    -0.125 Cl
ENDROOT
BRANCH   4   7
HETATM    7  C10 UNL     1     -34.630  16.155  -1.594  1.00 20.00     0.036 C 
BRANCH   7   8
HETATM    8  C9  UNL     1     -34.642  17.485  -0.864  1.00 20.00     0.121 C 
HETATM    9  C4  UNL     1     -33.259  18.083  -0.672  1.00 20.00     0.034 C 
HETATM   10  C1  UNL     1     -33.469  18.942   0.550  1.00 20.00     0.029 C 
HETATM   11  C6  UNL     1     -34.405  18.085   1.376  1.00 20.00     0.168 C 
HETATM   12  O11 UNL     1     -35.189  17.312   0.455  1.00 20.00    -0.386 OA
ENDBRANCH   7   8
ENDBRANCH   4   7
TORSDOF 2
ENDMDL
MODEL 6
REMARK VINA RESULT:      -4.4      2.716      5.340
REMARK  2 active torsions:
REMARK  status: ('A' for Active; 'I' for Inactive)
REMARK    1  A    between atoms: C7_7  and  C10_10 
REMARK    2  A    between atoms: C9_9  and  C10_10 
ROOT
HETATM    1  C2  UNL     1     -34.429  18.394  -2.461  1.00 20.00     0.006 C 
HETATM    2  C3  UNL     1     -34.619  19.263  -1.225  1.00 20.00     0.020 C 
HETATM    3  C5  UNL     1     -34.509  17.002  -0.438  1.00 20.00     0.025 C 
HETATM    4  C7  UNL     1     -34.675  16.961  -1.968  1.00 20.00    -0.011 C 
HETATM    5  C8  UNL     1     -34.048  18.417  -0.094  1.00 20.00     0.082 C 
HETATM    6 CL12 UNL     1     -32.262  18.507  -0.076  1.00 20.00    -0.125 Cl
ENDROOT
BRANCH   4   7
HETATM    7  C10 UNL     1     -33.751  15.954  -2.637  1.00 20.00     0.036 C 
BRANCH   7   8
HETATM    8  C9  UNL     1     -34.524  14.913  -3.424  1.00 20.00     0.121 C 
HETATM    9  C4  UNL     1     -33.707  13.677  -3.760  1.00 20.00     0.034 C 
HETATM   10  C1  UNL     1     -34.410  13.180  -4.999  1.00 20.00     0.029 C 
HETATM   11  C6  UNL     1     -34.759  14.474  -5.702  1.00 20.00     0.168 C 
HETATM   12  O11 UNL     1     -34.947  15.467  -4.682  1.00 20.00    -0.386 OA
ENDBRANCH   7   8
ENDBRANCH   4   7
TORSDOF 2
ENDMDL
MODEL 7
REMARK VINA RESULT:      -4.3      2.703      5.031
REMARK  2 active torsions:
REMARK  status: ('A' for Active; 'I' for Inactive)
REMARK    1  A    between atoms: C7_7  and  C10_10 
REMARK    2  A    between atoms: C9_9  and  C10_10 
ROOT
HETATM    1  C2  UNL     1     -35.083  15.543  -2.873  1.00 20.00     0.006 C 
HETATM    2  C3  UNL     1     -33.707  16.130  -2.589  1.00 20.00     0.020 C 
HETATM    3  C5  UNL     1     -33.331  14.131  -3.857  1.00 20.00     0.025 C 
HETATM    4  C7  UNL     1     -34.801  14.130  -3.400  1.00 20.00    -0.011 C 
HETATM    5  C8  UNL     1     -32.836  15.568  -3.706  1.00 20.00     0.082 C 
HETATM    6 CL12 UNL     1     -33.086  16.480  -5.224  1.00 20.00    -0.125 Cl
ENDROOT
BRANCH   4   7
HETATM    7  C10 UNL     1     -35.764  13.723  -4.505  1.00 20.00     0.036 C 
BRANCH   7   8
HETATM    8  C9  UNL     1     -35.828  14.760  -5.610  1.00 20.00     0.121 C 
HETATM    9  C4  UNL     1     -37.239  15.232  -5.917  1.00 20.00     0.034 C 
HETATM   10  C1  UNL     1     -37.102  15.674  -7.352  1.00 20.00     0.029 C 
HETATM   11  C6  UNL     1     -36.162  14.629  -7.914  1.00 20.00     0.168 C 
HETATM   12  O11 UNL     1     -35.318  14.202  -6.833  1.00 20.00    -0.386 OA
ENDBRANCH   7   8
ENDBRANCH   4   7
TORSDOF 2
ENDMDL
MODEL 8
REMARK VINA RESULT:      -4.2      2.525      5.017
REMARK  2 active torsions:
REMARK  status: ('A' for Active; 'I' for Inactive)
REMARK    1  A    between atoms: C7_7  and  C10_10 
REMARK    2  A    between atoms: C9_9  and  C10_10 
ROOT
HETATM    1  C2  UNL     1     -34.612  16.309  -1.367  1.00 20.00     0.006 C 
HETATM    2  C3  UNL     1     -34.296  17.791  -1.224  1.00 20.00     0.020 C 
HETATM    3  C5  UNL     1     -33.691  17.194  -3.465  1.00 20.00     0.025 C 
HETATM    4  C7  UNL     1     -33.934  15.893  -2.679  1.00 20.00    -0.011 C 
HETATM    5  C8  UNL     1     -34.345  18.313  -2.654  1.00 20.00     0.082 C 
HETATM    6 CL12 UNL     1     -36.035  18.562  -3.181  1.00 20.00    -0.125 Cl
ENDROOT
BRANCH   4   7
HETATM    7  C10 UNL     1     -34.757  14.877  -3.458  1.00 20.00     0.036 C 
BRANCH   7   8
HETATM    8  C9  UNL     1     -35.092  15.369  -4.853  1.00 20.00     0.121 C 
HETATM    9  C4  UNL     1     -36.570  15.274  -5.191  1.00 20.00     0.034 C 
HETATM   10  C1  UNL     1     -36.529  15.175  -6.695  1.00 20.00     0.029 C 
HETATM   11  C6  UNL     1     -35.306  14.311  -6.918  1.00 20.00     0.168 C 
HETATM   12  O11 UNL     1     -34.406  14.570  -5.831  1.00 20.00    -0.386 OA
ENDBRANCH   7   8
ENDBRANCH   4   7
TORSDOF 2
ENDMDL
MODEL 9
REMARK VINA RESULT:      -4.2      2.851      4.639
REMARK  2 active torsions:
REMARK  status: ('A' for Active; 'I' for Inactive)
REMARK    1  A    between atoms: C7_7  and  C10_10 
REMARK    2  A    between atoms: C9_9  and  C10_10 
ROOT
HETATM    1  C2  UNL     1     -34.192  16.008  -3.203  1.00 20.00     0.006 C 
HETATM    2  C3  UNL     1     -33.090  15.159  -3.821  1.00 20.00     0.020 C 
HETATM    3  C5  UNL     1     -35.077  13.821  -3.885  1.00 20.00     0.025 C 
HETATM    4  C7  UNL     1     -35.352  15.030  -2.973  1.00 20.00    -0.011 C 
HETATM    5  C8  UNL     1     -33.843  14.179  -4.712  1.00 20.00     0.082 C 
HETATM    6 CL12 UNL     1     -34.322  14.958  -6.248  1.00 20.00    -0.125 Cl
ENDROOT
BRANCH   4   7
HETATM    7  C10 UNL     1     -36.707  15.672  -3.233  1.00 20.00     0.036 C 
BRANCH   7   8
HETATM    8  C9  UNL     1     -37.470  14.957  -4.332  1.00 20.00     0.121 C 
HETATM    9  C4  UNL     1     -38.001  15.891  -5.406  1.00 20.00     0.034 C 
HETATM   10  C1  UNL     1     -39.176  15.106  -5.933  1.00 20.00     0.029 C 
HETATM   11  C6  UNL     1     -39.727  14.481  -4.669  1.00 20.00     0.168 C 
HETATM   12  O11 UNL     1     -38.617  14.292  -3.778  1.00 20.00    -0.386 OA
ENDBRANCH   7   8
ENDBRANCH   4   7
TORSDOF 2
ENDMDL
