MODEL 1
REMARK VINA RESULT:      -4.6      0.000      0.000
REMARK  4 active torsions:
REMARK  status: ('A' for Active; 'I' for Inactive)
REMARK    1  A    between atoms: C5_5  and  C8_8 
REMARK    2  A    between atoms: C6_6  and  C7_7 
REMARK    3  A    between atoms: C6_6  and  C8_8 
REMARK    4  A    between atoms: C7_7  and  C9_9 
ROOT
HETATM    1  C6  UNL     1     -32.996   6.229   2.857  1.00 20.00     0.021 C 
ENDROOT
BRANCH   1   2
HETATM    2  C7  UNL     1     -32.975   5.500   4.210  1.00 20.00     0.010 C 
BRANCH   2   3
HETATM    3  C9  UNL     1     -34.345   5.389   4.936  1.00 20.00    -0.051 C 
HETATM    4  C2  UNL     1     -34.337   6.368   6.127  1.00 20.00     0.014 C 
HETATM    5  C3  UNL     1     -34.574   3.967   5.475  1.00 20.00     0.014 C 
HETATM    6  C4  UNL     1     -35.506   5.770   4.003  1.00 20.00     0.014 C 
ENDBRANCH   2   3
ENDBRANCH   1   2
BRANCH   1   7
HETATM    7  C8  UNL     1     -32.443   7.665   2.932  1.00 20.00     0.082 C 
HETATM    8 CL10 UNL     1     -31.106   7.757   4.122  1.00 20.00    -0.125 Cl
BRANCH   7   9
HETATM    9  C5  UNL     1     -31.961   8.132   1.551  1.00 20.00     0.016 C 
HETATM   10  C1  UNL     1     -32.325   9.577   1.233  1.00 20.00     0.006 C 
ENDBRANCH   7   9
ENDBRANCH   1   7
TORSDOF 4
ENDMDL
MODEL 2
REMARK VINA RESULT:      -4.6      0.047      1.376
REMARK  4 active torsions:
REMARK  status: ('A' for Active; 'I' for Inactive)
REMARK    1  A    between atoms: C5_5  and  C8_8 
REMARK    2  A    between atoms: C6_6  and  C7_7 
REMARK    3  A    between atoms: C6_6  and  C8_8 
REMARK    4  A    between atoms: C7_7  and  C9_9 
ROOT
HETATM    1  C6  UNL     1     -33.025   6.247   2.858  1.00 20.00     0.021 C 
ENDROOT
BRANCH   1   2
HETATM    2  C7  UNL     1     -32.958   5.508   4.204  1.00 20.00     0.010 C 
BRANCH   2   3
HETATM    3  C9  UNL     1     -34.296   5.418   4.990  1.00 20.00    -0.051 C 
HETATM    4  C2  UNL     1     -35.443   5.776   4.023  1.00 20.00     0.014 C 
HETATM    5  C3  UNL     1     -34.319   6.412   6.163  1.00 20.00     0.014 C 
HETATM    6  C4  UNL     1     -34.537   3.997   5.524  1.00 20.00     0.014 C 
ENDBRANCH   2   3
ENDBRANCH   1   2
BRANCH   1   7
HETATM    7  C8  UNL     1     -32.450   7.675   2.921  1.00 20.00     0.082 C 
HETATM    8 CL10 UNL     1     -31.109   7.758   4.107  1.00 20.00    -0.125 Cl
BRANCH   7   9
HETATM    9  C5  UNL     1     -31.963   8.124   1.535  1.00 20.00     0.016 C 
HETATM   10  C1  UNL     1     -32.316   9.569   1.202  1.00 20.00     0.006 C 
ENDBRANCH   7   9
ENDBRANCH   1   7
TORSDOF 4
ENDMDL
MODEL 3
REMARK VINA RESULT:      -4.5      0.043      1.368
REMARK  4 active torsions:
REMARK  status: ('A' for Active; 'I' for Inactive)
REMARK    1  A    between atoms: C5_5  and  C8_8 
REMARK    2  A    between atoms: C6_6  and  C7_7 
REMARK    3  A    between atoms: C6_6  and  C8_8 
REMARK    4  A    between atoms: C7_7  and  C9_9 
ROOT
HETATM    1  C6  UNL     1     -32.985   6.210   2.842  1.00 20.00     0.021 C 
ENDROOT
BRANCH   1   2
HETATM    2  C7  UNL     1     -32.964   5.457   4.183  1.00 20.00     0.010 C 
BRANCH   2   3
HETATM    3  C9  UNL     1     -34.320   5.394   4.940  1.00 20.00    -0.051 C 
HETATM    4  C2  UNL     1     -34.509   3.956   5.462  1.00 20.00     0.014 C 
HETATM    5  C3  UNL     1     -35.494   5.731   4.005  1.00 20.00     0.014 C 
HETATM    6  C4  UNL     1     -34.337   6.353   6.141  1.00 20.00     0.014 C 
ENDBRANCH   2   3
ENDBRANCH   1   2
BRANCH   1   7
HETATM    7  C8  UNL     1     -32.456   7.653   2.950  1.00 20.00     0.082 C 
HETATM    8 CL10 UNL     1     -31.133   7.747   4.154  1.00 20.00    -0.125 Cl
BRANCH   7   9
HETATM    9  C5  UNL     1     -31.968   8.153   1.581  1.00 20.00     0.016 C 
HETATM   10  C1  UNL     1     -32.358   9.596   1.284  1.00 20.00     0.006 C 
ENDBRANCH   7   9
ENDBRANCH   1   7
TORSDOF 4
ENDMDL
MODEL 4
REMARK VINA RESULT:      -4.1     11.242     12.372
REMARK  4 active torsions:
REMARK  status: ('A' for Active; 'I' for Inactive)
REMARK    1  A    between atoms: C5_5  and  C8_8 
REMARK    2  A    between atoms: C6_6  and  C7_7 
REMARK    3  A    between atoms: C6_6  and  C8_8 
REMARK    4  A    between atoms: C7_7  and  C9_9 
ROOT
HETATM    1  C6  UNL     1     -33.289  15.431  -3.475  1.00 20.00     0.021 C 
ENDROOT
BRANCH   1   2
HETATM    2  C7  UNL     1     -33.851  15.555  -4.901  1.00 20.00     0.010 C 
BRANCH   2   3
HETATM    3  C9  UNL     1     -35.074  14.653  -5.223  1.00 20.00    -0.051 C 
HETATM    4  C2  UNL     1     -35.073  14.368  -6.739  1.00 20.00     0.014 C 
HETATM    5  C3  UNL     1     -36.393  15.355  -4.860  1.00 20.00     0.014 C 
HETATM    6  C4  UNL     1     -34.992  13.310  -4.478  1.00 20.00     0.014 C 
ENDBRANCH   2   3
ENDBRANCH   1   2
BRANCH   1   7
HETATM    7  C8  UNL     1     -33.657  16.625  -2.573  1.00 20.00     0.082 C 
HETATM    8 CL10 UNL     1     -34.206  18.013  -3.565  1.00 20.00    -0.125 Cl
BRANCH   7   9
HETATM    9  C5  UNL     1     -34.747  16.226  -1.566  1.00 20.00     0.016 C 
HETATM   10  C1  UNL     1     -34.710  17.033  -0.274  1.00 20.00     0.006 C 
ENDBRANCH   7   9
ENDBRANCH   1   7
TORSDOF 4
ENDMDL
MODEL 5
REMARK VINA RESULT:      -4.1     11.285     12.344
REMARK  4 active torsions:
REMARK  status: ('A' for Active; 'I' for Inactive)
REMARK    1  A    between atoms: C5_5  and  C8_8 
REMARK    2  A    between atoms: C6_6  and  C7_7 
REMARK    3  A    between atoms: C6_6  and  C8_8 
REMARK    4  A    between atoms: C7_7  and  C9_9 
ROOT
HETATM    1  C6  UNL     1     -33.273  15.458  -3.547  1.00 20.00     0.021 C 
ENDROOT
BRANCH   1   2
HETATM    2  C7  UNL     1     -33.849  15.615  -4.964  1.00 20.00     0.010 C 
BRANCH   2   3
HETATM    3  C9  UNL     1     -34.995  14.634  -5.337  1.00 20.00    -0.051 C 
HETATM    4  C2  UNL     1     -36.332  15.281  -4.921  1.00 20.00     0.014 C 
HETATM    5  C3  UNL     1     -34.847  13.298  -4.590  1.00 20.00     0.014 C 
HETATM    6  C4  UNL     1     -35.035  14.368  -6.851  1.00 20.00     0.014 C 
ENDBRANCH   2   3
ENDBRANCH   1   2
BRANCH   1   7
HETATM    7  C8  UNL     1     -33.635  16.628  -2.613  1.00 20.00     0.082 C 
HETATM    8 CL10 UNL     1     -34.182  18.044  -3.566  1.00 20.00    -0.125 Cl
BRANCH   7   9
HETATM    9  C5  UNL     1     -34.724  16.206  -1.615  1.00 20.00     0.016 C 
HETATM   10  C1  UNL     1     -34.700  16.998  -0.312  1.00 20.00     0.006 C 
ENDBRANCH   7   9
ENDBRANCH   1   7
TORSDOF 4
ENDMDL
MODEL 6
REMARK VINA RESULT:      -4.0     11.327     12.372
REMARK  4 active torsions:
REMARK  status: ('A' for Active; 'I' for Inactive)
REMARK    1  A    between atoms: C5_5  and  C8_8 
REMARK    2  A    between atoms: C6_6  and  C7_7 
REMARK    3  A    between atoms: C6_6  and  C8_8 
REMARK    4  A    between atoms: C7_7  and  C9_9 
ROOT
HETATM    1  C6  UNL     1     -33.315  15.382  -3.466  1.00 20.00     0.021 C 
ENDROOT
BRANCH   1   2
HETATM    2  C7  UNL     1     -33.790  15.565  -4.917  1.00 20.00     0.010 C 
BRANCH   2   3
HETATM    3  C9  UNL     1     -34.982  14.668  -5.353  1.00 20.00    -0.051 C 
HETATM    4  C2  UNL     1     -34.808  13.286  -4.690  1.00 20.00     0.014 C 
HETATM    5  C3  UNL     1     -35.005  14.477  -6.878  1.00 20.00     0.014 C 
HETATM    6  C4  UNL     1     -36.325  15.259  -4.895  1.00 20.00     0.014 C 
ENDBRANCH   2   3
ENDBRANCH   1   2
BRANCH   1   7
HETATM    7  C8  UNL     1     -33.649  16.585  -2.563  1.00 20.00     0.082 C 
HETATM    8 CL10 UNL     1     -34.117  18.001  -3.556  1.00 20.00    -0.125 Cl
BRANCH   7   9
HETATM    9  C5  UNL     1     -34.775  16.227  -1.581  1.00 20.00     0.016 C 
HETATM   10  C1  UNL     1     -34.731  17.025  -0.283  1.00 20.00     0.006 C 
ENDBRANCH   7   9
ENDBRANCH   1   7
TORSDOF 4
ENDMDL
MODEL 7
REMARK VINA RESULT:      -4.0     10.943     12.716
REMARK  4 active torsions:
REMARK  status: ('A' for Active; 'I' for Inactive)
REMARK    1  A    between atoms: C5_5  and  C8_8 
REMARK    2  A    between atoms: C6_6  and  C7_7 
REMARK    3  A    between atoms: C6_6  and  C8_8 
REMARK    4  A    between atoms: C7_7  and  C9_9 
ROOT
HETATM    1  C6  UNL     1     -35.382  14.077  -4.101  1.00 20.00     0.021 C 
ENDROOT
BRANCH   1   2
HETATM    2  C7  UNL     1     -34.739  14.035  -5.497  1.00 20.00     0.010 C 
BRANCH   2   3
HETATM    3  C9  UNL     1     -35.276  15.077  -6.517  1.00 20.00    -0.051 C 
HETATM    4  C2  UNL     1     -36.597  15.650  -5.965  1.00 20.00     0.014 C 
HETATM    5  C3  UNL     1     -35.560  14.424  -7.880  1.00 20.00     0.014 C 
HETATM    6  C4  UNL     1     -34.286  16.238  -6.708  1.00 20.00     0.014 C 
ENDBRANCH   2   3
ENDBRANCH   1   2
BRANCH   1   7
HETATM    7  C8  UNL     1     -34.476  14.722  -3.035  1.00 20.00     0.082 C 
HETATM    8 CL10 UNL     1     -32.822  14.963  -3.683  1.00 20.00    -0.125 Cl
BRANCH   7   9
HETATM    9  C5  UNL     1     -35.064  16.061  -2.565  1.00 20.00     0.016 C 
HETATM   10  C1  UNL     1     -34.613  16.468  -1.166  1.00 20.00     0.006 C 
ENDBRANCH   7   9
ENDBRANCH   1   7
TORSDOF 4
ENDMDL
MODEL 8
REMARK VINA RESULT:      -4.0     10.824     12.657
REMARK  4 active torsions:
REMARK  status: ('A' for Active; 'I' for Inactive)
REMARK    1  A    between atoms: C5_5  and  C8_8 
REMARK    2  A    between atoms: C6_6  and  C7_7 
REMARK    3  A    between atoms: C6_6  and  C8_8 
REMARK    4  A    between atoms: C7_7  and  C9_9 
ROOT
HETATM    1  C6  UNL     1     -35.254  13.857  -4.167  1.00 20.00     0.021 C 
ENDROOT
BRANCH   1   2
HETATM    2  C7  UNL     1     -34.640  13.992  -5.569  1.00 20.00     0.010 C 
BRANCH   2   3
HETATM    3  C9  UNL     1     -35.309  15.043  -6.498  1.00 20.00    -0.051 C 
HETATM    4  C2  UNL     1     -34.378  16.269  -6.582  1.00 20.00     0.014 C 
HETATM    5  C3  UNL     1     -36.665  15.499  -5.934  1.00 20.00     0.014 C 
HETATM    6  C4  UNL     1     -35.511  14.489  -7.918  1.00 20.00     0.014 C 
ENDBRANCH   2   3
ENDBRANCH   1   2
BRANCH   1   7
HETATM    7  C8  UNL     1     -34.410  14.531  -3.068  1.00 20.00     0.082 C 
HETATM    8 CL10 UNL     1     -32.771  14.913  -3.684  1.00 20.00    -0.125 Cl
BRANCH   7   9
HETATM    9  C5  UNL     1     -35.100  15.807  -2.563  1.00 20.00     0.016 C 
HETATM   10  C1  UNL     1     -34.254  16.612  -1.583  1.00 20.00     0.006 C 
ENDBRANCH   7   9
ENDBRANCH   1   7
TORSDOF 4
ENDMDL
MODEL 9
REMARK VINA RESULT:      -3.9     10.738     11.909
REMARK  4 active torsions:
REMARK  status: ('A' for Active; 'I' for Inactive)
REMARK    1  A    between atoms: C5_5  and  C8_8 
REMARK    2  A    between atoms: C6_6  and  C7_7 
REMARK    3  A    between atoms: C6_6  and  C8_8 
REMARK    4  A    between atoms: C7_7  and  C9_9 
ROOT
HETATM    1  C6  UNL     1     -34.789  16.236  -1.492  1.00 20.00     0.021 C 
ENDROOT
BRANCH   1   2
HETATM    2  C7  UNL     1     -33.737  16.072  -2.601  1.00 20.00     0.010 C 
BRANCH   2   3
HETATM    3  C9  UNL     1     -34.132  15.127  -3.769  1.00 20.00    -0.051 C 
HETATM    4  C2  UNL     1     -35.628  14.785  -3.623  1.00 20.00     0.014 C 
HETATM    5  C3  UNL     1     -33.326  13.818  -3.722  1.00 20.00     0.014 C 
HETATM    6  C4  UNL     1     -33.921  15.804  -5.134  1.00 20.00     0.014 C 
ENDBRANCH   2   3
ENDBRANCH   1   2
BRANCH   1   7
HETATM    7  C8  UNL     1     -34.691  17.587  -0.758  1.00 20.00     0.082 C 
HETATM    8 CL10 UNL     1     -35.090  17.386   0.977  1.00 20.00    -0.125 Cl
BRANCH   7   9
HETATM    9  C5  UNL     1     -33.287  18.188  -0.917  1.00 20.00     0.016 C 
HETATM   10  C1  UNL     1     -32.703  18.727   0.384  1.00 20.00     0.006 C 
ENDBRANCH   7   9
ENDBRANCH   1   7
TORSDOF 4
ENDMDL
