MODEL 1
REMARK VINA RESULT:      -5.2      0.000      0.000
REMARK  1 active torsions:
REMARK  status: ('A' for Active; 'I' for Inactive)
REMARK    1  A    between atoms: C9_9  and  C10_10 
ROOT
HETATM    1  C1  UNL     1     -34.831  17.069  -0.041  1.00 20.00     0.012 C 
HETATM    2  C2  UNL     1     -34.319  16.788  -1.089  1.00 20.00    -0.117 C 
HETATM    3  C10 UNL     1     -33.677  16.445  -2.359  1.00 20.00     0.098 C 
ENDROOT
BRANCH   3   4
HETATM    4  C9  UNL     1     -34.727  16.204  -3.450  1.00 20.00     0.004 C 
HETATM    5  C5  UNL     1     -35.278  14.780  -3.368  1.00 20.00     0.083 C 
HETATM    6  C3  UNL     1     -34.474  13.784  -4.170  1.00 20.00     0.127 C 
HETATM    7  C4  UNL     1     -34.901  13.579  -5.605  1.00 20.00     0.078 C 
HETATM    8  O11 UNL     1     -33.501  13.201  -3.693  1.00 20.00    -0.298 OA
HETATM    9  C6  UNL     1     -34.465  14.725  -6.506  1.00 20.00     0.007 C 
HETATM   10  C7  UNL     1     -34.922  16.114  -6.043  1.00 20.00     0.001 C 
HETATM   11  C8  UNL     1     -34.152  16.618  -4.818  1.00 20.00     0.006 C 
ENDBRANCH   3   4
TORSDOF 1
ENDMDL
MODEL 2
REMARK VINA RESULT:      -5.1      1.718      2.454
REMARK  1 active torsions:
REMARK  status: ('A' for Active; 'I' for Inactive)
REMARK    1  A    between atoms: C9_9  and  C10_10 
ROOT
HETATM    1  C1  UNL     1     -33.360  17.825  -0.761  1.00 20.00     0.012 C 
HETATM    2  C2  UNL     1     -34.038  17.014  -1.330  1.00 20.00    -0.117 C 
HETATM    3  C10 UNL     1     -34.880  16.032  -2.013  1.00 20.00     0.098 C 
ENDROOT
BRANCH   3   4
HETATM    4  C9  UNL     1     -34.068  15.253  -3.055  1.00 20.00     0.004 C 
HETATM    5  C5  UNL     1     -33.432  16.204  -4.070  1.00 20.00     0.083 C 
HETATM    6  C3  UNL     1     -34.328  16.502  -5.249  1.00 20.00     0.127 C 
HETATM    7  C4  UNL     1     -34.198  15.578  -6.438  1.00 20.00     0.078 C 
HETATM    8  O11 UNL     1     -35.146  17.420  -5.228  1.00 20.00    -0.298 OA
HETATM    9  C6  UNL     1     -34.876  14.236  -6.202  1.00 20.00     0.007 C 
HETATM   10  C7  UNL     1     -34.412  13.496  -4.942  1.00 20.00     0.001 C 
HETATM   11  C8  UNL     1     -34.937  14.129  -3.650  1.00 20.00     0.006 C 
ENDBRANCH   3   4
TORSDOF 1
ENDMDL
MODEL 3
REMARK VINA RESULT:      -5.1      1.663      2.134
REMARK  1 active torsions:
REMARK  status: ('A' for Active; 'I' for Inactive)
REMARK    1  A    between atoms: C9_9  and  C10_10 
ROOT
HETATM    1  C1  UNL     1     -35.120  17.375   0.535  1.00 20.00     0.012 C 
HETATM    2  C2  UNL     1     -34.537  17.197  -0.499  1.00 20.00    -0.117 C 
HETATM    3  C10 UNL     1     -33.815  16.994  -1.756  1.00 20.00     0.098 C 
ENDROOT
BRANCH   3   4
HETATM    4  C9  UNL     1     -34.290  15.715  -2.455  1.00 20.00     0.004 C 
HETATM    5  C5  UNL     1     -33.279  15.267  -3.512  1.00 20.00     0.083 C 
HETATM    6  C3  UNL     1     -33.524  15.887  -4.868  1.00 20.00     0.127 C 
HETATM    7  C4  UNL     1     -34.434  15.119  -5.800  1.00 20.00     0.078 C 
HETATM    8  O11 UNL     1     -33.042  16.974  -5.182  1.00 20.00    -0.298 OA
HETATM    9  C6  UNL     1     -35.900  15.260  -5.420  1.00 20.00     0.007 C 
HETATM   10  C7  UNL     1     -36.228  14.874  -3.972  1.00 20.00     0.001 C 
HETATM   11  C8  UNL     1     -35.734  15.904  -2.952  1.00 20.00     0.006 C 
ENDBRANCH   3   4
TORSDOF 1
ENDMDL
MODEL 4
REMARK VINA RESULT:      -5.0     11.462     12.766
REMARK  1 active torsions:
REMARK  status: ('A' for Active; 'I' for Inactive)
REMARK    1  A    between atoms: C9_9  and  C10_10 
ROOT
HETATM    1  C1  UNL     1     -32.082   8.772   1.314  1.00 20.00     0.012 C 
HETATM    2  C2  UNL     1     -32.125   7.976   2.211  1.00 20.00    -0.117 C 
HETATM    3  C10 UNL     1     -32.158   7.008   3.308  1.00 20.00     0.098 C 
ENDROOT
BRANCH   3   4
HETATM    4  C9  UNL     1     -33.582   6.484   3.527  1.00 20.00     0.004 C 
HETATM    5  C5  UNL     1     -34.253   7.206   4.697  1.00 20.00     0.083 C 
HETATM    6  C3  UNL     1     -33.994   6.545   6.031  1.00 20.00     0.127 C 
HETATM    7  C4  UNL     1     -34.990   5.493   6.459  1.00 20.00     0.078 C 
HETATM    8  O11 UNL     1     -33.007   6.819   6.711  1.00 20.00    -0.298 OA
HETATM    9  C6  UNL     1     -34.796   4.178   5.718  1.00 20.00     0.007 C 
HETATM   10  C7  UNL     1     -34.820   4.294   4.190  1.00 20.00     0.001 C 
HETATM   11  C8  UNL     1     -33.557   4.947   3.620  1.00 20.00     0.006 C 
ENDBRANCH   3   4
TORSDOF 1
ENDMDL
MODEL 5
REMARK VINA RESULT:      -4.8     12.227     13.929
REMARK  1 active torsions:
REMARK  status: ('A' for Active; 'I' for Inactive)
REMARK    1  A    between atoms: C9_9  and  C10_10 
ROOT
HETATM    1  C1  UNL     1     -41.963   0.898  -3.683  1.00 20.00     0.012 C 
HETATM    2  C2  UNL     1     -42.369   1.873  -3.113  1.00 20.00    -0.117 C 
HETATM    3  C10 UNL     1     -42.879   3.052  -2.412  1.00 20.00     0.098 C 
ENDROOT
BRANCH   3   4
HETATM    4  C9  UNL     1     -41.922   4.238  -2.576  1.00 20.00     0.004 C 
HETATM    5  C5  UNL     1     -40.843   4.220  -1.492  1.00 20.00     0.083 C 
HETATM    6  C3  UNL     1     -41.252   4.952  -0.235  1.00 20.00     0.127 C 
HETATM    7  C4  UNL     1     -40.907   6.422  -0.175  1.00 20.00     0.078 C 
HETATM    8  O11 UNL     1     -41.865   4.392   0.672  1.00 20.00    -0.298 OA
HETATM    9  C6  UNL     1     -41.842   7.268  -1.027  1.00 20.00     0.007 C 
HETATM   10  C7  UNL     1     -41.938   6.838  -2.495  1.00 20.00     0.001 C 
HETATM   11  C8  UNL     1     -42.733   5.542  -2.687  1.00 20.00     0.006 C 
ENDBRANCH   3   4
TORSDOF 1
ENDMDL
MODEL 6
REMARK VINA RESULT:      -4.6      1.466      1.496
REMARK  1 active torsions:
REMARK  status: ('A' for Active; 'I' for Inactive)
REMARK    1  A    between atoms: C9_9  and  C10_10 
ROOT
HETATM    1  C1  UNL     1     -34.800  17.670  -0.045  1.00 20.00     0.012 C 
HETATM    2  C2  UNL     1     -34.668  16.837  -0.899  1.00 20.00    -0.117 C 
HETATM    3  C10 UNL     1     -34.504  15.809  -1.927  1.00 20.00     0.098 C 
ENDROOT
BRANCH   3   4
HETATM    4  C9  UNL     1     -34.704  16.402  -3.326  1.00 20.00     0.004 C 
HETATM    5  C5  UNL     1     -36.129  16.156  -3.823  1.00 20.00     0.083 C 
HETATM    6  C3  UNL     1     -36.287  14.842  -4.551  1.00 20.00     0.127 C 
HETATM    7  C4  UNL     1     -36.059  14.874  -6.045  1.00 20.00     0.078 C 
HETATM    8  O11 UNL     1     -36.546  13.797  -3.957  1.00 20.00    -0.298 OA
HETATM    9  C6  UNL     1     -34.582  14.948  -6.402  1.00 20.00     0.007 C 
HETATM   10  C7  UNL     1     -33.824  16.114  -5.757  1.00 20.00     0.001 C 
HETATM   11  C8  UNL     1     -33.580  15.913  -4.259  1.00 20.00     0.006 C 
ENDBRANCH   3   4
TORSDOF 1
ENDMDL
MODEL 7
REMARK VINA RESULT:      -4.6      1.726      3.422
REMARK  1 active torsions:
REMARK  status: ('A' for Active; 'I' for Inactive)
REMARK    1  A    between atoms: C9_9  and  C10_10 
ROOT
HETATM    1  C1  UNL     1     -38.250  14.924  -3.790  1.00 20.00     0.012 C 
HETATM    2  C2  UNL     1     -37.656  15.054  -4.825  1.00 20.00    -0.117 C 
HETATM    3  C10 UNL     1     -36.947  15.208  -6.096  1.00 20.00     0.098 C 
ENDROOT
BRANCH   3   4
HETATM    4  C9  UNL     1     -35.483  15.595  -5.859  1.00 20.00     0.004 C 
HETATM    5  C5  UNL     1     -34.573  14.371  -5.977  1.00 20.00     0.083 C 
HETATM    6  C3  UNL     1     -34.403  13.628  -4.672  1.00 20.00     0.127 C 
HETATM    7  C4  UNL     1     -33.251  14.066  -3.798  1.00 20.00     0.078 C 
HETATM    8  O11 UNL     1     -35.182  12.743  -4.324  1.00 20.00    -0.298 OA
HETATM    9  C6  UNL     1     -33.543  15.370  -3.070  1.00 20.00     0.007 C 
HETATM   10  C7  UNL     1     -33.950  16.535  -3.980  1.00 20.00     0.001 C 
HETATM   11  C8  UNL     1     -35.366  16.387  -4.544  1.00 20.00     0.006 C 
ENDBRANCH   3   4
TORSDOF 1
ENDMDL
MODEL 8
REMARK VINA RESULT:      -4.5     12.224     13.913
REMARK  1 active torsions:
REMARK  status: ('A' for Active; 'I' for Inactive)
REMARK    1  A    between atoms: C9_9  and  C10_10 
ROOT
HETATM    1  C1  UNL     1     -43.194   0.828  -2.647  1.00 20.00     0.012 C 
HETATM    2  C2  UNL     1     -42.700   1.916  -2.765  1.00 20.00    -0.117 C 
HETATM    3  C10 UNL     1     -42.093   3.238  -2.926  1.00 20.00     0.098 C 
ENDROOT
BRANCH   3   4
HETATM    4  C9  UNL     1     -42.244   4.064  -1.644  1.00 20.00     0.004 C 
HETATM    5  C5  UNL     1     -43.338   5.121  -1.805  1.00 20.00     0.083 C 
HETATM    6  C3  UNL     1     -42.828   6.424  -2.375  1.00 20.00     0.127 C 
HETATM    7  C4  UNL     1     -42.356   7.453  -1.373  1.00 20.00     0.078 C 
HETATM    8  O11 UNL     1     -42.762   6.621  -3.587  1.00 20.00    -0.298 OA
HETATM    9  C6  UNL     1     -40.989   7.114  -0.799  1.00 20.00     0.007 C 
HETATM   10  C7  UNL     1     -40.884   5.720  -0.169  1.00 20.00     0.001 C 
HETATM   11  C8  UNL     1     -40.866   4.595  -1.208  1.00 20.00     0.006 C 
ENDBRANCH   3   4
TORSDOF 1
ENDMDL
MODEL 9
REMARK VINA RESULT:      -4.4      2.250      3.818
REMARK  1 active torsions:
REMARK  status: ('A' for Active; 'I' for Inactive)
REMARK    1  A    between atoms: C9_9  and  C10_10 
ROOT
HETATM    1  C1  UNL     1     -33.926  19.027  -7.411  1.00 20.00     0.012 C 
HETATM    2  C2  UNL     1     -33.844  18.506  -6.333  1.00 20.00    -0.117 C 
HETATM    3  C10 UNL     1     -33.752  17.886  -5.011  1.00 20.00     0.098 C 
ENDROOT
BRANCH   3   4
HETATM    4  C9  UNL     1     -33.239  16.445  -5.121  1.00 20.00     0.004 C 
HETATM    5  C5  UNL     1     -33.967  15.694  -6.237  1.00 20.00     0.083 C 
HETATM    6  C3  UNL     1     -35.236  15.019  -5.771  1.00 20.00     0.127 C 
HETATM    7  C4  UNL     1     -35.094  13.599  -5.274  1.00 20.00     0.078 C 
HETATM    8  O11 UNL     1     -36.317  15.606  -5.758  1.00 20.00    -0.298 OA
HETATM    9  C6  UNL     1     -34.492  13.533  -3.879  1.00 20.00     0.007 C 
HETATM   10  C7  UNL     1     -33.145  14.251  -3.727  1.00 20.00     0.001 C 
HETATM   11  C8  UNL     1     -33.278  15.777  -3.734  1.00 20.00     0.006 C 
ENDBRANCH   3   4
TORSDOF 1
ENDMDL
