MODEL 1
REMARK VINA RESULT:      -4.9      0.000      0.000
REMARK  2 active torsions:
REMARK  status: ('A' for Active; 'I' for Inactive)
REMARK    1  A    between atoms: C4_4  and  C10_10 
REMARK    2  A    between atoms: C8_8  and  C10_10 
ROOT
HETATM    1  C5  UNL     1     -35.978  16.064  -3.279  1.00 20.00     0.006 C 
HETATM    2  C6  UNL     1     -36.624  14.785  -3.794  1.00 20.00     0.016 C 
HETATM    3  C7  UNL     1     -34.256  14.358  -3.360  1.00 20.00     0.020 C 
HETATM    4  C8  UNL     1     -34.757  15.545  -2.523  1.00 20.00    -0.009 C 
HETATM    5  C9  UNL     1     -35.444  13.920  -4.219  1.00 20.00     0.058 C 
HETATM    6 BR12 UNL     1     -35.049  14.228  -6.112  1.00 20.00    -0.091 Br
ENDROOT
BRANCH   4   7
HETATM    7  C10 UNL     1     -33.698  16.612  -2.302  1.00 20.00     0.043 C 
BRANCH   7   8
HETATM    8  C4  UNL     1     -33.888  17.329  -0.991  1.00 20.00    -0.051 A 
HETATM    9  C1  UNL     1     -34.909  17.007  -0.050  1.00 20.00     0.014 A 
HETATM   10  C2  UNL     1     -34.858  17.817   1.064  1.00 20.00     0.050 A 
HETATM   11  S11 UNL     1     -33.586  18.959   0.972  1.00 20.00    -0.113 SA
HETATM   12  C3  UNL     1     -33.097  18.372  -0.561  1.00 20.00     0.056 A 
ENDBRANCH   7   8
ENDBRANCH   4   7
TORSDOF 2
ENDMDL
MODEL 2
REMARK VINA RESULT:      -4.8      3.461      5.483
REMARK  2 active torsions:
REMARK  status: ('A' for Active; 'I' for Inactive)
REMARK    1  A    between atoms: C4_4  and  C10_10 
REMARK    2  A    between atoms: C8_8  and  C10_10 
ROOT
HETATM    1  C5  UNL     1     -34.628  17.004  -0.155  1.00 20.00     0.006 C 
HETATM    2  C6  UNL     1     -34.777  18.363   0.517  1.00 20.00     0.016 C 
HETATM    3  C7  UNL     1     -33.432  18.622  -1.509  1.00 20.00     0.020 C 
HETATM    4  C8  UNL     1     -34.324  17.375  -1.604  1.00 20.00    -0.009 C 
HETATM    5  C9  UNL     1     -33.682  19.210  -0.119  1.00 20.00     0.058 C 
HETATM    6 BR12 UNL     1     -32.051  19.096   0.958  1.00 20.00    -0.091 Br
ENDROOT
BRANCH   4   7
HETATM    7  C10 UNL     1     -33.686  16.239  -2.386  1.00 20.00     0.043 C 
BRANCH   7   8
HETATM    8  C4  UNL     1     -34.714  15.398  -3.096  1.00 20.00    -0.051 A 
HETATM    9  C1  UNL     1     -34.444  14.114  -3.652  1.00 20.00     0.014 A 
HETATM   10  C2  UNL     1     -35.560  13.563  -4.245  1.00 20.00     0.050 A 
HETATM   11  S11 UNL     1     -36.924  14.591  -4.130  1.00 20.00    -0.113 SA
HETATM   12  C3  UNL     1     -36.025  15.779  -3.285  1.00 20.00     0.056 A 
ENDBRANCH   7   8
ENDBRANCH   4   7
TORSDOF 2
ENDMDL
MODEL 3
REMARK VINA RESULT:      -4.7      3.742      5.497
REMARK  2 active torsions:
REMARK  status: ('A' for Active; 'I' for Inactive)
REMARK    1  A    between atoms: C4_4  and  C10_10 
REMARK    2  A    between atoms: C8_8  and  C10_10 
ROOT
HETATM    1  C5  UNL     1     -34.639  16.474  -0.851  1.00 20.00     0.006 C 
HETATM    2  C6  UNL     1     -35.164  17.729  -0.167  1.00 20.00     0.016 C 
HETATM    3  C7  UNL     1     -33.636  18.383  -1.960  1.00 20.00     0.020 C 
HETATM    4  C8  UNL     1     -34.222  16.988  -2.227  1.00 20.00    -0.009 C 
HETATM    5  C9  UNL     1     -34.196  18.820  -0.606  1.00 20.00     0.058 C 
HETATM    6 BR12 UNL     1     -32.743  18.976   0.698  1.00 20.00    -0.091 Br
ENDROOT
BRANCH   4   7
HETATM    7  C10 UNL     1     -33.255  16.057  -2.940  1.00 20.00     0.043 C 
BRANCH   7   8
HETATM    8  C4  UNL     1     -33.960  15.165  -3.928  1.00 20.00    -0.051 A 
HETATM    9  C1  UNL     1     -34.322  13.813  -3.661  1.00 20.00     0.014 A 
HETATM   10  C2  UNL     1     -34.955  13.225  -4.735  1.00 20.00     0.050 A 
HETATM   11  S11 UNL     1     -35.110  14.302  -6.058  1.00 20.00    -0.113 SA
HETATM   12  C3  UNL     1     -34.330  15.559  -5.196  1.00 20.00     0.056 A 
ENDBRANCH   7   8
ENDBRANCH   4   7
TORSDOF 2
ENDMDL
MODEL 4
REMARK VINA RESULT:      -4.7      3.396      5.373
REMARK  2 active torsions:
REMARK  status: ('A' for Active; 'I' for Inactive)
REMARK    1  A    between atoms: C4_4  and  C10_10 
REMARK    2  A    between atoms: C8_8  and  C10_10 
ROOT
HETATM    1  C5  UNL     1     -33.384  18.663  -1.023  1.00 20.00     0.006 C 
HETATM    2  C6  UNL     1     -33.538  18.532   0.486  1.00 20.00     0.016 C 
HETATM    3  C7  UNL     1     -34.750  16.705  -0.596  1.00 20.00     0.020 C 
HETATM    4  C8  UNL     1     -33.640  17.239  -1.513  1.00 20.00    -0.009 C 
HETATM    5  C9  UNL     1     -34.718  17.584   0.656  1.00 20.00     0.058 C 
HETATM    6 BR12 UNL     1     -36.377  18.614   0.792  1.00 20.00    -0.091 Br
ENDROOT
BRANCH   4   7
HETATM    7  C10 UNL     1     -33.999  17.176  -2.988  1.00 20.00     0.043 C 
BRANCH   7   8
HETATM    8  C4  UNL     1     -34.180  15.757  -3.462  1.00 20.00    -0.051 A 
HETATM    9  C1  UNL     1     -33.118  14.811  -3.561  1.00 20.00     0.014 A 
HETATM   10  C2  UNL     1     -33.557  13.588  -4.021  1.00 20.00     0.050 A 
HETATM   11  S11 UNL     1     -35.242  13.584  -4.330  1.00 20.00    -0.113 SA
HETATM   12  C3  UNL     1     -35.389  15.221  -3.849  1.00 20.00     0.056 A 
ENDBRANCH   7   8
ENDBRANCH   4   7
TORSDOF 2
ENDMDL
MODEL 5
REMARK VINA RESULT:      -4.6      1.116      1.167
REMARK  2 active torsions:
REMARK  status: ('A' for Active; 'I' for Inactive)
REMARK    1  A    between atoms: C4_4  and  C10_10 
REMARK    2  A    between atoms: C8_8  and  C10_10 
ROOT
HETATM    1  C5  UNL     1     -35.860  15.439  -3.337  1.00 20.00     0.006 C 
HETATM    2  C6  UNL     1     -36.157  14.117  -4.031  1.00 20.00     0.016 C 
HETATM    3  C7  UNL     1     -33.736  14.442  -3.947  1.00 20.00     0.020 C 
HETATM    4  C8  UNL     1     -34.431  15.245  -2.836  1.00 20.00    -0.009 C 
HETATM    5  C9  UNL     1     -34.856  13.775  -4.746  1.00 20.00     0.058 C 
HETATM    6 BR12 UNL     1     -34.897  14.494  -6.567  1.00 20.00    -0.091 Br
ENDROOT
BRANCH   4   7
HETATM    7  C10 UNL     1     -33.731  16.555  -2.516  1.00 20.00     0.043 C 
BRANCH   7   8
HETATM    8  C4  UNL     1     -34.490  17.362  -1.495  1.00 20.00    -0.051 A 
HETATM    9  C1  UNL     1     -34.742  16.923  -0.163  1.00 20.00     0.014 A 
HETATM   10  C2  UNL     1     -35.457  17.853   0.561  1.00 20.00     0.050 A 
HETATM   11  S11 UNL     1     -35.822  19.247  -0.365  1.00 20.00    -0.113 SA
HETATM   12  C3  UNL     1     -35.022  18.610  -1.739  1.00 20.00     0.056 A 
ENDBRANCH   7   8
ENDBRANCH   4   7
TORSDOF 2
ENDMDL
MODEL 6
REMARK VINA RESULT:      -4.6      3.870      5.669
REMARK  2 active torsions:
REMARK  status: ('A' for Active; 'I' for Inactive)
REMARK    1  A    between atoms: C4_4  and  C10_10 
REMARK    2  A    between atoms: C8_8  and  C10_10 
ROOT
HETATM    1  C5  UNL     1     -34.636  16.427  -0.960  1.00 20.00     0.006 C 
HETATM    2  C6  UNL     1     -34.998  17.778  -0.357  1.00 20.00     0.016 C 
HETATM    3  C7  UNL     1     -33.622  18.139  -2.345  1.00 20.00     0.020 C 
HETATM    4  C8  UNL     1     -34.329  16.777  -2.414  1.00 20.00    -0.009 C 
HETATM    5  C9  UNL     1     -34.007  18.743  -0.993  1.00 20.00     0.058 C 
HETATM    6 BR12 UNL     1     -32.420  18.902   0.142  1.00 20.00    -0.091 Br
ENDROOT
BRANCH   4   7
HETATM    7  C10 UNL     1     -33.508  15.711  -3.120  1.00 20.00     0.043 C 
BRANCH   7   8
HETATM    8  C4  UNL     1     -34.001  15.459  -4.521  1.00 20.00    -0.051 A 
HETATM    9  C1  UNL     1     -33.691  16.294  -5.634  1.00 20.00     0.014 A 
HETATM   10  C2  UNL     1     -34.269  15.837  -6.799  1.00 20.00     0.050 A 
HETATM   11  S11 UNL     1     -35.180  14.409  -6.549  1.00 20.00    -0.113 SA
HETATM   12  C3  UNL     1     -34.803  14.397  -4.878  1.00 20.00     0.056 A 
ENDBRANCH   7   8
ENDBRANCH   4   7
TORSDOF 2
ENDMDL
MODEL 7
REMARK VINA RESULT:      -4.6      1.587      2.413
REMARK  2 active torsions:
REMARK  status: ('A' for Active; 'I' for Inactive)
REMARK    1  A    between atoms: C4_4  and  C10_10 
REMARK    2  A    between atoms: C8_8  and  C10_10 
ROOT
HETATM    1  C5  UNL     1     -34.050  15.110  -2.881  1.00 20.00     0.006 C 
HETATM    2  C6  UNL     1     -33.132  15.210  -4.093  1.00 20.00     0.016 C 
HETATM    3  C7  UNL     1     -33.776  17.463  -3.398  1.00 20.00     0.020 C 
HETATM    4  C8  UNL     1     -33.892  16.479  -2.224  1.00 20.00    -0.009 C 
HETATM    5  C9  UNL     1     -33.351  16.627  -4.606  1.00 20.00     0.058 C 
HETATM    6 BR12 UNL     1     -34.773  16.629  -5.952  1.00 20.00    -0.091 Br
ENDROOT
BRANCH   4   7
HETATM    7  C10 UNL     1     -35.027  16.814  -1.270  1.00 20.00     0.043 C 
BRANCH   7   8
HETATM    8  C4  UNL     1     -34.533  17.527  -0.039  1.00 20.00    -0.051 A 
HETATM    9  C1  UNL     1     -33.300  18.239   0.027  1.00 20.00     0.014 A 
HETATM   10  C2  UNL     1     -33.091  18.797   1.270  1.00 20.00     0.050 A 
HETATM   11  S11 UNL     1     -34.377  18.462   2.350  1.00 20.00    -0.113 SA
HETATM   12  C3  UNL     1     -35.219  17.568   1.156  1.00 20.00     0.056 A 
ENDBRANCH   7   8
ENDBRANCH   4   7
TORSDOF 2
ENDMDL
MODEL 8
REMARK VINA RESULT:      -4.4      2.283      3.492
REMARK  2 active torsions:
REMARK  status: ('A' for Active; 'I' for Inactive)
REMARK    1  A    between atoms: C4_4  and  C10_10 
REMARK    2  A    between atoms: C8_8  and  C10_10 
ROOT
HETATM    1  C5  UNL     1     -34.638  16.775  -0.715  1.00 20.00     0.006 C 
HETATM    2  C6  UNL     1     -34.497  15.975  -2.003  1.00 20.00     0.016 C 
HETATM    3  C7  UNL     1     -33.651  18.239  -2.377  1.00 20.00     0.020 C 
HETATM    4  C8  UNL     1     -33.595  17.877  -0.885  1.00 20.00    -0.009 C 
HETATM    5  C9  UNL     1     -34.291  17.037  -3.076  1.00 20.00     0.058 C 
HETATM    6 BR12 UNL     1     -36.020  17.551  -3.836  1.00 20.00    -0.091 Br
ENDROOT
BRANCH   4   7
HETATM    7  C10 UNL     1     -33.835  19.067   0.029  1.00 20.00     0.043 C 
BRANCH   7   8
HETATM    8  C4  UNL     1     -33.121  18.915   1.347  1.00 20.00    -0.051 A 
HETATM    9  C1  UNL     1     -31.709  19.030   1.503  1.00 20.00     0.014 A 
HETATM   10  C2  UNL     1     -31.317  18.848   2.812  1.00 20.00     0.050 A 
HETATM   11  S11 UNL     1     -32.648  18.540   3.845  1.00 20.00    -0.113 SA
HETATM   12  C3  UNL     1     -33.754  18.650   2.542  1.00 20.00     0.056 A 
ENDBRANCH   7   8
ENDBRANCH   4   7
TORSDOF 2
ENDMDL
MODEL 9
REMARK VINA RESULT:      -4.2     13.829     15.939
REMARK  2 active torsions:
REMARK  status: ('A' for Active; 'I' for Inactive)
REMARK    1  A    between atoms: C4_4  and  C10_10 
REMARK    2  A    between atoms: C8_8  and  C10_10 
ROOT
HETATM    1  C5  UNL     1     -40.923   4.407  -1.394  1.00 20.00     0.006 C 
HETATM    2  C6  UNL     1     -41.073   5.213  -0.111  1.00 20.00     0.016 C 
HETATM    3  C7  UNL     1     -43.239   5.107  -1.240  1.00 20.00     0.020 C 
HETATM    4  C8  UNL     1     -42.348   3.929  -1.662  1.00 20.00    -0.009 C 
HETATM    5  C9  UNL     1     -42.388   5.959  -0.296  1.00 20.00     0.058 C 
HETATM    6 BR12 UNL     1     -42.046   7.710  -1.102  1.00 20.00    -0.091 Br
ENDROOT
BRANCH   4   7
HETATM    7  C10 UNL     1     -42.568   3.497  -3.102  1.00 20.00     0.043 C 
BRANCH   7   8
HETATM    8  C4  UNL     1     -42.488   2.001  -3.258  1.00 20.00    -0.051 A 
HETATM    9  C1  UNL     1     -41.465   1.332  -3.991  1.00 20.00     0.014 A 
HETATM   10  C2  UNL     1     -41.628  -0.036  -3.975  1.00 20.00     0.050 A 
HETATM   11  S11 UNL     1     -43.010  -0.509  -3.080  1.00 20.00    -0.113 SA
HETATM   12  C3  UNL     1     -43.394   1.118  -2.711  1.00 20.00     0.056 A 
ENDBRANCH   7   8
ENDBRANCH   4   7
TORSDOF 2
ENDMDL
