MODEL 1
REMARK VINA RESULT:      -5.0      0.000      0.000
REMARK  6 active torsions:
REMARK  status: ('A' for Active; 'I' for Inactive)
REMARK    1  A    between atoms: C3_3  and  C6_6 
REMARK    2  A    between atoms: C4_4  and  C5_5 
REMARK    3  A    between atoms: C4_4  and  C7_7 
REMARK    4  A    between atoms: C5_5  and  C8_8 
REMARK    5  A    between atoms: C6_6  and  C9_9 
REMARK    6  A    between atoms: C7_7  and  C9_9 
ROOT
HETATM    1  C7  UNL     1     -33.439   5.945   2.737  1.00 20.00     0.004 C 
ENDROOT
BRANCH   1   2
HETATM    2  C4  UNL     1     -32.035   6.302   3.237  1.00 20.00     0.001 C 
BRANCH   2   3
HETATM    3  C5  UNL     1     -31.756   7.800   3.080  1.00 20.00     0.015 C 
BRANCH   3   4
HETATM    4  C8  UNL     1     -31.989   8.253   1.646  1.00 20.00     0.114 C 
HETATM    5 CL10 UNL     1     -32.544   9.942   1.611  1.00 20.00    -0.130 Cl
ENDBRANCH   3   4
ENDBRANCH   2   3
ENDBRANCH   1   2
BRANCH   1   6
HETATM    6  C9  UNL     1     -34.414   5.554   3.864  1.00 20.00    -0.019 C 
HETATM    7  C2  UNL     1     -35.855   5.830   3.420  1.00 20.00     0.010 C 
BRANCH   6   8
HETATM    8  C6  UNL     1     -34.111   6.212   5.226  1.00 20.00     0.004 C 
BRANCH   8   9
HETATM    9  C3  UNL     1     -34.601   5.434   6.450  1.00 20.00    -0.004 C 
HETATM   10  C1  UNL     1     -34.828   3.967   6.116  1.00 20.00     0.005 C 
ENDBRANCH   8   9
ENDBRANCH   6   8
ENDBRANCH   1   6
TORSDOF 6
ENDMDL
MODEL 2
REMARK VINA RESULT:      -4.9      0.721      1.129
REMARK  6 active torsions:
REMARK  status: ('A' for Active; 'I' for Inactive)
REMARK    1  A    between atoms: C3_3  and  C6_6 
REMARK    2  A    between atoms: C4_4  and  C5_5 
REMARK    3  A    between atoms: C4_4  and  C7_7 
REMARK    4  A    between atoms: C5_5  and  C8_8 
REMARK    5  A    between atoms: C6_6  and  C9_9 
REMARK    6  A    between atoms: C7_7  and  C9_9 
ROOT
HETATM    1  C7  UNL     1     -33.643   5.889   2.800  1.00 20.00     0.004 C 
ENDROOT
BRANCH   1   2
HETATM    2  C4  UNL     1     -32.243   6.160   3.359  1.00 20.00     0.001 C 
BRANCH   2   3
HETATM    3  C5  UNL     1     -31.865   7.637   3.215  1.00 20.00     0.015 C 
BRANCH   3   4
HETATM    4  C8  UNL     1     -31.994   8.097   1.770  1.00 20.00     0.114 C 
HETATM    5 CL10 UNL     1     -32.539   9.788   1.703  1.00 20.00    -0.130 Cl
ENDBRANCH   3   4
ENDBRANCH   2   3
ENDBRANCH   1   2
BRANCH   1   6
HETATM    6  C9  UNL     1     -34.537   5.065   3.748  1.00 20.00    -0.019 C 
HETATM    7  C2  UNL     1     -35.943   5.675   3.792  1.00 20.00     0.010 C 
BRANCH   6   8
HETATM    8  C6  UNL     1     -33.961   4.879   5.167  1.00 20.00     0.004 C 
BRANCH   8   9
HETATM    9  C3  UNL     1     -34.629   5.720   6.257  1.00 20.00    -0.004 C 
HETATM   10  C1  UNL     1     -33.776   6.926   6.624  1.00 20.00     0.005 C 
ENDBRANCH   8   9
ENDBRANCH   6   8
ENDBRANCH   1   6
TORSDOF 6
ENDMDL
MODEL 3
REMARK VINA RESULT:      -4.7      2.191      5.193
REMARK  6 active torsions:
REMARK  status: ('A' for Active; 'I' for Inactive)
REMARK    1  A    between atoms: C3_3  and  C6_6 
REMARK    2  A    between atoms: C4_4  and  C5_5 
REMARK    3  A    between atoms: C4_4  and  C7_7 
REMARK    4  A    between atoms: C5_5  and  C8_8 
REMARK    5  A    between atoms: C6_6  and  C9_9 
REMARK    6  A    between atoms: C7_7  and  C9_9 
ROOT
HETATM    1  C7  UNL     1     -32.801   6.001   3.217  1.00 20.00     0.004 C 
ENDROOT
BRANCH   1   2
HETATM    2  C4  UNL     1     -34.129   6.389   3.876  1.00 20.00     0.001 C 
BRANCH   2   3
HETATM    3  C5  UNL     1     -34.831   5.164   4.469  1.00 20.00     0.015 C 
BRANCH   3   4
HETATM    4  C8  UNL     1     -34.748   5.168   5.989  1.00 20.00     0.114 C 
HETATM    5 CL10 UNL     1     -33.978   6.664   6.564  1.00 20.00    -0.130 Cl
ENDBRANCH   3   4
ENDBRANCH   2   3
ENDBRANCH   1   2
BRANCH   1   6
HETATM    6  C9  UNL     1     -31.873   7.202   2.947  1.00 20.00    -0.019 C 
HETATM    7  C2  UNL     1     -31.279   7.702   4.269  1.00 20.00     0.010 C 
BRANCH   6   8
HETATM    8  C6  UNL     1     -32.530   8.351   2.156  1.00 20.00     0.004 C 
BRANCH   8   9
HETATM    9  C3  UNL     1     -31.771   8.800   0.905  1.00 20.00    -0.004 C 
HETATM   10  C1  UNL     1     -32.719   9.034  -0.262  1.00 20.00     0.005 C 
ENDBRANCH   8   9
ENDBRANCH   6   8
ENDBRANCH   1   6
TORSDOF 6
ENDMDL
MODEL 4
REMARK VINA RESULT:      -4.5      1.027      1.641
REMARK  6 active torsions:
REMARK  status: ('A' for Active; 'I' for Inactive)
REMARK    1  A    between atoms: C3_3  and  C6_6 
REMARK    2  A    between atoms: C4_4  and  C5_5 
REMARK    3  A    between atoms: C4_4  and  C7_7 
REMARK    4  A    between atoms: C5_5  and  C8_8 
REMARK    5  A    between atoms: C6_6  and  C9_9 
REMARK    6  A    between atoms: C7_7  and  C9_9 
ROOT
HETATM    1  C7  UNL     1     -32.774   6.074   3.282  1.00 20.00     0.004 C 
ENDROOT
BRANCH   1   2
HETATM    2  C4  UNL     1     -31.763   7.220   3.168  1.00 20.00     0.001 C 
BRANCH   2   3
HETATM    3  C5  UNL     1     -32.348   8.400   2.387  1.00 20.00     0.015 C 
BRANCH   3   4
HETATM    4  C8  UNL     1     -31.667   8.552   1.035  1.00 20.00     0.114 C 
HETATM    5 CL10 UNL     1     -32.828   9.124  -0.185  1.00 20.00    -0.130 Cl
ENDBRANCH   3   4
ENDBRANCH   2   3
ENDBRANCH   1   2
BRANCH   1   6
HETATM    6  C9  UNL     1     -34.032   6.440   4.093  1.00 20.00    -0.019 C 
HETATM    7  C2  UNL     1     -33.644   6.719   5.550  1.00 20.00     0.010 C 
BRANCH   6   8
HETATM    8  C6  UNL     1     -35.171   5.404   4.004  1.00 20.00     0.004 C 
BRANCH   8   9
HETATM    9  C3  UNL     1     -34.915   4.087   4.741  1.00 20.00    -0.004 C 
HETATM   10  C1  UNL     1     -35.209   4.221   6.228  1.00 20.00     0.005 C 
ENDBRANCH   8   9
ENDBRANCH   6   8
ENDBRANCH   1   6
TORSDOF 6
ENDMDL
MODEL 5
REMARK VINA RESULT:      -4.5      2.172      5.003
REMARK  6 active torsions:
REMARK  status: ('A' for Active; 'I' for Inactive)
REMARK    1  A    between atoms: C3_3  and  C6_6 
REMARK    2  A    between atoms: C4_4  and  C5_5 
REMARK    3  A    between atoms: C4_4  and  C7_7 
REMARK    4  A    between atoms: C5_5  and  C8_8 
REMARK    5  A    between atoms: C6_6  and  C9_9 
REMARK    6  A    between atoms: C7_7  and  C9_9 
ROOT
HETATM    1  C7  UNL     1     -34.105   6.566   3.719  1.00 20.00     0.004 C 
ENDROOT
BRANCH   1   2
HETATM    2  C4  UNL     1     -34.869   5.238   3.714  1.00 20.00     0.001 C 
BRANCH   2   3
HETATM    3  C5  UNL     1     -35.319   4.853   5.127  1.00 20.00     0.015 C 
BRANCH   3   4
HETATM    4  C8  UNL     1     -34.173   4.984   6.120  1.00 20.00     0.114 C 
HETATM    5 CL10 UNL     1     -34.008   6.671   6.657  1.00 20.00    -0.130 Cl
ENDBRANCH   3   4
ENDBRANCH   2   3
ENDBRANCH   1   2
BRANCH   1   6
HETATM    6  C9  UNL     1     -32.867   6.568   2.801  1.00 20.00    -0.019 C 
HETATM    7  C2  UNL     1     -31.948   5.398   3.171  1.00 20.00     0.010 C 
BRANCH   6   8
HETATM    8  C6  UNL     1     -32.094   7.903   2.776  1.00 20.00     0.004 C 
BRANCH   8   9
HETATM    9  C3  UNL     1     -31.842   8.485   1.383  1.00 20.00    -0.004 C 
HETATM   10  C1  UNL     1     -32.456   9.871   1.246  1.00 20.00     0.005 C 
ENDBRANCH   8   9
ENDBRANCH   6   8
ENDBRANCH   1   6
TORSDOF 6
ENDMDL
MODEL 6
REMARK VINA RESULT:      -4.1     11.007     12.143
REMARK  6 active torsions:
REMARK  status: ('A' for Active; 'I' for Inactive)
REMARK    1  A    between atoms: C3_3  and  C6_6 
REMARK    2  A    between atoms: C4_4  and  C5_5 
REMARK    3  A    between atoms: C4_4  and  C7_7 
REMARK    4  A    between atoms: C5_5  and  C8_8 
REMARK    5  A    between atoms: C6_6  and  C9_9 
REMARK    6  A    between atoms: C7_7  and  C9_9 
ROOT
HETATM    1  C7  UNL     1     -33.344  15.115  -3.517  1.00 20.00     0.004 C 
ENDROOT
BRANCH   1   2
HETATM    2  C4  UNL     1     -34.306  13.924  -3.538  1.00 20.00     0.001 C 
BRANCH   2   3
HETATM    3  C5  UNL     1     -34.428  13.334  -4.946  1.00 20.00     0.015 C 
BRANCH   3   4
HETATM    4  C8  UNL     1     -35.292  14.215  -5.836  1.00 20.00     0.114 C 
HETATM    5 CL10 UNL     1     -34.301  14.990  -7.092  1.00 20.00    -0.130 Cl
ENDBRANCH   3   4
ENDBRANCH   2   3
ENDBRANCH   1   2
BRANCH   1   6
HETATM    6  C9  UNL     1     -34.034  16.460  -3.213  1.00 20.00    -0.019 C 
HETATM    7  C2  UNL     1     -33.702  17.471  -4.316  1.00 20.00     0.010 C 
BRANCH   6   8
HETATM    8  C6  UNL     1     -33.725  17.033  -1.814  1.00 20.00     0.004 C 
BRANCH   8   9
HETATM    9  C3  UNL     1     -34.717  16.642  -0.716  1.00 20.00    -0.004 C 
HETATM   10  C1  UNL     1     -34.727  17.668   0.409  1.00 20.00     0.005 C 
ENDBRANCH   8   9
ENDBRANCH   6   8
ENDBRANCH   1   6
TORSDOF 6
ENDMDL
MODEL 7
REMARK VINA RESULT:      -4.1     10.848     11.858
REMARK  6 active torsions:
REMARK  status: ('A' for Active; 'I' for Inactive)
REMARK    1  A    between atoms: C3_3  and  C6_6 
REMARK    2  A    between atoms: C4_4  and  C5_5 
REMARK    3  A    between atoms: C4_4  and  C7_7 
REMARK    4  A    between atoms: C5_5  and  C8_8 
REMARK    5  A    between atoms: C6_6  and  C9_9 
REMARK    6  A    between atoms: C7_7  and  C9_9 
ROOT
HETATM    1  C7  UNL     1     -33.682  16.312  -3.214  1.00 20.00     0.004 C 
ENDROOT
BRANCH   1   2
HETATM    2  C4  UNL     1     -33.135  15.026  -3.842  1.00 20.00     0.001 C 
BRANCH   2   3
HETATM    3  C5  UNL     1     -34.044  13.832  -3.541  1.00 20.00     0.015 C 
BRANCH   3   4
HETATM    4  C8  UNL     1     -34.651  13.271  -4.819  1.00 20.00     0.114 C 
HETATM    5 CL10 UNL     1     -34.541  14.463  -6.134  1.00 20.00    -0.130 Cl
ENDBRANCH   3   4
ENDBRANCH   2   3
ENDBRANCH   1   2
BRANCH   1   6
HETATM    6  C9  UNL     1     -34.870  16.076  -2.261  1.00 20.00    -0.019 C 
HETATM    7  C2  UNL     1     -36.146  16.673  -2.867  1.00 20.00     0.010 C 
BRANCH   6   8
HETATM    8  C6  UNL     1     -34.643  16.581  -0.821  1.00 20.00     0.004 C 
BRANCH   8   9
HETATM    9  C3  UNL     1     -33.616  17.707  -0.679  1.00 20.00    -0.004 C 
HETATM   10  C1  UNL     1     -33.744  18.404   0.667  1.00 20.00     0.005 C 
ENDBRANCH   8   9
ENDBRANCH   6   8
ENDBRANCH   1   6
TORSDOF 6
ENDMDL
MODEL 8
REMARK VINA RESULT:      -4.1     10.782     12.046
REMARK  6 active torsions:
REMARK  status: ('A' for Active; 'I' for Inactive)
REMARK    1  A    between atoms: C3_3  and  C6_6 
REMARK    2  A    between atoms: C4_4  and  C5_5 
REMARK    3  A    between atoms: C4_4  and  C7_7 
REMARK    4  A    between atoms: C5_5  and  C8_8 
REMARK    5  A    between atoms: C6_6  and  C9_9 
REMARK    6  A    between atoms: C7_7  and  C9_9 
ROOT
HETATM    1  C7  UNL     1     -34.777  16.139  -2.409  1.00 20.00     0.004 C 
ENDROOT
BRANCH   1   2
HETATM    2  C4  UNL     1     -34.519  16.609  -0.974  1.00 20.00     0.001 C 
BRANCH   2   3
HETATM    3  C5  UNL     1     -33.531  17.778  -0.943  1.00 20.00     0.015 C 
BRANCH   3   4
HETATM    4  C8  UNL     1     -33.454  18.393   0.447  1.00 20.00     0.114 C 
HETATM    5 CL10 UNL     1     -31.796  18.933   0.796  1.00 20.00    -0.130 Cl
ENDBRANCH   3   4
ENDBRANCH   2   3
ENDBRANCH   1   2
BRANCH   1   6
HETATM    6  C9  UNL     1     -33.493  15.977  -3.245  1.00 20.00    -0.019 C 
HETATM    7  C2  UNL     1     -33.561  16.888  -4.477  1.00 20.00     0.010 C 
BRANCH   6   8
HETATM    8  C6  UNL     1     -33.169  14.522  -3.641  1.00 20.00     0.004 C 
BRANCH   8   9
HETATM    9  C3  UNL     1     -34.371  13.575  -3.687  1.00 20.00    -0.004 C 
HETATM   10  C1  UNL     1     -34.821  13.323  -5.119  1.00 20.00     0.005 C 
ENDBRANCH   8   9
ENDBRANCH   6   8
ENDBRANCH   1   6
TORSDOF 6
ENDMDL
MODEL 9
REMARK VINA RESULT:      -4.1     10.977     12.527
REMARK  6 active torsions:
REMARK  status: ('A' for Active; 'I' for Inactive)
REMARK    1  A    between atoms: C3_3  and  C6_6 
REMARK    2  A    between atoms: C4_4  and  C5_5 
REMARK    3  A    between atoms: C4_4  and  C7_7 
REMARK    4  A    between atoms: C5_5  and  C8_8 
REMARK    5  A    between atoms: C6_6  and  C9_9 
REMARK    6  A    between atoms: C7_7  and  C9_9 
ROOT
HETATM    1  C7  UNL     1     -33.076  16.100  -4.644  1.00 20.00     0.004 C 
ENDROOT
BRANCH   1   2
HETATM    2  C4  UNL     1     -34.258  16.438  -5.558  1.00 20.00     0.001 C 
BRANCH   2   3
HETATM    3  C5  UNL     1     -34.198  15.636  -6.861  1.00 20.00     0.015 C 
BRANCH   3   4
HETATM    4  C8  UNL     1     -35.259  14.544  -6.881  1.00 20.00     0.114 C 
HETATM    5 CL10 UNL     1     -36.604  14.967  -5.797  1.00 20.00    -0.130 Cl
ENDBRANCH   3   4
ENDBRANCH   2   3
ENDBRANCH   1   2
BRANCH   1   6
HETATM    6  C9  UNL     1     -33.479  15.322  -3.376  1.00 20.00    -0.019 C 
HETATM    7  C2  UNL     1     -33.505  13.819  -3.678  1.00 20.00     0.010 C 
BRANCH   6   8
HETATM    8  C6  UNL     1     -34.803  15.790  -2.736  1.00 20.00     0.004 C 
BRANCH   8   9
HETATM    9  C3  UNL     1     -34.680  16.339  -1.312  1.00 20.00    -0.004 C 
HETATM   10  C1  UNL     1     -33.645  17.452  -1.238  1.00 20.00     0.005 C 
ENDBRANCH   8   9
ENDBRANCH   6   8
ENDBRANCH   1   6
TORSDOF 6
ENDMDL
