MODEL 1
REMARK VINA RESULT:      -4.6      0.000      0.000
REMARK  1 active torsions:
REMARK  status: ('A' for Active; 'I' for Inactive)
REMARK    1  A    between atoms: C4_4  and  C8_8 
ROOT
HETATM    1  C1  UNL     1     -34.043   5.177   2.916  1.00 20.00     0.006 C 
HETATM    2  C2  UNL     1     -32.729   5.865   2.531  1.00 20.00     0.020 C 
HETATM    3  C3  UNL     1     -33.423   6.803   4.612  1.00 20.00     0.025 C 
HETATM    4  C4  UNL     1     -34.598   5.956   4.119  1.00 20.00    -0.010 C 
HETATM    5  C5  UNL     1     -32.727   7.172   3.311  1.00 20.00     0.082 C 
HETATM    6 CL9  UNL     1     -31.093   7.799   3.574  1.00 20.00    -0.125 Cl
ENDROOT
BRANCH   4   7
HETATM    7  C8  UNL     1     -35.177   5.058   5.200  1.00 20.00    -0.019 C 
HETATM    8  C6  UNL     1     -34.837   3.594   4.927  1.00 20.00     0.010 C 
HETATM    9  C7  UNL     1     -34.669   5.476   6.580  1.00 20.00     0.010 C 
ENDBRANCH   4   7
TORSDOF 1
ENDMDL
MODEL 2
REMARK VINA RESULT:      -4.2      2.297      4.159
REMARK  1 active torsions:
REMARK  status: ('A' for Active; 'I' for Inactive)
REMARK    1  A    between atoms: C4_4  and  C8_8 
ROOT
HETATM    1  C1  UNL     1     -33.359   7.144   5.311  1.00 20.00     0.006 C 
HETATM    2  C2  UNL     1     -34.130   5.983   5.948  1.00 20.00     0.020 C 
HETATM    3  C3  UNL     1     -33.869   5.460   3.635  1.00 20.00     0.025 C 
HETATM    4  C4  UNL     1     -33.413   6.912   3.792  1.00 20.00    -0.010 C 
HETATM    5  C5  UNL     1     -34.848   5.305   4.789  1.00 20.00     0.082 C 
HETATM    6 CL9  UNL     1     -35.227   3.610   5.128  1.00 20.00    -0.125 Cl
ENDROOT
BRANCH   4   7
HETATM    7  C8  UNL     1     -32.094   7.199   3.095  1.00 20.00    -0.019 C 
HETATM    8  C6  UNL     1     -32.285   8.216   1.970  1.00 20.00     0.010 C 
HETATM    9  C7  UNL     1     -31.051   7.698   4.094  1.00 20.00     0.010 C 
ENDBRANCH   4   7
TORSDOF 1
ENDMDL
MODEL 3
REMARK VINA RESULT:      -4.2     11.587     12.776
REMARK  1 active torsions:
REMARK  status: ('A' for Active; 'I' for Inactive)
REMARK    1  A    between atoms: C4_4  and  C8_8 
ROOT
HETATM    1  C1  UNL     1     -34.122  13.767  -3.429  1.00 20.00     0.006 C 
HETATM    2  C2  UNL     1     -34.389  13.301  -4.864  1.00 20.00     0.020 C 
HETATM    3  C3  UNL     1     -35.113  15.569  -4.722  1.00 20.00     0.025 C 
HETATM    4  C4  UNL     1     -34.811  15.133  -3.287  1.00 20.00    -0.010 C 
HETATM    5  C5  UNL     1     -35.457  14.248  -5.392  1.00 20.00     0.082 C 
HETATM    6 CL9  UNL     1     -35.444  14.365  -7.158  1.00 20.00    -0.125 Cl
ENDROOT
BRANCH   4   7
HETATM    7  C8  UNL     1     -33.979  16.148  -2.520  1.00 20.00    -0.019 C 
HETATM    8  C6  UNL     1     -33.789  17.423  -3.340  1.00 20.00     0.010 C 
HETATM    9  C7  UNL     1     -34.625  16.471  -1.174  1.00 20.00     0.010 C 
ENDBRANCH   4   7
TORSDOF 1
ENDMDL
MODEL 4
REMARK VINA RESULT:      -4.1      2.269      4.000
REMARK  1 active torsions:
REMARK  status: ('A' for Active; 'I' for Inactive)
REMARK    1  A    between atoms: C4_4  and  C8_8 
ROOT
HETATM    1  C1  UNL     1     -34.128   5.833   2.813  1.00 20.00     0.006 C 
HETATM    2  C2  UNL     1     -35.120   5.187   3.786  1.00 20.00     0.020 C 
HETATM    3  C3  UNL     1     -33.387   6.164   5.103  1.00 20.00     0.025 C 
HETATM    4  C4  UNL     1     -32.906   6.239   3.653  1.00 20.00    -0.010 C 
HETATM    5  C5  UNL     1     -34.327   4.969   5.068  1.00 20.00     0.082 C 
HETATM    6 CL9  UNL     1     -35.365   4.884   6.498  1.00 20.00    -0.125 Cl
ENDROOT
BRANCH   4   7
HETATM    7  C8  UNL     1     -32.350   7.604   3.282  1.00 20.00    -0.019 C 
HETATM    8  C6  UNL     1     -31.076   7.903   4.071  1.00 20.00     0.010 C 
HETATM    9  C7  UNL     1     -32.079   7.687   1.780  1.00 20.00     0.010 C 
ENDBRANCH   4   7
TORSDOF 1
ENDMDL
MODEL 5
REMARK VINA RESULT:      -4.0     12.062     12.705
REMARK  1 active torsions:
REMARK  status: ('A' for Active; 'I' for Inactive)
REMARK    1  A    between atoms: C4_4  and  C8_8 
ROOT
HETATM    1  C1  UNL     1     -35.690  16.378  -2.606  1.00 20.00     0.006 C 
HETATM    2  C2  UNL     1     -35.804  15.101  -3.444  1.00 20.00     0.020 C 
HETATM    3  C3  UNL     1     -33.477  15.512  -3.112  1.00 20.00     0.025 C 
HETATM    4  C4  UNL     1     -34.201  16.762  -2.610  1.00 20.00    -0.010 C 
HETATM    5  C5  UNL     1     -34.456  14.966  -4.140  1.00 20.00     0.082 C 
HETATM    6 CL9  UNL     1     -34.094  13.295  -4.595  1.00 20.00    -0.125 Cl
ENDROOT
BRANCH   4   7
HETATM    7  C8  UNL     1     -33.700  17.234  -1.254  1.00 20.00    -0.019 C 
HETATM    8  C6  UNL     1     -33.287  18.704  -1.311  1.00 20.00     0.010 C 
HETATM    9  C7  UNL     1     -34.765  17.020  -0.180  1.00 20.00     0.010 C 
ENDBRANCH   4   7
TORSDOF 1
ENDMDL
MODEL 6
REMARK VINA RESULT:      -4.0      1.148      2.005
REMARK  1 active torsions:
REMARK  status: ('A' for Active; 'I' for Inactive)
REMARK    1  A    between atoms: C4_4  and  C8_8 
ROOT
HETATM    1  C1  UNL     1     -33.287   6.503   5.290  1.00 20.00     0.006 C 
HETATM    2  C2  UNL     1     -32.572   7.599   4.493  1.00 20.00     0.020 C 
HETATM    3  C3  UNL     1     -33.308   5.961   2.922  1.00 20.00     0.025 C 
HETATM    4  C4  UNL     1     -33.535   5.350   4.305  1.00 20.00    -0.010 C 
HETATM    5  C5  UNL     1     -32.168   6.933   3.185  1.00 20.00     0.082 C 
HETATM    6 CL9  UNL     1     -31.957   8.098   1.869  1.00 20.00    -0.125 Cl
ENDROOT
BRANCH   4   7
HETATM    7  C8  UNL     1     -34.909   4.717   4.456  1.00 20.00    -0.019 C 
HETATM    8  C6  UNL     1     -35.235   4.473   5.929  1.00 20.00     0.010 C 
HETATM    9  C7  UNL     1     -35.982   5.594   3.811  1.00 20.00     0.010 C 
ENDBRANCH   4   7
TORSDOF 1
ENDMDL
MODEL 7
REMARK VINA RESULT:      -3.9     11.864     12.941
REMARK  1 active torsions:
REMARK  status: ('A' for Active; 'I' for Inactive)
REMARK    1  A    between atoms: C4_4  and  C8_8 
ROOT
HETATM    1  C1  UNL     1     -33.493  16.936  -4.211  1.00 20.00     0.006 C 
HETATM    2  C2  UNL     1     -33.817  15.736  -5.107  1.00 20.00     0.020 C 
HETATM    3  C3  UNL     1     -34.402  15.119  -2.879  1.00 20.00     0.025 C 
HETATM    4  C4  UNL     1     -33.643  16.441  -2.763  1.00 20.00    -0.010 C 
HETATM    5  C5  UNL     1     -33.841  14.539  -4.167  1.00 20.00     0.082 C 
HETATM    6 CL9  UNL     1     -34.826  13.208  -4.793  1.00 20.00    -0.125 Cl
ENDROOT
BRANCH   4   7
HETATM    7  C8  UNL     1     -34.333  17.446  -1.855  1.00 20.00    -0.019 C 
HETATM    8  C6  UNL     1     -34.684  16.810  -0.511  1.00 20.00     0.010 C 
HETATM    9  C7  UNL     1     -33.457  18.681  -1.649  1.00 20.00     0.010 C 
ENDBRANCH   4   7
TORSDOF 1
ENDMDL
MODEL 8
REMARK VINA RESULT:      -3.9     11.852     12.889
REMARK  1 active torsions:
REMARK  status: ('A' for Active; 'I' for Inactive)
REMARK    1  A    between atoms: C4_4  and  C8_8 
ROOT
HETATM    1  C1  UNL     1     -33.643  16.887  -3.883  1.00 20.00     0.006 C 
HETATM    2  C2  UNL     1     -33.922  15.987  -5.090  1.00 20.00     0.020 C 
HETATM    3  C3  UNL     1     -34.540  14.754  -3.144  1.00 20.00     0.025 C 
HETATM    4  C4  UNL     1     -33.811  16.000  -2.639  1.00 20.00    -0.010 C 
HETATM    5  C5  UNL     1     -33.940  14.572  -4.529  1.00 20.00     0.082 C 
HETATM    6 CL9  UNL     1     -34.883  13.459  -5.531  1.00 20.00    -0.125 Cl
ENDROOT
BRANCH   4   7
HETATM    7  C8  UNL     1     -34.542  16.695  -1.501  1.00 20.00    -0.019 C 
HETATM    8  C6  UNL     1     -33.612  17.663  -0.771  1.00 20.00     0.010 C 
HETATM    9  C7  UNL     1     -35.776  17.431  -2.021  1.00 20.00     0.010 C 
ENDBRANCH   4   7
TORSDOF 1
ENDMDL
MODEL 9
REMARK VINA RESULT:      -3.9     11.984     13.539
REMARK  1 active torsions:
REMARK  status: ('A' for Active; 'I' for Inactive)
REMARK    1  A    between atoms: C4_4  and  C8_8 
ROOT
HETATM    1  C1  UNL     1     -35.923  14.464  -4.906  1.00 20.00     0.006 C 
HETATM    2  C2  UNL     1     -35.932  14.999  -3.470  1.00 20.00     0.020 C 
HETATM    3  C3  UNL     1     -33.793  15.514  -4.392  1.00 20.00     0.025 C 
HETATM    4  C4  UNL     1     -34.472  14.582  -5.398  1.00 20.00    -0.010 C 
HETATM    5  C5  UNL     1     -34.464  15.118  -3.086  1.00 20.00     0.082 C 
HETATM    6 CL9  UNL     1     -34.195  16.307  -1.803  1.00 20.00    -0.125 Cl
ENDROOT
BRANCH   4   7
HETATM    7  C8  UNL     1     -34.363  15.075  -6.831  1.00 20.00    -0.019 C 
HETATM    8  C6  UNL     1     -35.468  14.472  -7.697  1.00 20.00     0.010 C 
HETATM    9  C7  UNL     1     -34.416  16.601  -6.885  1.00 20.00     0.010 C 
ENDBRANCH   4   7
TORSDOF 1
ENDMDL
