MODEL 1
REMARK VINA RESULT:      -5.5      0.000      0.000
REMARK  6 active torsions:
REMARK  status: ('A' for Active; 'I' for Inactive)
REMARK    1  A    between atoms: C4_4  and  C6_6 
REMARK    2  A    between atoms: C5_5  and  C9_9 
REMARK    3  A    between atoms: C6_6  and  C7_7 
REMARK    4  A    between atoms: C7_7  and  C8_8 
REMARK    5  A    between atoms: C8_8  and  C9_9 
REMARK    6  A    between atoms: C9_9  and  O10_10 
ROOT
HETATM    1  C1  UNL     1     -32.110   8.779   1.248  1.00 20.00     0.012 C 
HETATM    2  C2  UNL     1     -32.133   8.065   2.212  1.00 20.00    -0.117 C 
HETATM    3  C4  UNL     1     -32.160   7.191   3.395  1.00 20.00     0.093 C 
ENDROOT
BRANCH   3   4
HETATM    4  C6  UNL     1     -32.385   5.732   2.995  1.00 20.00     0.012 C 
BRANCH   4   5
HETATM    5  C7  UNL     1     -33.864   5.344   2.914  1.00 20.00     0.003 C 
BRANCH   5   6
HETATM    6  C8  UNL     1     -34.737   6.061   3.950  1.00 20.00     0.032 C 
BRANCH   6   7
HETATM    7  C9  UNL     1     -35.256   5.101   5.028  1.00 20.00     0.117 C 
BRANCH   7   8
HETATM    8  C5  UNL     1     -34.432   5.217   6.316  1.00 20.00     0.027 C 
HETATM    9  C3  UNL     1     -33.923   6.633   6.550  1.00 20.00     0.007 C 
ENDBRANCH   7   8
BRANCH   7  10
HETATM   10  O10 UNL     1     -35.201   3.763   4.542  1.00 20.00    -0.396 OA
HETATM   11  H26 UNL     1     -36.012   3.325   4.845  1.00 20.00     0.210 HD
ENDBRANCH   7  10
ENDBRANCH   6   7
ENDBRANCH   5   6
ENDBRANCH   4   5
ENDBRANCH   3   4
TORSDOF 6
ENDMDL
MODEL 2
REMARK VINA RESULT:      -5.0      1.832      4.578
REMARK  6 active torsions:
REMARK  status: ('A' for Active; 'I' for Inactive)
REMARK    1  A    between atoms: C4_4  and  C6_6 
REMARK    2  A    between atoms: C5_5  and  C9_9 
REMARK    3  A    between atoms: C6_6  and  C7_7 
REMARK    4  A    between atoms: C7_7  and  C8_8 
REMARK    5  A    between atoms: C8_8  and  C9_9 
REMARK    6  A    between atoms: C9_9  and  O10_10 
ROOT
HETATM    1  C1  UNL     1     -33.658   7.142   6.749  1.00 20.00     0.012 C 
HETATM    2  C2  UNL     1     -34.216   6.146   6.381  1.00 20.00    -0.117 C 
HETATM    3  C4  UNL     1     -34.901   4.924   5.930  1.00 20.00     0.093 C 
ENDROOT
BRANCH   3   4
HETATM    4  C6  UNL     1     -34.731   4.723   4.424  1.00 20.00     0.012 C 
BRANCH   4   5
HETATM    5  C7  UNL     1     -34.470   6.026   3.662  1.00 20.00     0.003 C 
BRANCH   5   6
HETATM    6  C8  UNL     1     -33.073   6.092   3.035  1.00 20.00     0.032 C 
BRANCH   6   7
HETATM    7  C9  UNL     1     -32.467   7.499   3.127  1.00 20.00     0.117 C 
BRANCH   7   8
HETATM    8  C5  UNL     1     -32.016   7.999   1.749  1.00 20.00     0.027 C 
HETATM    9  C3  UNL     1     -32.429   9.443   1.497  1.00 20.00     0.007 C 
ENDBRANCH   7   8
BRANCH   7  10
HETATM   10  O10 UNL     1     -31.354   7.481   4.017  1.00 20.00    -0.396 OA
HETATM   11  H26 UNL     1     -30.566   7.656   3.479  1.00 20.00     0.210 HD
ENDBRANCH   7  10
ENDBRANCH   6   7
ENDBRANCH   5   6
ENDBRANCH   4   5
ENDBRANCH   3   4
TORSDOF 6
ENDMDL
MODEL 3
REMARK VINA RESULT:      -5.0      1.481      1.819
REMARK  6 active torsions:
REMARK  status: ('A' for Active; 'I' for Inactive)
REMARK    1  A    between atoms: C4_4  and  C6_6 
REMARK    2  A    between atoms: C5_5  and  C9_9 
REMARK    3  A    between atoms: C6_6  and  C7_7 
REMARK    4  A    between atoms: C7_7  and  C8_8 
REMARK    5  A    between atoms: C8_8  and  C9_9 
REMARK    6  A    between atoms: C9_9  and  O10_10 
ROOT
HETATM    1  C1  UNL     1     -32.130   8.888   0.924  1.00 20.00     0.012 C 
HETATM    2  C2  UNL     1     -31.972   8.335   1.978  1.00 20.00    -0.117 C 
HETATM    3  C4  UNL     1     -31.778   7.659   3.270  1.00 20.00     0.093 C 
ENDROOT
BRANCH   3   4
HETATM    4  C6  UNL     1     -32.113   6.171   3.166  1.00 20.00     0.012 C 
BRANCH   4   5
HETATM    5  C7  UNL     1     -33.616   5.889   3.090  1.00 20.00     0.003 C 
BRANCH   5   6
HETATM    6  C8  UNL     1     -34.405   6.475   4.266  1.00 20.00     0.032 C 
BRANCH   6   7
HETATM    7  C9  UNL     1     -33.891   5.960   5.617  1.00 20.00     0.117 C 
BRANCH   7   8
HETATM    8  C5  UNL     1     -34.839   4.909   6.206  1.00 20.00     0.027 C 
HETATM    9  C3  UNL     1     -35.133   3.782   5.226  1.00 20.00     0.007 C 
ENDBRANCH   7   8
BRANCH   7  10
HETATM   10  O10 UNL     1     -33.762   7.051   6.525  1.00 20.00    -0.396 OA
HETATM   11  H26 UNL     1     -33.486   6.672   7.374  1.00 20.00     0.210 HD
ENDBRANCH   7  10
ENDBRANCH   6   7
ENDBRANCH   5   6
ENDBRANCH   4   5
ENDBRANCH   3   4
TORSDOF 6
ENDMDL
MODEL 4
REMARK VINA RESULT:      -4.7      1.536      4.240
REMARK  6 active torsions:
REMARK  status: ('A' for Active; 'I' for Inactive)
REMARK    1  A    between atoms: C4_4  and  C6_6 
REMARK    2  A    between atoms: C5_5  and  C9_9 
REMARK    3  A    between atoms: C6_6  and  C7_7 
REMARK    4  A    between atoms: C7_7  and  C8_8 
REMARK    5  A    between atoms: C8_8  and  C9_9 
REMARK    6  A    between atoms: C9_9  and  O10_10 
ROOT
HETATM    1  C1  UNL     1     -33.813   6.945   6.663  1.00 20.00     0.012 C 
HETATM    2  C2  UNL     1     -34.382   5.904   6.483  1.00 20.00    -0.117 C 
HETATM    3  C4  UNL     1     -35.079   4.626   6.265  1.00 20.00     0.093 C 
ENDROOT
BRANCH   3   4
HETATM    4  C6  UNL     1     -35.027   4.218   4.792  1.00 20.00     0.012 C 
BRANCH   4   5
HETATM    5  C7  UNL     1     -35.273   5.382   3.828  1.00 20.00     0.003 C 
BRANCH   5   6
HETATM    6  C8  UNL     1     -34.166   5.547   2.781  1.00 20.00     0.032 C 
BRANCH   6   7
HETATM    7  C9  UNL     1     -32.936   6.264   3.351  1.00 20.00     0.117 C 
BRANCH   7   8
HETATM    8  C5  UNL     1     -32.932   7.749   2.966  1.00 20.00     0.027 C 
HETATM    9  C3  UNL     1     -31.911   8.061   1.881  1.00 20.00     0.007 C 
ENDBRANCH   7   8
BRANCH   7  10
HETATM   10  O10 UNL     1     -31.751   5.640   2.863  1.00 20.00    -0.396 OA
HETATM   11  H26 UNL     1     -31.568   6.035   1.996  1.00 20.00     0.210 HD
ENDBRANCH   7  10
ENDBRANCH   6   7
ENDBRANCH   5   6
ENDBRANCH   4   5
ENDBRANCH   3   4
TORSDOF 6
ENDMDL
MODEL 5
REMARK VINA RESULT:      -4.6     11.119     12.275
REMARK  6 active torsions:
REMARK  status: ('A' for Active; 'I' for Inactive)
REMARK    1  A    between atoms: C4_4  and  C6_6 
REMARK    2  A    between atoms: C5_5  and  C9_9 
REMARK    3  A    between atoms: C6_6  and  C7_7 
REMARK    4  A    between atoms: C7_7  and  C8_8 
REMARK    5  A    between atoms: C8_8  and  C9_9 
REMARK    6  A    between atoms: C9_9  and  O10_10 
ROOT
HETATM    1  C1  UNL     1     -34.803  17.367   0.278  1.00 20.00     0.012 C 
HETATM    2  C2  UNL     1     -34.740  16.721  -0.731  1.00 20.00    -0.117 C 
HETATM    3  C4  UNL     1     -34.663  15.928  -1.968  1.00 20.00     0.093 C 
ENDROOT
BRANCH   3   4
HETATM    4  C6  UNL     1     -33.587  16.476  -2.906  1.00 20.00     0.012 C 
BRANCH   4   5
HETATM    5  C7  UNL     1     -33.219  15.514  -4.039  1.00 20.00     0.003 C 
BRANCH   5   6
HETATM    6  C8  UNL     1     -33.567  14.054  -3.733  1.00 20.00     0.032 C 
BRANCH   6   7
HETATM    7  C9  UNL     1     -34.484  13.444  -4.802  1.00 20.00     0.117 C 
BRANCH   7   8
HETATM    8  C5  UNL     1     -35.270  14.532  -5.544  1.00 20.00     0.027 C 
HETATM    9  C3  UNL     1     -35.173  14.383  -7.056  1.00 20.00     0.007 C 
ENDBRANCH   7   8
BRANCH   7  10
HETATM   10  O10 UNL     1     -35.391  12.532  -4.188  1.00 20.00    -0.396 OA
HETATM   11  H26 UNL     1     -36.189  13.040  -3.971  1.00 20.00     0.210 HD
ENDBRANCH   7  10
ENDBRANCH   6   7
ENDBRANCH   5   6
ENDBRANCH   4   5
ENDBRANCH   3   4
TORSDOF 6
ENDMDL
MODEL 6
REMARK VINA RESULT:      -4.4      2.138      5.082
REMARK  6 active torsions:
REMARK  status: ('A' for Active; 'I' for Inactive)
REMARK    1  A    between atoms: C4_4  and  C6_6 
REMARK    2  A    between atoms: C5_5  and  C9_9 
REMARK    3  A    between atoms: C6_6  and  C7_7 
REMARK    4  A    between atoms: C7_7  and  C8_8 
REMARK    5  A    between atoms: C8_8  and  C9_9 
REMARK    6  A    between atoms: C9_9  and  O10_10 
ROOT
HETATM    1  C1  UNL     1     -34.669   4.616   6.688  1.00 20.00     0.012 C 
HETATM    2  C2  UNL     1     -35.090   4.728   5.570  1.00 20.00    -0.117 C 
HETATM    3  C4  UNL     1     -35.608   4.863   4.199  1.00 20.00     0.093 C 
ENDROOT
BRANCH   3   4
HETATM    4  C6  UNL     1     -34.744   5.823   3.379  1.00 20.00     0.012 C 
BRANCH   4   5
HETATM    5  C7  UNL     1     -33.264   5.798   3.772  1.00 20.00     0.003 C 
BRANCH   5   6
HETATM    6  C8  UNL     1     -32.336   6.329   2.674  1.00 20.00     0.032 C 
BRANCH   6   7
HETATM    7  C9  UNL     1     -32.109   7.842   2.794  1.00 20.00     0.117 C 
BRANCH   7   8
HETATM    8  C5  UNL     1     -31.747   8.456   1.436  1.00 20.00     0.027 C 
HETATM    9  C3  UNL     1     -32.443   9.790   1.202  1.00 20.00     0.007 C 
ENDBRANCH   7   8
BRANCH   7  10
HETATM   10  O10 UNL     1     -31.064   8.095   3.729  1.00 20.00    -0.396 OA
HETATM   11  H26 UNL     1     -30.406   8.637   3.267  1.00 20.00     0.210 HD
ENDBRANCH   7  10
ENDBRANCH   6   7
ENDBRANCH   5   6
ENDBRANCH   4   5
ENDBRANCH   3   4
TORSDOF 6
ENDMDL
MODEL 7
REMARK VINA RESULT:      -4.3     11.230     12.443
REMARK  6 active torsions:
REMARK  status: ('A' for Active; 'I' for Inactive)
REMARK    1  A    between atoms: C4_4  and  C6_6 
REMARK    2  A    between atoms: C5_5  and  C9_9 
REMARK    3  A    between atoms: C6_6  and  C7_7 
REMARK    4  A    between atoms: C7_7  and  C8_8 
REMARK    5  A    between atoms: C8_8  and  C9_9 
REMARK    6  A    between atoms: C9_9  and  O10_10 
ROOT
HETATM    1  C1  UNL     1     -31.805  18.893   0.677  1.00 20.00     0.012 C 
HETATM    2  C2  UNL     1     -32.671  18.629  -0.111  1.00 20.00    -0.117 C 
HETATM    3  C4  UNL     1     -33.732  18.306  -1.078  1.00 20.00     0.093 C 
ENDROOT
BRANCH   3   4
HETATM    4  C6  UNL     1     -34.417  16.986  -0.721  1.00 20.00     0.012 C 
BRANCH   4   5
HETATM    5  C7  UNL     1     -34.500  16.006  -1.895  1.00 20.00     0.003 C 
BRANCH   5   6
HETATM    6  C8  UNL     1     -33.639  16.420  -3.094  1.00 20.00     0.032 C 
BRANCH   6   7
HETATM    7  C9  UNL     1     -33.303  15.229  -4.000  1.00 20.00     0.117 C 
BRANCH   7   8
HETATM    8  C5  UNL     1     -34.015  13.955  -3.528  1.00 20.00     0.027 C 
HETATM    9  C3  UNL     1     -34.792  13.280  -4.650  1.00 20.00     0.007 C 
ENDBRANCH   7   8
BRANCH   7  10
HETATM   10  O10 UNL     1     -31.894  15.016  -4.004  1.00 20.00    -0.396 OA
HETATM   11  H26 UNL     1     -31.558  15.373  -3.167  1.00 20.00     0.210 HD
ENDBRANCH   7  10
ENDBRANCH   6   7
ENDBRANCH   5   6
ENDBRANCH   4   5
ENDBRANCH   3   4
TORSDOF 6
ENDMDL
MODEL 8
REMARK VINA RESULT:      -4.0     11.272     12.922
REMARK  6 active torsions:
REMARK  status: ('A' for Active; 'I' for Inactive)
REMARK    1  A    between atoms: C4_4  and  C6_6 
REMARK    2  A    between atoms: C5_5  and  C9_9 
REMARK    3  A    between atoms: C6_6  and  C7_7 
REMARK    4  A    between atoms: C7_7  and  C8_8 
REMARK    5  A    between atoms: C8_8  and  C9_9 
REMARK    6  A    between atoms: C9_9  and  O10_10 
ROOT
HETATM    1  C1  UNL     1     -33.528  17.792  -5.422  1.00 20.00     0.012 C 
HETATM    2  C2  UNL     1     -34.042  17.111  -6.266  1.00 20.00    -0.117 C 
HETATM    3  C4  UNL     1     -34.673  16.278  -7.302  1.00 20.00     0.093 C 
ENDROOT
BRANCH   3   4
HETATM    4  C6  UNL     1     -34.495  14.791  -6.993  1.00 20.00     0.012 C 
BRANCH   4   5
HETATM    5  C7  UNL     1     -35.292  14.324  -5.771  1.00 20.00     0.003 C 
BRANCH   5   6
HETATM    6  C8  UNL     1     -34.513  13.356  -4.873  1.00 20.00     0.032 C 
BRANCH   6   7
HETATM    7  C9  UNL     1     -33.964  14.050  -3.619  1.00 20.00     0.117 C 
BRANCH   7   8
HETATM    8  C5  UNL     1     -34.917  15.148  -3.131  1.00 20.00     0.027 C 
HETATM    9  C3  UNL     1     -34.244  16.105  -2.158  1.00 20.00     0.007 C 
ENDBRANCH   7   8
BRANCH   7  10
HETATM   10  O10 UNL     1     -32.688  14.616  -3.907  1.00 20.00    -0.396 OA
HETATM   11  H26 UNL     1     -32.027  14.001  -3.553  1.00 20.00     0.210 HD
ENDBRANCH   7  10
ENDBRANCH   6   7
ENDBRANCH   5   6
ENDBRANCH   4   5
ENDBRANCH   3   4
TORSDOF 6
ENDMDL
MODEL 9
REMARK VINA RESULT:      -3.9     11.282     12.819
REMARK  6 active torsions:
REMARK  status: ('A' for Active; 'I' for Inactive)
REMARK    1  A    between atoms: C4_4  and  C6_6 
REMARK    2  A    between atoms: C5_5  and  C9_9 
REMARK    3  A    between atoms: C6_6  and  C7_7 
REMARK    4  A    between atoms: C7_7  and  C8_8 
REMARK    5  A    between atoms: C8_8  and  C9_9 
REMARK    6  A    between atoms: C9_9  and  O10_10 
ROOT
HETATM    1  C1  UNL     1     -36.230  18.130  -4.432  1.00 20.00     0.012 C 
HETATM    2  C2  UNL     1     -35.129  17.732  -4.169  1.00 20.00    -0.117 C 
HETATM    3  C4  UNL     1     -33.778  17.244  -3.848  1.00 20.00     0.093 C 
ENDROOT
BRANCH   3   4
HETATM    4  C6  UNL     1     -33.806  16.307  -2.641  1.00 20.00     0.012 C 
BRANCH   4   5
HETATM    5  C7  UNL     1     -34.365  14.917  -2.961  1.00 20.00     0.003 C 
BRANCH   5   6
HETATM    6  C8  UNL     1     -33.588  14.190  -4.065  1.00 20.00     0.032 C 
BRANCH   6   7
HETATM    7  C9  UNL     1     -34.509  13.347  -4.956  1.00 20.00     0.117 C 
BRANCH   7   8
HETATM    8  C5  UNL     1     -35.305  14.231  -5.924  1.00 20.00     0.027 C 
HETATM    9  C3  UNL     1     -34.401  15.060  -6.825  1.00 20.00     0.007 C 
ENDBRANCH   7   8
BRANCH   7  10
HETATM   10  O10 UNL     1     -35.407  12.598  -4.142  1.00 20.00    -0.396 OA
HETATM   11  H26 UNL     1     -34.873  11.934  -3.680  1.00 20.00     0.210 HD
ENDBRANCH   7  10
ENDBRANCH   6   7
ENDBRANCH   5   6
ENDBRANCH   4   5
ENDBRANCH   3   4
TORSDOF 6
ENDMDL
