MODEL 1
REMARK VINA RESULT:      -5.4      0.000      0.000
REMARK  4 active torsions:
REMARK  status: ('A' for Active; 'I' for Inactive)
REMARK    1  A    between atoms: C2_2  and  C5_5 
REMARK    2  A    between atoms: C5_5  and  C6_6 
REMARK    3  A    between atoms: C6_6  and  C7_7 
REMARK    4  A    between atoms: C7_7  and  C8_8 
ROOT
HETATM    1  C1  UNL     1     -32.232   8.617   1.823  1.00 20.00    -0.111 C 
HETATM    2  C2  UNL     1     -32.258   7.591   2.446  1.00 20.00    -0.107 C 
HETATM    3  C3  UNL     1     -32.205   9.866   1.064  1.00 20.00     0.112 C 
ENDROOT
BRANCH   2   4
HETATM    4  C5  UNL     1     -32.287   6.336   3.209  1.00 20.00     0.094 C 
BRANCH   4   5
HETATM    5  C6  UNL     1     -33.582   5.552   2.985  1.00 20.00     0.014 C 
BRANCH   5   6
HETATM    6  C7  UNL     1     -34.627   5.803   4.083  1.00 20.00     0.020 C 
BRANCH   6   7
HETATM    7  C8  UNL     1     -34.152   5.375   5.479  1.00 20.00     0.078 C 
HETATM    8  C4  UNL     1     -34.061   6.571   6.418  1.00 20.00     0.026 C 
HETATM    9 CL9  UNL     1     -35.261   4.164   6.191  1.00 20.00    -0.125 Cl
ENDBRANCH   6   7
ENDBRANCH   5   6
ENDBRANCH   4   5
ENDBRANCH   2   4
TORSDOF 4
ENDMDL
MODEL 2
REMARK VINA RESULT:      -5.3      1.105      1.333
REMARK  4 active torsions:
REMARK  status: ('A' for Active; 'I' for Inactive)
REMARK    1  A    between atoms: C2_2  and  C5_5 
REMARK    2  A    between atoms: C5_5  and  C6_6 
REMARK    3  A    between atoms: C6_6  and  C7_7 
REMARK    4  A    between atoms: C7_7  and  C8_8 
ROOT
HETATM    1  C1  UNL     1     -32.273   8.417   1.923  1.00 20.00    -0.111 C 
HETATM    2  C2  UNL     1     -32.303   7.429   2.603  1.00 20.00    -0.107 C 
HETATM    3  C3  UNL     1     -32.238   9.619   1.092  1.00 20.00     0.112 C 
ENDROOT
BRANCH   2   4
HETATM    4  C5  UNL     1     -32.340   6.220   3.438  1.00 20.00     0.094 C 
BRANCH   4   5
HETATM    5  C6  UNL     1     -33.579   5.364   3.163  1.00 20.00     0.014 C 
BRANCH   5   6
HETATM    6  C7  UNL     1     -34.847   5.924   3.826  1.00 20.00     0.020 C 
BRANCH   6   7
HETATM    7  C8  UNL     1     -35.095   5.359   5.232  1.00 20.00     0.078 C 
HETATM    8  C4  UNL     1     -34.737   3.880   5.299  1.00 20.00     0.026 C 
HETATM    9 CL9  UNL     1     -34.135   6.242   6.458  1.00 20.00    -0.125 Cl
ENDBRANCH   6   7
ENDBRANCH   5   6
ENDBRANCH   4   5
ENDBRANCH   2   4
TORSDOF 4
ENDMDL
MODEL 3
REMARK VINA RESULT:      -4.6      1.375      1.775
REMARK  4 active torsions:
REMARK  status: ('A' for Active; 'I' for Inactive)
REMARK    1  A    between atoms: C2_2  and  C5_5 
REMARK    2  A    between atoms: C5_5  and  C6_6 
REMARK    3  A    between atoms: C6_6  and  C7_7 
REMARK    4  A    between atoms: C7_7  and  C8_8 
ROOT
HETATM    1  C1  UNL     1     -32.231   8.390   1.803  1.00 20.00    -0.111 C 
HETATM    2  C2  UNL     1     -32.327   7.542   2.647  1.00 20.00    -0.107 C 
HETATM    3  C3  UNL     1     -32.118   9.421   0.773  1.00 20.00     0.112 C 
ENDROOT
BRANCH   2   4
HETATM    4  C5  UNL     1     -32.443   6.505   3.682  1.00 20.00     0.094 C 
BRANCH   4   5
HETATM    5  C6  UNL     1     -32.901   7.076   5.026  1.00 20.00     0.014 C 
BRANCH   5   6
HETATM    6  C7  UNL     1     -34.052   6.273   5.651  1.00 20.00     0.020 C 
BRANCH   6   7
HETATM    7  C8  UNL     1     -34.501   5.085   4.789  1.00 20.00     0.078 C 
HETATM    8  C4  UNL     1     -34.992   3.933   5.656  1.00 20.00     0.026 C 
HETATM    9 CL9  UNL     1     -35.810   5.564   3.666  1.00 20.00    -0.125 Cl
ENDBRANCH   6   7
ENDBRANCH   5   6
ENDBRANCH   4   5
ENDBRANCH   2   4
TORSDOF 4
ENDMDL
MODEL 4
REMARK VINA RESULT:      -4.4      2.884      5.312
REMARK  4 active torsions:
REMARK  status: ('A' for Active; 'I' for Inactive)
REMARK    1  A    between atoms: C2_2  and  C5_5 
REMARK    2  A    between atoms: C5_5  and  C6_6 
REMARK    3  A    between atoms: C6_6  and  C7_7 
REMARK    4  A    between atoms: C7_7  and  C8_8 
ROOT
HETATM    1  C1  UNL     1     -34.654   4.962   5.169  1.00 20.00    -0.111 C 
HETATM    2  C2  UNL     1     -34.186   5.449   4.177  1.00 20.00    -0.107 C 
HETATM    3  C3  UNL     1     -35.221   4.368   6.379  1.00 20.00     0.112 C 
ENDROOT
BRANCH   2   4
HETATM    4  C5  UNL     1     -33.615   6.046   2.962  1.00 20.00     0.094 C 
BRANCH   4   5
HETATM    5  C6  UNL     1     -32.122   6.349   3.112  1.00 20.00     0.014 C 
BRANCH   5   6
HETATM    6  C7  UNL     1     -31.808   7.850   3.021  1.00 20.00     0.020 C 
BRANCH   6   7
HETATM    7  C8  UNL     1     -32.409   8.519   1.776  1.00 20.00     0.078 C 
HETATM    8  C4  UNL     1     -32.708   9.991   2.036  1.00 20.00     0.026 C 
HETATM    9 CL9  UNL     1     -31.299   8.392   0.379  1.00 20.00    -0.125 Cl
ENDBRANCH   6   7
ENDBRANCH   5   6
ENDBRANCH   4   5
ENDBRANCH   2   4
TORSDOF 4
ENDMDL
MODEL 5
REMARK VINA RESULT:      -4.1     10.829     11.731
REMARK  4 active torsions:
REMARK  status: ('A' for Active; 'I' for Inactive)
REMARK    1  A    between atoms: C2_2  and  C5_5 
REMARK    2  A    between atoms: C5_5  and  C6_6 
REMARK    3  A    between atoms: C6_6  and  C7_7 
REMARK    4  A    between atoms: C7_7  and  C8_8 
ROOT
HETATM    1  C1  UNL     1     -34.343  16.778  -1.223  1.00 20.00    -0.111 C 
HETATM    2  C2  UNL     1     -33.927  16.529  -2.321  1.00 20.00    -0.107 C 
HETATM    3  C3  UNL     1     -34.852  17.078   0.114  1.00 20.00     0.112 C 
ENDROOT
BRANCH   2   4
HETATM    4  C5  UNL     1     -33.415  16.224  -3.664  1.00 20.00     0.094 C 
BRANCH   4   5
HETATM    5  C6  UNL     1     -33.133  14.732  -3.853  1.00 20.00     0.014 C 
BRANCH   5   6
HETATM    6  C7  UNL     1     -34.285  13.843  -3.359  1.00 20.00     0.020 C 
BRANCH   6   7
HETATM    7  C8  UNL     1     -35.394  13.654  -4.403  1.00 20.00     0.078 C 
HETATM    8  C4  UNL     1     -36.628  14.474  -4.047  1.00 20.00     0.026 C 
HETATM    9 CL9  UNL     1     -34.831  14.134  -6.033  1.00 20.00    -0.125 Cl
ENDBRANCH   6   7
ENDBRANCH   5   6
ENDBRANCH   4   5
ENDBRANCH   2   4
TORSDOF 4
ENDMDL
MODEL 6
REMARK VINA RESULT:      -4.1     11.026     12.126
REMARK  4 active torsions:
REMARK  status: ('A' for Active; 'I' for Inactive)
REMARK    1  A    between atoms: C2_2  and  C5_5 
REMARK    2  A    between atoms: C5_5  and  C6_6 
REMARK    3  A    between atoms: C6_6  and  C7_7 
REMARK    4  A    between atoms: C7_7  and  C8_8 
ROOT
HETATM    1  C1  UNL     1     -34.294  16.435  -1.576  1.00 20.00    -0.111 C 
HETATM    2  C2  UNL     1     -33.866  15.934  -2.579  1.00 20.00    -0.107 C 
HETATM    3  C3  UNL     1     -34.820  17.043  -0.355  1.00 20.00     0.112 C 
ENDROOT
BRANCH   2   4
HETATM    4  C5  UNL     1     -33.339  15.321  -3.806  1.00 20.00     0.094 C 
BRANCH   4   5
HETATM    5  C6  UNL     1     -33.584  13.811  -3.851  1.00 20.00     0.014 C 
BRANCH   5   6
HETATM    6  C7  UNL     1     -34.597  13.406  -4.933  1.00 20.00     0.020 C 
BRANCH   6   7
HETATM    7  C8  UNL     1     -35.200  14.605  -5.678  1.00 20.00     0.078 C 
HETATM    8  C4  UNL     1     -35.286  14.334  -7.175  1.00 20.00     0.026 C 
HETATM    9 CL9  UNL     1     -36.838  14.985  -5.064  1.00 20.00    -0.125 Cl
ENDBRANCH   6   7
ENDBRANCH   5   6
ENDBRANCH   4   5
ENDBRANCH   2   4
TORSDOF 4
ENDMDL
MODEL 7
REMARK VINA RESULT:      -4.0      2.674      4.504
REMARK  4 active torsions:
REMARK  status: ('A' for Active; 'I' for Inactive)
REMARK    1  A    between atoms: C2_2  and  C5_5 
REMARK    2  A    between atoms: C5_5  and  C6_6 
REMARK    3  A    between atoms: C6_6  and  C7_7 
REMARK    4  A    between atoms: C7_7  and  C8_8 
ROOT
HETATM    1  C1  UNL     1     -33.953   6.633   6.242  1.00 20.00    -0.111 C 
HETATM    2  C2  UNL     1     -34.260   5.927   5.322  1.00 20.00    -0.107 C 
HETATM    3  C3  UNL     1     -33.579   7.497   7.361  1.00 20.00     0.112 C 
ENDROOT
BRANCH   2   4
HETATM    4  C5  UNL     1     -34.637   5.062   4.196  1.00 20.00     0.094 C 
BRANCH   4   5
HETATM    5  C6  UNL     1     -34.172   5.624   2.851  1.00 20.00     0.014 C 
BRANCH   5   6
HETATM    6  C7  UNL     1     -32.671   5.955   2.833  1.00 20.00     0.020 C 
BRANCH   6   7
HETATM    7  C8  UNL     1     -32.382   7.460   2.922  1.00 20.00     0.078 C 
HETATM    8  C4  UNL     1     -31.260   7.745   3.913  1.00 20.00     0.026 C 
HETATM    9 CL9  UNL     1     -31.923   8.122   1.324  1.00 20.00    -0.125 Cl
ENDBRANCH   6   7
ENDBRANCH   5   6
ENDBRANCH   4   5
ENDBRANCH   2   4
TORSDOF 4
ENDMDL
MODEL 8
REMARK VINA RESULT:      -4.0     11.313     12.282
REMARK  4 active torsions:
REMARK  status: ('A' for Active; 'I' for Inactive)
REMARK    1  A    between atoms: C2_2  and  C5_5 
REMARK    2  A    between atoms: C5_5  and  C6_6 
REMARK    3  A    between atoms: C6_6  and  C7_7 
REMARK    4  A    between atoms: C7_7  and  C8_8 
ROOT
HETATM    1  C1  UNL     1     -34.646  17.081  -0.293  1.00 20.00    -0.111 C 
HETATM    2  C2  UNL     1     -34.692  16.432  -1.301  1.00 20.00    -0.107 C 
HETATM    3  C3  UNL     1     -34.592  17.868   0.938  1.00 20.00     0.112 C 
ENDROOT
BRANCH   2   4
HETATM    4  C5  UNL     1     -34.746  15.638  -2.537  1.00 20.00     0.094 C 
BRANCH   4   5
HETATM    5  C6  UNL     1     -33.402  15.614  -3.269  1.00 20.00     0.014 C 
BRANCH   5   6
HETATM    6  C7  UNL     1     -33.548  15.809  -4.786  1.00 20.00     0.020 C 
BRANCH   6   7
HETATM    7  C8  UNL     1     -34.574  14.860  -5.422  1.00 20.00     0.078 C 
HETATM    8  C4  UNL     1     -34.495  14.908  -6.943  1.00 20.00     0.026 C 
HETATM    9 CL9  UNL     1     -34.313  13.174  -4.882  1.00 20.00    -0.125 Cl
ENDBRANCH   6   7
ENDBRANCH   5   6
ENDBRANCH   4   5
ENDBRANCH   2   4
TORSDOF 4
ENDMDL
MODEL 9
REMARK VINA RESULT:      -3.9     11.575     12.182
REMARK  4 active torsions:
REMARK  status: ('A' for Active; 'I' for Inactive)
REMARK    1  A    between atoms: C2_2  and  C5_5 
REMARK    2  A    between atoms: C5_5  and  C6_6 
REMARK    3  A    between atoms: C6_6  and  C7_7 
REMARK    4  A    between atoms: C7_7  and  C8_8 
ROOT
HETATM    1  C1  UNL     1     -34.239  16.445  -1.668  1.00 20.00    -0.111 C 
HETATM    2  C2  UNL     1     -33.728  15.891  -2.602  1.00 20.00    -0.107 C 
HETATM    3  C3  UNL     1     -34.859  17.118  -0.528  1.00 20.00     0.112 C 
ENDROOT
BRANCH   2   4
HETATM    4  C5  UNL     1     -33.103  15.214  -3.746  1.00 20.00     0.094 C 
BRANCH   4   5
HETATM    5  C6  UNL     1     -33.935  14.031  -4.246  1.00 20.00     0.014 C 
BRANCH   5   6
HETATM    6  C7  UNL     1     -34.655  14.328  -5.570  1.00 20.00     0.020 C 
BRANCH   6   7
HETATM    7  C8  UNL     1     -36.061  14.912  -5.378  1.00 20.00     0.078 C 
HETATM    8  C4  UNL     1     -36.699  14.395  -4.095  1.00 20.00     0.026 C 
HETATM    9 CL9  UNL     1     -36.011  16.700  -5.319  1.00 20.00    -0.125 Cl
ENDBRANCH   6   7
ENDBRANCH   5   6
ENDBRANCH   4   5
ENDBRANCH   2   4
TORSDOF 4
ENDMDL
