MODEL 1
REMARK VINA RESULT:      -5.5      0.000      0.000
REMARK  3 active torsions:
REMARK  status: ('A' for Active; 'I' for Inactive)
REMARK    1  A    between atoms: C4_4  and  C7_7 
REMARK    2  A    between atoms: C7_7  and  C9_9 
REMARK    3  A    between atoms: C8_8  and  C9_9 
ROOT
HETATM    1  C1  UNL     1     -34.504   5.427   3.033  1.00 20.00     0.006 C 
HETATM    2  C2  UNL     1     -35.439   4.965   4.141  1.00 20.00     0.020 C 
HETATM    3  C3  UNL     1     -33.645   6.157   5.211  1.00 20.00     0.024 C 
HETATM    4  C4  UNL     1     -33.622   6.487   3.706  1.00 20.00    -0.013 C 
HETATM    5  C5  UNL     1     -34.503   4.900   5.337  1.00 20.00     0.082 C 
HETATM    6 CL10 UNL     1     -35.379   4.827   6.873  1.00 20.00    -0.125 Cl
ENDROOT
BRANCH   4   7
HETATM    7  C7  UNL     1     -32.217   6.527   3.127  1.00 20.00     0.005 C 
BRANCH   7   8
HETATM    8  C9  UNL     1     -31.748   7.963   2.894  1.00 20.00     0.000 C 
BRANCH   8   9
HETATM    9  C8  UNL     1     -31.934   8.379   1.435  1.00 20.00    -0.005 C 
HETATM   10  C6  UNL     1     -32.429   9.812   1.324  1.00 20.00     0.005 C 
ENDBRANCH   8   9
ENDBRANCH   7   8
ENDBRANCH   4   7
TORSDOF 3
ENDMDL
MODEL 2
REMARK VINA RESULT:      -4.8     11.137     12.183
REMARK  3 active torsions:
REMARK  status: ('A' for Active; 'I' for Inactive)
REMARK    1  A    between atoms: C4_4  and  C7_7 
REMARK    2  A    between atoms: C7_7  and  C9_9 
REMARK    3  A    between atoms: C8_8  and  C9_9 
ROOT
HETATM    1  C1  UNL     1     -34.254  13.840  -3.583  1.00 20.00     0.006 C 
HETATM    2  C2  UNL     1     -34.732  13.278  -4.914  1.00 20.00     0.020 C 
HETATM    3  C3  UNL     1     -34.090  15.559  -5.324  1.00 20.00     0.024 C 
HETATM    4  C4  UNL     1     -33.506  15.123  -3.967  1.00 20.00    -0.013 C 
HETATM    5  C5  UNL     1     -35.176  14.534  -5.646  1.00 20.00     0.082 C 
HETATM    6 CL10 UNL     1     -35.365  14.267  -7.386  1.00 20.00    -0.125 Cl
ENDROOT
BRANCH   4   7
HETATM    7  C7  UNL     1     -33.615  16.201  -2.899  1.00 20.00     0.005 C 
BRANCH   7   8
HETATM    8  C9  UNL     1     -34.763  15.916  -1.931  1.00 20.00     0.000 C 
BRANCH   8   9
HETATM    9  C8  UNL     1     -34.658  16.782  -0.676  1.00 20.00    -0.005 C 
HETATM   10  C6  UNL     1     -33.492  17.755  -0.766  1.00 20.00     0.005 C 
ENDBRANCH   8   9
ENDBRANCH   7   8
ENDBRANCH   4   7
TORSDOF 3
ENDMDL
MODEL 3
REMARK VINA RESULT:      -4.6      0.909      1.544
REMARK  3 active torsions:
REMARK  status: ('A' for Active; 'I' for Inactive)
REMARK    1  A    between atoms: C4_4  and  C7_7 
REMARK    2  A    between atoms: C7_7  and  C9_9 
REMARK    3  A    between atoms: C8_8  and  C9_9 
ROOT
HETATM    1  C1  UNL     1     -33.304   7.106   5.316  1.00 20.00     0.006 C 
HETATM    2  C2  UNL     1     -33.984   6.173   6.306  1.00 20.00     0.020 C 
HETATM    3  C3  UNL     1     -34.055   5.073   4.168  1.00 20.00     0.024 C 
HETATM    4  C4  UNL     1     -33.028   6.219   4.095  1.00 20.00    -0.013 C 
HETATM    5  C5  UNL     1     -34.905   5.369   5.402  1.00 20.00     0.082 C 
HETATM    6 CL10 UNL     1     -35.502   3.899   6.185  1.00 20.00    -0.125 Cl
ENDROOT
BRANCH   4   7
HETATM    7  C7  UNL     1     -33.091   6.993   2.788  1.00 20.00     0.005 C 
BRANCH   7   8
HETATM    8  C9  UNL     1     -31.815   7.799   2.552  1.00 20.00     0.000 C 
BRANCH   8   9
HETATM    9  C8  UNL     1     -31.889   8.586   1.243  1.00 20.00    -0.005 C 
HETATM   10  C6  UNL     1     -32.529   9.951   1.449  1.00 20.00     0.005 C 
ENDBRANCH   8   9
ENDBRANCH   7   8
ENDBRANCH   4   7
TORSDOF 3
ENDMDL
MODEL 4
REMARK VINA RESULT:      -4.4      2.608      4.959
REMARK  3 active torsions:
REMARK  status: ('A' for Active; 'I' for Inactive)
REMARK    1  A    between atoms: C4_4  and  C7_7 
REMARK    2  A    between atoms: C7_7  and  C9_9 
REMARK    3  A    between atoms: C8_8  and  C9_9 
ROOT
HETATM    1  C1  UNL     1     -31.995   6.189   3.379  1.00 20.00     0.006 C 
HETATM    2  C2  UNL     1     -31.438   7.547   2.981  1.00 20.00     0.020 C 
HETATM    3  C3  UNL     1     -33.827   7.689   2.742  1.00 20.00     0.024 C 
HETATM    4  C4  UNL     1     -33.493   6.446   3.588  1.00 20.00    -0.013 C 
HETATM    5  C5  UNL     1     -32.520   8.072   2.051  1.00 20.00     0.082 C 
HETATM    6 CL10 UNL     1     -32.382   9.815   1.774  1.00 20.00    -0.125 Cl
ENDROOT
BRANCH   4   7
HETATM    7  C7  UNL     1     -34.345   5.238   3.232  1.00 20.00     0.005 C 
BRANCH   7   8
HETATM    8  C9  UNL     1     -35.426   4.986   4.283  1.00 20.00     0.000 C 
BRANCH   8   9
HETATM    9  C8  UNL     1     -34.824   4.446   5.580  1.00 20.00    -0.005 C 
HETATM   10  C6  UNL     1     -34.560   5.563   6.579  1.00 20.00     0.005 C 
ENDBRANCH   8   9
ENDBRANCH   7   8
ENDBRANCH   4   7
TORSDOF 3
ENDMDL
MODEL 5
REMARK VINA RESULT:      -4.2     11.123     12.295
REMARK  3 active torsions:
REMARK  status: ('A' for Active; 'I' for Inactive)
REMARK    1  A    between atoms: C4_4  and  C7_7 
REMARK    2  A    between atoms: C7_7  and  C9_9 
REMARK    3  A    between atoms: C8_8  and  C9_9 
ROOT
HETATM    1  C1  UNL     1     -33.218  15.095  -3.486  1.00 20.00     0.006 C 
HETATM    2  C2  UNL     1     -33.710  16.240  -2.614  1.00 20.00     0.020 C 
HETATM    3  C3  UNL     1     -35.667  15.065  -3.370  1.00 20.00     0.024 C 
HETATM    4  C4  UNL     1     -34.436  14.171  -3.612  1.00 20.00    -0.013 C 
HETATM    5  C5  UNL     1     -35.111  16.471  -3.157  1.00 20.00     0.082 C 
HETATM    6 CL10 UNL     1     -36.107  17.437  -2.058  1.00 20.00    -0.125 Cl
ENDROOT
BRANCH   4   7
HETATM    7  C7  UNL     1     -34.481  13.445  -4.948  1.00 20.00     0.005 C 
BRANCH   7   8
HETATM    8  C9  UNL     1     -35.317  14.211  -5.973  1.00 20.00     0.000 C 
BRANCH   8   9
HETATM    9  C8  UNL     1     -34.430  14.885  -7.020  1.00 20.00    -0.005 C 
HETATM   10  C6  UNL     1     -34.395  16.394  -6.831  1.00 20.00     0.005 C 
ENDBRANCH   8   9
ENDBRANCH   7   8
ENDBRANCH   4   7
TORSDOF 3
ENDMDL
MODEL 6
REMARK VINA RESULT:      -4.2     10.916     11.781
REMARK  3 active torsions:
REMARK  status: ('A' for Active; 'I' for Inactive)
REMARK    1  A    between atoms: C4_4  and  C7_7 
REMARK    2  A    between atoms: C7_7  and  C9_9 
REMARK    3  A    between atoms: C8_8  and  C9_9 
ROOT
HETATM    1  C1  UNL     1     -33.217  16.166  -2.930  1.00 20.00     0.006 C 
HETATM    2  C2  UNL     1     -33.290  15.163  -4.071  1.00 20.00     0.020 C 
HETATM    3  C3  UNL     1     -35.387  15.024  -2.901  1.00 20.00     0.024 C 
HETATM    4  C4  UNL     1     -34.674  16.321  -2.475  1.00 20.00    -0.013 C 
HETATM    5  C5  UNL     1     -34.305  14.160  -3.546  1.00 20.00     0.082 C 
HETATM    6 CL10 UNL     1     -34.942  13.115  -4.824  1.00 20.00    -0.125 Cl
ENDROOT
BRANCH   4   7
HETATM    7  C7  UNL     1     -34.791  16.603  -0.985  1.00 20.00     0.005 C 
BRANCH   7   8
HETATM    8  C9  UNL     1     -33.732  17.602  -0.519  1.00 20.00     0.000 C 
BRANCH   8   9
HETATM    9  C8  UNL     1     -34.147  18.281   0.786  1.00 20.00    -0.005 C 
HETATM   10  C6  UNL     1     -35.319  17.565   1.439  1.00 20.00     0.005 C 
ENDBRANCH   8   9
ENDBRANCH   7   8
ENDBRANCH   4   7
TORSDOF 3
ENDMDL
MODEL 7
REMARK VINA RESULT:      -4.2      9.328     10.342
REMARK  3 active torsions:
REMARK  status: ('A' for Active; 'I' for Inactive)
REMARK    1  A    between atoms: C4_4  and  C7_7 
REMARK    2  A    between atoms: C7_7  and  C9_9 
REMARK    3  A    between atoms: C8_8  and  C9_9 
ROOT
HETATM    1  C1  UNL     1     -43.140   4.362  -0.516  1.00 20.00     0.006 C 
HETATM    2  C2  UNL     1     -43.087   3.245  -1.549  1.00 20.00     0.020 C 
HETATM    3  C3  UNL     1     -40.876   4.186  -1.442  1.00 20.00     0.024 C 
HETATM    4  C4  UNL     1     -41.666   4.653  -0.205  1.00 20.00    -0.013 C 
HETATM    5  C5  UNL     1     -41.928   3.684  -2.430  1.00 20.00     0.082 C 
HETATM    6 CL10 UNL     1     -41.328   2.372  -3.454  1.00 20.00    -0.125 Cl
ENDROOT
BRANCH   4   7
HETATM    7  C7  UNL     1     -41.422   6.113   0.140  1.00 20.00     0.005 C 
BRANCH   7   8
HETATM    8  C9  UNL     1     -41.020   6.921  -1.094  1.00 20.00     0.000 C 
BRANCH   8   9
HETATM    9  C8  UNL     1     -42.209   7.694  -1.663  1.00 20.00    -0.005 C 
HETATM   10  C6  UNL     1     -42.443   7.358  -3.128  1.00 20.00     0.005 C 
ENDBRANCH   8   9
ENDBRANCH   7   8
ENDBRANCH   4   7
TORSDOF 3
ENDMDL
MODEL 8
REMARK VINA RESULT:      -4.2     10.726     11.997
REMARK  3 active torsions:
REMARK  status: ('A' for Active; 'I' for Inactive)
REMARK    1  A    between atoms: C4_4  and  C7_7 
REMARK    2  A    between atoms: C7_7  and  C9_9 
REMARK    3  A    between atoms: C8_8  and  C9_9 
ROOT
HETATM    1  C1  UNL     1     -33.254  18.385  -1.358  1.00 20.00     0.006 C 
HETATM    2  C2  UNL     1     -33.531  18.444   0.136  1.00 20.00     0.020 C 
HETATM    3  C3  UNL     1     -34.832  16.616  -0.730  1.00 20.00     0.024 C 
HETATM    4  C4  UNL     1     -33.774  17.005  -1.780  1.00 20.00    -0.013 C 
HETATM    5  C5  UNL     1     -34.906  17.804   0.229  1.00 20.00     0.082 C 
HETATM    6 CL10 UNL     1     -35.313  17.318   1.881  1.00 20.00    -0.125 Cl
ENDROOT
BRANCH   4   7
HETATM    7  C7  UNL     1     -34.316  16.997  -3.201  1.00 20.00     0.005 C 
BRANCH   7   8
HETATM    8  C9  UNL     1     -33.375  16.262  -4.155  1.00 20.00     0.000 C 
BRANCH   8   9
HETATM    9  C8  UNL     1     -32.832  14.981  -3.522  1.00 20.00    -0.005 C 
HETATM   10  C6  UNL     1     -33.698  13.779  -3.865  1.00 20.00     0.005 C 
ENDBRANCH   8   9
ENDBRANCH   7   8
ENDBRANCH   4   7
TORSDOF 3
ENDMDL
MODEL 9
REMARK VINA RESULT:      -4.1      1.379      1.931
REMARK  3 active torsions:
REMARK  status: ('A' for Active; 'I' for Inactive)
REMARK    1  A    between atoms: C4_4  and  C7_7 
REMARK    2  A    between atoms: C7_7  and  C9_9 
REMARK    3  A    between atoms: C8_8  and  C9_9 
ROOT
HETATM    1  C1  UNL     1     -34.704   4.616   5.030  1.00 20.00     0.006 C 
HETATM    2  C2  UNL     1     -34.854   5.291   6.385  1.00 20.00     0.020 C 
HETATM    3  C3  UNL     1     -33.996   6.959   4.880  1.00 20.00     0.024 C 
HETATM    4  C4  UNL     1     -34.541   5.782   4.047  1.00 20.00    -0.013 C 
HETATM    5  C5  UNL     1     -33.829   6.410   6.296  1.00 20.00     0.082 C 
HETATM    6 CL10 UNL     1     -34.074   7.648   7.537  1.00 20.00    -0.125 Cl
ENDROOT
BRANCH   4   7
HETATM    7  C7  UNL     1     -33.652   5.427   2.866  1.00 20.00     0.005 C 
BRANCH   7   8
HETATM    8  C9  UNL     1     -32.316   6.167   2.928  1.00 20.00     0.000 C 
BRANCH   8   9
HETATM    9  C8  UNL     1     -32.143   7.102   1.731  1.00 20.00    -0.005 C 
HETATM   10  C6  UNL     1     -32.105   8.559   2.163  1.00 20.00     0.005 C 
ENDBRANCH   8   9
ENDBRANCH   7   8
ENDBRANCH   4   7
TORSDOF 3
ENDMDL
