MODEL 1
REMARK VINA RESULT:      -4.6      0.000      0.000
REMARK  2 active torsions:
REMARK  status: ('A' for Active; 'I' for Inactive)
REMARK    1  A    between atoms: C5_5  and  C8_8 
REMARK    2  A    between atoms: C8_8  and  C9_9 
ROOT
HETATM    1  C1  UNL     1     -34.446  13.354  -4.666  1.00 20.00     0.002 C 
HETATM    2  C2  UNL     1     -34.393  14.271  -3.446  1.00 20.00     0.005 C 
HETATM    3  C3  UNL     1     -34.960  14.088  -5.901  1.00 20.00     0.020 C 
HETATM    4  C4  UNL     1     -34.091  16.271  -4.965  1.00 20.00     0.024 C 
HETATM    5  C5  UNL     1     -33.569  15.536  -3.721  1.00 20.00    -0.013 C 
HETATM    6  C6  UNL     1     -34.135  15.344  -6.180  1.00 20.00     0.082 C 
HETATM    7 CL10 UNL     1     -34.813  16.215  -7.585  1.00 20.00    -0.125 Cl
ENDROOT
BRANCH   5   8
HETATM    8  C8  UNL     1     -33.576  16.460  -2.505  1.00 20.00     0.004 C 
BRANCH   8   9
HETATM    9  C9  UNL     1     -34.766  16.169  -1.597  1.00 20.00    -0.004 C 
HETATM   10  C7  UNL     1     -34.700  16.992  -0.320  1.00 20.00     0.005 C 
ENDBRANCH   8   9
ENDBRANCH   5   8
TORSDOF 2
ENDMDL
MODEL 2
REMARK VINA RESULT:      -4.6     12.137     13.260
REMARK  2 active torsions:
REMARK  status: ('A' for Active; 'I' for Inactive)
REMARK    1  A    between atoms: C5_5  and  C8_8 
REMARK    2  A    between atoms: C8_8  and  C9_9 
ROOT
HETATM    1  C1  UNL     1     -35.222   4.573   5.373  1.00 20.00     0.002 C 
HETATM    2  C2  UNL     1     -34.329   4.609   4.135  1.00 20.00     0.005 C 
HETATM    3  C3  UNL     1     -34.588   5.314   6.547  1.00 20.00     0.020 C 
HETATM    4  C4  UNL     1     -33.317   6.786   4.930  1.00 20.00     0.024 C 
HETATM    5  C5  UNL     1     -33.955   6.046   3.745  1.00 20.00    -0.013 C 
HETATM    6  C6  UNL     1     -34.221   6.748   6.162  1.00 20.00     0.082 C 
HETATM    7 CL10 UNL     1     -33.414   7.557   7.534  1.00 20.00    -0.125 Cl
ENDROOT
BRANCH   5   8
HETATM    8  C8  UNL     1     -33.019   6.051   2.537  1.00 20.00     0.004 C 
BRANCH   8   9
HETATM    9  C9  UNL     1     -31.901   7.073   2.710  1.00 20.00    -0.004 C 
HETATM   10  C7  UNL     1     -32.101   8.270   1.794  1.00 20.00     0.005 C 
ENDBRANCH   8   9
ENDBRANCH   5   8
TORSDOF 2
ENDMDL
MODEL 3
REMARK VINA RESULT:      -4.5     11.279     12.302
REMARK  2 active torsions:
REMARK  status: ('A' for Active; 'I' for Inactive)
REMARK    1  A    between atoms: C5_5  and  C8_8 
REMARK    2  A    between atoms: C8_8  and  C9_9 
ROOT
HETATM    1  C1  UNL     1     -34.657   5.062   2.785  1.00 20.00     0.002 C 
HETATM    2  C2  UNL     1     -33.332   5.729   2.421  1.00 20.00     0.005 C 
HETATM    3  C3  UNL     1     -34.762   4.799   4.285  1.00 20.00     0.020 C 
HETATM    4  C4  UNL     1     -33.209   6.743   4.734  1.00 20.00     0.024 C 
HETATM    5  C5  UNL     1     -33.103   7.015   3.226  1.00 20.00    -0.013 C 
HETATM    6  C6  UNL     1     -34.541   6.081   5.087  1.00 20.00     0.082 C 
HETATM    7 CL10 UNL     1     -34.595   5.719   6.836  1.00 20.00    -0.125 Cl
ENDROOT
BRANCH   5   8
HETATM    8  C8  UNL     1     -31.748   7.632   2.882  1.00 20.00     0.004 C 
BRANCH   8   9
HETATM    9  C9  UNL     1     -31.784   8.320   1.522  1.00 20.00    -0.004 C 
HETATM   10  C7  UNL     1     -32.487   9.666   1.604  1.00 20.00     0.005 C 
ENDBRANCH   8   9
ENDBRANCH   5   8
TORSDOF 2
ENDMDL
MODEL 4
REMARK VINA RESULT:      -4.4      2.040      2.253
REMARK  2 active torsions:
REMARK  status: ('A' for Active; 'I' for Inactive)
REMARK    1  A    between atoms: C5_5  and  C8_8 
REMARK    2  A    between atoms: C8_8  and  C9_9 
ROOT
HETATM    1  C1  UNL     1     -34.119  13.837  -4.572  1.00 20.00     0.002 C 
HETATM    2  C2  UNL     1     -33.531  14.626  -3.403  1.00 20.00     0.005 C 
HETATM    3  C3  UNL     1     -35.615  13.596  -4.392  1.00 20.00     0.020 C 
HETATM    4  C4  UNL     1     -35.785  15.695  -2.992  1.00 20.00     0.024 C 
HETATM    5  C5  UNL     1     -34.281  15.944  -3.173  1.00 20.00    -0.013 C 
HETATM    6  C6  UNL     1     -36.364  14.910  -4.170  1.00 20.00     0.082 C 
HETATM    7 CL10 UNL     1     -38.097  14.581  -3.889  1.00 20.00    -0.125 Cl
ENDROOT
BRANCH   5   8
HETATM    8  C8  UNL     1     -33.708  16.687  -1.967  1.00 20.00     0.004 C 
BRANCH   8   9
HETATM    9  C9  UNL     1     -34.660  16.627  -0.778  1.00 20.00    -0.004 C 
HETATM   10  C7  UNL     1     -34.402  17.768   0.194  1.00 20.00     0.005 C 
ENDBRANCH   8   9
ENDBRANCH   5   8
TORSDOF 2
ENDMDL
MODEL 5
REMARK VINA RESULT:      -4.2      1.351      1.804
REMARK  2 active torsions:
REMARK  status: ('A' for Active; 'I' for Inactive)
REMARK    1  A    between atoms: C5_5  and  C8_8 
REMARK    2  A    between atoms: C8_8  and  C9_9 
ROOT
HETATM    1  C1  UNL     1     -33.855  14.473  -4.494  1.00 20.00     0.002 C 
HETATM    2  C2  UNL     1     -34.512  14.798  -3.154  1.00 20.00     0.005 C 
HETATM    3  C3  UNL     1     -33.945  15.647  -5.465  1.00 20.00     0.020 C 
HETATM    4  C4  UNL     1     -34.025  17.254  -3.514  1.00 20.00     0.024 C 
HETATM    5  C5  UNL     1     -33.931  16.076  -2.533  1.00 20.00    -0.013 C 
HETATM    6  C6  UNL     1     -33.360  16.919  -4.849  1.00 20.00     0.082 C 
HETATM    7 CL10 UNL     1     -33.551  18.285  -5.984  1.00 20.00    -0.125 Cl
ENDROOT
BRANCH   5   8
HETATM    8  C8  UNL     1     -34.641  16.408  -1.221  1.00 20.00     0.004 C 
BRANCH   8   9
HETATM    9  C9  UNL     1     -33.937  17.542  -0.484  1.00 20.00    -0.004 C 
HETATM   10  C7  UNL     1     -34.685  17.924   0.784  1.00 20.00     0.005 C 
ENDBRANCH   8   9
ENDBRANCH   5   8
TORSDOF 2
ENDMDL
MODEL 6
REMARK VINA RESULT:      -4.2      1.729      2.778
REMARK  2 active torsions:
REMARK  status: ('A' for Active; 'I' for Inactive)
REMARK    1  A    between atoms: C5_5  and  C8_8 
REMARK    2  A    between atoms: C8_8  and  C9_9 
ROOT
HETATM    1  C1  UNL     1     -33.721  17.425  -4.516  1.00 20.00     0.002 C 
HETATM    2  C2  UNL     1     -33.706  17.516  -2.992  1.00 20.00     0.005 C 
HETATM    3  C3  UNL     1     -33.543  15.987  -4.996  1.00 20.00     0.020 C 
HETATM    4  C4  UNL     1     -34.563  15.142  -2.842  1.00 20.00     0.024 C 
HETATM    5  C5  UNL     1     -34.748  16.587  -2.356  1.00 20.00    -0.013 C 
HETATM    6  C6  UNL     1     -34.586  15.062  -4.369  1.00 20.00     0.082 C 
HETATM    7 CL10 UNL     1     -34.298  13.379  -4.894  1.00 20.00    -0.125 Cl
ENDROOT
BRANCH   5   8
HETATM    8  C8  UNL     1     -34.676  16.657  -0.831  1.00 20.00     0.004 C 
BRANCH   8   9
HETATM    9  C9  UNL     1     -33.727  17.760  -0.374  1.00 20.00    -0.004 C 
HETATM   10  C7  UNL     1     -34.112  18.284   1.001  1.00 20.00     0.005 C 
ENDBRANCH   8   9
ENDBRANCH   5   8
TORSDOF 2
ENDMDL
MODEL 7
REMARK VINA RESULT:      -4.2     11.908     13.633
REMARK  2 active torsions:
REMARK  status: ('A' for Active; 'I' for Inactive)
REMARK    1  A    between atoms: C5_5  and  C8_8 
REMARK    2  A    between atoms: C8_8  and  C9_9 
ROOT
HETATM    1  C1  UNL     1     -40.934   5.929  -0.440  1.00 20.00     0.002 C 
HETATM    2  C2  UNL     1     -41.120   4.546  -1.060  1.00 20.00     0.005 C 
HETATM    3  C3  UNL     1     -41.120   7.038  -1.472  1.00 20.00     0.020 C 
HETATM    4  C4  UNL     1     -42.655   5.537  -2.809  1.00 20.00     0.024 C 
HETATM    5  C5  UNL     1     -42.474   4.419  -1.772  1.00 20.00    -0.013 C 
HETATM    6  C6  UNL     1     -42.472   6.917  -2.176  1.00 20.00     0.082 C 
HETATM    7 CL10 UNL     1     -42.620   8.184  -3.426  1.00 20.00    -0.125 Cl
ENDROOT
BRANCH   5   8
HETATM    8  C8  UNL     1     -42.612   3.046  -2.428  1.00 20.00     0.004 C 
BRANCH   8   9
HETATM    9  C9  UNL     1     -41.330   2.649  -3.152  1.00 20.00    -0.004 C 
HETATM   10  C7  UNL     1     -41.576   1.502  -4.120  1.00 20.00     0.005 C 
ENDBRANCH   8   9
ENDBRANCH   5   8
TORSDOF 2
ENDMDL
MODEL 8
REMARK VINA RESULT:      -4.1     11.204     12.633
REMARK  2 active torsions:
REMARK  status: ('A' for Active; 'I' for Inactive)
REMARK    1  A    between atoms: C5_5  and  C8_8 
REMARK    2  A    between atoms: C8_8  and  C9_9 
ROOT
HETATM    1  C1  UNL     1     -40.716   6.059  -0.373  1.00 20.00     0.002 C 
HETATM    2  C2  UNL     1     -41.537   7.213  -0.945  1.00 20.00     0.005 C 
HETATM    3  C3  UNL     1     -41.398   4.713  -0.604  1.00 20.00     0.020 C 
HETATM    4  C4  UNL     1     -42.543   5.646  -2.656  1.00 20.00     0.024 C 
HETATM    5  C5  UNL     1     -41.857   7.001  -2.430  1.00 20.00    -0.013 C 
HETATM    6  C6  UNL     1     -41.710   4.499  -2.085  1.00 20.00     0.082 C 
HETATM    7 CL10 UNL     1     -42.574   2.951  -2.305  1.00 20.00    -0.125 Cl
ENDROOT
BRANCH   5   8
HETATM    8  C8  UNL     1     -42.723   8.141  -2.964  1.00 20.00     0.004 C 
BRANCH   8   9
HETATM    9  C9  UNL     1     -42.865   8.064  -4.480  1.00 20.00    -0.004 C 
HETATM   10  C7  UNL     1     -41.880   8.993  -5.173  1.00 20.00     0.005 C 
ENDBRANCH   8   9
ENDBRANCH   5   8
TORSDOF 2
ENDMDL
MODEL 9
REMARK VINA RESULT:      -4.1      3.166      5.322
REMARK  2 active torsions:
REMARK  status: ('A' for Active; 'I' for Inactive)
REMARK    1  A    between atoms: C5_5  and  C8_8 
REMARK    2  A    between atoms: C8_8  and  C9_9 
ROOT
HETATM    1  C1  UNL     1     -33.551  18.791  -2.525  1.00 20.00     0.002 C 
HETATM    2  C2  UNL     1     -34.180  17.566  -3.187  1.00 20.00     0.005 C 
HETATM    3  C3  UNL     1     -34.107  19.021  -1.123  1.00 20.00     0.020 C 
HETATM    4  C4  UNL     1     -34.591  16.548  -0.909  1.00 20.00     0.024 C 
HETATM    5  C5  UNL     1     -34.028  16.311  -2.318  1.00 20.00    -0.013 C 
HETATM    6  C6  UNL     1     -33.951  17.773  -0.254  1.00 20.00     0.082 C 
HETATM    7 CL10 UNL     1     -34.680  18.055   1.351  1.00 20.00    -0.125 Cl
ENDROOT
BRANCH   5   8
HETATM    8  C8  UNL     1     -34.711  15.113  -2.977  1.00 20.00     0.004 C 
BRANCH   8   9
HETATM    9  C9  UNL     1     -33.703  14.242  -3.718  1.00 20.00    -0.004 C 
HETATM   10  C7  UNL     1     -34.393  13.340  -4.730  1.00 20.00     0.005 C 
ENDBRANCH   8   9
ENDBRANCH   5   8
TORSDOF 2
ENDMDL
