MODEL 1
REMARK VINA RESULT:      -5.8      0.000      0.000
REMARK  2 active torsions:
REMARK  status: ('A' for Active; 'I' for Inactive)
REMARK    1  A    between atoms: C2_2  and  C9_9 
REMARK    2  A    between atoms: C7_7  and  C9_9 
ROOT
HETATM    1  C1  UNL     1     -32.212   8.663   1.677  1.00 20.00    -0.111 C 
HETATM    2  C2  UNL     1     -32.210   7.758   2.466  1.00 20.00    -0.107 C 
HETATM    3  C8  UNL     1     -32.215   9.766   0.717  1.00 20.00     0.112 C 
ENDROOT
BRANCH   2   4
HETATM    4  C9  UNL     1     -32.210   6.651   3.430  1.00 20.00     0.099 C 
BRANCH   4   5
HETATM    5  C7  UNL     1     -33.598   6.418   4.002  1.00 20.00     0.004 C 
HETATM    6  C5  UNL     1     -33.569   5.950   5.459  1.00 20.00     0.083 C 
HETATM    7  C3  UNL     1     -34.873   5.201   5.566  1.00 20.00     0.127 C 
HETATM    8  C4  UNL     1     -35.504   4.955   4.220  1.00 20.00     0.079 C 
HETATM    9  O10 UNL     1     -35.365   4.837   6.627  1.00 20.00    -0.298 OA
HETATM   10  C6  UNL     1     -34.362   5.311   3.274  1.00 20.00     0.013 C 
ENDBRANCH   4   5
ENDBRANCH   2   4
TORSDOF 2
ENDMDL
MODEL 2
REMARK VINA RESULT:      -5.2     10.897     11.518
REMARK  2 active torsions:
REMARK  status: ('A' for Active; 'I' for Inactive)
REMARK    1  A    between atoms: C2_2  and  C9_9 
REMARK    2  A    between atoms: C7_7  and  C9_9 
ROOT
HETATM    1  C1  UNL     1     -34.815  17.272   0.251  1.00 20.00    -0.111 C 
HETATM    2  C2  UNL     1     -34.450  16.898  -0.831  1.00 20.00    -0.107 C 
HETATM    3  C8  UNL     1     -35.259  17.725   1.568  1.00 20.00     0.112 C 
ENDROOT
BRANCH   2   4
HETATM    4  C9  UNL     1     -34.007  16.444  -2.155  1.00 20.00     0.099 C 
BRANCH   4   5
HETATM    5  C7  UNL     1     -34.771  15.209  -2.599  1.00 20.00     0.004 C 
HETATM    6  C5  UNL     1     -33.931  14.270  -3.467  1.00 20.00     0.083 C 
HETATM    7  C3  UNL     1     -34.993  13.558  -4.266  1.00 20.00     0.127 C 
HETATM    8  C4  UNL     1     -36.342  14.216  -4.137  1.00 20.00     0.079 C 
HETATM    9  O10 UNL     1     -34.782  12.558  -4.941  1.00 20.00    -0.298 OA
HETATM   10  C6  UNL     1     -35.979  15.541  -3.477  1.00 20.00     0.013 C 
ENDBRANCH   4   5
ENDBRANCH   2   4
TORSDOF 2
ENDMDL
MODEL 3
REMARK VINA RESULT:      -4.8     10.803     11.919
REMARK  2 active torsions:
REMARK  status: ('A' for Active; 'I' for Inactive)
REMARK    1  A    between atoms: C2_2  and  C9_9 
REMARK    2  A    between atoms: C7_7  and  C9_9 
ROOT
HETATM    1  C1  UNL     1     -34.614  17.090  -0.381  1.00 20.00    -0.111 C 
HETATM    2  C2  UNL     1     -34.082  16.836  -1.427  1.00 20.00    -0.107 C 
HETATM    3  C8  UNL     1     -35.260  17.397   0.894  1.00 20.00     0.112 C 
ENDROOT
BRANCH   2   4
HETATM    4  C9  UNL     1     -33.436  16.526  -2.708  1.00 20.00     0.099 C 
BRANCH   4   5
HETATM    5  C7  UNL     1     -34.343  15.694  -3.598  1.00 20.00     0.004 C 
HETATM    6  C5  UNL     1     -34.185  14.190  -3.368  1.00 20.00     0.083 C 
HETATM    7  C3  UNL     1     -34.622  13.628  -4.697  1.00 20.00     0.127 C 
HETATM    8  C4  UNL     1     -34.736  14.693  -5.757  1.00 20.00     0.079 C 
HETATM    9  O10 UNL     1     -34.858  12.443  -4.892  1.00 20.00    -0.298 OA
HETATM   10  C6  UNL     1     -34.042  15.873  -5.087  1.00 20.00     0.013 C 
ENDBRANCH   4   5
ENDBRANCH   2   4
TORSDOF 2
ENDMDL
MODEL 4
REMARK VINA RESULT:      -4.8     10.946     11.586
REMARK  2 active torsions:
REMARK  status: ('A' for Active; 'I' for Inactive)
REMARK    1  A    between atoms: C2_2  and  C9_9 
REMARK    2  A    between atoms: C7_7  and  C9_9 
ROOT
HETATM    1  C1  UNL     1     -34.650  17.020  -0.443  1.00 20.00    -0.111 C 
HETATM    2  C2  UNL     1     -34.118  16.678  -1.464  1.00 20.00    -0.107 C 
HETATM    3  C8  UNL     1     -35.296  17.434   0.801  1.00 20.00     0.112 C 
ENDROOT
BRANCH   2   4
HETATM    4  C9  UNL     1     -33.471  16.261  -2.714  1.00 20.00     0.099 C 
BRANCH   4   5
HETATM    5  C7  UNL     1     -34.449  15.543  -3.629  1.00 20.00     0.004 C 
HETATM    6  C5  UNL     1     -35.899  15.656  -3.155  1.00 20.00     0.083 C 
HETATM    7  C3  UNL     1     -36.518  14.423  -3.763  1.00 20.00     0.127 C 
HETATM    8  C4  UNL     1     -35.482  13.468  -4.296  1.00 20.00     0.079 C 
HETATM    9  O10 UNL     1     -37.724  14.222  -3.818  1.00 20.00    -0.298 OA
HETATM   10  C6  UNL     1     -34.200  14.035  -3.697  1.00 20.00     0.013 C 
ENDBRANCH   4   5
ENDBRANCH   2   4
TORSDOF 2
ENDMDL
MODEL 5
REMARK VINA RESULT:      -4.4     10.969     12.164
REMARK  2 active torsions:
REMARK  status: ('A' for Active; 'I' for Inactive)
REMARK    1  A    between atoms: C2_2  and  C9_9 
REMARK    2  A    between atoms: C7_7  and  C9_9 
ROOT
HETATM    1  C1  UNL     1     -33.666  18.062  -4.834  1.00 20.00    -0.111 C 
HETATM    2  C2  UNL     1     -33.741  17.440  -3.809  1.00 20.00    -0.107 C 
HETATM    3  C8  UNL     1     -33.575  18.821  -6.080  1.00 20.00     0.112 C 
ENDROOT
BRANCH   2   4
HETATM    4  C9  UNL     1     -33.836  16.679  -2.557  1.00 20.00     0.099 C 
BRANCH   4   5
HETATM    5  C7  UNL     1     -34.595  15.379  -2.758  1.00 20.00     0.004 C 
HETATM    6  C5  UNL     1     -33.852  14.389  -3.657  1.00 20.00     0.083 C 
HETATM    7  C3  UNL     1     -34.987  13.563  -4.208  1.00 20.00     0.127 C 
HETATM    8  C4  UNL     1     -36.331  14.181  -3.927  1.00 20.00     0.079 C 
HETATM    9  O10 UNL     1     -34.832  12.510  -4.812  1.00 20.00    -0.298 OA
HETATM   10  C6  UNL     1     -35.939  15.578  -3.459  1.00 20.00     0.013 C 
ENDBRANCH   4   5
ENDBRANCH   2   4
TORSDOF 2
ENDMDL
MODEL 6
REMARK VINA RESULT:      -4.4     11.916     13.091
REMARK  2 active torsions:
REMARK  status: ('A' for Active; 'I' for Inactive)
REMARK    1  A    between atoms: C2_2  and  C9_9 
REMARK    2  A    between atoms: C7_7  and  C9_9 
ROOT
HETATM    1  C1  UNL     1     -34.376  16.613  -1.308  1.00 20.00    -0.111 C 
HETATM    2  C2  UNL     1     -33.938  16.055  -2.278  1.00 20.00    -0.107 C 
HETATM    3  C8  UNL     1     -34.909  17.291  -0.128  1.00 20.00     0.112 C 
ENDROOT
BRANCH   2   4
HETATM    4  C9  UNL     1     -33.404  15.377  -3.465  1.00 20.00     0.099 C 
BRANCH   4   5
HETATM    5  C7  UNL     1     -34.292  15.602  -4.676  1.00 20.00     0.004 C 
HETATM    6  C5  UNL     1     -34.576  14.316  -5.454  1.00 20.00     0.083 C 
HETATM    7  C3  UNL     1     -34.859  14.848  -6.835  1.00 20.00     0.127 C 
HETATM    8  C4  UNL     1     -34.477  16.298  -6.979  1.00 20.00     0.079 C 
HETATM    9  O10 UNL     1     -35.347  14.179  -7.738  1.00 20.00    -0.298 OA
HETATM   10  C6  UNL     1     -33.656  16.528  -5.714  1.00 20.00     0.013 C 
ENDBRANCH   4   5
ENDBRANCH   2   4
TORSDOF 2
ENDMDL
MODEL 7
REMARK VINA RESULT:      -4.3     11.472     12.476
REMARK  2 active torsions:
REMARK  status: ('A' for Active; 'I' for Inactive)
REMARK    1  A    between atoms: C2_2  and  C9_9 
REMARK    2  A    between atoms: C7_7  and  C9_9 
ROOT
HETATM    1  C1  UNL     1     -33.356  17.877  -0.848  1.00 20.00    -0.111 C 
HETATM    2  C2  UNL     1     -34.027  17.001  -1.322  1.00 20.00    -0.107 C 
HETATM    3  C8  UNL     1     -32.540  18.945  -0.273  1.00 20.00     0.112 C 
ENDROOT
BRANCH   2   4
HETATM    4  C9  UNL     1     -34.845  15.929  -1.902  1.00 20.00     0.099 C 
BRANCH   4   5
HETATM    5  C7  UNL     1     -34.196  15.354  -3.150  1.00 20.00     0.004 C 
HETATM    6  C5  UNL     1     -34.221  16.322  -4.334  1.00 20.00     0.083 C 
HETATM    7  C3  UNL     1     -34.161  15.376  -5.506  1.00 20.00     0.127 C 
HETATM    8  C4  UNL     1     -34.398  13.946  -5.098  1.00 20.00     0.079 C 
HETATM    9  O10 UNL     1     -33.943  15.731  -6.657  1.00 20.00    -0.298 OA
HETATM   10  C6  UNL     1     -34.918  14.111  -3.674  1.00 20.00     0.013 C 
ENDBRANCH   4   5
ENDBRANCH   2   4
TORSDOF 2
ENDMDL
MODEL 8
REMARK VINA RESULT:      -4.3     10.966     11.964
REMARK  2 active torsions:
REMARK  status: ('A' for Active; 'I' for Inactive)
REMARK    1  A    between atoms: C2_2  and  C9_9 
REMARK    2  A    between atoms: C7_7  and  C9_9 
ROOT
HETATM    1  C1  UNL     1     -34.302  14.708  -3.256  1.00 20.00    -0.111 C 
HETATM    2  C2  UNL     1     -34.734  15.605  -2.584  1.00 20.00    -0.107 C 
HETATM    3  C8  UNL     1     -33.774  13.617  -4.073  1.00 20.00     0.112 C 
ENDROOT
BRANCH   2   4
HETATM    4  C9  UNL     1     -35.264  16.702  -1.766  1.00 20.00     0.099 C 
BRANCH   4   5
HETATM    5  C7  UNL     1     -34.322  17.046  -0.625  1.00 20.00     0.004 C 
HETATM    6  C5  UNL     1     -35.055  17.528   0.628  1.00 20.00     0.083 C 
HETATM    7  C3  UNL     1     -34.001  18.373   1.295  1.00 20.00     0.127 C 
HETATM    8  C4  UNL     1     -32.831  18.650   0.387  1.00 20.00     0.079 C 
HETATM    9  O10 UNL     1     -34.085  18.787   2.445  1.00 20.00    -0.298 OA
HETATM   10  C6  UNL     1     -33.375  18.198  -0.964  1.00 20.00     0.013 C 
ENDBRANCH   4   5
ENDBRANCH   2   4
TORSDOF 2
ENDMDL
MODEL 9
REMARK VINA RESULT:      -4.2     11.039     12.195
REMARK  2 active torsions:
REMARK  status: ('A' for Active; 'I' for Inactive)
REMARK    1  A    between atoms: C2_2  and  C9_9 
REMARK    2  A    between atoms: C7_7  and  C9_9 
ROOT
HETATM    1  C1  UNL     1     -35.047  14.366  -6.588  1.00 20.00    -0.111 C 
HETATM    2  C2  UNL     1     -34.818  13.922  -5.496  1.00 20.00    -0.107 C 
HETATM    3  C8  UNL     1     -35.324  14.906  -7.918  1.00 20.00     0.112 C 
ENDROOT
BRANCH   2   4
HETATM    4  C9  UNL     1     -34.540  13.383  -4.159  1.00 20.00     0.099 C 
BRANCH   4   5
HETATM    5  C7  UNL     1     -34.524  14.483  -3.112  1.00 20.00     0.004 C 
HETATM    6  C5  UNL     1     -35.812  15.308  -3.096  1.00 20.00     0.083 C 
HETATM    7  C3  UNL     1     -35.331  16.618  -2.527  1.00 20.00     0.127 C 
HETATM    8  C4  UNL     1     -33.828  16.707  -2.489  1.00 20.00     0.079 C 
HETATM    9  O10 UNL     1     -36.077  17.508  -2.138  1.00 20.00    -0.298 OA
HETATM   10  C6  UNL     1     -33.425  15.519  -3.356  1.00 20.00     0.013 C 
ENDBRANCH   4   5
ENDBRANCH   2   4
TORSDOF 2
ENDMDL
