MODEL 1
REMARK VINA RESULT:      -5.8      0.000      0.000
REMARK  2 active torsions:
REMARK  status: ('A' for Active; 'I' for Inactive)
REMARK    1  A    between atoms: C7_7  and  C10_10 
REMARK    2  A    between atoms: C9_9  and  C10_10 
ROOT
HETATM    1  C1  UNL     1     -32.194   9.027   1.032  1.00 20.00     0.012 C 
HETATM    2  C2  UNL     1     -32.068   8.244   1.933  1.00 20.00    -0.117 C 
HETATM    3  C9  UNL     1     -31.913   7.289   3.038  1.00 20.00     0.093 C 
ENDROOT
BRANCH   3   4
HETATM    4  C10 UNL     1     -32.687   6.019   2.744  1.00 20.00     0.017 C 
BRANCH   4   5
HETATM    5  C7  UNL     1     -34.009   5.998   3.514  1.00 20.00    -0.012 C 
HETATM    6  C4  UNL     1     -34.322   4.566   3.983  1.00 20.00     0.005 C 
HETATM    7  C3  UNL     1     -35.317   4.558   5.136  1.00 20.00     0.002 C 
HETATM    8  C5  UNL     1     -34.785   5.307   6.362  1.00 20.00     0.020 C 
HETATM    9  C8  UNL     1     -33.716   6.349   6.014  1.00 20.00     0.082 C 
HETATM   10  C6  UNL     1     -34.001   7.017   4.671  1.00 20.00     0.024 C 
HETATM   11 CL11 UNL     1     -33.610   7.572   7.311  1.00 20.00    -0.125 Cl
ENDBRANCH   4   5
ENDBRANCH   3   4
TORSDOF 2
ENDMDL
MODEL 2
REMARK VINA RESULT:      -5.3     11.686     12.826
REMARK  2 active torsions:
REMARK  status: ('A' for Active; 'I' for Inactive)
REMARK    1  A    between atoms: C7_7  and  C10_10 
REMARK    2  A    between atoms: C9_9  and  C10_10 
ROOT
HETATM    1  C1  UNL     1     -34.791  17.653   0.663  1.00 20.00     0.012 C 
HETATM    2  C2  UNL     1     -34.779  16.992  -0.339  1.00 20.00    -0.117 C 
HETATM    3  C9  UNL     1     -34.768  16.182  -1.564  1.00 20.00     0.093 C 
ENDROOT
BRANCH   3   4
HETATM    4  C10 UNL     1     -33.636  16.623  -2.472  1.00 20.00     0.017 C 
BRANCH   4   5
HETATM    5  C7  UNL     1     -33.291  15.526  -3.481  1.00 20.00    -0.012 C 
HETATM    6  C4  UNL     1     -34.274  14.350  -3.337  1.00 20.00     0.005 C 
HETATM    7  C3  UNL     1     -34.302  13.486  -4.590  1.00 20.00     0.002 C 
HETATM    8  C5  UNL     1     -34.752  14.274  -5.825  1.00 20.00     0.020 C 
HETATM    9  C8  UNL     1     -34.512  15.783  -5.695  1.00 20.00     0.082 C 
HETATM   10  C6  UNL     1     -33.233  16.082  -4.918  1.00 20.00     0.024 C 
HETATM   11 CL11 UNL     1     -34.451  16.533  -7.315  1.00 20.00    -0.125 Cl
ENDBRANCH   4   5
ENDBRANCH   3   4
TORSDOF 2
ENDMDL
MODEL 3
REMARK VINA RESULT:      -4.9      9.895     10.602
REMARK  2 active torsions:
REMARK  status: ('A' for Active; 'I' for Inactive)
REMARK    1  A    between atoms: C7_7  and  C10_10 
REMARK    2  A    between atoms: C9_9  and  C10_10 
ROOT
HETATM    1  C1  UNL     1     -42.538   7.700  -3.796  1.00 20.00     0.012 C 
HETATM    2  C2  UNL     1     -42.392   7.744  -2.605  1.00 20.00    -0.117 C 
HETATM    3  C9  UNL     1     -42.217   7.798  -1.148  1.00 20.00     0.093 C 
ENDROOT
BRANCH   3   4
HETATM    4  C10 UNL     1     -40.921   7.118  -0.751  1.00 20.00     0.017 C 
BRANCH   4   5
HETATM    5  C7  UNL     1     -41.193   5.741  -0.142  1.00 20.00    -0.012 C 
HETATM    6  C4  UNL     1     -42.647   5.666   0.357  1.00 20.00     0.005 C 
HETATM    7  C3  UNL     1     -43.115   4.225   0.506  1.00 20.00     0.002 C 
HETATM    8  C5  UNL     1     -43.077   3.465  -0.823  1.00 20.00     0.020 C 
HETATM    9  C8  UNL     1     -42.083   4.061  -1.828  1.00 20.00     0.082 C 
HETATM   10  C6  UNL     1     -40.842   4.611  -1.130  1.00 20.00     0.024 C 
HETATM   11 CL11 UNL     1     -41.626   2.830  -3.040  1.00 20.00    -0.125 Cl
ENDBRANCH   4   5
ENDBRANCH   3   4
TORSDOF 2
ENDMDL
MODEL 4
REMARK VINA RESULT:      -4.6     11.666     13.068
REMARK  2 active torsions:
REMARK  status: ('A' for Active; 'I' for Inactive)
REMARK    1  A    between atoms: C7_7  and  C10_10 
REMARK    2  A    between atoms: C9_9  and  C10_10 
ROOT
HETATM    1  C1  UNL     1     -36.644  18.076  -3.054  1.00 20.00     0.012 C 
HETATM    2  C2  UNL     1     -35.939  17.244  -2.553  1.00 20.00    -0.117 C 
HETATM    3  C9  UNL     1     -35.079  16.223  -1.939  1.00 20.00     0.093 C 
ENDROOT
BRANCH   3   4
HETATM    4  C10 UNL     1     -33.645  16.401  -2.400  1.00 20.00     0.017 C 
BRANCH   4   5
HETATM    5  C7  UNL     1     -33.298  15.394  -3.498  1.00 20.00    -0.012 C 
HETATM    6  C4  UNL     1     -34.276  14.207  -3.450  1.00 20.00     0.005 C 
HETATM    7  C3  UNL     1     -34.304  13.451  -4.772  1.00 20.00     0.002 C 
HETATM    8  C5  UNL     1     -34.760  14.338  -5.935  1.00 20.00     0.020 C 
HETATM    9  C8  UNL     1     -34.525  15.831  -5.680  1.00 20.00     0.082 C 
HETATM   10  C6  UNL     1     -33.246  16.070  -4.883  1.00 20.00     0.024 C 
HETATM   11 CL11 UNL     1     -34.471  16.716  -7.231  1.00 20.00    -0.125 Cl
ENDBRANCH   4   5
ENDBRANCH   3   4
TORSDOF 2
ENDMDL
MODEL 5
REMARK VINA RESULT:      -4.6     11.450     12.291
REMARK  2 active torsions:
REMARK  status: ('A' for Active; 'I' for Inactive)
REMARK    1  A    between atoms: C7_7  and  C10_10 
REMARK    2  A    between atoms: C9_9  and  C10_10 
ROOT
HETATM    1  C1  UNL     1     -34.920  18.083   0.958  1.00 20.00     0.012 C 
HETATM    2  C2  UNL     1     -34.756  17.346   0.025  1.00 20.00    -0.117 C 
HETATM    3  C9  UNL     1     -34.558  16.442  -1.116  1.00 20.00     0.093 C 
ENDROOT
BRANCH   3   4
HETATM    4  C10 UNL     1     -34.221  17.237  -2.362  1.00 20.00     0.017 C 
BRANCH   4   5
HETATM    5  C7  UNL     1     -34.247  16.342  -3.602  1.00 20.00    -0.012 C 
HETATM    6  C4  UNL     1     -33.521  15.016  -3.308  1.00 20.00     0.005 C 
HETATM    7  C3  UNL     1     -33.931  13.924  -4.287  1.00 20.00     0.002 C 
HETATM    8  C5  UNL     1     -35.430  13.619  -4.218  1.00 20.00     0.020 C 
HETATM    9  C8  UNL     1     -36.257  14.790  -3.673  1.00 20.00     0.082 C 
HETATM   10  C6  UNL     1     -35.686  16.134  -4.115  1.00 20.00     0.024 C 
HETATM   11 CL11 UNL     1     -37.959  14.631  -4.194  1.00 20.00    -0.125 Cl
ENDBRANCH   4   5
ENDBRANCH   3   4
TORSDOF 2
ENDMDL
MODEL 6
REMARK VINA RESULT:      -4.6     10.325     11.415
REMARK  2 active torsions:
REMARK  status: ('A' for Active; 'I' for Inactive)
REMARK    1  A    between atoms: C7_7  and  C10_10 
REMARK    2  A    between atoms: C9_9  and  C10_10 
ROOT
HETATM    1  C1  UNL     1     -41.618   0.116  -4.121  1.00 20.00     0.012 C 
HETATM    2  C2  UNL     1     -42.014   1.169  -3.702  1.00 20.00    -0.117 C 
HETATM    3  C9  UNL     1     -42.502   2.456  -3.190  1.00 20.00     0.093 C 
ENDROOT
BRANCH   3   4
HETATM    4  C10 UNL     1     -41.343   3.287  -2.673  1.00 20.00     0.017 C 
BRANCH   4   5
HETATM    5  C7  UNL     1     -41.818   4.278  -1.608  1.00 20.00    -0.012 C 
HETATM    6  C4  UNL     1     -40.616   4.788  -0.792  1.00 20.00     0.005 C 
HETATM    7  C3  UNL     1     -40.934   6.098  -0.085  1.00 20.00     0.002 C 
HETATM    8  C5  UNL     1     -41.290   7.215  -1.071  1.00 20.00     0.020 C 
HETATM    9  C8  UNL     1     -41.812   6.688  -2.413  1.00 20.00     0.082 C 
HETATM   10  C6  UNL     1     -42.643   5.421  -2.233  1.00 20.00     0.024 C 
HETATM   11 CL11 UNL     1     -42.770   7.953  -3.235  1.00 20.00    -0.125 Cl
ENDBRANCH   4   5
ENDBRANCH   3   4
TORSDOF 2
ENDMDL
MODEL 7
REMARK VINA RESULT:      -4.6     11.729     13.339
REMARK  2 active torsions:
REMARK  status: ('A' for Active; 'I' for Inactive)
REMARK    1  A    between atoms: C7_7  and  C10_10 
REMARK    2  A    between atoms: C9_9  and  C10_10 
ROOT
HETATM    1  C1  UNL     1     -34.964  17.531   0.679  1.00 20.00     0.012 C 
HETATM    2  C2  UNL     1     -34.714  16.966  -0.349  1.00 20.00    -0.117 C 
HETATM    3  C9  UNL     1     -34.411  16.271  -1.607  1.00 20.00     0.093 C 
ENDROOT
BRANCH   3   4
HETATM    4  C10 UNL     1     -33.911  17.259  -2.643  1.00 20.00     0.017 C 
BRANCH   4   5
HETATM    5  C7  UNL     1     -34.661  17.087  -3.966  1.00 20.00    -0.012 C 
HETATM    6  C4  UNL     1     -33.775  17.549  -5.136  1.00 20.00     0.005 C 
HETATM    7  C3  UNL     1     -34.243  16.959  -6.460  1.00 20.00     0.002 C 
HETATM    8  C5  UNL     1     -34.192  15.428  -6.460  1.00 20.00     0.020 C 
HETATM    9  C8  UNL     1     -34.264  14.824  -5.053  1.00 20.00     0.082 C 
HETATM   10  C6  UNL     1     -35.171  15.641  -4.138  1.00 20.00     0.024 C 
HETATM   11 CL11 UNL     1     -34.826  13.131  -5.142  1.00 20.00    -0.125 Cl
ENDBRANCH   4   5
ENDBRANCH   3   4
TORSDOF 2
ENDMDL
MODEL 8
REMARK VINA RESULT:      -4.4     12.100     13.634
REMARK  2 active torsions:
REMARK  status: ('A' for Active; 'I' for Inactive)
REMARK    1  A    between atoms: C7_7  and  C10_10 
REMARK    2  A    between atoms: C9_9  and  C10_10 
ROOT
HETATM    1  C1  UNL     1     -34.720  16.794  -0.709  1.00 20.00     0.012 C 
HETATM    2  C2  UNL     1     -34.540  16.140  -1.699  1.00 20.00    -0.117 C 
HETATM    3  C9  UNL     1     -34.323  15.338  -2.911  1.00 20.00     0.093 C 
ENDROOT
BRANCH   3   4
HETATM    4  C10 UNL     1     -33.385  16.064  -3.857  1.00 20.00     0.017 C 
BRANCH   4   5
HETATM    5  C7  UNL     1     -33.774  15.802  -5.313  1.00 20.00    -0.012 C 
HETATM    6  C4  UNL     1     -34.447  14.423  -5.438  1.00 20.00     0.005 C 
HETATM    7  C3  UNL     1     -35.277  14.318  -6.710  1.00 20.00     0.002 C 
HETATM    8  C5  UNL     1     -36.405  15.354  -6.751  1.00 20.00     0.020 C 
HETATM    9  C8  UNL     1     -36.125  16.582  -5.877  1.00 20.00     0.082 C 
HETATM   10  C6  UNL     1     -34.643  16.944  -5.877  1.00 20.00     0.024 C 
HETATM   11 CL11 UNL     1     -37.107  17.966  -6.435  1.00 20.00    -0.125 Cl
ENDBRANCH   4   5
ENDBRANCH   3   4
TORSDOF 2
ENDMDL
MODEL 9
REMARK VINA RESULT:      -4.3     11.026     13.130
REMARK  2 active torsions:
REMARK  status: ('A' for Active; 'I' for Inactive)
REMARK    1  A    between atoms: C7_7  and  C10_10 
REMARK    2  A    between atoms: C9_9  and  C10_10 
ROOT
HETATM    1  C1  UNL     1     -33.672  18.659  -5.945  1.00 20.00     0.012 C 
HETATM    2  C2  UNL     1     -34.183  17.700  -6.455  1.00 20.00    -0.117 C 
HETATM    3  C9  UNL     1     -34.805  16.526  -7.080  1.00 20.00     0.093 C 
ENDROOT
BRANCH   3   4
HETATM    4  C10 UNL     1     -36.175  16.278  -6.480  1.00 20.00     0.017 C 
BRANCH   4   5
HETATM    5  C7  UNL     1     -36.146  15.072  -5.538  1.00 20.00    -0.012 C 
HETATM    6  C4  UNL     1     -34.996  14.127  -5.931  1.00 20.00     0.005 C 
HETATM    7  C3  UNL     1     -34.608  13.208  -4.780  1.00 20.00     0.002 C 
HETATM    8  C5  UNL     1     -34.125  13.989  -3.554  1.00 20.00     0.020 C 
HETATM    9  C8  UNL     1     -34.661  15.425  -3.507  1.00 20.00     0.082 C 
HETATM   10  C6  UNL     1     -36.079  15.513  -4.062  1.00 20.00     0.024 C 
HETATM   11 CL11 UNL     1     -34.605  16.043  -1.832  1.00 20.00    -0.125 Cl
ENDBRANCH   4   5
ENDBRANCH   3   4
TORSDOF 2
ENDMDL
