MODEL 1
REMARK VINA RESULT:      -4.5      0.000      0.000
REMARK  1 active torsions:
REMARK  status: ('A' for Active; 'I' for Inactive)
REMARK    1  A    between atoms: C7_7  and  C8_8 
ROOT
HETATM    1  C1  UNL     1     -33.463  16.594  -4.747  1.00 20.00     0.002 C 
HETATM    2  C2  UNL     1     -33.702  17.061  -3.315  1.00 20.00     0.005 C 
HETATM    3  C5  UNL     1     -34.755  16.131  -5.417  1.00 20.00     0.016 C 
HETATM    4  C6  UNL     1     -35.692  15.511  -3.128  1.00 20.00     0.020 C 
HETATM    5  C8  UNL     1     -34.381  15.975  -2.472  1.00 20.00    -0.009 C 
HETATM    6  C9  UNL     1     -35.532  15.108  -4.592  1.00 20.00     0.058 C 
HETATM    7 BR10 UNL     1     -34.671  13.350  -4.718  1.00 20.00    -0.091 Br
ENDROOT
BRANCH   5   8
HETATM    8  C7  UNL     1     -34.641  16.481  -1.054  1.00 20.00    -0.010 A 
HETATM    9  C3  UNL     1     -33.826  17.612  -0.491  1.00 20.00     0.005 A 
HETATM   10  C4  UNL     1     -35.274  17.826  -0.834  1.00 20.00     0.005 A 
ENDBRANCH   5   8
TORSDOF 1
ENDMDL
MODEL 2
REMARK VINA RESULT:      -4.4      1.708      2.268
REMARK  1 active torsions:
REMARK  status: ('A' for Active; 'I' for Inactive)
REMARK    1  A    between atoms: C7_7  and  C8_8 
ROOT
HETATM    1  C1  UNL     1     -34.922  13.269  -4.582  1.00 20.00     0.002 C 
HETATM    2  C2  UNL     1     -34.154  14.032  -3.509  1.00 20.00     0.005 C 
HETATM    3  C5  UNL     1     -35.035  14.071  -5.878  1.00 20.00     0.016 C 
HETATM    4  C6  UNL     1     -34.885  16.229  -4.528  1.00 20.00     0.020 C 
HETATM    5  C8  UNL     1     -34.780  15.405  -3.234  1.00 20.00    -0.009 C 
HETATM    6  C9  UNL     1     -35.572  15.484  -5.671  1.00 20.00     0.058 C 
HETATM    7 BR10 UNL     1     -37.510  15.429  -5.371  1.00 20.00    -0.091 Br
ENDROOT
BRANCH   5   8
HETATM    8  C7  UNL     1     -33.971  16.163  -2.182  1.00 20.00    -0.010 A 
HETATM    9  C3  UNL     1     -34.220  17.627  -1.944  1.00 20.00     0.005 A 
HETATM   10  C4  UNL     1     -34.626  16.617  -0.907  1.00 20.00     0.005 A 
ENDBRANCH   5   8
TORSDOF 1
ENDMDL
MODEL 3
REMARK VINA RESULT:      -4.4      1.474      2.207
REMARK  1 active torsions:
REMARK  status: ('A' for Active; 'I' for Inactive)
REMARK    1  A    between atoms: C7_7  and  C8_8 
ROOT
HETATM    1  C1  UNL     1     -36.476  14.689  -3.886  1.00 20.00     0.002 C 
HETATM    2  C2  UNL     1     -35.805  15.413  -2.724  1.00 20.00     0.005 C 
HETATM    3  C5  UNL     1     -35.562  13.628  -4.498  1.00 20.00     0.016 C 
HETATM    4  C6  UNL     1     -33.532  14.975  -3.745  1.00 20.00     0.020 C 
HETATM    5  C8  UNL     1     -34.468  16.036  -3.142  1.00 20.00    -0.009 C 
HETATM    6  C9  UNL     1     -34.178  14.158  -4.862  1.00 20.00     0.058 C 
HETATM    7 BR10 UNL     1     -34.277  15.223  -6.506  1.00 20.00    -0.091 Br
ENDROOT
BRANCH   5   8
HETATM    8  C7  UNL     1     -33.800  16.723  -1.951  1.00 20.00    -0.010 A 
HETATM    9  C3  UNL     1     -34.299  18.056  -1.467  1.00 20.00     0.005 A 
HETATM   10  C4  UNL     1     -34.519  16.824  -0.634  1.00 20.00     0.005 A 
ENDBRANCH   5   8
TORSDOF 1
ENDMDL
MODEL 4
REMARK VINA RESULT:      -4.1      2.292      4.056
REMARK  1 active torsions:
REMARK  status: ('A' for Active; 'I' for Inactive)
REMARK    1  A    between atoms: C7_7  and  C8_8 
ROOT
HETATM    1  C1  UNL     1     -35.557  17.863  -3.699  1.00 20.00     0.002 C 
HETATM    2  C2  UNL     1     -35.677  16.504  -4.380  1.00 20.00     0.005 C 
HETATM    3  C5  UNL     1     -34.182  18.059  -3.063  1.00 20.00     0.016 C 
HETATM    4  C6  UNL     1     -33.978  15.534  -2.777  1.00 20.00     0.020 C 
HETATM    5  C8  UNL     1     -35.367  15.356  -3.412  1.00 20.00    -0.009 C 
HETATM    6  C9  UNL     1     -33.767  16.910  -2.149  1.00 20.00     0.058 C 
HETATM    7 BR10 UNL     1     -34.728  17.028  -0.443  1.00 20.00    -0.091 Br
ENDROOT
BRANCH   5   8
HETATM    8  C7  UNL     1     -35.460  14.009  -4.129  1.00 20.00    -0.010 A 
HETATM    9  C3  UNL     1     -35.093  13.897  -5.582  1.00 20.00     0.005 A 
HETATM   10  C4  UNL     1     -34.209  13.280  -4.534  1.00 20.00     0.005 A 
ENDBRANCH   5   8
TORSDOF 1
ENDMDL
MODEL 5
REMARK VINA RESULT:      -4.1     12.624     14.277
REMARK  1 active torsions:
REMARK  status: ('A' for Active; 'I' for Inactive)
REMARK    1  A    between atoms: C7_7  and  C8_8 
ROOT
HETATM    1  C1  UNL     1     -40.795   5.835  -0.824  1.00 20.00     0.002 C 
HETATM    2  C2  UNL     1     -41.057   4.378  -1.188  1.00 20.00     0.005 C 
HETATM    3  C5  UNL     1     -42.095   6.611  -0.618  1.00 20.00     0.016 C 
HETATM    4  C6  UNL     1     -43.273   5.020  -2.225  1.00 20.00     0.020 C 
HETATM    5  C8  UNL     1     -41.954   4.256  -2.425  1.00 20.00    -0.009 C 
HETATM    6  C9  UNL     1     -43.077   6.467  -1.777  1.00 20.00     0.058 C 
HETATM    7 BR10 UNL     1     -42.494   7.569  -3.292  1.00 20.00    -0.091 Br
ENDROOT
BRANCH   5   8
HETATM    8  C7  UNL     1     -42.229   2.787  -2.747  1.00 20.00    -0.010 A 
HETATM    9  C3  UNL     1     -42.802   2.398  -4.081  1.00 20.00     0.005 A 
HETATM   10  C4  UNL     1     -41.376   2.059  -3.747  1.00 20.00     0.005 A 
ENDBRANCH   5   8
TORSDOF 1
ENDMDL
MODEL 6
REMARK VINA RESULT:      -4.1      1.267      1.282
REMARK  1 active torsions:
REMARK  status: ('A' for Active; 'I' for Inactive)
REMARK    1  A    between atoms: C7_7  and  C8_8 
ROOT
HETATM    1  C1  UNL     1     -33.647  15.689  -4.036  1.00 20.00     0.002 C 
HETATM    2  C2  UNL     1     -33.508  16.265  -2.631  1.00 20.00     0.005 C 
HETATM    3  C5  UNL     1     -34.765  16.373  -4.822  1.00 20.00     0.016 C 
HETATM    4  C6  UNL     1     -35.960  16.888  -2.630  1.00 20.00     0.020 C 
HETATM    5  C8  UNL     1     -34.829  16.190  -1.856  1.00 20.00    -0.009 C 
HETATM    6  C9  UNL     1     -36.095  16.412  -4.075  1.00 20.00     0.058 C 
HETATM    7 BR10 UNL     1     -36.946  14.646  -4.126  1.00 20.00    -0.091 Br
ENDROOT
BRANCH   5   8
HETATM    8  C7  UNL     1     -34.672  16.805  -0.466  1.00 20.00    -0.010 A 
HETATM    9  C3  UNL     1     -33.733  17.958  -0.249  1.00 20.00     0.005 A 
HETATM   10  C4  UNL     1     -35.219  18.175  -0.179  1.00 20.00     0.005 A 
ENDBRANCH   5   8
TORSDOF 1
ENDMDL
MODEL 7
REMARK VINA RESULT:      -4.0      1.518      2.248
REMARK  1 active torsions:
REMARK  status: ('A' for Active; 'I' for Inactive)
REMARK    1  A    between atoms: C7_7  and  C8_8 
ROOT
HETATM    1  C1  UNL     1     -34.998  14.469  -3.688  1.00 20.00     0.002 C 
HETATM    2  C2  UNL     1     -34.964  15.362  -2.453  1.00 20.00     0.005 C 
HETATM    3  C5  UNL     1     -33.779  14.690  -4.583  1.00 20.00     0.016 C 
HETATM    4  C6  UNL     1     -33.607  17.083  -3.718  1.00 20.00     0.020 C 
HETATM    5  C8  UNL     1     -34.839  16.843  -2.829  1.00 20.00    -0.009 C 
HETATM    6  C9  UNL     1     -33.541  16.157  -4.931  1.00 20.00     0.058 C 
HETATM    7 BR10 UNL     1     -34.824  16.740  -6.295  1.00 20.00    -0.091 Br
ENDROOT
BRANCH   5   8
HETATM    8  C7  UNL     1     -34.771  17.713  -1.574  1.00 20.00    -0.010 A 
HETATM    9  C3  UNL     1     -34.761  17.078  -0.212  1.00 20.00     0.005 A 
HETATM   10  C4  UNL     1     -33.520  17.742  -0.741  1.00 20.00     0.005 A 
ENDBRANCH   5   8
TORSDOF 1
ENDMDL
MODEL 8
REMARK VINA RESULT:      -3.9      2.528      4.521
REMARK  1 active torsions:
REMARK  status: ('A' for Active; 'I' for Inactive)
REMARK    1  A    between atoms: C7_7  and  C8_8 
ROOT
HETATM    1  C1  UNL     1     -33.062  16.247  -4.885  1.00 20.00     0.002 C 
HETATM    2  C2  UNL     1     -34.047  15.811  -5.965  1.00 20.00     0.005 C 
HETATM    3  C5  UNL     1     -32.951  15.211  -3.768  1.00 20.00     0.016 C 
HETATM    4  C6  UNL     1     -35.334  14.453  -4.264  1.00 20.00     0.020 C 
HETATM    5  C8  UNL     1     -35.430  15.506  -5.380  1.00 20.00    -0.009 C 
HETATM    6  C9  UNL     1     -34.301  14.793  -3.192  1.00 20.00     0.058 C 
HETATM    7 BR10 UNL     1     -34.992  16.199  -2.012  1.00 20.00    -0.091 Br
ENDROOT
BRANCH   5   8
HETATM    8  C7  UNL     1     -36.386  15.038  -6.477  1.00 20.00    -0.010 A 
HETATM    9  C3  UNL     1     -36.547  15.843  -7.736  1.00 20.00     0.005 A 
HETATM   10  C4  UNL     1     -35.847  14.513  -7.778  1.00 20.00     0.005 A 
ENDBRANCH   5   8
TORSDOF 1
ENDMDL
MODEL 9
REMARK VINA RESULT:      -3.9      2.283      3.795
REMARK  1 active torsions:
REMARK  status: ('A' for Active; 'I' for Inactive)
REMARK    1  A    between atoms: C7_7  and  C8_8 
ROOT
HETATM    1  C1  UNL     1     -33.896  17.823  -1.868  1.00 20.00     0.002 C 
HETATM    2  C2  UNL     1     -34.134  16.317  -1.898  1.00 20.00     0.005 C 
HETATM    3  C5  UNL     1     -34.954  18.581  -2.669  1.00 20.00     0.016 C 
HETATM    4  C6  UNL     1     -35.273  16.528  -4.147  1.00 20.00     0.020 C 
HETATM    5  C8  UNL     1     -34.201  15.784  -3.334  1.00 20.00    -0.009 C 
HETATM    6  C9  UNL     1     -35.137  18.048  -4.087  1.00 20.00     0.058 C 
HETATM    7 BR10 UNL     1     -33.650  18.638  -5.223  1.00 20.00    -0.091 Br
ENDROOT
BRANCH   5   8
HETATM    8  C7  UNL     1     -34.475  14.280  -3.336  1.00 20.00    -0.010 A 
HETATM    9  C3  UNL     1     -35.566  13.710  -4.199  1.00 20.00     0.005 A 
HETATM   10  C4  UNL     1     -34.125  13.449  -4.538  1.00 20.00     0.005 A 
ENDBRANCH   5   8
TORSDOF 1
ENDMDL
