MODEL 1
REMARK VINA RESULT:      -4.8      0.000      0.000
REMARK  1 active torsions:
REMARK  status: ('A' for Active; 'I' for Inactive)
REMARK    1  A    between atoms: C7_7  and  C9_9 
ROOT
HETATM    1  C1  UNL     1     -34.414  16.723  -0.804  1.00 20.00     0.012 C 
HETATM    2  C2  UNL     1     -34.893  16.204  -1.775  1.00 20.00    -0.117 C 
HETATM    3  C9  UNL     1     -35.489  15.576  -2.957  1.00 20.00     0.097 C 
ENDROOT
BRANCH   3   4
HETATM    4  C7  UNL     1     -34.469  14.690  -3.680  1.00 20.00    -0.002 C 
HETATM    5  C4  UNL     1     -33.162  15.447  -3.939  1.00 20.00     0.005 C 
HETATM    6  C3  UNL     1     -33.298  16.546  -4.994  1.00 20.00     0.002 C 
HETATM    7  C5  UNL     1     -34.217  16.170  -6.160  1.00 20.00     0.020 C 
HETATM    8  C8  UNL     1     -34.428  14.662  -6.254  1.00 20.00     0.082 C 
HETATM    9  C6  UNL     1     -35.066  14.104  -4.977  1.00 20.00     0.025 C 
HETATM   10 CL10 UNL     1     -35.449  14.269  -7.667  1.00 20.00    -0.125 Cl
ENDBRANCH   3   4
TORSDOF 1
ENDMDL
MODEL 2
REMARK VINA RESULT:      -4.5     11.508     12.515
REMARK  1 active torsions:
REMARK  status: ('A' for Active; 'I' for Inactive)
REMARK    1  A    between atoms: C7_7  and  C9_9 
ROOT
HETATM    1  C1  UNL     1     -31.580   8.714   0.775  1.00 20.00     0.012 C 
HETATM    2  C2  UNL     1     -32.176   8.430   1.778  1.00 20.00    -0.117 C 
HETATM    3  C9  UNL     1     -32.911   8.096   3.001  1.00 20.00     0.097 C 
ENDROOT
BRANCH   3   4
HETATM    4  C7  UNL     1     -32.443   6.753   3.572  1.00 20.00    -0.002 C 
HETATM    5  C4  UNL     1     -32.750   5.603   2.606  1.00 20.00     0.005 C 
HETATM    6  C3  UNL     1     -34.243   5.294   2.489  1.00 20.00     0.002 C 
HETATM    7  C5  UNL     1     -35.002   5.414   3.814  1.00 20.00     0.020 C 
HETATM    8  C8  UNL     1     -34.063   5.366   5.014  1.00 20.00     0.082 C 
HETATM    9  C6  UNL     1     -33.041   6.508   4.973  1.00 20.00     0.025 C 
HETATM   10 CL10 UNL     1     -34.999   5.440   6.534  1.00 20.00    -0.125 Cl
ENDBRANCH   3   4
TORSDOF 1
ENDMDL
MODEL 3
REMARK VINA RESULT:      -4.5      1.440      2.076
REMARK  1 active torsions:
REMARK  status: ('A' for Active; 'I' for Inactive)
REMARK    1  A    between atoms: C7_7  and  C9_9 
ROOT
HETATM    1  C1  UNL     1     -34.705  16.927  -0.510  1.00 20.00     0.012 C 
HETATM    2  C2  UNL     1     -34.538  16.278  -1.506  1.00 20.00    -0.117 C 
HETATM    3  C9  UNL     1     -34.322  15.483  -2.717  1.00 20.00     0.097 C 
ENDROOT
BRANCH   3   4
HETATM    4  C7  UNL     1     -35.592  15.428  -3.572  1.00 20.00    -0.002 C 
HETATM    5  C4  UNL     1     -35.842  14.012  -4.101  1.00 20.00     0.005 C 
HETATM    6  C3  UNL     1     -34.832  13.576  -5.165  1.00 20.00     0.002 C 
HETATM    7  C5  UNL     1     -34.424  14.698  -6.123  1.00 20.00     0.020 C 
HETATM    8  C8  UNL     1     -35.422  15.852  -6.106  1.00 20.00     0.082 C 
HETATM    9  C6  UNL     1     -35.540  16.471  -4.709  1.00 20.00     0.025 C 
HETATM   10 CL10 UNL     1     -34.941  17.102  -7.288  1.00 20.00    -0.125 Cl
ENDBRANCH   3   4
TORSDOF 1
ENDMDL
MODEL 4
REMARK VINA RESULT:      -4.5      1.717      2.169
REMARK  1 active torsions:
REMARK  status: ('A' for Active; 'I' for Inactive)
REMARK    1  A    between atoms: C7_7  and  C9_9 
ROOT
HETATM    1  C1  UNL     1     -34.645  16.735  -0.789  1.00 20.00     0.012 C 
HETATM    2  C2  UNL     1     -34.325  16.206  -1.818  1.00 20.00    -0.117 C 
HETATM    3  C9  UNL     1     -33.925  15.571  -3.076  1.00 20.00     0.097 C 
ENDROOT
BRANCH   3   4
HETATM    4  C7  UNL     1     -34.874  14.424  -3.439  1.00 20.00    -0.002 C 
HETATM    5  C4  UNL     1     -34.396  13.686  -4.693  1.00 20.00     0.005 C 
HETATM    6  C3  UNL     1     -34.537  14.512  -5.973  1.00 20.00     0.002 C 
HETATM    7  C5  UNL     1     -35.807  15.367  -6.016  1.00 20.00     0.020 C 
HETATM    8  C8  UNL     1     -36.854  14.881  -5.019  1.00 20.00     0.082 C 
HETATM    9  C6  UNL     1     -36.325  14.929  -3.581  1.00 20.00     0.025 C 
HETATM   10 CL10 UNL     1     -38.339  15.865  -5.155  1.00 20.00    -0.125 Cl
ENDBRANCH   3   4
TORSDOF 1
ENDMDL
MODEL 5
REMARK VINA RESULT:      -4.4      1.557      1.954
REMARK  1 active torsions:
REMARK  status: ('A' for Active; 'I' for Inactive)
REMARK    1  A    between atoms: C7_7  and  C9_9 
ROOT
HETATM    1  C1  UNL     1     -34.045  18.117   0.262  1.00 20.00     0.012 C 
HETATM    2  C2  UNL     1     -34.353  17.271  -0.533  1.00 20.00    -0.117 C 
HETATM    3  C9  UNL     1     -34.738  16.236  -1.495  1.00 20.00     0.097 C 
ENDROOT
BRANCH   3   4
HETATM    4  C7  UNL     1     -33.699  16.112  -2.614  1.00 20.00    -0.002 C 
HETATM    5  C4  UNL     1     -33.809  17.278  -3.603  1.00 20.00     0.005 C 
HETATM    6  C3  UNL     1     -35.074  17.228  -4.460  1.00 20.00     0.002 C 
HETATM    7  C5  UNL     1     -35.472  15.812  -4.888  1.00 20.00     0.020 C 
HETATM    8  C8  UNL     1     -34.310  14.832  -4.763  1.00 20.00     0.082 C 
HETATM    9  C6  UNL     1     -33.804  14.743  -3.319  1.00 20.00     0.025 C 
HETATM   10 CL10 UNL     1     -34.803  13.213  -5.337  1.00 20.00    -0.125 Cl
ENDBRANCH   3   4
TORSDOF 1
ENDMDL
MODEL 6
REMARK VINA RESULT:      -4.3      1.915      2.540
REMARK  1 active torsions:
REMARK  status: ('A' for Active; 'I' for Inactive)
REMARK    1  A    between atoms: C7_7  and  C9_9 
ROOT
HETATM    1  C1  UNL     1     -35.182  17.437   0.866  1.00 20.00     0.012 C 
HETATM    2  C2  UNL     1     -34.624  17.178  -0.165  1.00 20.00    -0.117 C 
HETATM    3  C9  UNL     1     -33.931  16.866  -1.418  1.00 20.00     0.097 C 
ENDROOT
BRANCH   3   4
HETATM    4  C7  UNL     1     -34.885  16.216  -2.426  1.00 20.00    -0.002 C 
HETATM    5  C4  UNL     1     -34.268  14.954  -3.037  1.00 20.00     0.005 C 
HETATM    6  C3  UNL     1     -33.103  15.247  -3.983  1.00 20.00     0.002 C 
HETATM    7  C5  UNL     1     -33.305  16.501  -4.839  1.00 20.00     0.020 C 
HETATM    8  C8  UNL     1     -34.770  16.918  -4.900  1.00 20.00     0.082 C 
HETATM    9  C6  UNL     1     -35.324  17.228  -3.505  1.00 20.00     0.025 C 
HETATM   10 CL10 UNL     1     -34.963  18.341  -5.963  1.00 20.00    -0.125 Cl
ENDBRANCH   3   4
TORSDOF 1
ENDMDL
MODEL 7
REMARK VINA RESULT:      -4.3     11.518     12.862
REMARK  1 active torsions:
REMARK  status: ('A' for Active; 'I' for Inactive)
REMARK    1  A    between atoms: C7_7  and  C9_9 
ROOT
HETATM    1  C1  UNL     1     -42.948   8.363  -4.778  1.00 20.00     0.012 C 
HETATM    2  C2  UNL     1     -42.513   7.986  -3.724  1.00 20.00    -0.117 C 
HETATM    3  C9  UNL     1     -41.973   7.535  -2.439  1.00 20.00     0.097 C 
ENDROOT
BRANCH   3   4
HETATM    4  C7  UNL     1     -42.826   6.407  -1.850  1.00 20.00    -0.002 C 
HETATM    5  C4  UNL     1     -42.512   6.192  -0.366  1.00 20.00     0.005 C 
HETATM    6  C3  UNL     1     -41.130   5.585  -0.121  1.00 20.00     0.002 C 
HETATM    7  C5  UNL     1     -40.729   4.529  -1.156  1.00 20.00     0.020 C 
HETATM    8  C8  UNL     1     -41.937   3.992  -1.917  1.00 20.00     0.082 C 
HETATM    9  C6  UNL     1     -42.669   5.108  -2.669  1.00 20.00     0.025 C 
HETATM   10 CL10 UNL     1     -41.429   2.717  -3.061  1.00 20.00    -0.125 Cl
ENDBRANCH   3   4
TORSDOF 1
ENDMDL
MODEL 8
REMARK VINA RESULT:      -4.3      2.484      4.527
REMARK  1 active torsions:
REMARK  status: ('A' for Active; 'I' for Inactive)
REMARK    1  A    between atoms: C7_7  and  C9_9 
ROOT
HETATM    1  C1  UNL     1     -35.527  14.385  -7.802  1.00 20.00     0.012 C 
HETATM    2  C2  UNL     1     -34.913  14.933  -6.928  1.00 20.00    -0.117 C 
HETATM    3  C9  UNL     1     -34.162  15.613  -5.869  1.00 20.00     0.097 C 
ENDROOT
BRANCH   3   4
HETATM    4  C7  UNL     1     -34.018  14.715  -4.636  1.00 20.00    -0.002 C 
HETATM    5  C4  UNL     1     -35.340  14.017  -4.301  1.00 20.00     0.005 C 
HETATM    6  C3  UNL     1     -36.409  14.970  -3.765  1.00 20.00     0.002 C 
HETATM    7  C5  UNL     1     -35.855  16.060  -2.842  1.00 20.00     0.020 C 
HETATM    8  C8  UNL     1     -34.475  15.700  -2.302  1.00 20.00     0.082 C 
HETATM    9  C6  UNL     1     -33.461  15.508  -3.435  1.00 20.00     0.025 C 
HETATM   10 CL10 UNL     1     -33.902  16.966  -1.179  1.00 20.00    -0.125 Cl
ENDBRANCH   3   4
TORSDOF 1
ENDMDL
MODEL 9
REMARK VINA RESULT:      -4.1      0.974      1.711
REMARK  1 active torsions:
REMARK  status: ('A' for Active; 'I' for Inactive)
REMARK    1  A    between atoms: C7_7  and  C9_9 
ROOT
HETATM    1  C1  UNL     1     -37.636  15.018  -3.818  1.00 20.00     0.012 C 
HETATM    2  C2  UNL     1     -36.518  15.136  -3.394  1.00 20.00    -0.117 C 
HETATM    3  C9  UNL     1     -35.160  15.287  -2.866  1.00 20.00     0.097 C 
ENDROOT
BRANCH   3   4
HETATM    4  C7  UNL     1     -34.142  14.564  -3.754  1.00 20.00    -0.002 C 
HETATM    5  C4  UNL     1     -32.941  15.463  -4.065  1.00 20.00     0.005 C 
HETATM    6  C3  UNL     1     -33.280  16.622  -5.004  1.00 20.00     0.002 C 
HETATM    7  C5  UNL     1     -34.273  16.250  -6.109  1.00 20.00     0.020 C 
HETATM    8  C8  UNL     1     -34.356  14.741  -6.314  1.00 20.00     0.082 C 
HETATM    9  C6  UNL     1     -34.810  14.025  -5.037  1.00 20.00     0.025 C 
HETATM   10 CL10 UNL     1     -35.473  14.361  -7.656  1.00 20.00    -0.125 Cl
ENDBRANCH   3   4
TORSDOF 1
ENDMDL
