MODEL 1
REMARK VINA RESULT:      -5.1      0.000      0.000
REMARK  3 active torsions:
REMARK  status: ('A' for Active; 'I' for Inactive)
REMARK    1  A    between atoms: C5_5  and  C9_9 
REMARK    2  A    between atoms: C9_9  and  C11_11 
REMARK    3  A    between atoms: C10_10  and  C11_11 
ROOT
HETATM    1  C1  UNL     1     -33.364  13.662  -3.803  1.00 20.00     0.002 C 
HETATM    2  C2  UNL     1     -33.070  15.120  -3.445  1.00 20.00     0.005 C 
HETATM    3  C3  UNL     1     -34.786  13.424  -4.314  1.00 20.00     0.020 C 
HETATM    4  C4  UNL     1     -35.370  15.893  -4.205  1.00 20.00     0.024 C 
HETATM    5  C5  UNL     1     -34.337  15.886  -3.061  1.00 20.00    -0.013 C 
HETATM    6  C6  UNL     1     -35.368  14.620  -5.065  1.00 20.00     0.082 C 
HETATM    7 CL12 UNL     1     -34.452  14.893  -6.585  1.00 20.00    -0.125 Cl
ENDROOT
BRANCH   5   8
HETATM    8  C9  UNL     1     -34.009  17.312  -2.620  1.00 20.00     0.009 C 
BRANCH   8   9
HETATM    9  C11 UNL     1     -33.599  17.422  -1.139  1.00 20.00    -0.019 C 
HETATM   10  C8  UNL     1     -34.762  17.076  -0.202  1.00 20.00     0.010 C 
BRANCH   9  11
HETATM   11  C10 UNL     1     -33.065  18.847  -0.879  1.00 20.00    -0.000 C 
HETATM   12  C7  UNL     1     -32.061  18.930   0.262  1.00 20.00     0.005 C 
ENDBRANCH   9  11
ENDBRANCH   8   9
ENDBRANCH   5   8
TORSDOF 3
ENDMDL
MODEL 2
REMARK VINA RESULT:      -4.9      0.603      1.490
REMARK  3 active torsions:
REMARK  status: ('A' for Active; 'I' for Inactive)
REMARK    1  A    between atoms: C5_5  and  C9_9 
REMARK    2  A    between atoms: C9_9  and  C11_11 
REMARK    3  A    between atoms: C10_10  and  C11_11 
ROOT
HETATM    1  C1  UNL     1     -33.410  13.728  -3.781  1.00 20.00     0.002 C 
HETATM    2  C2  UNL     1     -33.013  15.198  -3.634  1.00 20.00     0.005 C 
HETATM    3  C3  UNL     1     -34.885  13.517  -4.131  1.00 20.00     0.020 C 
HETATM    4  C4  UNL     1     -35.335  16.011  -4.275  1.00 20.00     0.024 C 
HETATM    5  C5  UNL     1     -34.199  16.078  -3.235  1.00 20.00    -0.013 C 
HETATM    6  C6  UNL     1     -35.477  14.648  -4.968  1.00 20.00     0.082 C 
HETATM    7 CL12 UNL     1     -34.699  14.685  -6.586  1.00 20.00    -0.125 Cl
ENDROOT
BRANCH   5   8
HETATM    8  C9  UNL     1     -33.762  17.524  -3.004  1.00 20.00     0.009 C 
BRANCH   8   9
HETATM    9  C11 UNL     1     -34.153  18.074  -1.619  1.00 20.00    -0.019 C 
HETATM   10  C8  UNL     1     -33.008  18.871  -0.984  1.00 20.00     0.010 C 
BRANCH   9  11
HETATM   11  C10 UNL     1     -34.589  16.895  -0.724  1.00 20.00    -0.000 C 
HETATM   12  C7  UNL     1     -35.109  17.318   0.643  1.00 20.00     0.005 C 
ENDBRANCH   9  11
ENDBRANCH   8   9
ENDBRANCH   5   8
TORSDOF 3
ENDMDL
MODEL 3
REMARK VINA RESULT:      -4.9      1.093      1.415
REMARK  3 active torsions:
REMARK  status: ('A' for Active; 'I' for Inactive)
REMARK    1  A    between atoms: C5_5  and  C9_9 
REMARK    2  A    between atoms: C9_9  and  C11_11 
REMARK    3  A    between atoms: C10_10  and  C11_11 
ROOT
HETATM    1  C1  UNL     1     -33.575  13.620  -3.903  1.00 20.00     0.002 C 
HETATM    2  C2  UNL     1     -33.773  15.001  -3.274  1.00 20.00     0.005 C 
HETATM    3  C3  UNL     1     -34.720  13.189  -4.823  1.00 20.00     0.020 C 
HETATM    4  C4  UNL     1     -35.947  15.393  -4.533  1.00 20.00     0.024 C 
HETATM    5  C5  UNL     1     -35.252  15.374  -3.157  1.00 20.00    -0.013 C 
HETATM    6  C6  UNL     1     -35.402  14.358  -5.529  1.00 20.00     0.082 C 
HETATM    7 CL12 UNL     1     -34.258  15.134  -6.675  1.00 20.00    -0.125 Cl
ENDROOT
BRANCH   5   8
HETATM    8  C9  UNL     1     -35.429  16.714  -2.444  1.00 20.00     0.009 C 
BRANCH   8   9
HETATM    9  C11 UNL     1     -34.284  17.052  -1.471  1.00 20.00    -0.019 C 
HETATM   10  C8  UNL     1     -34.763  17.065  -0.016  1.00 20.00     0.010 C 
BRANCH   9  11
HETATM   11  C10 UNL     1     -33.673  18.410  -1.880  1.00 20.00    -0.000 C 
HETATM   12  C7  UNL     1     -33.789  18.714  -3.367  1.00 20.00     0.005 C 
ENDBRANCH   9  11
ENDBRANCH   8   9
ENDBRANCH   5   8
TORSDOF 3
ENDMDL
MODEL 4
REMARK VINA RESULT:      -4.7      2.013      5.003
REMARK  3 active torsions:
REMARK  status: ('A' for Active; 'I' for Inactive)
REMARK    1  A    between atoms: C5_5  and  C9_9 
REMARK    2  A    between atoms: C9_9  and  C11_11 
REMARK    3  A    between atoms: C10_10  and  C11_11 
ROOT
HETATM    1  C1  UNL     1     -34.193  17.492  -0.642  1.00 20.00     0.002 C 
HETATM    2  C2  UNL     1     -34.679  16.269  -1.423  1.00 20.00     0.005 C 
HETATM    3  C3  UNL     1     -33.407  18.495  -1.489  1.00 20.00     0.020 C 
HETATM    4  C4  UNL     1     -33.758  17.159  -3.620  1.00 20.00     0.024 C 
HETATM    5  C5  UNL     1     -33.796  15.972  -2.637  1.00 20.00    -0.013 C 
HETATM    6  C6  UNL     1     -33.854  18.537  -2.948  1.00 20.00     0.082 C 
HETATM    7 CL12 UNL     1     -35.531  19.171  -3.057  1.00 20.00    -0.125 Cl
ENDROOT
BRANCH   5   8
HETATM    8  C9  UNL     1     -34.245  14.696  -3.347  1.00 20.00     0.009 C 
BRANCH   8   9
HETATM    9  C11 UNL     1     -35.277  14.940  -4.465  1.00 20.00    -0.019 C 
HETATM   10  C8  UNL     1     -36.692  14.551  -4.024  1.00 20.00     0.010 C 
BRANCH   9  11
HETATM   11  C10 UNL     1     -34.838  14.160  -5.722  1.00 20.00    -0.000 C 
HETATM   12  C7  UNL     1     -34.417  15.048  -6.884  1.00 20.00     0.005 C 
ENDBRANCH   9  11
ENDBRANCH   8   9
ENDBRANCH   5   8
TORSDOF 3
ENDMDL
MODEL 5
REMARK VINA RESULT:      -4.6      1.511      2.433
REMARK  3 active torsions:
REMARK  status: ('A' for Active; 'I' for Inactive)
REMARK    1  A    between atoms: C5_5  and  C9_9 
REMARK    2  A    between atoms: C9_9  and  C11_11 
REMARK    3  A    between atoms: C10_10  and  C11_11 
ROOT
HETATM    1  C1  UNL     1     -34.893  17.998  -4.857  1.00 20.00     0.002 C 
HETATM    2  C2  UNL     1     -35.333  17.388  -3.525  1.00 20.00     0.005 C 
HETATM    3  C3  UNL     1     -33.549  17.471  -5.366  1.00 20.00     0.020 C 
HETATM    4  C4  UNL     1     -33.315  15.843  -3.432  1.00 20.00     0.024 C 
HETATM    5  C5  UNL     1     -34.144  16.911  -2.690  1.00 20.00    -0.013 C 
HETATM    6  C6  UNL     1     -33.271  16.027  -4.956  1.00 20.00     0.082 C 
HETATM    7 CL12 UNL     1     -34.444  14.926  -5.754  1.00 20.00    -0.125 Cl
ENDROOT
BRANCH   5   8
HETATM    8  C9  UNL     1     -34.599  16.390  -1.327  1.00 20.00     0.009 C 
BRANCH   8   9
HETATM    9  C11 UNL     1     -34.275  17.344  -0.161  1.00 20.00    -0.019 C 
HETATM   10  C8  UNL     1     -35.548  17.909   0.479  1.00 20.00     0.010 C 
BRANCH   9  11
HETATM   11  C10 UNL     1     -33.355  18.467  -0.683  1.00 20.00    -0.000 C 
HETATM   12  C7  UNL     1     -32.207  18.810   0.256  1.00 20.00     0.005 C 
ENDBRANCH   9  11
ENDBRANCH   8   9
ENDBRANCH   5   8
TORSDOF 3
ENDMDL
MODEL 6
REMARK VINA RESULT:      -4.5      1.536      2.500
REMARK  3 active torsions:
REMARK  status: ('A' for Active; 'I' for Inactive)
REMARK    1  A    between atoms: C5_5  and  C9_9 
REMARK    2  A    between atoms: C9_9  and  C11_11 
REMARK    3  A    between atoms: C10_10  and  C11_11 
ROOT
HETATM    1  C1  UNL     1     -34.195  17.536  -4.845  1.00 20.00     0.002 C 
HETATM    2  C2  UNL     1     -34.874  17.399  -3.481  1.00 20.00     0.005 C 
HETATM    3  C3  UNL     1     -33.309  16.345  -5.218  1.00 20.00     0.020 C 
HETATM    4  C4  UNL     1     -33.922  15.071  -3.109  1.00 20.00     0.024 C 
HETATM    5  C5  UNL     1     -34.087  16.492  -2.534  1.00 20.00    -0.013 C 
HETATM    6  C6  UNL     1     -33.801  15.020  -4.640  1.00 20.00     0.082 C 
HETATM    7 CL12 UNL     1     -35.376  14.575  -5.378  1.00 20.00    -0.125 Cl
ENDROOT
BRANCH   5   8
HETATM    8  C9  UNL     1     -34.735  16.443  -1.151  1.00 20.00     0.009 C 
BRANCH   8   9
HETATM    9  C11 UNL     1     -34.577  17.748  -0.348  1.00 20.00    -0.019 C 
HETATM   10  C8  UNL     1     -33.124  18.233  -0.336  1.00 20.00     0.010 C 
BRANCH   9  11
HETATM   11  C10 UNL     1     -35.110  17.516   1.082  1.00 20.00    -0.000 C 
HETATM   12  C7  UNL     1     -34.420  18.363   2.142  1.00 20.00     0.005 C 
ENDBRANCH   9  11
ENDBRANCH   8   9
ENDBRANCH   5   8
TORSDOF 3
ENDMDL
MODEL 7
REMARK VINA RESULT:      -4.4      2.515      5.341
REMARK  3 active torsions:
REMARK  status: ('A' for Active; 'I' for Inactive)
REMARK    1  A    between atoms: C5_5  and  C9_9 
REMARK    2  A    between atoms: C9_9  and  C11_11 
REMARK    3  A    between atoms: C10_10  and  C11_11 
ROOT
HETATM    1  C1  UNL     1     -36.019  19.086  -1.326  1.00 20.00     0.002 C 
HETATM    2  C2  UNL     1     -35.666  18.156  -2.489  1.00 20.00     0.005 C 
HETATM    3  C3  UNL     1     -35.614  18.542   0.046  1.00 20.00     0.020 C 
HETATM    4  C4  UNL     1     -34.531  16.475  -0.956  1.00 20.00     0.024 C 
HETATM    5  C5  UNL     1     -35.591  16.692  -2.054  1.00 20.00    -0.013 C 
HETATM    6  C6  UNL     1     -34.366  17.663   0.005  1.00 20.00     0.082 C 
HETATM    7 CL12 UNL     1     -32.937  18.647  -0.456  1.00 20.00    -0.125 Cl
ENDROOT
BRANCH   5   8
HETATM    8  C9  UNL     1     -35.330  15.773  -3.247  1.00 20.00     0.009 C 
BRANCH   8   9
HETATM    9  C11 UNL     1     -33.860  15.328  -3.373  1.00 20.00    -0.019 C 
HETATM   10  C8  UNL     1     -33.125  16.108  -4.469  1.00 20.00     0.010 C 
BRANCH   9  11
HETATM   11  C10 UNL     1     -33.825  13.808  -3.637  1.00 20.00    -0.000 C 
HETATM   12  C7  UNL     1     -34.945  13.314  -4.542  1.00 20.00     0.005 C 
ENDBRANCH   9  11
ENDBRANCH   8   9
ENDBRANCH   5   8
TORSDOF 3
ENDMDL
MODEL 8
REMARK VINA RESULT:      -4.4      1.679      2.195
REMARK  3 active torsions:
REMARK  status: ('A' for Active; 'I' for Inactive)
REMARK    1  A    between atoms: C5_5  and  C9_9 
REMARK    2  A    between atoms: C9_9  and  C11_11 
REMARK    3  A    between atoms: C10_10  and  C11_11 
ROOT
HETATM    1  C1  UNL     1     -34.489  15.517  -5.915  1.00 20.00     0.002 C 
HETATM    2  C2  UNL     1     -34.401  16.539  -4.780  1.00 20.00     0.005 C 
HETATM    3  C3  UNL     1     -34.584  14.067  -5.436  1.00 20.00     0.020 C 
HETATM    4  C4  UNL     1     -34.633  14.748  -2.991  1.00 20.00     0.024 C 
HETATM    5  C5  UNL     1     -33.801  15.938  -3.508  1.00 20.00    -0.013 C 
HETATM    6  C6  UNL     1     -35.302  13.918  -4.097  1.00 20.00     0.082 C 
HETATM    7 CL12 UNL     1     -37.028  14.380  -4.271  1.00 20.00    -0.125 Cl
ENDROOT
BRANCH   5   8
HETATM    8  C9  UNL     1     -33.639  16.998  -2.420  1.00 20.00     0.009 C 
BRANCH   8   9
HETATM    9  C11 UNL     1     -34.797  17.024  -1.404  1.00 20.00    -0.019 C 
HETATM   10  C8  UNL     1     -35.965  17.883  -1.899  1.00 20.00     0.010 C 
BRANCH   9  11
HETATM   11  C10 UNL     1     -34.255  17.528  -0.049  1.00 20.00    -0.000 C 
HETATM   12  C7  UNL     1     -35.279  17.494   1.076  1.00 20.00     0.005 C 
ENDBRANCH   9  11
ENDBRANCH   8   9
ENDBRANCH   5   8
TORSDOF 3
ENDMDL
MODEL 9
REMARK VINA RESULT:      -4.3      2.486      5.242
REMARK  3 active torsions:
REMARK  status: ('A' for Active; 'I' for Inactive)
REMARK    1  A    between atoms: C5_5  and  C9_9 
REMARK    2  A    between atoms: C9_9  and  C11_11 
REMARK    3  A    between atoms: C10_10  and  C11_11 
ROOT
HETATM    1  C1  UNL     1     -34.054  18.489  -3.454  1.00 20.00     0.002 C 
HETATM    2  C2  UNL     1     -33.670  17.016  -3.612  1.00 20.00     0.005 C 
HETATM    3  C3  UNL     1     -34.862  18.786  -2.189  1.00 20.00     0.020 C 
HETATM    4  C4  UNL     1     -34.712  16.384  -1.381  1.00 20.00     0.024 C 
HETATM    5  C5  UNL     1     -34.647  16.086  -2.891  1.00 20.00    -0.013 C 
HETATM    6  C6  UNL     1     -34.519  17.865  -1.021  1.00 20.00     0.082 C 
HETATM    7 CL12 UNL     1     -32.832  18.163  -0.481  1.00 20.00    -0.125 Cl
ENDROOT
BRANCH   5   8
HETATM    8  C9  UNL     1     -34.297  14.619  -3.138  1.00 20.00     0.009 C 
BRANCH   8   9
HETATM    9  C11 UNL     1     -35.263  13.906  -4.104  1.00 20.00    -0.019 C 
HETATM   10  C8  UNL     1     -34.759  13.959  -5.550  1.00 20.00     0.010 C 
BRANCH   9  11
HETATM   11  C10 UNL     1     -36.661  14.547  -3.966  1.00 20.00    -0.000 C 
HETATM   12  C7  UNL     1     -37.183  15.169  -5.253  1.00 20.00     0.005 C 
ENDBRANCH   9  11
ENDBRANCH   8   9
ENDBRANCH   5   8
TORSDOF 3
ENDMDL
