MODEL 1
REMARK VINA RESULT:      -4.8      0.000      0.000
REMARK  1 active torsions:
REMARK  status: ('A' for Active; 'I' for Inactive)
REMARK    1  A    between atoms: C7_7  and  C9_9 
ROOT
HETATM    1  C1  UNL     1     -34.382  16.838  -0.774  1.00 20.00     0.012 C 
HETATM    2  C2  UNL     1     -34.805  16.218  -1.711  1.00 20.00    -0.117 C 
HETATM    3  C9  UNL     1     -35.333  15.465  -2.852  1.00 20.00     0.097 C 
ENDROOT
BRANCH   3   4
HETATM    4  C7  UNL     1     -34.207  14.747  -3.602  1.00 20.00    -0.002 C 
HETATM    5  C4  UNL     1     -33.041  15.695  -3.916  1.00 20.00     0.005 C 
HETATM    6  C3  UNL     1     -33.358  16.688  -5.034  1.00 20.00     0.002 C 
HETATM    7  C5  UNL     1     -33.853  15.981  -6.294  1.00 20.00     0.020 C 
HETATM    8  C8  UNL     1     -35.044  15.072  -5.993  1.00 20.00     0.082 C 
HETATM    9  C6  UNL     1     -34.720  14.069  -4.883  1.00 20.00     0.025 C 
HETATM   10 CL10 UNL     1     -35.525  14.197  -7.476  1.00 20.00    -0.125 Cl
ENDBRANCH   3   4
TORSDOF 1
ENDMDL
MODEL 2
REMARK VINA RESULT:      -4.6      1.365      2.120
REMARK  1 active torsions:
REMARK  status: ('A' for Active; 'I' for Inactive)
REMARK    1  A    between atoms: C7_7  and  C9_9 
ROOT
HETATM    1  C1  UNL     1     -34.736  16.972  -0.541  1.00 20.00     0.012 C 
HETATM    2  C2  UNL     1     -34.526  16.287  -1.503  1.00 20.00    -0.117 C 
HETATM    3  C9  UNL     1     -34.257  15.449  -2.675  1.00 20.00     0.097 C 
ENDROOT
BRANCH   3   4
HETATM    4  C7  UNL     1     -35.493  15.351  -3.573  1.00 20.00    -0.002 C 
HETATM    5  C4  UNL     1     -35.705  13.921  -4.092  1.00 20.00     0.005 C 
HETATM    6  C3  UNL     1     -34.701  13.518  -5.170  1.00 20.00     0.002 C 
HETATM    7  C5  UNL     1     -34.671  14.524  -6.318  1.00 20.00     0.020 C 
HETATM    8  C8  UNL     1     -34.414  15.943  -5.811  1.00 20.00     0.082 C 
HETATM    9  C6  UNL     1     -35.428  16.350  -4.740  1.00 20.00     0.025 C 
HETATM   10 CL10 UNL     1     -34.482  17.094  -7.177  1.00 20.00    -0.125 Cl
ENDBRANCH   3   4
TORSDOF 1
ENDMDL
MODEL 3
REMARK VINA RESULT:      -4.5      1.731      2.183
REMARK  1 active torsions:
REMARK  status: ('A' for Active; 'I' for Inactive)
REMARK    1  A    between atoms: C7_7  and  C9_9 
ROOT
HETATM    1  C1  UNL     1     -34.686  16.702  -0.774  1.00 20.00     0.012 C 
HETATM    2  C2  UNL     1     -34.350  16.191  -1.807  1.00 20.00    -0.117 C 
HETATM    3  C9  UNL     1     -33.932  15.577  -3.070  1.00 20.00     0.097 C 
ENDROOT
BRANCH   3   4
HETATM    4  C7  UNL     1     -34.847  14.405  -3.438  1.00 20.00    -0.002 C 
HETATM    5  C4  UNL     1     -34.346  13.667  -4.688  1.00 20.00     0.005 C 
HETATM    6  C3  UNL     1     -34.575  14.449  -5.980  1.00 20.00     0.002 C 
HETATM    7  C5  UNL     1     -36.034  14.872  -6.134  1.00 20.00     0.020 C 
HETATM    8  C8  UNL     1     -36.523  15.648  -4.912  1.00 20.00     0.082 C 
HETATM    9  C6  UNL     1     -36.305  14.858  -3.619  1.00 20.00     0.025 C 
HETATM   10 CL10 UNL     1     -38.258  16.037  -5.098  1.00 20.00    -0.125 Cl
ENDBRANCH   3   4
TORSDOF 1
ENDMDL
MODEL 4
REMARK VINA RESULT:      -4.4      1.415      1.854
REMARK  1 active torsions:
REMARK  status: ('A' for Active; 'I' for Inactive)
REMARK    1  A    between atoms: C7_7  and  C9_9 
ROOT
HETATM    1  C1  UNL     1     -33.987  18.069   0.305  1.00 20.00     0.012 C 
HETATM    2  C2  UNL     1     -34.300  17.272  -0.536  1.00 20.00    -0.117 C 
HETATM    3  C9  UNL     1     -34.691  16.296  -1.556  1.00 20.00     0.097 C 
ENDROOT
BRANCH   3   4
HETATM    4  C7  UNL     1     -33.633  16.202  -2.659  1.00 20.00    -0.002 C 
HETATM    5  C4  UNL     1     -33.765  17.350  -3.670  1.00 20.00     0.005 C 
HETATM    6  C3  UNL     1     -34.967  17.196  -4.600  1.00 20.00     0.002 C 
HETATM    7  C5  UNL     1     -34.970  15.838  -5.299  1.00 20.00     0.020 C 
HETATM    8  C8  UNL     1     -34.886  14.691  -4.293  1.00 20.00     0.082 C 
HETATM    9  C6  UNL     1     -33.674  14.840  -3.371  1.00 20.00     0.025 C 
HETATM   10 CL10 UNL     1     -34.797  13.131  -5.162  1.00 20.00    -0.125 Cl
ENDBRANCH   3   4
TORSDOF 1
ENDMDL
MODEL 5
REMARK VINA RESULT:      -4.3      2.105      2.873
REMARK  1 active torsions:
REMARK  status: ('A' for Active; 'I' for Inactive)
REMARK    1  A    between atoms: C7_7  and  C9_9 
ROOT
HETATM    1  C1  UNL     1     -35.414  17.648   0.882  1.00 20.00     0.012 C 
HETATM    2  C2  UNL     1     -34.761  17.300  -0.063  1.00 20.00    -0.117 C 
HETATM    3  C9  UNL     1     -33.953  16.878  -1.210  1.00 20.00     0.097 C 
ENDROOT
BRANCH   3   4
HETATM    4  C7  UNL     1     -34.844  16.443  -2.377  1.00 20.00    -0.002 C 
HETATM    5  C4  UNL     1     -34.382  15.106  -2.976  1.00 20.00     0.005 C 
HETATM    6  C3  UNL     1     -33.101  15.228  -3.800  1.00 20.00     0.002 C 
HETATM    7  C5  UNL     1     -33.223  16.305  -4.876  1.00 20.00     0.020 C 
HETATM    8  C8  UNL     1     -33.638  17.648  -4.278  1.00 20.00     0.082 C 
HETATM    9  C6  UNL     1     -34.928  17.527  -3.464  1.00 20.00     0.025 C 
HETATM   10 CL10 UNL     1     -33.858  18.848  -5.585  1.00 20.00    -0.125 Cl
ENDBRANCH   3   4
TORSDOF 1
ENDMDL
MODEL 6
REMARK VINA RESULT:      -4.3     11.399     12.449
REMARK  1 active torsions:
REMARK  status: ('A' for Active; 'I' for Inactive)
REMARK    1  A    between atoms: C7_7  and  C9_9 
ROOT
HETATM    1  C1  UNL     1     -31.609   8.771   0.665  1.00 20.00     0.012 C 
HETATM    2  C2  UNL     1     -32.128   8.455   1.700  1.00 20.00    -0.117 C 
HETATM    3  C9  UNL     1     -32.765   8.081   2.965  1.00 20.00     0.097 C 
ENDROOT
BRANCH   3   4
HETATM    4  C7  UNL     1     -32.387   6.653   3.368  1.00 20.00    -0.002 C 
HETATM    5  C4  UNL     1     -32.978   5.616   2.402  1.00 20.00     0.005 C 
HETATM    6  C3  UNL     1     -34.485   5.428   2.572  1.00 20.00     0.002 C 
HETATM    7  C5  UNL     1     -34.855   5.111   4.019  1.00 20.00     0.020 C 
HETATM    8  C8  UNL     1     -34.308   6.166   4.980  1.00 20.00     0.082 C 
HETATM    9  C6  UNL     1     -32.796   6.344   4.818  1.00 20.00     0.025 C 
HETATM   10 CL10 UNL     1     -34.684   5.701   6.664  1.00 20.00    -0.125 Cl
ENDBRANCH   3   4
TORSDOF 1
ENDMDL
MODEL 7
REMARK VINA RESULT:      -4.2      2.020      3.214
REMARK  1 active torsions:
REMARK  status: ('A' for Active; 'I' for Inactive)
REMARK    1  A    between atoms: C7_7  and  C9_9 
ROOT
HETATM    1  C1  UNL     1     -33.706  18.892  -4.653  1.00 20.00     0.012 C 
HETATM    2  C2  UNL     1     -33.476  17.719  -4.759  1.00 20.00    -0.117 C 
HETATM    3  C9  UNL     1     -33.191  16.288  -4.899  1.00 20.00     0.097 C 
ENDROOT
BRANCH   3   4
HETATM    4  C7  UNL     1     -33.534  15.532  -3.612  1.00 20.00    -0.002 C 
HETATM    5  C4  UNL     1     -33.175  14.043  -3.717  1.00 20.00     0.005 C 
HETATM    6  C3  UNL     1     -34.130  13.256  -4.614  1.00 20.00     0.002 C 
HETATM    7  C5  UNL     1     -35.585  13.447  -4.194  1.00 20.00     0.020 C 
HETATM    8  C8  UNL     1     -35.960  14.928  -4.134  1.00 20.00     0.082 C 
HETATM    9  C6  UNL     1     -35.011  15.712  -3.225  1.00 20.00     0.025 C 
HETATM   10 CL10 UNL     1     -37.640  15.101  -3.548  1.00 20.00    -0.125 Cl
ENDBRANCH   3   4
TORSDOF 1
ENDMDL
MODEL 8
REMARK VINA RESULT:      -4.1      2.480      4.530
REMARK  1 active torsions:
REMARK  status: ('A' for Active; 'I' for Inactive)
REMARK    1  A    between atoms: C7_7  and  C9_9 
ROOT
HETATM    1  C1  UNL     1     -35.554  14.403  -7.901  1.00 20.00     0.012 C 
HETATM    2  C2  UNL     1     -34.906  14.903  -7.024  1.00 20.00    -0.117 C 
HETATM    3  C9  UNL     1     -34.111  15.523  -5.960  1.00 20.00     0.097 C 
ENDROOT
BRANCH   3   4
HETATM    4  C7  UNL     1     -34.026  14.607  -4.736  1.00 20.00    -0.002 C 
HETATM    5  C4  UNL     1     -35.399  14.029  -4.363  1.00 20.00     0.005 C 
HETATM    6  C3  UNL     1     -36.329  15.056  -3.720  1.00 20.00     0.002 C 
HETATM    7  C5  UNL     1     -35.673  15.740  -2.522  1.00 20.00     0.020 C 
HETATM    8  C8  UNL     1     -34.327  16.357  -2.900  1.00 20.00     0.082 C 
HETATM    9  C6  UNL     1     -33.391  15.324  -3.533  1.00 20.00     0.025 C 
HETATM   10 CL10 UNL     1     -33.557  17.061  -1.448  1.00 20.00    -0.125 Cl
ENDBRANCH   3   4
TORSDOF 1
ENDMDL
MODEL 9
REMARK VINA RESULT:      -4.0     12.451     13.896
REMARK  1 active torsions:
REMARK  status: ('A' for Active; 'I' for Inactive)
REMARK    1  A    between atoms: C7_7  and  C9_9 
ROOT
HETATM    1  C1  UNL     1     -41.185   1.955  -3.877  1.00 20.00     0.012 C 
HETATM    2  C2  UNL     1     -41.731   2.657  -3.071  1.00 20.00    -0.117 C 
HETATM    3  C9  UNL     1     -42.408   3.509  -2.089  1.00 20.00     0.097 C 
ENDROOT
BRANCH   3   4
HETATM    4  C7  UNL     1     -41.482   4.628  -1.604  1.00 20.00    -0.002 C 
HETATM    5  C4  UNL     1     -41.473   4.731  -0.071  1.00 20.00     0.005 C 
HETATM    6  C3  UNL     1     -42.755   5.338   0.497  1.00 20.00     0.002 C 
HETATM    7  C5  UNL     1     -43.077   6.684  -0.148  1.00 20.00     0.020 C 
HETATM    8  C8  UNL     1     -43.132   6.575  -1.671  1.00 20.00     0.082 C 
HETATM    9  C6  UNL     1     -41.843   5.980  -2.240  1.00 20.00     0.025 C 
HETATM   10 CL10 UNL     1     -43.417   8.191  -2.382  1.00 20.00    -0.125 Cl
ENDBRANCH   3   4
TORSDOF 1
ENDMDL
