MODEL 1
REMARK VINA RESULT:      -5.3      0.000      0.000
REMARK  6 active torsions:
REMARK  status: ('A' for Active; 'I' for Inactive)
REMARK    1  A    between atoms: C2_2  and  C7_7 
REMARK    2  A    between atoms: C5_5  and  C10_10 
REMARK    3  A    between atoms: C7_7  and  C8_8 
REMARK    4  A    between atoms: C8_8  and  C9_9 
REMARK    5  A    between atoms: C9_9  and  C10_10 
REMARK    6  A    between atoms: C10_10  and  O11_11 
ROOT
HETATM    1  C1  UNL     1     -32.170   8.804   1.407  1.00 20.00    -0.111 C 
HETATM    2  C2  UNL     1     -31.975   8.079   2.345  1.00 20.00    -0.107 C 
HETATM    3  C6  UNL     1     -32.407   9.685   0.265  1.00 20.00     0.112 C 
ENDROOT
BRANCH   2   4
HETATM    4  C7  UNL     1     -31.737   7.191   3.491  1.00 20.00     0.094 C 
BRANCH   4   5
HETATM    5  C8  UNL     1     -32.216   5.769   3.195  1.00 20.00     0.014 C 
BRANCH   5   6
HETATM    6  C9  UNL     1     -33.697   5.752   2.811  1.00 20.00     0.033 C 
BRANCH   6   7
HETATM    7  C10 UNL     1     -34.639   5.939   4.005  1.00 20.00     0.122 C 
BRANCH   7   8
HETATM    8  C5  UNL     1     -34.178   5.219   5.238  1.00 20.00     0.014 A 
HETATM    9  C3  UNL     1     -34.387   5.832   6.596  1.00 20.00     0.007 A 
HETATM   10  C4  UNL     1     -35.181   4.623   6.187  1.00 20.00     0.007 A 
ENDBRANCH   7   8
BRANCH   7  11
HETATM   11  O11 UNL     1     -35.917   5.427   3.622  1.00 20.00    -0.395 OA
HETATM   12  H27 UNL     1     -35.751   4.779   2.921  1.00 20.00     0.210 HD
ENDBRANCH   7  11
ENDBRANCH   6   7
ENDBRANCH   5   6
ENDBRANCH   4   5
ENDBRANCH   2   4
TORSDOF 6
ENDMDL
MODEL 2
REMARK VINA RESULT:      -4.9     10.635     12.077
REMARK  6 active torsions:
REMARK  status: ('A' for Active; 'I' for Inactive)
REMARK    1  A    between atoms: C2_2  and  C7_7 
REMARK    2  A    between atoms: C5_5  and  C10_10 
REMARK    3  A    between atoms: C7_7  and  C8_8 
REMARK    4  A    between atoms: C8_8  and  C9_9 
REMARK    5  A    between atoms: C9_9  and  C10_10 
REMARK    6  A    between atoms: C10_10  and  O11_11 
ROOT
HETATM    1  C1  UNL     1     -34.762  17.211   0.121  1.00 20.00    -0.111 C 
HETATM    2  C2  UNL     1     -34.348  16.864  -0.952  1.00 20.00    -0.107 C 
HETATM    3  C6  UNL     1     -35.267  17.635   1.426  1.00 20.00     0.112 C 
ENDROOT
BRANCH   2   4
HETATM    4  C7  UNL     1     -33.838  16.438  -2.262  1.00 20.00     0.094 C 
BRANCH   4   5
HETATM    5  C8  UNL     1     -34.640  15.256  -2.808  1.00 20.00     0.014 C 
BRANCH   5   6
HETATM    6  C9  UNL     1     -33.720  14.205  -3.434  1.00 20.00     0.033 C 
BRANCH   6   7
HETATM    7  C10 UNL     1     -34.262  13.624  -4.744  1.00 20.00     0.122 C 
BRANCH   7   8
HETATM    8  C5  UNL     1     -34.942  14.647  -5.607  1.00 20.00     0.014 A 
HETATM    9  C3  UNL     1     -34.249  15.189  -6.827  1.00 20.00     0.007 A 
HETATM   10  C4  UNL     1     -35.433  14.274  -6.978  1.00 20.00     0.007 A 
ENDBRANCH   7   8
BRANCH   7  11
HETATM   11  O11 UNL     1     -35.206  12.608  -4.400  1.00 20.00    -0.395 OA
HETATM   12  H27 UNL     1     -34.770  12.042  -3.746  1.00 20.00     0.210 HD
ENDBRANCH   7  11
ENDBRANCH   6   7
ENDBRANCH   5   6
ENDBRANCH   4   5
ENDBRANCH   2   4
TORSDOF 6
ENDMDL
MODEL 3
REMARK VINA RESULT:      -4.5      1.482      4.571
REMARK  6 active torsions:
REMARK  status: ('A' for Active; 'I' for Inactive)
REMARK    1  A    between atoms: C2_2  and  C7_7 
REMARK    2  A    between atoms: C5_5  and  C10_10 
REMARK    3  A    between atoms: C7_7  and  C8_8 
REMARK    4  A    between atoms: C8_8  and  C9_9 
REMARK    5  A    between atoms: C9_9  and  C10_10 
REMARK    6  A    between atoms: C10_10  and  O11_11 
ROOT
HETATM    1  C1  UNL     1     -33.957   6.524   6.741  1.00 20.00    -0.111 C 
HETATM    2  C2  UNL     1     -34.510   5.504   6.431  1.00 20.00    -0.107 C 
HETATM    3  C6  UNL     1     -33.284   7.766   7.119  1.00 20.00     0.112 C 
ENDROOT
BRANCH   2   4
HETATM    4  C7  UNL     1     -35.184   4.255   6.050  1.00 20.00     0.094 C 
BRANCH   4   5
HETATM    5  C8  UNL     1     -35.167   4.060   4.533  1.00 20.00     0.014 C 
BRANCH   5   6
HETATM    6  C9  UNL     1     -35.025   5.397   3.804  1.00 20.00     0.033 C 
BRANCH   6   7
HETATM    7  C10 UNL     1     -33.646   5.600   3.166  1.00 20.00     0.122 C 
BRANCH   7   8
HETATM    8  C5  UNL     1     -33.153   7.014   3.263  1.00 20.00     0.014 A 
HETATM    9  C3  UNL     1     -31.743   7.295   3.704  1.00 20.00     0.007 A 
HETATM   10  C4  UNL     1     -32.146   7.533   2.275  1.00 20.00     0.007 A 
ENDBRANCH   7   8
BRANCH   7  11
HETATM   11  O11 UNL     1     -33.761   5.244   1.787  1.00 20.00    -0.395 OA
HETATM   12  H27 UNL     1     -33.150   4.506   1.645  1.00 20.00     0.210 HD
ENDBRANCH   7  11
ENDBRANCH   6   7
ENDBRANCH   5   6
ENDBRANCH   4   5
ENDBRANCH   2   4
TORSDOF 6
ENDMDL
MODEL 4
REMARK VINA RESULT:      -4.4     11.001     11.659
REMARK  6 active torsions:
REMARK  status: ('A' for Active; 'I' for Inactive)
REMARK    1  A    between atoms: C2_2  and  C7_7 
REMARK    2  A    between atoms: C5_5  and  C10_10 
REMARK    3  A    between atoms: C7_7  and  C8_8 
REMARK    4  A    between atoms: C8_8  and  C9_9 
REMARK    5  A    between atoms: C9_9  and  C10_10 
REMARK    6  A    between atoms: C10_10  and  O11_11 
ROOT
HETATM    1  C1  UNL     1     -34.372  16.850  -1.029  1.00 20.00    -0.111 C 
HETATM    2  C2  UNL     1     -33.891  16.559  -2.091  1.00 20.00    -0.107 C 
HETATM    3  C6  UNL     1     -34.958  17.205   0.262  1.00 20.00     0.112 C 
ENDROOT
BRANCH   2   4
HETATM    4  C7  UNL     1     -33.302  16.205  -3.390  1.00 20.00     0.094 C 
BRANCH   4   5
HETATM    5  C8  UNL     1     -33.481  14.716  -3.689  1.00 20.00     0.014 C 
BRANCH   5   6
HETATM    6  C9  UNL     1     -34.307  14.500  -4.959  1.00 20.00     0.033 C 
BRANCH   6   7
HETATM    7  C10 UNL     1     -35.661  13.832  -4.698  1.00 20.00     0.122 C 
BRANCH   7   8
HETATM    8  C5  UNL     1     -36.532  14.611  -3.756  1.00 20.00     0.014 A 
HETATM    9  C3  UNL     1     -37.131  15.921  -4.186  1.00 20.00     0.007 A 
HETATM   10  C4  UNL     1     -38.011  14.716  -4.004  1.00 20.00     0.007 A 
ENDBRANCH   7   8
BRANCH   7  11
HETATM   11  O11 UNL     1     -35.398  12.548  -4.131  1.00 20.00    -0.395 OA
HETATM   12  H27 UNL     1     -36.058  11.945  -4.504  1.00 20.00     0.210 HD
ENDBRANCH   7  11
ENDBRANCH   6   7
ENDBRANCH   5   6
ENDBRANCH   4   5
ENDBRANCH   2   4
TORSDOF 6
ENDMDL
MODEL 5
REMARK VINA RESULT:      -4.4      1.448      1.755
REMARK  6 active torsions:
REMARK  status: ('A' for Active; 'I' for Inactive)
REMARK    1  A    between atoms: C2_2  and  C7_7 
REMARK    2  A    between atoms: C5_5  and  C10_10 
REMARK    3  A    between atoms: C7_7  and  C8_8 
REMARK    4  A    between atoms: C8_8  and  C9_9 
REMARK    5  A    between atoms: C9_9  and  C10_10 
REMARK    6  A    between atoms: C10_10  and  O11_11 
ROOT
HETATM    1  C1  UNL     1     -32.161   8.837   1.361  1.00 20.00    -0.111 C 
HETATM    2  C2  UNL     1     -31.962   8.022   2.220  1.00 20.00    -0.107 C 
HETATM    3  C6  UNL     1     -32.404   9.829   0.315  1.00 20.00     0.112 C 
ENDROOT
BRANCH   2   4
HETATM    4  C7  UNL     1     -31.717   7.023   3.270  1.00 20.00     0.094 C 
BRANCH   4   5
HETATM    5  C8  UNL     1     -32.922   6.097   3.442  1.00 20.00     0.014 C 
BRANCH   5   6
HETATM    6  C9  UNL     1     -33.940   6.689   4.418  1.00 20.00     0.033 C 
BRANCH   6   7
HETATM    7  C10 UNL     1     -33.808   6.142   5.844  1.00 20.00     0.122 C 
BRANCH   7   8
HETATM    8  C5  UNL     1     -34.812   5.073   6.161  1.00 20.00     0.014 A 
HETATM    9  C3  UNL     1     -35.417   4.250   5.057  1.00 20.00     0.007 A 
HETATM   10  C4  UNL     1     -34.444   3.623   6.016  1.00 20.00     0.007 A 
ENDBRANCH   7   8
BRANCH   7  11
HETATM   11  O11 UNL     1     -34.001   7.239   6.738  1.00 20.00    -0.395 OA
HETATM   12  H27 UNL     1     -34.044   8.035   6.188  1.00 20.00     0.210 HD
ENDBRANCH   7  11
ENDBRANCH   6   7
ENDBRANCH   5   6
ENDBRANCH   4   5
ENDBRANCH   2   4
TORSDOF 6
ENDMDL
MODEL 6
REMARK VINA RESULT:      -4.4     11.268     12.652
REMARK  6 active torsions:
REMARK  status: ('A' for Active; 'I' for Inactive)
REMARK    1  A    between atoms: C2_2  and  C7_7 
REMARK    2  A    between atoms: C5_5  and  C10_10 
REMARK    3  A    between atoms: C7_7  and  C8_8 
REMARK    4  A    between atoms: C8_8  and  C9_9 
REMARK    5  A    between atoms: C9_9  and  C10_10 
REMARK    6  A    between atoms: C10_10  and  O11_11 
ROOT
HETATM    1  C1  UNL     1     -35.014  17.385   0.732  1.00 20.00    -0.111 C 
HETATM    2  C2  UNL     1     -34.616  17.161  -0.379  1.00 20.00    -0.107 C 
HETATM    3  C6  UNL     1     -35.499  17.658   2.084  1.00 20.00     0.112 C 
ENDROOT
BRANCH   2   4
HETATM    4  C7  UNL     1     -34.130  16.889  -1.739  1.00 20.00     0.094 C 
BRANCH   4   5
HETATM    5  C8  UNL     1     -34.794  15.641  -2.323  1.00 20.00     0.014 C 
BRANCH   5   6
HETATM    6  C9  UNL     1     -33.874  14.942  -3.326  1.00 20.00     0.033 C 
BRANCH   6   7
HETATM    7  C10 UNL     1     -33.916  15.564  -4.727  1.00 20.00     0.122 C 
BRANCH   7   8
HETATM    8  C5  UNL     1     -34.465  14.634  -5.769  1.00 20.00     0.014 A 
HETATM    9  C3  UNL     1     -35.729  14.984  -6.505  1.00 20.00     0.007 A 
HETATM   10  C4  UNL     1     -34.408  15.011  -7.224  1.00 20.00     0.007 A 
ENDBRANCH   7   8
BRANCH   7  11
HETATM   11  O11 UNL     1     -32.575  15.911  -5.076  1.00 20.00    -0.395 OA
HETATM   12  H27 UNL     1     -32.105  16.057  -4.242  1.00 20.00     0.210 HD
ENDBRANCH   7  11
ENDBRANCH   6   7
ENDBRANCH   5   6
ENDBRANCH   4   5
ENDBRANCH   2   4
TORSDOF 6
ENDMDL
MODEL 7
REMARK VINA RESULT:      -4.3     10.862     12.408
REMARK  6 active torsions:
REMARK  status: ('A' for Active; 'I' for Inactive)
REMARK    1  A    between atoms: C2_2  and  C7_7 
REMARK    2  A    between atoms: C5_5  and  C10_10 
REMARK    3  A    between atoms: C7_7  and  C8_8 
REMARK    4  A    between atoms: C8_8  and  C9_9 
REMARK    5  A    between atoms: C9_9  and  C10_10 
REMARK    6  A    between atoms: C10_10  and  O11_11 
ROOT
HETATM    1  C1  UNL     1     -34.769  15.992  -6.946  1.00 20.00    -0.111 C 
HETATM    2  C2  UNL     1     -34.904  14.908  -6.447  1.00 20.00    -0.107 C 
HETATM    3  C6  UNL     1     -34.603  17.311  -7.554  1.00 20.00     0.112 C 
ENDROOT
BRANCH   2   4
HETATM    4  C7  UNL     1     -35.068  13.583  -5.834  1.00 20.00     0.094 C 
BRANCH   4   5
HETATM    5  C8  UNL     1     -34.958  13.662  -4.310  1.00 20.00     0.014 C 
BRANCH   5   6
HETATM    6  C9  UNL     1     -33.495  13.673  -3.861  1.00 20.00     0.033 C 
BRANCH   6   7
HETATM    7  C10 UNL     1     -33.008  15.052  -3.403  1.00 20.00     0.122 C 
BRANCH   7   8
HETATM    8  C5  UNL     1     -34.128  15.982  -3.038  1.00 20.00     0.014 A 
HETATM    9  C3  UNL     1     -34.232  16.529  -1.641  1.00 20.00     0.007 A 
HETATM   10  C4  UNL     1     -33.849  17.436  -2.777  1.00 20.00     0.007 A 
ENDBRANCH   7   8
BRANCH   7  11
HETATM   11  O11 UNL     1     -32.268  15.621  -4.485  1.00 20.00    -0.395 OA
HETATM   12  H27 UNL     1     -32.876  15.663  -5.238  1.00 20.00     0.210 HD
ENDBRANCH   7  11
ENDBRANCH   6   7
ENDBRANCH   5   6
ENDBRANCH   4   5
ENDBRANCH   2   4
TORSDOF 6
ENDMDL
MODEL 8
REMARK VINA RESULT:      -4.3     10.979     11.972
REMARK  6 active torsions:
REMARK  status: ('A' for Active; 'I' for Inactive)
REMARK    1  A    between atoms: C2_2  and  C7_7 
REMARK    2  A    between atoms: C5_5  and  C10_10 
REMARK    3  A    between atoms: C7_7  and  C8_8 
REMARK    4  A    between atoms: C8_8  and  C9_9 
REMARK    5  A    between atoms: C9_9  and  C10_10 
REMARK    6  A    between atoms: C10_10  and  O11_11 
ROOT
HETATM    1  C1  UNL     1     -35.305  17.724   1.607  1.00 20.00    -0.111 C 
HETATM    2  C2  UNL     1     -35.237  17.695   0.408  1.00 20.00    -0.107 C 
HETATM    3  C6  UNL     1     -35.390  17.760   3.066  1.00 20.00     0.112 C 
ENDROOT
BRANCH   2   4
HETATM    4  C7  UNL     1     -35.150  17.662  -1.059  1.00 20.00     0.094 C 
BRANCH   4   5
HETATM    5  C8  UNL     1     -34.713  16.282  -1.554  1.00 20.00     0.014 C 
BRANCH   5   6
HETATM    6  C9  UNL     1     -33.544  16.390  -2.535  1.00 20.00     0.033 C 
BRANCH   6   7
HETATM    7  C10 UNL     1     -33.781  15.640  -3.850  1.00 20.00     0.122 C 
BRANCH   7   8
HETATM    8  C5  UNL     1     -34.168  14.204  -3.649  1.00 20.00     0.014 A 
HETATM    9  C3  UNL     1     -35.517  13.713  -4.098  1.00 20.00     0.007 A 
HETATM   10  C4  UNL     1     -34.278  13.278  -4.829  1.00 20.00     0.007 A 
ENDBRANCH   7   8
BRANCH   7  11
HETATM   11  O11 UNL     1     -32.562  15.692  -4.593  1.00 20.00    -0.395 OA
HETATM   12  H27 UNL     1     -32.521  14.871  -5.106  1.00 20.00     0.210 HD
ENDBRANCH   7  11
ENDBRANCH   6   7
ENDBRANCH   5   6
ENDBRANCH   4   5
ENDBRANCH   2   4
TORSDOF 6
ENDMDL
MODEL 9
REMARK VINA RESULT:      -4.3     10.594     12.660
REMARK  6 active torsions:
REMARK  status: ('A' for Active; 'I' for Inactive)
REMARK    1  A    between atoms: C2_2  and  C7_7 
REMARK    2  A    between atoms: C5_5  and  C10_10 
REMARK    3  A    between atoms: C7_7  and  C8_8 
REMARK    4  A    between atoms: C8_8  and  C9_9 
REMARK    5  A    between atoms: C9_9  and  C10_10 
REMARK    6  A    between atoms: C10_10  and  O11_11 
ROOT
HETATM    1  C1  UNL     1     -33.713  18.248  -4.667  1.00 20.00    -0.111 C 
HETATM    2  C2  UNL     1     -33.767  17.482  -3.743  1.00 20.00    -0.107 C 
HETATM    3  C6  UNL     1     -33.647  19.180  -5.791  1.00 20.00     0.112 C 
ENDROOT
BRANCH   2   4
HETATM    4  C7  UNL     1     -33.833  16.547  -2.611  1.00 20.00     0.094 C 
BRANCH   4   5
HETATM    5  C8  UNL     1     -34.738  15.356  -2.932  1.00 20.00     0.014 C 
BRANCH   5   6
HETATM    6  C9  UNL     1     -33.918  14.138  -3.363  1.00 20.00     0.033 C 
BRANCH   6   7
HETATM    7  C10 UNL     1     -34.227  13.670  -4.789  1.00 20.00     0.122 C 
BRANCH   7   8
HETATM    8  C5  UNL     1     -34.911  14.717  -5.619  1.00 20.00     0.014 A 
HETATM    9  C3  UNL     1     -34.252  15.246  -6.863  1.00 20.00     0.007 A 
HETATM   10  C4  UNL     1     -35.466  14.366  -6.972  1.00 20.00     0.007 A 
ENDBRANCH   7   8
BRANCH   7  11
HETATM   11  O11 UNL     1     -35.082  12.530  -4.686  1.00 20.00    -0.395 OA
HETATM   12  H27 UNL     1     -35.925  12.785  -5.088  1.00 20.00     0.210 HD
ENDBRANCH   7  11
ENDBRANCH   6   7
ENDBRANCH   5   6
ENDBRANCH   4   5
ENDBRANCH   2   4
TORSDOF 6
ENDMDL
