MODEL 1
REMARK VINA RESULT:      -4.7      0.000      0.000
REMARK  4 active torsions:
REMARK  status: ('A' for Active; 'I' for Inactive)
REMARK    1  A    between atoms: C5_5  and  C8_8 
REMARK    2  A    between atoms: C6_6  and  C9_9 
REMARK    3  A    between atoms: C9_9  and  C10_10 
REMARK    4  A    between atoms: C10_10  and  C11_11 
ROOT
HETATM    1  C1  UNL     1     -36.437  14.739  -3.827  1.00 20.00     0.001 C 
HETATM    2  C2  UNL     1     -35.512  13.701  -4.459  1.00 20.00     0.005 C 
HETATM    3  C3  UNL     1     -35.750  15.489  -2.689  1.00 20.00     0.005 C 
HETATM    4  C4  UNL     1     -33.504  15.076  -3.772  1.00 20.00     0.009 C 
HETATM    5  C5  UNL     1     -34.170  14.290  -4.913  1.00 20.00    -0.014 C 
HETATM    6  C6  UNL     1     -34.430  16.126  -3.139  1.00 20.00    -0.014 C 
ENDROOT
BRANCH   6   7
HETATM    7  C9  UNL     1     -33.736  16.812  -1.962  1.00 20.00     0.005 C 
BRANCH   7   8
HETATM    8  C10 UNL     1     -34.582  16.719  -0.696  1.00 20.00     0.015 C 
BRANCH   8   9
HETATM    9  C11 UNL     1     -34.288  17.888   0.234  1.00 20.00     0.114 C 
HETATM   10 CL12 UNL     1     -32.648  18.513  -0.053  1.00 20.00    -0.130 Cl
ENDBRANCH   8   9
ENDBRANCH   7   8
ENDBRANCH   6   7
BRANCH   5  11
HETATM   11  C8  UNL     1     -34.323  15.143  -6.175  1.00 20.00     0.000 C 
HETATM   12  C7  UNL     1     -35.095  14.426  -7.234  1.00 20.00     0.005 C 
ENDBRANCH   5  11
TORSDOF 4
ENDMDL
MODEL 2
REMARK VINA RESULT:      -4.6      1.473      2.308
REMARK  4 active torsions:
REMARK  status: ('A' for Active; 'I' for Inactive)
REMARK    1  A    between atoms: C5_5  and  C8_8 
REMARK    2  A    between atoms: C6_6  and  C9_9 
REMARK    3  A    between atoms: C9_9  and  C10_10 
REMARK    4  A    between atoms: C10_10  and  C11_11 
ROOT
HETATM    1  C1  UNL     1     -33.837  16.954  -4.583  1.00 20.00     0.001 C 
HETATM    2  C2  UNL     1     -35.094  16.089  -4.628  1.00 20.00     0.005 C 
HETATM    3  C3  UNL     1     -33.719  17.710  -3.263  1.00 20.00     0.005 C 
HETATM    4  C4  UNL     1     -35.053  15.901  -2.107  1.00 20.00     0.009 C 
HETATM    5  C5  UNL     1     -35.211  15.137  -3.431  1.00 20.00    -0.014 C 
HETATM    6  C6  UNL     1     -33.785  16.767  -2.055  1.00 20.00    -0.014 C 
ENDROOT
BRANCH   6   7
HETATM    7  C9  UNL     1     -33.731  17.561  -0.750  1.00 20.00     0.005 C 
BRANCH   7   8
HETATM    8  C10 UNL     1     -34.921  17.232   0.143  1.00 20.00     0.015 C 
BRANCH   8   9
HETATM    9  C11 UNL     1     -34.824  17.977   1.467  1.00 20.00     0.114 C 
HETATM   10 CL12 UNL     1     -33.194  18.658   1.677  1.00 20.00    -0.130 Cl
ENDBRANCH   8   9
ENDBRANCH   7   8
ENDBRANCH   6   7
BRANCH   5  11
HETATM   11  C8  UNL     1     -34.223  13.972  -3.535  1.00 20.00     0.000 C 
HETATM   12  C7  UNL     1     -34.427  13.186  -4.788  1.00 20.00     0.005 C 
ENDBRANCH   5  11
TORSDOF 4
ENDMDL
MODEL 3
REMARK VINA RESULT:      -4.6      2.631      5.672
REMARK  4 active torsions:
REMARK  status: ('A' for Active; 'I' for Inactive)
REMARK    1  A    between atoms: C5_5  and  C8_8 
REMARK    2  A    between atoms: C6_6  and  C9_9 
REMARK    3  A    between atoms: C9_9  and  C10_10 
REMARK    4  A    between atoms: C10_10  and  C11_11 
ROOT
HETATM    1  C1  UNL     1     -34.816  17.155   0.216  1.00 20.00     0.001 C 
HETATM    2  C2  UNL     1     -34.603  18.666   0.172  1.00 20.00     0.005 C 
HETATM    3  C3  UNL     1     -34.916  16.558  -1.185  1.00 20.00     0.005 C 
HETATM    4  C4  UNL     1     -33.495  18.443  -2.090  1.00 20.00     0.009 C 
HETATM    5  C5  UNL     1     -33.405  19.079  -0.694  1.00 20.00    -0.014 C 
HETATM    6  C6  UNL     1     -33.702  16.921  -2.049  1.00 20.00    -0.014 C 
ENDROOT
BRANCH   6   7
HETATM    7  C9  UNL     1     -33.865  16.364  -3.464  1.00 20.00     0.005 C 
BRANCH   7   8
HETATM    8  C10 UNL     1     -33.018  15.112  -3.662  1.00 20.00     0.015 C 
BRANCH   8   9
HETATM    9  C11 UNL     1     -33.885  13.861  -3.617  1.00 20.00     0.114 C 
HETATM   10 CL12 UNL     1     -35.587  14.276  -3.925  1.00 20.00    -0.130 Cl
ENDBRANCH   8   9
ENDBRANCH   7   8
ENDBRANCH   6   7
BRANCH   5  11
HETATM   11  C8  UNL     1     -32.074  18.759  -0.009  1.00 20.00     0.000 C 
HETATM   12  C7  UNL     1     -32.045  19.257   1.398  1.00 20.00     0.005 C 
ENDBRANCH   5  11
TORSDOF 4
ENDMDL
MODEL 4
REMARK VINA RESULT:      -4.6     11.277     12.199
REMARK  4 active torsions:
REMARK  status: ('A' for Active; 'I' for Inactive)
REMARK    1  A    between atoms: C5_5  and  C8_8 
REMARK    2  A    between atoms: C6_6  and  C9_9 
REMARK    3  A    between atoms: C9_9  and  C10_10 
REMARK    4  A    between atoms: C10_10  and  C11_11 
ROOT
HETATM    1  C1  UNL     1     -34.463   4.873   2.908  1.00 20.00     0.001 C 
HETATM    2  C2  UNL     1     -35.402   5.507   3.931  1.00 20.00     0.005 C 
HETATM    3  C3  UNL     1     -33.372   5.845   2.466  1.00 20.00     0.005 C 
HETATM    4  C4  UNL     1     -33.543   7.046   4.684  1.00 20.00     0.009 C 
HETATM    5  C5  UNL     1     -34.664   6.100   5.139  1.00 20.00    -0.014 C 
HETATM    6  C6  UNL     1     -32.591   6.409   3.659  1.00 20.00    -0.014 C 
ENDROOT
BRANCH   6   7
HETATM    7  C9  UNL     1     -31.551   7.426   3.188  1.00 20.00     0.005 C 
BRANCH   7   8
HETATM    8  C10 UNL     1     -32.204   8.548   2.388  1.00 20.00     0.015 C 
BRANCH   8   9
HETATM    9  C11 UNL     1     -31.584   8.653   1.002  1.00 20.00     0.114 C 
HETATM   10 CL12 UNL     1     -32.829   9.049  -0.206  1.00 20.00    -0.130 Cl
ENDBRANCH   8   9
ENDBRANCH   7   8
ENDBRANCH   6   7
BRANCH   5  11
HETATM   11  C8  UNL     1     -34.139   5.006   6.074  1.00 20.00     0.000 C 
HETATM   12  C7  UNL     1     -35.081   3.851   6.154  1.00 20.00     0.005 C 
ENDBRANCH   5  11
TORSDOF 4
ENDMDL
MODEL 5
REMARK VINA RESULT:      -4.6      2.362      5.135
REMARK  4 active torsions:
REMARK  status: ('A' for Active; 'I' for Inactive)
REMARK    1  A    between atoms: C5_5  and  C8_8 
REMARK    2  A    between atoms: C6_6  and  C9_9 
REMARK    3  A    between atoms: C9_9  and  C10_10 
REMARK    4  A    between atoms: C10_10  and  C11_11 
ROOT
HETATM    1  C1  UNL     1     -35.656  18.242  -3.083  1.00 20.00     0.001 C 
HETATM    2  C2  UNL     1     -34.226  18.082  -2.572  1.00 20.00     0.005 C 
HETATM    3  C3  UNL     1     -36.115  17.015  -3.866  1.00 20.00     0.005 C 
HETATM    4  C4  UNL     1     -34.519  15.570  -2.542  1.00 20.00     0.009 C 
HETATM    5  C5  UNL     1     -34.018  16.795  -1.762  1.00 20.00    -0.014 C 
HETATM    6  C6  UNL     1     -35.961  15.725  -3.052  1.00 20.00    -0.014 C 
ENDROOT
BRANCH   6   7
HETATM    7  C9  UNL     1     -36.367  14.511  -3.887  1.00 20.00     0.005 C 
BRANCH   7   8
HETATM    8  C10 UNL     1     -35.154  13.664  -4.252  1.00 20.00     0.015 C 
BRANCH   8   9
HETATM    9  C11 UNL     1     -34.922  13.677  -5.757  1.00 20.00     0.114 C 
HETATM   10 CL12 UNL     1     -34.204  15.225  -6.261  1.00 20.00    -0.130 Cl
ENDBRANCH   8   9
ENDBRANCH   7   8
ENDBRANCH   6   7
BRANCH   5  11
HETATM   11  C8  UNL     1     -34.663  16.889  -0.376  1.00 20.00     0.000 C 
HETATM   12  C7  UNL     1     -34.129  18.044   0.404  1.00 20.00     0.005 C 
ENDBRANCH   5  11
TORSDOF 4
ENDMDL
MODEL 6
REMARK VINA RESULT:      -4.3      1.510      2.092
REMARK  4 active torsions:
REMARK  status: ('A' for Active; 'I' for Inactive)
REMARK    1  A    between atoms: C5_5  and  C8_8 
REMARK    2  A    between atoms: C6_6  and  C9_9 
REMARK    3  A    between atoms: C9_9  and  C10_10 
REMARK    4  A    between atoms: C10_10  and  C11_11 
ROOT
HETATM    1  C1  UNL     1     -34.771  13.266  -4.527  1.00 20.00     0.001 C 
HETATM    2  C2  UNL     1     -34.848  14.030  -5.847  1.00 20.00     0.005 C 
HETATM    3  C3  UNL     1     -34.060  14.076  -3.447  1.00 20.00     0.005 C 
HETATM    4  C4  UNL     1     -34.775  16.218  -4.582  1.00 20.00     0.009 C 
HETATM    5  C5  UNL     1     -35.472  15.425  -5.698  1.00 20.00    -0.014 C 
HETATM    6  C6  UNL     1     -34.702  15.455  -3.250  1.00 20.00    -0.014 C 
ENDROOT
BRANCH   6   7
HETATM    7  C9  UNL     1     -33.927  16.264  -2.210  1.00 20.00     0.005 C 
BRANCH   7   8
HETATM    8  C10 UNL     1     -34.804  16.596  -1.008  1.00 20.00     0.015 C 
BRANCH   8   9
HETATM    9  C11 UNL     1     -34.166  17.689  -0.161  1.00 20.00     0.114 C 
HETATM   10 CL12 UNL     1     -34.877  17.704   1.470  1.00 20.00    -0.130 Cl
ENDBRANCH   8   9
ENDBRANCH   7   8
ENDBRANCH   6   7
BRANCH   5  11
HETATM   11  C8  UNL     1     -36.985  15.348  -5.479  1.00 20.00     0.000 C 
HETATM   12  C7  UNL     1     -37.584  16.703  -5.294  1.00 20.00     0.005 C 
ENDBRANCH   5  11
TORSDOF 4
ENDMDL
MODEL 7
REMARK VINA RESULT:      -4.2      3.339      5.657
REMARK  4 active torsions:
REMARK  status: ('A' for Active; 'I' for Inactive)
REMARK    1  A    between atoms: C5_5  and  C8_8 
REMARK    2  A    between atoms: C6_6  and  C9_9 
REMARK    3  A    between atoms: C9_9  and  C10_10 
REMARK    4  A    between atoms: C10_10  and  C11_11 
ROOT
HETATM    1  C1  UNL     1     -33.295  16.617  -4.979  1.00 20.00     0.001 C 
HETATM    2  C2  UNL     1     -32.978  15.617  -3.869  1.00 20.00     0.005 C 
HETATM    3  C3  UNL     1     -33.807  15.919  -6.236  1.00 20.00     0.005 C 
HETATM    4  C4  UNL     1     -34.686  14.016  -4.824  1.00 20.00     0.009 C 
HETATM    5  C5  UNL     1     -34.153  14.684  -3.547  1.00 20.00    -0.014 C 
HETATM    6  C6  UNL     1     -35.013  15.019  -5.941  1.00 20.00    -0.014 C 
ENDROOT
BRANCH   6   7
HETATM    7  C9  UNL     1     -35.459  14.287  -7.207  1.00 20.00     0.005 C 
BRANCH   7   8
HETATM    8  C10 UNL     1     -36.573  15.046  -7.917  1.00 20.00     0.015 C 
BRANCH   8   9
HETATM    9  C11 UNL     1     -37.709  15.363  -6.954  1.00 20.00     0.114 C 
HETATM   10 CL12 UNL     1     -39.249  14.729  -7.581  1.00 20.00    -0.130 Cl
ENDBRANCH   8   9
ENDBRANCH   7   8
ENDBRANCH   6   7
BRANCH   5  11
HETATM   11  C8  UNL     1     -35.262  15.412  -2.782  1.00 20.00     0.000 C 
HETATM   12  C7  UNL     1     -34.717  16.186  -1.627  1.00 20.00     0.005 C 
ENDBRANCH   5  11
TORSDOF 4
ENDMDL
MODEL 8
REMARK VINA RESULT:      -4.2      2.712      5.736
REMARK  4 active torsions:
REMARK  status: ('A' for Active; 'I' for Inactive)
REMARK    1  A    between atoms: C5_5  and  C8_8 
REMARK    2  A    between atoms: C6_6  and  C9_9 
REMARK    3  A    between atoms: C9_9  and  C10_10 
REMARK    4  A    between atoms: C10_10  and  C11_11 
ROOT
HETATM    1  C1  UNL     1     -33.478  19.125  -2.058  1.00 20.00     0.001 C 
HETATM    2  C2  UNL     1     -33.153  18.861  -0.589  1.00 20.00     0.005 C 
HETATM    3  C3  UNL     1     -33.715  17.827  -2.825  1.00 20.00     0.005 C 
HETATM    4  C4  UNL     1     -34.462  16.700  -0.689  1.00 20.00     0.009 C 
HETATM    5  C5  UNL     1     -34.202  17.986   0.111  1.00 20.00    -0.014 C 
HETATM    6  C6  UNL     1     -34.797  16.962  -2.166  1.00 20.00    -0.014 C 
ENDROOT
BRANCH   6   7
HETATM    7  C9  UNL     1     -34.963  15.643  -2.920  1.00 20.00     0.005 C 
BRANCH   7   8
HETATM    8  C10 UNL     1     -33.623  15.136  -3.442  1.00 20.00     0.015 C 
BRANCH   8   9
HETATM    9  C11 UNL     1     -33.705  13.655  -3.787  1.00 20.00     0.114 C 
HETATM   10 CL12 UNL     1     -35.321  13.252  -4.412  1.00 20.00    -0.130 Cl
ENDBRANCH   8   9
ENDBRANCH   7   8
ENDBRANCH   6   7
BRANCH   5  11
HETATM   11  C8  UNL     1     -35.496  18.759   0.379  1.00 20.00     0.000 C 
HETATM   12  C7  UNL     1     -36.235  18.204   1.552  1.00 20.00     0.005 C 
ENDBRANCH   5  11
TORSDOF 4
ENDMDL
MODEL 9
REMARK VINA RESULT:      -4.2      2.460      4.645
REMARK  4 active torsions:
REMARK  status: ('A' for Active; 'I' for Inactive)
REMARK    1  A    between atoms: C5_5  and  C8_8 
REMARK    2  A    between atoms: C6_6  and  C9_9 
REMARK    3  A    between atoms: C9_9  and  C10_10 
REMARK    4  A    between atoms: C10_10  and  C11_11 
ROOT
HETATM    1  C1  UNL     1     -33.306  16.313  -4.981  1.00 20.00     0.001 C 
HETATM    2  C2  UNL     1     -32.963  15.391  -3.814  1.00 20.00     0.005 C 
HETATM    3  C3  UNL     1     -34.726  16.080  -5.487  1.00 20.00     0.005 C 
HETATM    4  C4  UNL     1     -35.412  15.271  -3.193  1.00 20.00     0.009 C 
HETATM    5  C5  UNL     1     -33.981  15.469  -2.668  1.00 20.00    -0.014 C 
HETATM    6  C6  UNL     1     -35.762  16.203  -4.363  1.00 20.00    -0.014 C 
ENDROOT
BRANCH   6   7
HETATM    7  C9  UNL     1     -37.165  15.899  -4.889  1.00 20.00     0.005 C 
BRANCH   7   8
HETATM    8  C10 UNL     1     -37.822  14.781  -4.088  1.00 20.00     0.015 C 
BRANCH   8   9
HETATM    9  C11 UNL     1     -39.139  15.251  -3.487  1.00 20.00     0.114 C 
HETATM   10 CL12 UNL     1     -38.990  16.923  -2.898  1.00 20.00    -0.130 Cl
ENDBRANCH   8   9
ENDBRANCH   7   8
ENDBRANCH   6   7
BRANCH   5  11
HETATM   11  C8  UNL     1     -33.843  16.772  -1.876  1.00 20.00     0.000 C 
HETATM   12  C7  UNL     1     -34.683  16.757  -0.641  1.00 20.00     0.005 C 
ENDBRANCH   5  11
TORSDOF 4
ENDMDL
