MODEL 1
REMARK VINA RESULT:      -4.9      0.000      0.000
REMARK  4 active torsions:
REMARK  status: ('A' for Active; 'I' for Inactive)
REMARK    1  A    between atoms: C4_4  and  C8_8 
REMARK    2  A    between atoms: C5_5  and  C9_9 
REMARK    3  A    between atoms: C5_5  and  O11_11 
REMARK    4  A    between atoms: C9_9  and  C10_10 
ROOT
HETATM    1  C1  UNL     1     -34.546  13.435  -4.875  1.00 20.00     0.007 C 
HETATM    2  C2  UNL     1     -34.161  14.084  -3.540  1.00 20.00     0.038 C 
HETATM    3  C3  UNL     1     -34.376  15.846  -5.141  1.00 20.00     0.042 C 
HETATM    4  C4  UNL     1     -34.468  14.541  -5.937  1.00 20.00    -0.012 C 
HETATM    5  C5  UNL     1     -33.571  15.447  -3.907  1.00 20.00     0.058 C 
ENDROOT
BRANCH   5   6
HETATM    6  C9  UNL     1     -33.659  16.466  -2.781  1.00 20.00     0.037 C 
BRANCH   6   7
HETATM    7  C10 UNL     1     -34.742  16.092  -1.772  1.00 20.00    -0.002 C 
HETATM    8  C7  UNL     1     -34.618  16.907  -0.495  1.00 20.00     0.005 C 
ENDBRANCH   6   7
ENDBRANCH   5   6
BRANCH   5   9
HETATM    9  O11 UNL     1     -32.202  15.291  -4.280  1.00 20.00    -0.390 OA
HETATM   10  H31 UNL     1     -31.873  14.517  -3.797  1.00 20.00     0.210 HD
ENDBRANCH   5   9
BRANCH   4  11
HETATM   11  C8  UNL     1     -35.636  14.521  -6.909  1.00 20.00     0.000 C 
HETATM   12  C6  UNL     1     -36.826  15.246  -6.366  1.00 20.00     0.005 C 
ENDBRANCH   4  11
TORSDOF 4
ENDMDL
MODEL 2
REMARK VINA RESULT:      -4.7      1.028      4.701
REMARK  4 active torsions:
REMARK  status: ('A' for Active; 'I' for Inactive)
REMARK    1  A    between atoms: C4_4  and  C8_8 
REMARK    2  A    between atoms: C5_5  and  C9_9 
REMARK    3  A    between atoms: C5_5  and  O11_11 
REMARK    4  A    between atoms: C9_9  and  C10_10 
ROOT
HETATM    1  C1  UNL     1     -34.200  17.594  -3.288  1.00 20.00     0.007 C 
HETATM    2  C2  UNL     1     -34.345  16.956  -4.674  1.00 20.00     0.038 C 
HETATM    3  C3  UNL     1     -34.159  15.170  -3.096  1.00 20.00     0.042 C 
HETATM    4  C4  UNL     1     -33.865  16.454  -2.316  1.00 20.00    -0.012 C 
HETATM    5  C5  UNL     1     -33.785  15.540  -4.530  1.00 20.00     0.058 C 
ENDROOT
BRANCH   5   6
HETATM    6  C9  UNL     1     -34.334  14.564  -5.560  1.00 20.00     0.037 C 
BRANCH   6   7
HETATM    7  C10 UNL     1     -34.357  15.181  -6.957  1.00 20.00    -0.002 C 
HETATM    8  C7  UNL     1     -35.446  14.565  -7.819  1.00 20.00     0.005 C 
ENDBRANCH   6   7
ENDBRANCH   5   6
BRANCH   5   9
HETATM    9  O11 UNL     1     -32.363  15.574  -4.641  1.00 20.00    -0.390 OA
HETATM   10  H31 UNL     1     -32.156  15.403  -5.573  1.00 20.00     0.210 HD
ENDBRANCH   5   9
BRANCH   4  11
HETATM   11  C8  UNL     1     -34.631  16.539  -1.006  1.00 20.00     0.000 C 
HETATM   12  C6  UNL     1     -34.148  17.665  -0.149  1.00 20.00     0.005 C 
ENDBRANCH   4  11
TORSDOF 4
ENDMDL
MODEL 3
REMARK VINA RESULT:      -4.5      1.233      4.523
REMARK  4 active torsions:
REMARK  status: ('A' for Active; 'I' for Inactive)
REMARK    1  A    between atoms: C4_4  and  C8_8 
REMARK    2  A    between atoms: C5_5  and  C9_9 
REMARK    3  A    between atoms: C5_5  and  O11_11 
REMARK    4  A    between atoms: C9_9  and  C10_10 
ROOT
HETATM    1  C1  UNL     1     -33.296  16.282  -3.231  1.00 20.00     0.007 C 
HETATM    2  C2  UNL     1     -33.301  15.528  -4.566  1.00 20.00     0.038 C 
HETATM    3  C3  UNL     1     -35.281  14.885  -3.388  1.00 20.00     0.042 C 
HETATM    4  C4  UNL     1     -34.447  15.702  -2.397  1.00 20.00    -0.012 C 
HETATM    5  C5  UNL     1     -34.233  14.333  -4.353  1.00 20.00     0.058 C 
ENDROOT
BRANCH   5   6
HETATM    6  C9  UNL     1     -34.834  13.798  -5.644  1.00 20.00     0.037 C 
BRANCH   6   7
HETATM    7  C10 UNL     1     -34.743  14.824  -6.771  1.00 20.00    -0.002 C 
HETATM    8  C7  UNL     1     -35.694  14.488  -7.907  1.00 20.00     0.005 C 
ENDBRANCH   6   7
ENDBRANCH   5   6
BRANCH   5   9
HETATM    9  O11 UNL     1     -33.520  13.280  -3.706  1.00 20.00    -0.390 OA
HETATM   10  H31 UNL     1     -33.686  13.379  -2.756  1.00 20.00     0.210 HD
ENDBRANCH   5   9
BRANCH   4  11
HETATM   11  C8  UNL     1     -35.260  16.765  -1.676  1.00 20.00     0.000 C 
HETATM   12  C6  UNL     1     -34.763  16.999  -0.285  1.00 20.00     0.005 C 
ENDBRANCH   4  11
TORSDOF 4
ENDMDL
MODEL 4
REMARK VINA RESULT:      -4.5      1.702      2.313
REMARK  4 active torsions:
REMARK  status: ('A' for Active; 'I' for Inactive)
REMARK    1  A    between atoms: C4_4  and  C8_8 
REMARK    2  A    between atoms: C5_5  and  C9_9 
REMARK    3  A    between atoms: C5_5  and  O11_11 
REMARK    4  A    between atoms: C9_9  and  C10_10 
ROOT
HETATM    1  C1  UNL     1     -36.699  14.907  -5.864  1.00 20.00     0.007 C 
HETATM    2  C2  UNL     1     -36.347  14.878  -4.372  1.00 20.00     0.038 C 
HETATM    3  C3  UNL     1     -34.344  14.373  -5.576  1.00 20.00     0.042 C 
HETATM    4  C4  UNL     1     -35.471  14.371  -6.613  1.00 20.00    -0.012 C 
HETATM    5  C5  UNL     1     -35.069  14.044  -4.273  1.00 20.00     0.058 C 
ENDROOT
BRANCH   5   6
HETATM    6  C9  UNL     1     -34.240  14.352  -3.035  1.00 20.00     0.037 C 
BRANCH   6   7
HETATM    7  C10 UNL     1     -33.668  15.767  -3.082  1.00 20.00    -0.002 C 
HETATM    8  C7  UNL     1     -34.064  16.568  -1.854  1.00 20.00     0.005 C 
ENDBRANCH   6   7
ENDBRANCH   5   6
BRANCH   5   9
HETATM    9  O11 UNL     1     -35.403  12.656  -4.269  1.00 20.00    -0.390 OA
HETATM   10  H31 UNL     1     -35.744  12.458  -3.384  1.00 20.00     0.210 HD
ENDBRANCH   5   9
BRANCH   4  11
HETATM   11  C8  UNL     1     -35.131  15.175  -7.857  1.00 20.00     0.000 C 
HETATM   12  C6  UNL     1     -34.617  16.538  -7.518  1.00 20.00     0.005 C 
ENDBRANCH   4  11
TORSDOF 4
ENDMDL
MODEL 5
REMARK VINA RESULT:      -4.3      1.426      1.789
REMARK  4 active torsions:
REMARK  status: ('A' for Active; 'I' for Inactive)
REMARK    1  A    between atoms: C4_4  and  C8_8 
REMARK    2  A    between atoms: C5_5  and  C9_9 
REMARK    3  A    between atoms: C5_5  and  O11_11 
REMARK    4  A    between atoms: C9_9  and  C10_10 
ROOT
HETATM    1  C1  UNL     1     -34.616  14.499  -6.391  1.00 20.00     0.007 C 
HETATM    2  C2  UNL     1     -34.777  14.113  -4.916  1.00 20.00     0.038 C 
HETATM    3  C3  UNL     1     -34.163  16.423  -4.974  1.00 20.00     0.042 C 
HETATM    4  C4  UNL     1     -34.014  15.911  -6.410  1.00 20.00    -0.012 C 
HETATM    5  C5  UNL     1     -33.983  15.160  -4.134  1.00 20.00     0.058 C 
ENDROOT
BRANCH   5   6
HETATM    6  C9  UNL     1     -34.455  15.327  -2.697  1.00 20.00     0.037 C 
BRANCH   6   7
HETATM    7  C10 UNL     1     -33.940  16.629  -2.088  1.00 20.00    -0.002 C 
HETATM    8  C7  UNL     1     -34.491  16.844  -0.688  1.00 20.00     0.005 C 
ENDBRANCH   6   7
ENDBRANCH   5   6
BRANCH   5   9
HETATM    9  O11 UNL     1     -32.601  14.805  -4.126  1.00 20.00    -0.390 OA
HETATM   10  H31 UNL     1     -32.255  15.024  -5.004  1.00 20.00     0.210 HD
ENDBRANCH   5   9
BRANCH   4  11
HETATM   11  C8  UNL     1     -34.665  16.826  -7.434  1.00 20.00     0.000 C 
HETATM   12  C6  UNL     1     -34.243  18.250  -7.259  1.00 20.00     0.005 C 
ENDBRANCH   4  11
TORSDOF 4
ENDMDL
MODEL 6
REMARK VINA RESULT:      -4.2      1.348      4.201
REMARK  4 active torsions:
REMARK  status: ('A' for Active; 'I' for Inactive)
REMARK    1  A    between atoms: C4_4  and  C8_8 
REMARK    2  A    between atoms: C5_5  and  C9_9 
REMARK    3  A    between atoms: C5_5  and  O11_11 
REMARK    4  A    between atoms: C9_9  and  C10_10 
ROOT
HETATM    1  C1  UNL     1     -34.220  18.225  -3.617  1.00 20.00     0.007 C 
HETATM    2  C2  UNL     1     -34.635  17.241  -4.718  1.00 20.00     0.038 C 
HETATM    3  C3  UNL     1     -33.811  15.942  -2.887  1.00 20.00     0.042 C 
HETATM    4  C4  UNL     1     -33.496  17.401  -2.544  1.00 20.00    -0.012 C 
HETATM    5  C5  UNL     1     -33.875  15.949  -4.413  1.00 20.00     0.058 C 
ENDROOT
BRANCH   5   6
HETATM    6  C9  UNL     1     -34.540  14.707  -4.988  1.00 20.00     0.037 C 
BRANCH   6   7
HETATM    7  C10 UNL     1     -35.421  14.014  -3.952  1.00 20.00    -0.002 C 
HETATM    8  C7  UNL     1     -36.874  14.439  -4.084  1.00 20.00     0.005 C 
ENDBRANCH   6   7
ENDBRANCH   5   6
BRANCH   5   9
HETATM    9  O11 UNL     1     -32.548  16.041  -4.930  1.00 20.00    -0.390 OA
HETATM   10  H31 UNL     1     -32.508  15.445  -5.693  1.00 20.00     0.210 HD
ENDBRANCH   5   9
BRANCH   4  11
HETATM   11  C8  UNL     1     -33.900  17.775  -1.127  1.00 20.00     0.000 C 
HETATM   12  C6  UNL     1     -34.768  16.731  -0.500  1.00 20.00     0.005 C 
ENDBRANCH   4  11
TORSDOF 4
ENDMDL
MODEL 7
REMARK VINA RESULT:      -4.2      1.618      4.179
REMARK  4 active torsions:
REMARK  status: ('A' for Active; 'I' for Inactive)
REMARK    1  A    between atoms: C4_4  and  C8_8 
REMARK    2  A    between atoms: C5_5  and  C9_9 
REMARK    3  A    between atoms: C5_5  and  O11_11 
REMARK    4  A    between atoms: C9_9  and  C10_10 
ROOT
HETATM    1  C1  UNL     1     -33.294  16.302  -3.936  1.00 20.00     0.007 C 
HETATM    2  C2  UNL     1     -34.200  15.415  -4.798  1.00 20.00     0.038 C 
HETATM    3  C3  UNL     1     -35.049  15.325  -2.565  1.00 20.00     0.042 C 
HETATM    4  C4  UNL     1     -33.712  16.067  -2.478  1.00 20.00    -0.012 C 
HETATM    5  C5  UNL     1     -34.890  14.466  -3.817  1.00 20.00     0.058 C 
ENDROOT
BRANCH   5   6
HETATM    6  C9  UNL     1     -36.210  13.916  -4.335  1.00 20.00     0.037 C 
BRANCH   6   7
HETATM    7  C10 UNL     1     -37.208  15.035  -4.623  1.00 20.00    -0.002 C 
HETATM    8  C7  UNL     1     -38.528  14.802  -3.908  1.00 20.00     0.005 C 
ENDBRANCH   6   7
ENDBRANCH   5   6
BRANCH   5   9
HETATM    9  O11 UNL     1     -34.022  13.372  -3.519  1.00 20.00    -0.390 OA
HETATM   10  H31 UNL     1     -33.497  13.213  -4.318  1.00 20.00     0.210 HD
ENDBRANCH   5   9
BRANCH   4  11
HETATM   11  C8  UNL     1     -33.798  17.348  -1.665  1.00 20.00     0.000 C 
HETATM   12  C6  UNL     1     -34.550  17.149  -0.388  1.00 20.00     0.005 C 
ENDBRANCH   4  11
TORSDOF 4
ENDMDL
MODEL 8
REMARK VINA RESULT:      -4.2      2.745      6.387
REMARK  4 active torsions:
REMARK  status: ('A' for Active; 'I' for Inactive)
REMARK    1  A    between atoms: C4_4  and  C8_8 
REMARK    2  A    between atoms: C5_5  and  C9_9 
REMARK    3  A    between atoms: C5_5  and  O11_11 
REMARK    4  A    between atoms: C9_9  and  C10_10 
ROOT
HETATM    1  C1  UNL     1     -34.146  18.389   1.313  1.00 20.00     0.007 C 
HETATM    2  C2  UNL     1     -34.991  17.335   0.587  1.00 20.00     0.038 C 
HETATM    3  C3  UNL     1     -33.190  17.920  -0.874  1.00 20.00     0.042 C 
HETATM    4  C4  UNL     1     -33.128  18.913   0.291  1.00 20.00    -0.012 C 
HETATM    5  C5  UNL     1     -34.659  17.502  -0.897  1.00 20.00     0.058 C 
ENDROOT
BRANCH   5   6
HETATM    6  C9  UNL     1     -34.908  16.245  -1.717  1.00 20.00     0.037 C 
BRANCH   6   7
HETATM    7  C10 UNL     1     -33.783  15.998  -2.719  1.00 20.00    -0.002 C 
HETATM    8  C7  UNL     1     -33.965  14.676  -3.446  1.00 20.00     0.005 C 
ENDBRANCH   6   7
ENDBRANCH   5   6
BRANCH   5   9
HETATM    9  O11 UNL     1     -35.433  18.569  -1.444  1.00 20.00    -0.390 OA
HETATM   10  H31 UNL     1     -35.742  19.097  -0.692  1.00 20.00     0.210 HD
ENDBRANCH   5   9
BRANCH   4  11
HETATM   11  C8  UNL     1     -31.729  19.066   0.863  1.00 20.00     0.000 C 
HETATM   12  C6  UNL     1     -31.707  18.859   2.344  1.00 20.00     0.005 C 
ENDBRANCH   4  11
TORSDOF 4
ENDMDL
MODEL 9
REMARK VINA RESULT:      -4.1     12.438     13.846
REMARK  4 active torsions:
REMARK  status: ('A' for Active; 'I' for Inactive)
REMARK    1  A    between atoms: C4_4  and  C8_8 
REMARK    2  A    between atoms: C5_5  and  C9_9 
REMARK    3  A    between atoms: C5_5  and  O11_11 
REMARK    4  A    between atoms: C9_9  and  C10_10 
ROOT
HETATM    1  C1  UNL     1     -40.817   5.802  -0.682  1.00 20.00     0.007 C 
HETATM    2  C2  UNL     1     -40.855   4.398  -1.297  1.00 20.00     0.038 C 
HETATM    3  C3  UNL     1     -43.001   5.384  -1.666  1.00 20.00     0.042 C 
HETATM    4  C4  UNL     1     -42.254   6.338  -0.730  1.00 20.00    -0.012 C 
HETATM    5  C5  UNL     1     -42.338   4.036  -1.391  1.00 20.00     0.058 C 
ENDROOT
BRANCH   5   6
HETATM    6  C9  UNL     1     -42.639   2.994  -2.457  1.00 20.00     0.037 C 
BRANCH   6   7
HETATM    7  C10 UNL     1     -41.371   2.554  -3.184  1.00 20.00    -0.002 C 
HETATM    8  C7  UNL     1     -41.639   1.381  -4.112  1.00 20.00     0.005 C 
ENDBRANCH   6   7
ENDBRANCH   5   6
BRANCH   5   9
HETATM    9  O11 UNL     1     -42.792   3.548  -0.129  1.00 20.00    -0.390 OA
HETATM   10  H31 UNL     1     -42.546   2.611  -0.092  1.00 20.00     0.210 HD
ENDBRANCH   5   9
BRANCH   4  11
HETATM   11  C8  UNL     1     -42.337   7.789  -1.176  1.00 20.00     0.000 C 
HETATM   12  C6  UNL     1     -42.547   7.908  -2.652  1.00 20.00     0.005 C 
ENDBRANCH   4  11
TORSDOF 4
ENDMDL
