MODEL 1
REMARK VINA RESULT:      -5.3      0.000      0.000
REMARK  2 active torsions:
REMARK  status: ('A' for Active; 'I' for Inactive)
REMARK    1  A    between atoms: C6_6  and  C7_7 
REMARK    2  A    between atoms: C8_8  and  O9_9 
ROOT
HETATM    1  C3  UNL     1     -34.002   6.631   5.698  1.00 20.00     0.007 C 
HETATM    2  C4  UNL     1     -33.908   5.177   6.158  1.00 20.00     0.032 C 
HETATM    3  C5  UNL     1     -34.932   5.327   3.943  1.00 20.00     0.036 C 
HETATM    4  C7  UNL     1     -34.073   6.567   4.173  1.00 20.00    -0.008 C 
HETATM    5  C8  UNL     1     -34.484   4.336   5.015  1.00 20.00     0.118 C 
ENDROOT
BRANCH   4   6
HETATM    6  C6  UNL     1     -32.691   6.447   3.534  1.00 20.00    -0.010 A 
HETATM    7  C1  UNL     1     -32.251   7.434   2.489  1.00 20.00     0.005 A 
HETATM    8  C2  UNL     1     -31.618   7.451   3.853  1.00 20.00     0.005 A 
ENDBRANCH   4   6
BRANCH   5   9
HETATM    9  O9  UNL     1     -35.590   3.562   5.451  1.00 20.00    -0.396 OA
HETATM   10  H23 UNL     1     -36.374   4.127   5.367  1.00 20.00     0.210 HD
ENDBRANCH   5   9
TORSDOF 2
ENDMDL
MODEL 2
REMARK VINA RESULT:      -4.7      2.355      4.051
REMARK  2 active torsions:
REMARK  status: ('A' for Active; 'I' for Inactive)
REMARK    1  A    between atoms: C6_6  and  C7_7 
REMARK    2  A    between atoms: C8_8  and  O9_9 
ROOT
HETATM    1  C3  UNL     1     -34.022   5.248   2.661  1.00 20.00     0.007 C 
HETATM    2  C4  UNL     1     -32.549   5.628   2.514  1.00 20.00     0.032 C 
HETATM    3  C5  UNL     1     -33.729   7.233   3.933  1.00 20.00     0.036 C 
HETATM    4  C7  UNL     1     -34.481   5.906   3.961  1.00 20.00    -0.008 C 
HETATM    5  C8  UNL     1     -32.356   6.893   3.355  1.00 20.00     0.118 C 
ENDROOT
BRANCH   4   6
HETATM    6  C6  UNL     1     -34.135   5.065   5.189  1.00 20.00    -0.010 A 
HETATM    7  C1  UNL     1     -34.669   5.444   6.542  1.00 20.00     0.005 A 
HETATM    8  C2  UNL     1     -35.187   4.216   5.847  1.00 20.00     0.005 A 
ENDBRANCH   4   6
BRANCH   5   9
HETATM    9  O9  UNL     1     -31.883   7.972   2.564  1.00 20.00    -0.396 OA
HETATM   10  H23 UNL     1     -31.933   8.765   3.119  1.00 20.00     0.210 HD
ENDBRANCH   5   9
TORSDOF 2
ENDMDL
MODEL 3
REMARK VINA RESULT:      -4.4     11.627     12.723
REMARK  2 active torsions:
REMARK  status: ('A' for Active; 'I' for Inactive)
REMARK    1  A    between atoms: C6_6  and  C7_7 
REMARK    2  A    between atoms: C8_8  and  O9_9 
ROOT
HETATM    1  C3  UNL     1     -33.669  15.839  -5.149  1.00 20.00     0.007 C 
HETATM    2  C4  UNL     1     -34.881  14.949  -5.421  1.00 20.00     0.032 C 
HETATM    3  C5  UNL     1     -33.704  14.230  -3.401  1.00 20.00     0.036 C 
HETATM    4  C7  UNL     1     -33.396  15.704  -3.652  1.00 20.00    -0.008 C 
HETATM    5  C8  UNL     1     -34.917  13.929  -4.279  1.00 20.00     0.118 C 
ENDROOT
BRANCH   4   6
HETATM    6  C6  UNL     1     -34.274  16.634  -2.817  1.00 20.00    -0.010 A 
HETATM    7  C1  UNL     1     -34.667  16.251  -1.417  1.00 20.00     0.005 A 
HETATM    8  C2  UNL     1     -33.693  17.374  -1.645  1.00 20.00     0.005 A 
ENDBRANCH   4   6
BRANCH   5   9
HETATM    9  O9  UNL     1     -34.840  12.601  -4.772  1.00 20.00    -0.396 OA
HETATM   10  H23 UNL     1     -35.322  12.043  -4.142  1.00 20.00     0.210 HD
ENDBRANCH   5   9
TORSDOF 2
ENDMDL
MODEL 4
REMARK VINA RESULT:      -4.3     12.265     12.987
REMARK  2 active torsions:
REMARK  status: ('A' for Active; 'I' for Inactive)
REMARK    1  A    between atoms: C6_6  and  C7_7 
REMARK    2  A    between atoms: C8_8  and  O9_9 
ROOT
HETATM    1  C3  UNL     1     -35.422  15.403  -2.906  1.00 20.00     0.007 C 
HETATM    2  C4  UNL     1     -34.137  14.711  -3.356  1.00 20.00     0.032 C 
HETATM    3  C5  UNL     1     -33.841  17.137  -3.276  1.00 20.00     0.036 C 
HETATM    4  C7  UNL     1     -34.978  16.748  -2.335  1.00 20.00    -0.008 C 
HETATM    5  C8  UNL     1     -33.111  15.828  -3.569  1.00 20.00     0.118 C 
ENDROOT
BRANCH   4   6
HETATM    6  C6  UNL     1     -34.521  16.638  -0.882  1.00 20.00    -0.010 A 
HETATM    7  C1  UNL     1     -33.756  17.762  -0.240  1.00 20.00     0.005 A 
HETATM    8  C2  UNL     1     -35.170  17.478   0.183  1.00 20.00     0.005 A 
ENDBRANCH   4   6
BRANCH   5   9
HETATM    9  O9  UNL     1     -32.624  15.834  -4.902  1.00 20.00    -0.396 OA
HETATM   10  H23 UNL     1     -31.757  16.269  -4.878  1.00 20.00     0.210 HD
ENDBRANCH   5   9
TORSDOF 2
ENDMDL
MODEL 5
REMARK VINA RESULT:      -4.3     11.577     13.280
REMARK  2 active torsions:
REMARK  status: ('A' for Active; 'I' for Inactive)
REMARK    1  A    between atoms: C6_6  and  C7_7 
REMARK    2  A    between atoms: C8_8  and  O9_9 
ROOT
HETATM    1  C3  UNL     1     -33.553  15.347  -3.319  1.00 20.00     0.007 C 
HETATM    2  C4  UNL     1     -33.389  13.896  -3.767  1.00 20.00     0.032 C 
HETATM    3  C5  UNL     1     -35.441  14.864  -4.677  1.00 20.00     0.036 C 
HETATM    4  C7  UNL     1     -34.461  15.992  -4.364  1.00 20.00    -0.008 C 
HETATM    5  C8  UNL     1     -34.593  13.594  -4.663  1.00 20.00     0.118 C 
ENDROOT
BRANCH   4   6
HETATM    6  C6  UNL     1     -33.689  16.452  -5.599  1.00 20.00    -0.010 A 
HETATM    7  C1  UNL     1     -34.410  16.707  -6.893  1.00 20.00     0.005 A 
HETATM    8  C2  UNL     1     -33.844  17.858  -6.109  1.00 20.00     0.005 A 
ENDBRANCH   4   6
BRANCH   5   9
HETATM    9  O9  UNL     1     -35.355  12.509  -4.155  1.00 20.00    -0.396 OA
HETATM   10  H23 UNL     1     -35.957  12.880  -3.492  1.00 20.00     0.210 HD
ENDBRANCH   5   9
TORSDOF 2
ENDMDL
MODEL 6
REMARK VINA RESULT:      -4.1      1.062      1.893
REMARK  2 active torsions:
REMARK  status: ('A' for Active; 'I' for Inactive)
REMARK    1  A    between atoms: C6_6  and  C7_7 
REMARK    2  A    between atoms: C8_8  and  O9_9 
ROOT
HETATM    1  C3  UNL     1     -34.430   5.288   2.753  1.00 20.00     0.007 C 
HETATM    2  C4  UNL     1     -35.556   5.499   3.763  1.00 20.00     0.032 C 
HETATM    3  C5  UNL     1     -33.421   5.138   4.898  1.00 20.00     0.036 C 
HETATM    4  C7  UNL     1     -33.148   5.666   3.493  1.00 20.00    -0.008 C 
HETATM    5  C8  UNL     1     -34.900   5.427   5.145  1.00 20.00     0.118 C 
ENDROOT
BRANCH   4   6
HETATM    6  C6  UNL     1     -32.892   7.172   3.475  1.00 20.00    -0.010 A 
HETATM    7  C1  UNL     1     -31.499   7.705   3.668  1.00 20.00     0.005 A 
HETATM    8  C2  UNL     1     -32.162   7.802   2.322  1.00 20.00     0.005 A 
ENDBRANCH   4   6
BRANCH   5   9
HETATM    9  O9  UNL     1     -35.471   4.395   5.934  1.00 20.00    -0.396 OA
HETATM   10  H23 UNL     1     -36.018   3.861   5.337  1.00 20.00     0.210 HD
ENDBRANCH   5   9
TORSDOF 2
ENDMDL
MODEL 7
REMARK VINA RESULT:      -4.0     12.416     13.036
REMARK  2 active torsions:
REMARK  status: ('A' for Active; 'I' for Inactive)
REMARK    1  A    between atoms: C6_6  and  C7_7 
REMARK    2  A    between atoms: C8_8  and  O9_9 
ROOT
HETATM    1  C3  UNL     1     -35.935  14.395  -3.786  1.00 20.00     0.007 C 
HETATM    2  C4  UNL     1     -34.841  13.748  -4.634  1.00 20.00     0.032 C 
HETATM    3  C5  UNL     1     -34.699  16.187  -4.736  1.00 20.00     0.036 C 
HETATM    4  C7  UNL     1     -35.412  15.789  -3.447  1.00 20.00    -0.008 C 
HETATM    5  C8  UNL     1     -34.029  14.904  -5.225  1.00 20.00     0.118 C 
ENDROOT
BRANCH   4   6
HETATM    6  C6  UNL     1     -34.474  15.778  -2.241  1.00 20.00    -0.010 A 
HETATM    7  C1  UNL     1     -33.685  17.007  -1.883  1.00 20.00     0.005 A 
HETATM    8  C2  UNL     1     -34.821  16.559  -1.004  1.00 20.00     0.005 A 
ENDBRANCH   4   6
BRANCH   5   9
HETATM    9  O9  UNL     1     -34.034  14.866  -6.643  1.00 20.00    -0.396 OA
HETATM   10  H23 UNL     1     -33.278  14.319  -6.908  1.00 20.00     0.210 HD
ENDBRANCH   5   9
TORSDOF 2
ENDMDL
MODEL 8
REMARK VINA RESULT:      -3.9     11.921     13.465
REMARK  2 active torsions:
REMARK  status: ('A' for Active; 'I' for Inactive)
REMARK    1  A    between atoms: C6_6  and  C7_7 
REMARK    2  A    between atoms: C8_8  and  O9_9 
ROOT
HETATM    1  C3  UNL     1     -35.999  15.896  -4.485  1.00 20.00     0.007 C 
HETATM    2  C4  UNL     1     -35.538  14.838  -3.483  1.00 20.00     0.032 C 
HETATM    3  C5  UNL     1     -34.818  14.268  -5.750  1.00 20.00     0.036 C 
HETATM    4  C7  UNL     1     -35.041  15.776  -5.668  1.00 20.00    -0.008 C 
HETATM    5  C8  UNL     1     -34.755  13.803  -4.296  1.00 20.00     0.118 C 
ENDROOT
BRANCH   4   6
HETATM    6  C6  UNL     1     -33.741  16.546  -5.442  1.00 20.00    -0.010 A 
HETATM    7  C1  UNL     1     -33.621  17.977  -5.887  1.00 20.00     0.005 A 
HETATM    8  C2  UNL     1     -33.682  17.648  -4.421  1.00 20.00     0.005 A 
ENDBRANCH   4   6
BRANCH   5   9
HETATM    9  O9  UNL     1     -35.330  12.511  -4.176  1.00 20.00    -0.396 OA
HETATM   10  H23 UNL     1     -34.685  11.886  -4.542  1.00 20.00     0.210 HD
ENDBRANCH   5   9
TORSDOF 2
ENDMDL
MODEL 9
REMARK VINA RESULT:      -3.8     11.756     12.979
REMARK  2 active torsions:
REMARK  status: ('A' for Active; 'I' for Inactive)
REMARK    1  A    between atoms: C6_6  and  C7_7 
REMARK    2  A    between atoms: C8_8  and  O9_9 
ROOT
HETATM    1  C3  UNL     1     -34.317  15.467  -2.671  1.00 20.00     0.007 C 
HETATM    2  C4  UNL     1     -33.872  14.346  -3.610  1.00 20.00     0.032 C 
HETATM    3  C5  UNL     1     -36.282  14.725  -3.782  1.00 20.00     0.036 C 
HETATM    4  C7  UNL     1     -35.619  15.999  -3.267  1.00 20.00    -0.008 C 
HETATM    5  C8  UNL     1     -35.135  13.886  -4.344  1.00 20.00     0.118 C 
ENDROOT
BRANCH   4   6
HETATM    6  C6  UNL     1     -35.373  17.018  -4.378  1.00 20.00    -0.010 A 
HETATM    7  C1  UNL     1     -35.533  18.489  -4.107  1.00 20.00     0.005 A 
HETATM    8  C2  UNL     1     -34.163  17.911  -4.334  1.00 20.00     0.005 A 
ENDBRANCH   4   6
BRANCH   5   9
HETATM    9  O9  UNL     1     -35.389  12.508  -4.121  1.00 20.00    -0.396 OA
HETATM   10  H23 UNL     1     -34.980  12.286  -3.270  1.00 20.00     0.210 HD
ENDBRANCH   5   9
TORSDOF 2
ENDMDL
