MODEL 1
REMARK VINA RESULT:      -5.2      0.000      0.000
REMARK  1 active torsions:
REMARK  status: ('A' for Active; 'I' for Inactive)
REMARK    1  A    between atoms: C8_8  and  C9_9 
ROOT
HETATM    1  C1  UNL     1     -33.808  17.897  -2.846  1.00 20.00     0.006 C 
HETATM    2  C2  UNL     1     -34.297  18.667  -1.615  1.00 20.00     0.020 C 
HETATM    3  C5  UNL     1     -34.575  16.345  -1.143  1.00 20.00     0.025 C 
HETATM    4  C8  UNL     1     -33.768  16.416  -2.439  1.00 20.00    -0.009 C 
HETATM    5  C10 UNL     1     -34.222  17.663  -0.471  1.00 20.00     0.082 C 
HETATM    6 CL12 UNL     1     -35.326  18.063   0.852  1.00 20.00    -0.125 Cl
ENDROOT
BRANCH   4   7
HETATM    7  C9  UNL     1     -34.295  15.479  -3.523  1.00 20.00    -0.006 C 
HETATM    8  C3  UNL     1     -35.733  15.041  -3.225  1.00 20.00     0.031 C 
HETATM    9  C6  UNL     1     -36.203  14.009  -4.242  1.00 20.00     0.168 C 
HETATM   10  O11 UNL     1     -35.320  12.890  -4.274  1.00 20.00    -0.391 OA
HETATM   11  C7  UNL     1     -33.997  13.259  -4.665  1.00 20.00     0.168 C 
HETATM   12  C4  UNL     1     -33.396  14.246  -3.672  1.00 20.00     0.031 C 
ENDBRANCH   4   7
TORSDOF 1
ENDMDL
MODEL 2
REMARK VINA RESULT:      -4.9      3.241      5.056
REMARK  1 active torsions:
REMARK  status: ('A' for Active; 'I' for Inactive)
REMARK    1  A    between atoms: C8_8  and  C9_9 
ROOT
HETATM    1  C1  UNL     1     -34.159  13.856  -3.553  1.00 20.00     0.006 C 
HETATM    2  C2  UNL     1     -34.978  13.404  -4.766  1.00 20.00     0.020 C 
HETATM    3  C5  UNL     1     -34.286  15.648  -5.188  1.00 20.00     0.025 C 
HETATM    4  C8  UNL     1     -33.524  15.201  -3.940  1.00 20.00    -0.009 C 
HETATM    5  C10 UNL     1     -34.544  14.328  -5.898  1.00 20.00     0.082 C 
HETATM    6 CL12 UNL     1     -35.773  14.470  -7.162  1.00 20.00    -0.125 Cl
ENDROOT
BRANCH   4   7
HETATM    7  C9  UNL     1     -33.564  16.231  -2.815  1.00 20.00    -0.006 C 
HETATM    8  C3  UNL     1     -34.688  15.921  -1.819  1.00 20.00     0.031 C 
HETATM    9  C6  UNL     1     -34.800  17.023  -0.774  1.00 20.00     0.168 C 
HETATM   10  O11 UNL     1     -34.996  18.293  -1.394  1.00 20.00    -0.391 OA
HETATM   11  C7  UNL     1     -33.902  18.655  -2.237  1.00 20.00     0.168 C 
HETATM   12  C4  UNL     1     -33.738  17.649  -3.370  1.00 20.00     0.031 C 
ENDBRANCH   4   7
TORSDOF 1
ENDMDL
MODEL 3
REMARK VINA RESULT:      -4.9      0.989      1.502
REMARK  1 active torsions:
REMARK  status: ('A' for Active; 'I' for Inactive)
REMARK    1  A    between atoms: C8_8  and  C9_9 
ROOT
HETATM    1  C1  UNL     1     -33.717  17.608  -2.905  1.00 20.00     0.006 C 
HETATM    2  C2  UNL     1     -33.816  18.619  -1.757  1.00 20.00     0.020 C 
HETATM    3  C5  UNL     1     -34.598  16.528  -0.916  1.00 20.00     0.025 C 
HETATM    4  C8  UNL     1     -33.992  16.229  -2.288  1.00 20.00    -0.009 C 
HETATM    5  C10 UNL     1     -33.833  17.772  -0.491  1.00 20.00     0.082 C 
HETATM    6 CL12 UNL     1     -34.601  18.605   0.868  1.00 20.00    -0.125 Cl
ENDROOT
BRANCH   4   7
HETATM    7  C9  UNL     1     -34.886  15.348  -3.157  1.00 20.00    -0.006 C 
HETATM    8  C3  UNL     1     -34.174  14.046  -3.541  1.00 20.00     0.031 C 
HETATM    9  C6  UNL     1     -35.025  13.234  -4.509  1.00 20.00     0.168 C 
HETATM   10  O11 UNL     1     -35.352  14.003  -5.665  1.00 20.00    -0.391 OA
HETATM   11  C7  UNL     1     -36.118  15.163  -5.340  1.00 20.00     0.168 C 
HETATM   12  C4  UNL     1     -35.332  16.090  -4.421  1.00 20.00     0.031 C 
ENDBRANCH   4   7
TORSDOF 1
ENDMDL
MODEL 4
REMARK VINA RESULT:      -4.9      1.520      2.413
REMARK  1 active torsions:
REMARK  status: ('A' for Active; 'I' for Inactive)
REMARK    1  A    between atoms: C8_8  and  C9_9 
ROOT
HETATM    1  C1  UNL     1     -35.182  17.159  -0.075  1.00 20.00     0.006 C 
HETATM    2  C2  UNL     1     -34.195  18.022   0.718  1.00 20.00     0.020 C 
HETATM    3  C5  UNL     1     -33.278  17.741  -1.466  1.00 20.00     0.025 C 
HETATM    4  C8  UNL     1     -34.702  17.188  -1.534  1.00 20.00    -0.009 C 
HETATM    5  C10 UNL     1     -33.381  18.757  -0.340  1.00 20.00     0.082 C 
HETATM    6 CL12 UNL     1     -31.796  19.263   0.260  1.00 20.00    -0.125 Cl
ENDROOT
BRANCH   4   7
HETATM    7  C9  UNL     1     -34.782  15.827  -2.222  1.00 20.00    -0.006 C 
HETATM    8  C3  UNL     1     -33.517  15.545  -3.040  1.00 20.00     0.031 C 
HETATM    9  C6  UNL     1     -33.660  14.246  -3.821  1.00 20.00     0.168 C 
HETATM   10  O11 UNL     1     -34.817  14.281  -4.656  1.00 20.00    -0.391 OA
HETATM   11  C7  UNL     1     -36.020  14.425  -3.902  1.00 20.00     0.168 C 
HETATM   12  C4  UNL     1     -36.016  15.736  -3.125  1.00 20.00     0.031 C 
ENDBRANCH   4   7
TORSDOF 1
ENDMDL
MODEL 5
REMARK VINA RESULT:      -4.6      3.354      5.089
REMARK  1 active torsions:
REMARK  status: ('A' for Active; 'I' for Inactive)
REMARK    1  A    between atoms: C8_8  and  C9_9 
ROOT
HETATM    1  C1  UNL     1     -36.009  16.067  -2.998  1.00 20.00     0.006 C 
HETATM    2  C2  UNL     1     -36.117  15.643  -4.466  1.00 20.00     0.020 C 
HETATM    3  C5  UNL     1     -33.836  15.365  -3.825  1.00 20.00     0.025 C 
HETATM    4  C8  UNL     1     -34.602  15.659  -2.535  1.00 20.00    -0.009 C 
HETATM    5  C10 UNL     1     -34.911  14.742  -4.703  1.00 20.00     0.082 C 
HETATM    6 CL12 UNL     1     -34.439  14.680  -6.406  1.00 20.00    -0.125 Cl
ENDROOT
BRANCH   4   7
HETATM    7  C9  UNL     1     -33.924  16.714  -1.665  1.00 20.00    -0.006 C 
HETATM    8  C3  UNL     1     -34.685  16.921  -0.351  1.00 20.00     0.031 C 
HETATM    9  C6  UNL     1     -34.074  18.063   0.451  1.00 20.00     0.168 C 
HETATM   10  O11 UNL     1     -34.041  19.263  -0.320  1.00 20.00    -0.391 OA
HETATM   11  C7  UNL     1     -33.239  19.127  -1.493  1.00 20.00     0.168 C 
HETATM   12  C4  UNL     1     -33.801  18.048  -2.410  1.00 20.00     0.031 C 
ENDBRANCH   4   7
TORSDOF 1
ENDMDL
MODEL 6
REMARK VINA RESULT:      -4.6      1.379      1.585
REMARK  1 active torsions:
REMARK  status: ('A' for Active; 'I' for Inactive)
REMARK    1  A    between atoms: C8_8  and  C9_9 
ROOT
HETATM    1  C1  UNL     1     -34.746  17.820  -3.549  1.00 20.00     0.006 C 
HETATM    2  C2  UNL     1     -35.318  18.188  -2.176  1.00 20.00     0.020 C 
HETATM    3  C5  UNL     1     -33.896  16.299  -1.856  1.00 20.00     0.025 C 
HETATM    4  C8  UNL     1     -33.658  16.767  -3.292  1.00 20.00    -0.009 C 
HETATM    5  C10 UNL     1     -34.346  17.580  -1.171  1.00 20.00     0.082 C 
HETATM    6 CL12 UNL     1     -35.101  17.277   0.399  1.00 20.00    -0.125 Cl
ENDROOT
BRANCH   4   7
HETATM    7  C9  UNL     1     -33.676  15.623  -4.303  1.00 20.00    -0.006 C 
HETATM    8  C3  UNL     1     -34.336  16.056  -5.617  1.00 20.00     0.031 C 
HETATM    9  C6  UNL     1     -34.463  14.875  -6.571  1.00 20.00     0.168 C 
HETATM   10  O11 UNL     1     -35.184  13.806  -5.960  1.00 20.00    -0.391 OA
HETATM   11  C7  UNL     1     -34.525  13.308  -4.796  1.00 20.00     0.168 C 
HETATM   12  C4  UNL     1     -34.401  14.397  -3.738  1.00 20.00     0.031 C 
ENDBRANCH   4   7
TORSDOF 1
ENDMDL
MODEL 7
REMARK VINA RESULT:      -4.5      2.429      3.891
REMARK  1 active torsions:
REMARK  status: ('A' for Active; 'I' for Inactive)
REMARK    1  A    between atoms: C8_8  and  C9_9 
ROOT
HETATM    1  C1  UNL     1     -34.844  17.955   1.208  1.00 20.00     0.006 C 
HETATM    2  C2  UNL     1     -34.234  18.120   2.604  1.00 20.00     0.020 C 
HETATM    3  C5  UNL     1     -32.520  18.636   1.027  1.00 20.00     0.025 C 
HETATM    4  C8  UNL     1     -33.812  18.518   0.219  1.00 20.00    -0.009 C 
HETATM    5  C10 UNL     1     -33.035  19.038   2.401  1.00 20.00     0.082 C 
HETATM    6 CL12 UNL     1     -31.813  18.841   3.664  1.00 20.00    -0.125 Cl
ENDROOT
BRANCH   4   7
HETATM    7  C9  UNL     1     -33.655  17.665  -1.038  1.00 20.00    -0.006 C 
HETATM    8  C3  UNL     1     -33.795  18.515  -2.305  1.00 20.00     0.031 C 
HETATM    9  C6  UNL     1     -33.763  17.637  -3.549  1.00 20.00     0.168 C 
HETATM   10  O11 UNL     1     -34.775  16.633  -3.487  1.00 20.00    -0.391 OA
HETATM   11  C7  UNL     1     -34.594  15.755  -2.376  1.00 20.00     0.168 C 
HETATM   12  C4  UNL     1     -34.676  16.523  -1.062  1.00 20.00     0.031 C 
ENDBRANCH   4   7
TORSDOF 1
ENDMDL
MODEL 8
REMARK VINA RESULT:      -4.5     13.171     15.429
REMARK  1 active torsions:
REMARK  status: ('A' for Active; 'I' for Inactive)
REMARK    1  A    between atoms: C8_8  and  C9_9 
ROOT
HETATM    1  C1  UNL     1     -41.494   2.327  -3.742  1.00 20.00     0.006 C 
HETATM    2  C2  UNL     1     -41.676   0.807  -3.696  1.00 20.00     0.020 C 
HETATM    3  C5  UNL     1     -43.416   1.759  -2.370  1.00 20.00     0.025 C 
HETATM    4  C8  UNL     1     -42.748   2.930  -3.091  1.00 20.00    -0.009 C 
HETATM    5  C10 UNL     1     -43.137   0.599  -3.313  1.00 20.00     0.082 C 
HETATM    6 CL12 UNL     1     -43.417  -0.973  -2.551  1.00 20.00    -0.125 Cl
ENDROOT
BRANCH   4   7
HETATM    7  C9  UNL     1     -42.441   4.105  -2.165  1.00 20.00    -0.006 C 
HETATM    8  C3  UNL     1     -42.657   5.444  -2.879  1.00 20.00     0.031 C 
HETATM    9  C6  UNL     1     -42.227   6.603  -1.990  1.00 20.00     0.168 C 
HETATM   10  O11 UNL     1     -40.869   6.451  -1.580  1.00 20.00    -0.391 OA
HETATM   11  C7  UNL     1     -40.669   5.266  -0.811  1.00 20.00     0.168 C 
HETATM   12  C4  UNL     1     -41.006   4.026  -1.631  1.00 20.00     0.031 C 
ENDBRANCH   4   7
TORSDOF 1
ENDMDL
MODEL 9
REMARK VINA RESULT:      -4.5      2.163      2.950
REMARK  1 active torsions:
REMARK  status: ('A' for Active; 'I' for Inactive)
REMARK    1  A    between atoms: C8_8  and  C9_9 
ROOT
HETATM    1  C1  UNL     1     -33.058  18.189  -0.506  1.00 20.00     0.006 C 
HETATM    2  C2  UNL     1     -33.703  18.830   0.728  1.00 20.00     0.020 C 
HETATM    3  C5  UNL     1     -35.307  17.326  -0.197  1.00 20.00     0.025 C 
HETATM    4  C8  UNL     1     -34.000  17.058  -0.944  1.00 20.00    -0.009 C 
HETATM    5  C10 UNL     1     -34.810  17.866   1.135  1.00 20.00     0.082 C 
HETATM    6 CL12 UNL     1     -36.091  18.662   2.060  1.00 20.00    -0.125 Cl
ENDROOT
BRANCH   4   7
HETATM    7  C9  UNL     1     -34.184  16.980  -2.458  1.00 20.00    -0.006 C 
HETATM    8  C3  UNL     1     -33.467  15.757  -3.040  1.00 20.00     0.031 C 
HETATM    9  C6  UNL     1     -33.549  15.758  -4.561  1.00 20.00     0.168 C 
HETATM   10  O11 UNL     1     -33.019  16.969  -5.097  1.00 20.00    -0.391 OA
HETATM   11  C7  UNL     1     -33.748  18.115  -4.658  1.00 20.00     0.168 C 
HETATM   12  C4  UNL     1     -33.677  18.254  -3.143  1.00 20.00     0.031 C 
ENDBRANCH   4   7
TORSDOF 1
ENDMDL
