MODEL 1
REMARK VINA RESULT:      -4.6      0.000      0.000
REMARK  1 active torsions:
REMARK  status: ('A' for Active; 'I' for Inactive)
REMARK    1  A    between atoms: C8_8  and  C9_9 
ROOT
HETATM    1  C1  UNL     1     -33.135  14.874  -3.743  1.00 20.00     0.002 C 
HETATM    2  C2  UNL     1     -34.446  14.825  -2.957  1.00 20.00     0.005 C 
HETATM    3  C3  UNL     1     -33.064  16.023  -4.752  1.00 20.00     0.020 C 
HETATM    4  C5  UNL     1     -35.145  17.119  -3.828  1.00 20.00     0.025 C 
HETATM    5  C8  UNL     1     -34.983  16.214  -2.589  1.00 20.00    -0.007 C 
HETATM    6  C10 UNL     1     -34.445  16.578  -5.080  1.00 20.00     0.082 C 
HETATM    7 CL12 UNL     1     -34.317  17.867  -6.312  1.00 20.00    -0.125 Cl
ENDROOT
BRANCH   5   8
HETATM    8  C9  UNL     1     -34.114  16.877  -1.538  1.00 20.00     0.015 C 
HETATM    9  C4  UNL     1     -34.791  17.059  -0.197  1.00 20.00     0.033 C 
HETATM   10  C6  UNL     1     -33.929  18.129   0.439  1.00 20.00     0.168 C 
HETATM   11  O11 UNL     1     -33.438  18.955  -0.628  1.00 20.00    -0.391 OA
HETATM   12  C7  UNL     1     -33.728  18.307  -1.875  1.00 20.00     0.172 C 
ENDBRANCH   5   8
TORSDOF 1
ENDMDL
MODEL 2
REMARK VINA RESULT:      -4.5      1.714      2.044
REMARK  1 active torsions:
REMARK  status: ('A' for Active; 'I' for Inactive)
REMARK    1  A    between atoms: C8_8  and  C9_9 
ROOT
HETATM    1  C1  UNL     1     -33.174  16.279  -4.779  1.00 20.00     0.002 C 
HETATM    2  C2  UNL     1     -33.186  15.388  -3.536  1.00 20.00     0.005 C 
HETATM    3  C3  UNL     1     -34.500  16.287  -5.543  1.00 20.00     0.020 C 
HETATM    4  C5  UNL     1     -35.714  15.077  -3.686  1.00 20.00     0.025 C 
HETATM    5  C8  UNL     1     -34.518  15.426  -2.776  1.00 20.00    -0.007 C 
HETATM    6  C10 UNL     1     -35.373  15.091  -5.181  1.00 20.00     0.082 C 
HETATM    7 CL12 UNL     1     -36.876  15.107  -6.148  1.00 20.00    -0.125 Cl
ENDROOT
BRANCH   5   8
HETATM    8  C9  UNL     1     -34.722  16.766  -2.097  1.00 20.00     0.015 C 
HETATM    9  C4  UNL     1     -34.638  16.715  -0.586  1.00 20.00     0.033 C 
HETATM   10  C6  UNL     1     -35.342  17.998  -0.197  1.00 20.00     0.168 C 
HETATM   11  O11 UNL     1     -36.338  18.245  -1.201  1.00 20.00    -0.391 OA
HETATM   12  C7  UNL     1     -36.109  17.351  -2.300  1.00 20.00     0.172 C 
ENDBRANCH   5   8
TORSDOF 1
ENDMDL
MODEL 3
REMARK VINA RESULT:      -4.5      1.769      2.031
REMARK  1 active torsions:
REMARK  status: ('A' for Active; 'I' for Inactive)
REMARK    1  A    between atoms: C8_8  and  C9_9 
ROOT
HETATM    1  C1  UNL     1     -34.328  13.613  -5.036  1.00 20.00     0.002 C 
HETATM    2  C2  UNL     1     -35.307  13.714  -3.864  1.00 20.00     0.005 C 
HETATM    3  C3  UNL     1     -34.589  14.635  -6.145  1.00 20.00     0.020 C 
HETATM    4  C5  UNL     1     -36.242  15.923  -4.734  1.00 20.00     0.025 C 
HETATM    5  C8  UNL     1     -35.685  15.158  -3.515  1.00 20.00    -0.007 C 
HETATM    6  C10 UNL     1     -35.998  15.211  -6.069  1.00 20.00     0.082 C 
HETATM    7 CL12 UNL     1     -36.276  16.344  -7.424  1.00 20.00    -0.125 Cl
ENDROOT
BRANCH   5   8
HETATM    8  C9  UNL     1     -34.515  15.896  -2.895  1.00 20.00     0.015 C 
HETATM    9  C4  UNL     1     -34.718  16.277  -1.445  1.00 20.00     0.033 C 
HETATM   10  C6  UNL     1     -33.684  17.368  -1.266  1.00 20.00     0.168 C 
HETATM   11  O11 UNL     1     -33.556  18.031  -2.534  1.00 20.00    -0.391 OA
HETATM   12  C7  UNL     1     -34.243  17.252  -3.525  1.00 20.00     0.172 C 
ENDBRANCH   5   8
TORSDOF 1
ENDMDL
MODEL 4
REMARK VINA RESULT:      -4.5      2.905      4.512
REMARK  1 active torsions:
REMARK  status: ('A' for Active; 'I' for Inactive)
REMARK    1  A    between atoms: C8_8  and  C9_9 
ROOT
HETATM    1  C1  UNL     1     -35.342  18.243  -3.753  1.00 20.00     0.002 C 
HETATM    2  C2  UNL     1     -36.323  17.183  -3.251  1.00 20.00     0.005 C 
HETATM    3  C3  UNL     1     -34.112  18.417  -2.858  1.00 20.00     0.020 C 
HETATM    4  C5  UNL     1     -34.654  16.350  -1.510  1.00 20.00     0.025 C 
HETATM    5  C8  UNL     1     -35.631  15.960  -2.639  1.00 20.00    -0.007 C 
HETATM    6  C10 UNL     1     -34.339  17.849  -1.462  1.00 20.00     0.082 C 
HETATM    7 CL12 UNL     1     -32.904  18.138  -0.436  1.00 20.00    -0.125 Cl
ENDROOT
BRANCH   5   8
HETATM    8  C9  UNL     1     -34.934  15.135  -3.703  1.00 20.00     0.015 C 
HETATM    9  C4  UNL     1     -35.768  14.001  -4.257  1.00 20.00     0.033 C 
HETATM   10  C6  UNL     1     -34.708  13.112  -4.872  1.00 20.00     0.168 C 
HETATM   11  O11 UNL     1     -33.521  13.274  -4.081  1.00 20.00    -0.391 OA
HETATM   12  C7  UNL     1     -33.711  14.389  -3.197  1.00 20.00     0.172 C 
ENDBRANCH   5   8
TORSDOF 1
ENDMDL
MODEL 5
REMARK VINA RESULT:      -4.3      3.110      4.671
REMARK  1 active torsions:
REMARK  status: ('A' for Active; 'I' for Inactive)
REMARK    1  A    between atoms: C8_8  and  C9_9 
ROOT
HETATM    1  C1  UNL     1     -33.693  17.391  -0.786  1.00 20.00     0.002 C 
HETATM    2  C2  UNL     1     -33.825  17.630  -2.290  1.00 20.00     0.005 C 
HETATM    3  C3  UNL     1     -35.014  17.524  -0.023  1.00 20.00     0.020 C 
HETATM    4  C5  UNL     1     -36.373  17.596  -2.152  1.00 20.00     0.025 C 
HETATM    5  C8  UNL     1     -35.122  17.064  -2.882  1.00 20.00    -0.007 C 
HETATM    6  C10 UNL     1     -36.059  18.293  -0.823  1.00 20.00     0.082 C 
HETATM    7 CL12 UNL     1     -37.556  18.481   0.135  1.00 20.00    -0.125 Cl
ENDROOT
BRANCH   5   8
HETATM    8  C9  UNL     1     -35.101  15.548  -2.895  1.00 20.00     0.015 C 
HETATM    9  C4  UNL     1     -33.886  14.949  -3.569  1.00 20.00     0.033 C 
HETATM   10  C6  UNL     1     -34.361  13.542  -3.865  1.00 20.00     0.168 C 
HETATM   11  O11 UNL     1     -35.777  13.622  -4.094  1.00 20.00    -0.391 OA
HETATM   12  C7  UNL     1     -36.228  14.927  -3.702  1.00 20.00     0.172 C 
ENDBRANCH   5   8
TORSDOF 1
ENDMDL
MODEL 6
REMARK VINA RESULT:      -4.3      1.981      2.674
REMARK  1 active torsions:
REMARK  status: ('A' for Active; 'I' for Inactive)
REMARK    1  A    between atoms: C8_8  and  C9_9 
ROOT
HETATM    1  C1  UNL     1     -35.514  17.285  -4.798  1.00 20.00     0.002 C 
HETATM    2  C2  UNL     1     -34.065  17.623  -4.443  1.00 20.00     0.005 C 
HETATM    3  C3  UNL     1     -35.889  15.825  -4.527  1.00 20.00     0.020 C 
HETATM    4  C5  UNL     1     -33.752  15.388  -3.252  1.00 20.00     0.025 C 
HETATM    5  C8  UNL     1     -33.572  16.918  -3.173  1.00 20.00    -0.007 C 
HETATM    6  C10 UNL     1     -34.659  14.935  -4.402  1.00 20.00     0.082 C 
HETATM    7 CL12 UNL     1     -35.149  13.234  -4.157  1.00 20.00    -0.125 Cl
ENDROOT
BRANCH   5   8
HETATM    8  C9  UNL     1     -34.245  17.484  -1.937  1.00 20.00     0.015 C 
HETATM    9  C4  UNL     1     -33.321  18.265  -1.029  1.00 20.00     0.033 C 
HETATM   10  C6  UNL     1     -34.095  18.262   0.273  1.00 20.00     0.168 C 
HETATM   11  O11 UNL     1     -34.839  17.034   0.310  1.00 20.00    -0.391 OA
HETATM   12  C7  UNL     1     -34.773  16.423  -0.987  1.00 20.00     0.172 C 
ENDBRANCH   5   8
TORSDOF 1
ENDMDL
MODEL 7
REMARK VINA RESULT:      -4.2      3.071      4.969
REMARK  1 active torsions:
REMARK  status: ('A' for Active; 'I' for Inactive)
REMARK    1  A    between atoms: C8_8  and  C9_9 
ROOT
HETATM    1  C1  UNL     1     -37.226  16.626  -3.174  1.00 20.00     0.002 C 
HETATM    2  C2  UNL     1     -37.046  15.128  -3.425  1.00 20.00     0.005 C 
HETATM    3  C3  UNL     1     -35.991  17.303  -2.576  1.00 20.00     0.020 C 
HETATM    4  C5  UNL     1     -34.538  15.276  -2.978  1.00 20.00     0.025 C 
HETATM    5  C8  UNL     1     -35.643  14.763  -3.925  1.00 20.00    -0.007 C 
HETATM    6  C10 UNL     1     -35.037  16.294  -1.947  1.00 20.00     0.082 C 
HETATM    7 CL12 UNL     1     -33.648  17.137  -1.202  1.00 20.00    -0.125 Cl
ENDROOT
BRANCH   5   8
HETATM    8  C9  UNL     1     -35.421  15.258  -5.341  1.00 20.00     0.015 C 
HETATM    9  C4  UNL     1     -35.300  14.157  -6.372  1.00 20.00     0.033 C 
HETATM   10  C6  UNL     1     -34.619  14.879  -7.515  1.00 20.00     0.168 C 
HETATM   11  O11 UNL     1     -33.780  15.886  -6.928  1.00 20.00    -0.391 OA
HETATM   12  C7  UNL     1     -34.106  15.994  -5.534  1.00 20.00     0.172 C 
ENDBRANCH   5   8
TORSDOF 1
ENDMDL
MODEL 8
REMARK VINA RESULT:      -4.1      3.180      4.319
REMARK  1 active torsions:
REMARK  status: ('A' for Active; 'I' for Inactive)
REMARK    1  A    between atoms: C8_8  and  C9_9 
ROOT
HETATM    1  C1  UNL     1     -34.527  17.245  -5.763  1.00 20.00     0.002 C 
HETATM    2  C2  UNL     1     -35.188  17.926  -4.564  1.00 20.00     0.005 C 
HETATM    3  C3  UNL     1     -33.700  16.011  -5.392  1.00 20.00     0.020 C 
HETATM    4  C5  UNL     1     -34.597  15.974  -3.030  1.00 20.00     0.025 C 
HETATM    5  C8  UNL     1     -35.704  16.935  -3.513  1.00 20.00    -0.007 C 
HETATM    6  C10 UNL     1     -33.343  15.990  -3.910  1.00 20.00     0.082 C 
HETATM    7 CL12 UNL     1     -32.321  14.571  -3.541  1.00 20.00    -0.125 Cl
ENDROOT
BRANCH   5   8
HETATM    8  C9  UNL     1     -36.906  16.167  -4.028  1.00 20.00     0.015 C 
HETATM    9  C4  UNL     1     -38.199  16.483  -3.310  1.00 20.00     0.033 C 
HETATM   10  C6  UNL     1     -39.050  15.282  -3.665  1.00 20.00     0.168 C 
HETATM   11  O11 UNL     1     -38.155  14.168  -3.808  1.00 20.00    -0.391 OA
HETATM   12  C7  UNL     1     -36.808  14.665  -3.822  1.00 20.00     0.172 C 
ENDBRANCH   5   8
TORSDOF 1
ENDMDL
MODEL 9
REMARK VINA RESULT:      -4.1      2.906      4.684
REMARK  1 active torsions:
REMARK  status: ('A' for Active; 'I' for Inactive)
REMARK    1  A    between atoms: C8_8  and  C9_9 
ROOT
HETATM    1  C1  UNL     1     -34.485  14.379  -3.415  1.00 20.00     0.002 C 
HETATM    2  C2  UNL     1     -33.214  14.947  -4.048  1.00 20.00     0.005 C 
HETATM    3  C3  UNL     1     -35.149  15.324  -2.411  1.00 20.00     0.020 C 
HETATM    4  C5  UNL     1     -33.677  17.264  -3.084  1.00 20.00     0.025 C 
HETATM    5  C8  UNL     1     -33.304  16.450  -4.341  1.00 20.00    -0.007 C 
HETATM    6  C10 UNL     1     -34.189  16.403  -1.924  1.00 20.00     0.082 C 
HETATM    7 CL12 UNL     1     -34.988  17.437  -0.705  1.00 20.00    -0.125 Cl
ENDROOT
BRANCH   5   8
HETATM    8  C9  UNL     1     -34.267  16.729  -5.478  1.00 20.00     0.015 C 
HETATM    9  C4  UNL     1     -34.134  15.783  -6.651  1.00 20.00     0.033 C 
HETATM   10  C6  UNL     1     -34.810  16.567  -7.756  1.00 20.00     0.168 C 
HETATM   11  O11 UNL     1     -34.583  17.957  -7.477  1.00 20.00    -0.391 OA
HETATM   12  C7  UNL     1     -34.047  18.073  -6.151  1.00 20.00     0.172 C 
ENDBRANCH   5   8
TORSDOF 1
ENDMDL
