MODEL 1
REMARK VINA RESULT:      -5.6      0.000      0.000
REMARK  1 active torsions:
REMARK  status: ('A' for Active; 'I' for Inactive)
REMARK    1  A    between atoms: C7_7  and  C8_8 
ROOT
HETATM    1  C1  UNL     1     -31.884   8.206   1.955  1.00 20.00     0.012 C 
HETATM    2  C2  UNL     1     -32.289   7.287   2.613  1.00 20.00    -0.117 C 
HETATM    3  C8  UNL     1     -32.778   6.159   3.416  1.00 20.00     0.098 C 
ENDROOT
BRANCH   3   4
HETATM    4  C7  UNL     1     -34.119   6.488   4.073  1.00 20.00     0.004 C 
HETATM    5  C5  UNL     1     -34.050   6.383   5.599  1.00 20.00     0.083 C 
HETATM    6  C3  UNL     1     -34.451   4.950   5.844  1.00 20.00     0.127 C 
HETATM    7  C4  UNL     1     -35.019   4.294   4.614  1.00 20.00     0.079 C 
HETATM    8  O9  UNL     1     -34.330   4.386   6.924  1.00 20.00    -0.298 OA
HETATM    9  C6  UNL     1     -35.210   5.486   3.683  1.00 20.00     0.013 C 
ENDBRANCH   3   4
TORSDOF 1
ENDMDL
MODEL 2
REMARK VINA RESULT:      -5.0     11.409     12.246
REMARK  1 active torsions:
REMARK  status: ('A' for Active; 'I' for Inactive)
REMARK    1  A    between atoms: C7_7  and  C8_8 
ROOT
HETATM    1  C1  UNL     1     -33.412  17.938  -0.687  1.00 20.00     0.012 C 
HETATM    2  C2  UNL     1     -34.009  17.048  -1.228  1.00 20.00    -0.117 C 
HETATM    3  C8  UNL     1     -34.742  15.957  -1.884  1.00 20.00     0.098 C 
ENDROOT
BRANCH   3   4
HETATM    4  C7  UNL     1     -34.451  15.918  -3.384  1.00 20.00     0.004 C 
HETATM    5  C5  UNL     1     -35.389  14.961  -4.124  1.00 20.00     0.083 C 
HETATM    6  C3  UNL     1     -34.620  13.664  -4.093  1.00 20.00     0.127 C 
HETATM    7  C4  UNL     1     -33.194  13.852  -3.646  1.00 20.00     0.079 C 
HETATM    8  O9  UNL     1     -35.101  12.580  -4.399  1.00 20.00    -0.298 OA
HETATM    9  C6  UNL     1     -33.053  15.370  -3.684  1.00 20.00     0.013 C 
ENDBRANCH   3   4
TORSDOF 1
ENDMDL
MODEL 3
REMARK VINA RESULT:      -4.6     11.793     12.761
REMARK  1 active torsions:
REMARK  status: ('A' for Active; 'I' for Inactive)
REMARK    1  A    between atoms: C7_7  and  C8_8 
ROOT
HETATM    1  C1  UNL     1     -34.413  17.017  -0.569  1.00 20.00     0.012 C 
HETATM    2  C2  UNL     1     -34.682  16.351  -1.531  1.00 20.00    -0.117 C 
HETATM    3  C8  UNL     1     -35.018  15.536  -2.706  1.00 20.00     0.098 C 
ENDROOT
BRANCH   3   4
HETATM    4  C7  UNL     1     -33.777  15.245  -3.550  1.00 20.00     0.004 C 
HETATM    5  C5  UNL     1     -33.955  15.694  -5.003  1.00 20.00     0.083 C 
HETATM    6  C3  UNL     1     -34.510  14.455  -5.660  1.00 20.00     0.127 C 
HETATM    7  C4  UNL     1     -34.406  13.240  -4.776  1.00 20.00     0.079 C 
HETATM    8  O9  UNL     1     -34.990  14.439  -6.787  1.00 20.00    -0.298 OA
HETATM    9  C6  UNL     1     -33.497  13.743  -3.660  1.00 20.00     0.013 C 
ENDBRANCH   3   4
TORSDOF 1
ENDMDL
MODEL 4
REMARK VINA RESULT:      -4.5     11.486     12.752
REMARK  1 active torsions:
REMARK  status: ('A' for Active; 'I' for Inactive)
REMARK    1  A    between atoms: C7_7  and  C8_8 
ROOT
HETATM    1  C1  UNL     1     -34.008  18.903  -4.187  1.00 20.00     0.012 C 
HETATM    2  C2  UNL     1     -33.670  17.771  -4.402  1.00 20.00    -0.117 C 
HETATM    3  C8  UNL     1     -33.256  16.387  -4.670  1.00 20.00     0.098 C 
ENDROOT
BRANCH   3   4
HETATM    4  C7  UNL     1     -33.392  15.516  -3.421  1.00 20.00     0.004 C 
HETATM    5  C5  UNL     1     -33.282  14.025  -3.748  1.00 20.00     0.083 C 
HETATM    6  C3  UNL     1     -34.720  13.639  -3.991  1.00 20.00     0.127 C 
HETATM    7  C4  UNL     1     -35.683  14.712  -3.557  1.00 20.00     0.079 C 
HETATM    8  O9  UNL     1     -35.064  12.572  -4.483  1.00 20.00    -0.298 OA
HETATM    9  C6  UNL     1     -34.773  15.651  -2.774  1.00 20.00     0.013 C 
ENDBRANCH   3   4
TORSDOF 1
ENDMDL
MODEL 5
REMARK VINA RESULT:      -4.4     12.053     12.782
REMARK  1 active torsions:
REMARK  status: ('A' for Active; 'I' for Inactive)
REMARK    1  A    between atoms: C7_7  and  C8_8 
ROOT
HETATM    1  C1  UNL     1     -34.722  16.694  -0.793  1.00 20.00     0.012 C 
HETATM    2  C2  UNL     1     -34.343  16.196  -1.817  1.00 20.00    -0.117 C 
HETATM    3  C8  UNL     1     -33.874  15.591  -3.071  1.00 20.00     0.098 C 
ENDROOT
BRANCH   3   4
HETATM    4  C7  UNL     1     -34.685  14.343  -3.421  1.00 20.00     0.004 C 
HETATM    5  C5  UNL     1     -34.211  13.700  -4.727  1.00 20.00     0.083 C 
HETATM    6  C3  UNL     1     -35.084  14.373  -5.756  1.00 20.00     0.127 C 
HETATM    7  C4  UNL     1     -36.217  15.144  -5.132  1.00 20.00     0.079 C 
HETATM    8  O9  UNL     1     -34.894  14.298  -6.963  1.00 20.00    -0.298 OA
HETATM    9  C6  UNL     1     -36.158  14.670  -3.684  1.00 20.00     0.013 C 
ENDBRANCH   3   4
TORSDOF 1
ENDMDL
MODEL 6
REMARK VINA RESULT:      -4.3     12.023     12.588
REMARK  1 active torsions:
REMARK  status: ('A' for Active; 'I' for Inactive)
REMARK    1  A    between atoms: C7_7  and  C8_8 
ROOT
HETATM    1  C1  UNL     1     -34.751  17.212  -0.219  1.00 20.00     0.012 C 
HETATM    2  C2  UNL     1     -34.546  16.514  -1.175  1.00 20.00    -0.117 C 
HETATM    3  C8  UNL     1     -34.292  15.657  -2.340  1.00 20.00     0.098 C 
ENDROOT
BRANCH   3   4
HETATM    4  C7  UNL     1     -35.057  16.151  -3.568  1.00 20.00     0.004 C 
HETATM    5  C5  UNL     1     -36.573  16.090  -3.361  1.00 20.00     0.083 C 
HETATM    6  C3  UNL     1     -36.917  14.718  -3.883  1.00 20.00     0.127 C 
HETATM    7  C4  UNL     1     -35.776  14.087  -4.635  1.00 20.00     0.079 C 
HETATM    8  O9  UNL     1     -38.004  14.180  -3.717  1.00 20.00    -0.298 OA
HETATM    9  C6  UNL     1     -34.816  15.261  -4.791  1.00 20.00     0.013 C 
ENDBRANCH   3   4
TORSDOF 1
ENDMDL
MODEL 7
REMARK VINA RESULT:      -4.2     12.041     12.956
REMARK  1 active torsions:
REMARK  status: ('A' for Active; 'I' for Inactive)
REMARK    1  A    between atoms: C7_7  and  C8_8 
ROOT
HETATM    1  C1  UNL     1     -34.942  14.770  -7.882  1.00 20.00     0.012 C 
HETATM    2  C2  UNL     1     -34.512  15.177  -6.837  1.00 20.00    -0.117 C 
HETATM    3  C8  UNL     1     -33.987  15.679  -5.561  1.00 20.00     0.098 C 
ENDROOT
BRANCH   3   4
HETATM    4  C7  UNL     1     -34.070  14.612  -4.469  1.00 20.00     0.004 C 
HETATM    5  C5  UNL     1     -35.313  13.731  -4.623  1.00 20.00     0.083 C 
HETATM    6  C3  UNL     1     -36.332  14.458  -3.783  1.00 20.00     0.127 C 
HETATM    7  C4  UNL     1     -35.711  15.530  -2.927  1.00 20.00     0.079 C 
HETATM    8  O9  UNL     1     -37.529  14.202  -3.793  1.00 20.00    -0.298 OA
HETATM    9  C6  UNL     1     -34.225  15.227  -3.075  1.00 20.00     0.013 C 
ENDBRANCH   3   4
TORSDOF 1
ENDMDL
MODEL 8
REMARK VINA RESULT:      -4.1     12.430     13.216
REMARK  1 active torsions:
REMARK  status: ('A' for Active; 'I' for Inactive)
REMARK    1  A    between atoms: C7_7  and  C8_8 
ROOT
HETATM    1  C1  UNL     1     -35.168  17.391   0.709  1.00 20.00     0.012 C 
HETATM    2  C2  UNL     1     -34.553  17.228  -0.309  1.00 20.00    -0.117 C 
HETATM    3  C8  UNL     1     -33.797  17.032  -1.553  1.00 20.00     0.098 C 
ENDROOT
BRANCH   3   4
HETATM    4  C7  UNL     1     -34.277  15.789  -2.304  1.00 20.00     0.004 C 
HETATM    5  C5  UNL     1     -33.337  15.416  -3.452  1.00 20.00     0.083 C 
HETATM    6  C3  UNL     1     -33.932  16.166  -4.617  1.00 20.00     0.127 C 
HETATM    7  C4  UNL     1     -35.298  16.717  -4.307  1.00 20.00     0.079 C 
HETATM    8  O9  UNL     1     -33.368  16.308  -5.694  1.00 20.00    -0.298 OA
HETATM    9  C6  UNL     1     -35.626  16.019  -2.992  1.00 20.00     0.013 C 
ENDBRANCH   3   4
TORSDOF 1
ENDMDL
MODEL 9
REMARK VINA RESULT:      -3.9     11.349     12.697
REMARK  1 active torsions:
REMARK  status: ('A' for Active; 'I' for Inactive)
REMARK    1  A    between atoms: C7_7  and  C8_8 
ROOT
HETATM    1  C1  UNL     1     -37.270  17.439  -2.973  1.00 20.00     0.012 C 
HETATM    2  C2  UNL     1     -36.233  16.855  -2.813  1.00 20.00    -0.117 C 
HETATM    3  C8  UNL     1     -34.966  16.139  -2.612  1.00 20.00     0.098 C 
ENDROOT
BRANCH   3   4
HETATM    4  C7  UNL     1     -34.251  15.894  -3.941  1.00 20.00     0.004 C 
HETATM    5  C5  UNL     1     -35.029  14.930  -4.840  1.00 20.00     0.083 C 
HETATM    6  C3  UNL     1     -34.453  13.590  -4.455  1.00 20.00     0.127 C 
HETATM    7  C4  UNL     1     -33.211  13.721  -3.614  1.00 20.00     0.079 C 
HETATM    8  O9  UNL     1     -34.940  12.518  -4.791  1.00 20.00    -0.298 OA
HETATM    9  C6  UNL     1     -32.897  15.206  -3.747  1.00 20.00     0.013 C 
ENDBRANCH   3   4
TORSDOF 1
ENDMDL
