MODEL 1
REMARK VINA RESULT:      -5.3      0.000      0.000
REMARK  1 active torsions:
REMARK  status: ('A' for Active; 'I' for Inactive)
REMARK    1  A    between atoms: C8_8  and  C9_9 
ROOT
HETATM    1  C1  UNL     1     -34.860  17.358   0.367  1.00 20.00     0.012 C 
HETATM    2  C2  UNL     1     -34.423  17.106  -0.721  1.00 20.00    -0.117 C 
HETATM    3  C9  UNL     1     -33.882  16.807  -2.050  1.00 20.00     0.098 C 
ENDROOT
BRANCH   3   4
HETATM    4  C8  UNL     1     -34.462  15.507  -2.599  1.00 20.00     0.004 C 
HETATM    5  C5  UNL     1     -35.808  15.765  -3.280  1.00 20.00     0.083 C 
HETATM    6  C3  UNL     1     -36.336  14.499  -3.920  1.00 20.00     0.127 C 
HETATM    7  C4  UNL     1     -35.380  13.748  -4.818  1.00 20.00     0.078 C 
HETATM    8  O10 UNL     1     -37.511  14.157  -3.798  1.00 20.00    -0.298 OA
HETATM    9  C6  UNL     1     -34.048  13.531  -4.116  1.00 20.00     0.008 C 
HETATM   10  C7  UNL     1     -33.476  14.838  -3.566  1.00 20.00     0.006 C 
ENDBRANCH   3   4
TORSDOF 1
ENDMDL
MODEL 2
REMARK VINA RESULT:      -5.2     10.954     11.642
REMARK  1 active torsions:
REMARK  status: ('A' for Active; 'I' for Inactive)
REMARK    1  A    between atoms: C8_8  and  C9_9 
ROOT
HETATM    1  C1  UNL     1     -32.305   9.207   1.450  1.00 20.00     0.012 C 
HETATM    2  C2  UNL     1     -32.159   8.252   2.162  1.00 20.00    -0.117 C 
HETATM    3  C9  UNL     1     -31.969   7.084   3.027  1.00 20.00     0.098 C 
ENDROOT
BRANCH   3   4
HETATM    4  C8  UNL     1     -33.195   6.848   3.906  1.00 20.00     0.004 C 
HETATM    5  C5  UNL     1     -33.913   5.562   3.491  1.00 20.00     0.083 C 
HETATM    6  C3  UNL     1     -35.064   5.267   4.428  1.00 20.00     0.127 C 
HETATM    7  C4  UNL     1     -34.755   5.293   5.907  1.00 20.00     0.078 C 
HETATM    8  O10 UNL     1     -36.167   4.922   4.005  1.00 20.00    -0.298 OA
HETATM    9  C6  UNL     1     -34.021   6.574   6.276  1.00 20.00     0.008 C 
HETATM   10  C7  UNL     1     -32.799   6.804   5.389  1.00 20.00     0.006 C 
ENDBRANCH   3   4
TORSDOF 1
ENDMDL
MODEL 3
REMARK VINA RESULT:      -5.1     10.885     11.559
REMARK  1 active torsions:
REMARK  status: ('A' for Active; 'I' for Inactive)
REMARK    1  A    between atoms: C8_8  and  C9_9 
ROOT
HETATM    1  C1  UNL     1     -32.214   8.732   1.232  1.00 20.00     0.012 C 
HETATM    2  C2  UNL     1     -31.948   8.189   2.268  1.00 20.00    -0.117 C 
HETATM    3  C9  UNL     1     -31.616   7.533   3.536  1.00 20.00     0.098 C 
ENDROOT
BRANCH   3   4
HETATM    4  C8  UNL     1     -32.592   6.400   3.840  1.00 20.00     0.004 C 
HETATM    5  C5  UNL     1     -33.402   6.713   5.100  1.00 20.00     0.083 C 
HETATM    6  C3  UNL     1     -34.446   5.645   5.344  1.00 20.00     0.127 C 
HETATM    7  C4  UNL     1     -35.333   5.288   4.173  1.00 20.00     0.078 C 
HETATM    8  O10 UNL     1     -34.631   5.168   6.462  1.00 20.00    -0.298 OA
HETATM    9  C6  UNL     1     -34.494   5.008   2.935  1.00 20.00     0.008 C 
HETATM   10  C7  UNL     1     -33.517   6.145   2.641  1.00 20.00     0.006 C 
ENDBRANCH   3   4
TORSDOF 1
ENDMDL
MODEL 4
REMARK VINA RESULT:      -5.0      1.713      2.005
REMARK  1 active torsions:
REMARK  status: ('A' for Active; 'I' for Inactive)
REMARK    1  A    between atoms: C8_8  and  C9_9 
ROOT
HETATM    1  C1  UNL     1     -32.999  18.304  -0.483  1.00 20.00     0.012 C 
HETATM    2  C2  UNL     1     -33.739  17.460  -0.907  1.00 20.00    -0.117 C 
HETATM    3  C9  UNL     1     -34.651  16.433  -1.418  1.00 20.00     0.098 C 
ENDROOT
BRANCH   3   4
HETATM    4  C8  UNL     1     -34.077  15.759  -2.662  1.00 20.00     0.004 C 
HETATM    5  C5  UNL     1     -35.020  14.661  -3.160  1.00 20.00     0.083 C 
HETATM    6  C3  UNL     1     -34.509  14.065  -4.454  1.00 20.00     0.127 C 
HETATM    7  C4  UNL     1     -34.145  15.040  -5.549  1.00 20.00     0.078 C 
HETATM    8  O10 UNL     1     -34.490  12.849  -4.640  1.00 20.00    -0.298 OA
HETATM    9  C6  UNL     1     -33.228  16.129  -5.011  1.00 20.00     0.008 C 
HETATM   10  C7  UNL     1     -33.808  16.794  -3.764  1.00 20.00     0.006 C 
ENDBRANCH   3   4
TORSDOF 1
ENDMDL
MODEL 5
REMARK VINA RESULT:      -4.7     11.730     12.489
REMARK  1 active torsions:
REMARK  status: ('A' for Active; 'I' for Inactive)
REMARK    1  A    between atoms: C8_8  and  C9_9 
ROOT
HETATM    1  C1  UNL     1     -31.855   8.069   2.176  1.00 20.00     0.012 C 
HETATM    2  C2  UNL     1     -32.533   7.093   2.346  1.00 20.00    -0.117 C 
HETATM    3  C9  UNL     1     -33.360   5.900   2.541  1.00 20.00     0.098 C 
ENDROOT
BRANCH   3   4
HETATM    4  C8  UNL     1     -33.493   5.562   4.024  1.00 20.00     0.004 C 
HETATM    5  C5  UNL     1     -33.720   6.833   4.846  1.00 20.00     0.083 C 
HETATM    6  C3  UNL     1     -33.960   6.493   6.301  1.00 20.00     0.127 C 
HETATM    7  C4  UNL     1     -35.006   5.441   6.584  1.00 20.00     0.078 C 
HETATM    8  O10 UNL     1     -33.408   7.115   7.208  1.00 20.00    -0.298 OA
HETATM    9  C6  UNL     1     -34.762   4.203   5.733  1.00 20.00     0.008 C 
HETATM   10  C7  UNL     1     -34.627   4.551   4.251  1.00 20.00     0.006 C 
ENDBRANCH   3   4
TORSDOF 1
ENDMDL
MODEL 6
REMARK VINA RESULT:      -4.7      1.770      2.031
REMARK  1 active torsions:
REMARK  status: ('A' for Active; 'I' for Inactive)
REMARK    1  A    between atoms: C8_8  and  C9_9 
ROOT
HETATM    1  C1  UNL     1     -34.578  16.575  -0.867  1.00 20.00     0.012 C 
HETATM    2  C2  UNL     1     -34.217  16.854  -1.977  1.00 20.00    -0.117 C 
HETATM    3  C9  UNL     1     -33.774  17.205  -3.330  1.00 20.00     0.098 C 
ENDROOT
BRANCH   3   4
HETATM    4  C8  UNL     1     -33.819  15.990  -4.253  1.00 20.00     0.004 C 
HETATM    5  C5  UNL     1     -34.857  14.979  -3.761  1.00 20.00     0.083 C 
HETATM    6  C3  UNL     1     -34.982  13.825  -4.732  1.00 20.00     0.127 C 
HETATM    7  C4  UNL     1     -35.185  14.185  -6.185  1.00 20.00     0.078 C 
HETATM    8  O10 UNL     1     -35.020  12.659  -4.345  1.00 20.00    -0.298 OA
HETATM    9  C6  UNL     1     -34.150  15.209  -6.631  1.00 20.00     0.008 C 
HETATM   10  C7  UNL     1     -34.110  16.419  -5.699  1.00 20.00     0.006 C 
ENDBRANCH   3   4
TORSDOF 1
ENDMDL
MODEL 7
REMARK VINA RESULT:      -4.7      0.916      1.598
REMARK  1 active torsions:
REMARK  status: ('A' for Active; 'I' for Inactive)
REMARK    1  A    between atoms: C8_8  and  C9_9 
ROOT
HETATM    1  C1  UNL     1     -33.677  18.709  -3.706  1.00 20.00     0.012 C 
HETATM    2  C2  UNL     1     -33.856  17.863  -2.874  1.00 20.00    -0.117 C 
HETATM    3  C9  UNL     1     -34.073  16.837  -1.850  1.00 20.00     0.098 C 
ENDROOT
BRANCH   3   4
HETATM    4  C8  UNL     1     -34.567  15.535  -2.475  1.00 20.00     0.004 C 
HETATM    5  C5  UNL     1     -35.907  15.754  -3.182  1.00 20.00     0.083 C 
HETATM    6  C3  UNL     1     -36.347  14.493  -3.895  1.00 20.00     0.127 C 
HETATM    7  C4  UNL     1     -35.329  13.838  -4.798  1.00 20.00     0.078 C 
HETATM    8  O10 UNL     1     -37.505  14.083  -3.823  1.00 20.00    -0.298 OA
HETATM    9  C6  UNL     1     -34.005  13.659  -4.068  1.00 20.00     0.008 C 
HETATM   10  C7  UNL     1     -33.520  14.966  -3.443  1.00 20.00     0.006 C 
ENDBRANCH   3   4
TORSDOF 1
ENDMDL
MODEL 8
REMARK VINA RESULT:      -4.7      1.264      2.002
REMARK  1 active torsions:
REMARK  status: ('A' for Active; 'I' for Inactive)
REMARK    1  A    between atoms: C8_8  and  C9_9 
ROOT
HETATM    1  C1  UNL     1     -34.797  16.999  -0.118  1.00 20.00     0.012 C 
HETATM    2  C2  UNL     1     -34.303  16.985  -1.210  1.00 20.00    -0.117 C 
HETATM    3  C9  UNL     1     -33.689  16.973  -2.541  1.00 20.00     0.098 C 
ENDROOT
BRANCH   3   4
HETATM    4  C8  UNL     1     -34.509  16.132  -3.516  1.00 20.00     0.004 C 
HETATM    5  C5  UNL     1     -34.506  14.662  -3.090  1.00 20.00     0.083 C 
HETATM    6  C3  UNL     1     -35.406  13.843  -3.990  1.00 20.00     0.127 C 
HETATM    7  C4  UNL     1     -36.806  14.369  -4.204  1.00 20.00     0.078 C 
HETATM    8  O10 UNL     1     -35.050  12.754  -4.439  1.00 20.00    -0.298 OA
HETATM    9  C6  UNL     1     -36.769  15.837  -4.603  1.00 20.00     0.008 C 
HETATM   10  C7  UNL     1     -35.943  16.671  -3.624  1.00 20.00     0.006 C 
ENDBRANCH   3   4
TORSDOF 1
ENDMDL
MODEL 9
REMARK VINA RESULT:      -4.6      1.217      1.225
REMARK  1 active torsions:
REMARK  status: ('A' for Active; 'I' for Inactive)
REMARK    1  A    between atoms: C8_8  and  C9_9 
ROOT
HETATM    1  C1  UNL     1     -34.883  17.066  -0.162  1.00 20.00     0.012 C 
HETATM    2  C2  UNL     1     -34.333  16.753  -1.181  1.00 20.00    -0.117 C 
HETATM    3  C9  UNL     1     -33.650  16.376  -2.423  1.00 20.00     0.098 C 
ENDROOT
BRANCH   3   4
HETATM    4  C8  UNL     1     -34.516  15.440  -3.262  1.00 20.00     0.004 C 
HETATM    5  C5  UNL     1     -35.070  16.174  -4.486  1.00 20.00     0.083 C 
HETATM    6  C3  UNL     1     -35.839  15.223  -5.377  1.00 20.00     0.127 C 
HETATM    7  C4  UNL     1     -35.140  13.938  -5.754  1.00 20.00     0.078 C 
HETATM    8  O10 UNL     1     -36.932  15.527  -5.853  1.00 20.00    -0.298 OA
HETATM    9  C6  UNL     1     -34.583  13.250  -4.516  1.00 20.00     0.008 C 
HETATM   10  C7  UNL     1     -33.721  14.195  -3.680  1.00 20.00     0.006 C 
ENDBRANCH   3   4
TORSDOF 1
ENDMDL
