MODEL 1
REMARK VINA RESULT:      -5.1      0.000      0.000
REMARK  3 active torsions:
REMARK  status: ('A' for Active; 'I' for Inactive)
REMARK    1  A    between atoms: C4_4  and  C7_7 
REMARK    2  A    between atoms: C7_7  and  C9_9 
REMARK    3  A    between atoms: C8_8  and  C9_9 
ROOT
HETATM    1  C1  UNL     1     -33.294   7.021   5.203  1.00 20.00     0.006 C 
HETATM    2  C2  UNL     1     -33.997   6.127   6.229  1.00 20.00     0.020 C 
HETATM    3  C3  UNL     1     -34.285   5.103   4.094  1.00 20.00     0.024 C 
HETATM    4  C4  UNL     1     -33.693   6.485   3.820  1.00 20.00    -0.013 C 
HETATM    5  C5  UNL     1     -35.001   5.317   5.419  1.00 20.00     0.082 C 
HETATM    6 CL10 UNL     1     -35.431   3.792   6.207  1.00 20.00    -0.125 Cl
ENDROOT
BRANCH   4   7
HETATM    7  C7  UNL     1     -32.538   6.452   2.833  1.00 20.00     0.005 C 
BRANCH   7   8
HETATM    8  C9  UNL     1     -31.797   7.787   2.796  1.00 20.00     0.000 C 
BRANCH   8   9
HETATM    9  C8  UNL     1     -31.876   8.427   1.410  1.00 20.00    -0.005 C 
HETATM   10  C6  UNL     1     -32.513   9.807   1.470  1.00 20.00     0.005 C 
ENDBRANCH   8   9
ENDBRANCH   7   8
ENDBRANCH   4   7
TORSDOF 3
ENDMDL
MODEL 2
REMARK VINA RESULT:      -4.9      0.856      1.534
REMARK  3 active torsions:
REMARK  status: ('A' for Active; 'I' for Inactive)
REMARK    1  A    between atoms: C4_4  and  C7_7 
REMARK    2  A    between atoms: C7_7  and  C9_9 
REMARK    3  A    between atoms: C8_8  and  C9_9 
ROOT
HETATM    1  C1  UNL     1     -34.441   5.414   3.027  1.00 20.00     0.006 C 
HETATM    2  C2  UNL     1     -35.252   4.746   4.142  1.00 20.00     0.020 C 
HETATM    3  C3  UNL     1     -33.730   6.254   5.191  1.00 20.00     0.024 C 
HETATM    4  C4  UNL     1     -33.312   6.189   3.722  1.00 20.00    -0.013 C 
HETATM    5  C5  UNL     1     -34.399   4.903   5.394  1.00 20.00     0.082 C 
HETATM    6 CL10 UNL     1     -35.361   4.843   6.878  1.00 20.00    -0.125 Cl
ENDROOT
BRANCH   4   7
HETATM    7  C7  UNL     1     -33.063   7.559   3.114  1.00 20.00     0.005 C 
BRANCH   7   8
HETATM    8  C9  UNL     1     -31.734   7.604   2.362  1.00 20.00     0.000 C 
BRANCH   8   9
HETATM    9  C8  UNL     1     -31.796   8.572   1.182  1.00 20.00    -0.005 C 
HETATM   10  C6  UNL     1     -32.550   9.842   1.543  1.00 20.00     0.005 C 
ENDBRANCH   8   9
ENDBRANCH   7   8
ENDBRANCH   4   7
TORSDOF 3
ENDMDL
MODEL 3
REMARK VINA RESULT:      -4.7      1.208      1.843
REMARK  3 active torsions:
REMARK  status: ('A' for Active; 'I' for Inactive)
REMARK    1  A    between atoms: C4_4  and  C7_7 
REMARK    2  A    between atoms: C7_7  and  C9_9 
REMARK    3  A    between atoms: C8_8  and  C9_9 
ROOT
HETATM    1  C1  UNL     1     -34.280   5.395   2.684  1.00 20.00     0.006 C 
HETATM    2  C2  UNL     1     -35.018   5.297   4.023  1.00 20.00     0.020 C 
HETATM    3  C3  UNL     1     -32.980   6.468   4.431  1.00 20.00     0.024 C 
HETATM    4  C4  UNL     1     -32.876   5.928   3.004  1.00 20.00    -0.013 C 
HETATM    5  C5  UNL     1     -33.937   5.479   5.080  1.00 20.00     0.082 C 
HETATM    6 CL10 UNL     1     -34.586   6.076   6.614  1.00 20.00    -0.125 Cl
ENDROOT
BRANCH   4   7
HETATM    7  C7  UNL     1     -32.386   6.967   2.010  1.00 20.00     0.005 C 
BRANCH   7   8
HETATM    8  C9  UNL     1     -32.075   8.295   2.698  1.00 20.00     0.000 C 
BRANCH   8   9
HETATM    9  C8  UNL     1     -32.446   9.481   1.809  1.00 20.00    -0.005 C 
HETATM   10  C6  UNL     1     -32.317   9.132   0.334  1.00 20.00     0.005 C 
ENDBRANCH   8   9
ENDBRANCH   7   8
ENDBRANCH   4   7
TORSDOF 3
ENDMDL
MODEL 4
REMARK VINA RESULT:      -4.5      2.817      5.025
REMARK  3 active torsions:
REMARK  status: ('A' for Active; 'I' for Inactive)
REMARK    1  A    between atoms: C4_4  and  C7_7 
REMARK    2  A    between atoms: C7_7  and  C9_9 
REMARK    3  A    between atoms: C8_8  and  C9_9 
ROOT
HETATM    1  C1  UNL     1     -31.810   6.707   3.821  1.00 20.00     0.006 C 
HETATM    2  C2  UNL     1     -31.324   8.019   3.197  1.00 20.00     0.020 C 
HETATM    3  C3  UNL     1     -33.481   7.569   2.283  1.00 20.00     0.024 C 
HETATM    4  C4  UNL     1     -33.076   6.308   3.048  1.00 20.00    -0.013 C 
HETATM    5  C5  UNL     1     -32.131   8.167   1.914  1.00 20.00     0.082 C 
HETATM    6 CL10 UNL     1     -32.262   9.851   1.388  1.00 20.00    -0.125 Cl
ENDROOT
BRANCH   4   7
HETATM    7  C7  UNL     1     -34.183   5.776   3.942  1.00 20.00     0.005 C 
BRANCH   7   8
HETATM    8  C9  UNL     1     -34.033   6.280   5.377  1.00 20.00     0.000 C 
BRANCH   8   9
HETATM    9  C8  UNL     1     -34.660   5.307   6.375  1.00 20.00    -0.005 C 
HETATM   10  C6  UNL     1     -34.968   3.967   5.727  1.00 20.00     0.005 C 
ENDBRANCH   8   9
ENDBRANCH   7   8
ENDBRANCH   4   7
TORSDOF 3
ENDMDL
MODEL 5
REMARK VINA RESULT:      -4.4     11.286     12.407
REMARK  3 active torsions:
REMARK  status: ('A' for Active; 'I' for Inactive)
REMARK    1  A    between atoms: C4_4  and  C7_7 
REMARK    2  A    between atoms: C7_7  and  C9_9 
REMARK    3  A    between atoms: C8_8  and  C9_9 
ROOT
HETATM    1  C1  UNL     1     -34.396  13.912  -3.496  1.00 20.00     0.006 C 
HETATM    2  C2  UNL     1     -34.376  13.523  -4.977  1.00 20.00     0.020 C 
HETATM    3  C3  UNL     1     -34.505  15.903  -4.881  1.00 20.00     0.024 C 
HETATM    4  C4  UNL     1     -34.723  15.412  -3.450  1.00 20.00    -0.013 C 
HETATM    5  C5  UNL     1     -34.983  14.716  -5.704  1.00 20.00     0.082 C 
HETATM    6 CL10 UNL     1     -34.464  14.813  -7.393  1.00 20.00    -0.125 Cl
ENDROOT
BRANCH   4   7
HETATM    7  C7  UNL     1     -33.898  16.176  -2.428  1.00 20.00     0.005 C 
BRANCH   7   8
HETATM    8  C9  UNL     1     -34.688  16.425  -1.145  1.00 20.00     0.000 C 
BRANCH   8   9
HETATM    9  C8  UNL     1     -34.099  17.587  -0.347  1.00 20.00    -0.005 C 
HETATM   10  C6  UNL     1     -34.854  17.807   0.955  1.00 20.00     0.005 C 
ENDBRANCH   8   9
ENDBRANCH   7   8
ENDBRANCH   4   7
TORSDOF 3
ENDMDL
MODEL 6
REMARK VINA RESULT:      -4.3     11.442     12.241
REMARK  3 active torsions:
REMARK  status: ('A' for Active; 'I' for Inactive)
REMARK    1  A    between atoms: C4_4  and  C7_7 
REMARK    2  A    between atoms: C7_7  and  C9_9 
REMARK    3  A    between atoms: C8_8  and  C9_9 
ROOT
HETATM    1  C1  UNL     1     -31.852  18.967   0.471  1.00 20.00     0.006 C 
HETATM    2  C2  UNL     1     -31.766  18.883   1.998  1.00 20.00     0.020 C 
HETATM    3  C3  UNL     1     -33.987  18.264   1.389  1.00 20.00     0.024 C 
HETATM    4  C4  UNL     1     -33.337  18.806   0.115  1.00 20.00    -0.013 C 
HETATM    5  C5  UNL     1     -33.207  18.985   2.478  1.00 20.00     0.082 C 
HETATM    6 CL10 UNL     1     -33.442  18.252   4.072  1.00 20.00    -0.125 Cl
ENDROOT
BRANCH   4   7
HETATM    7  C7  UNL     1     -33.572  17.919  -1.095  1.00 20.00     0.005 C 
BRANCH   7   8
HETATM    8  C9  UNL     1     -34.525  16.770  -0.769  1.00 20.00     0.000 C 
BRANCH   8   9
HETATM    9  C8  UNL     1     -34.833  15.935  -2.011  1.00 20.00    -0.005 C 
HETATM   10  C6  UNL     1     -33.634  15.862  -2.944  1.00 20.00     0.005 C 
ENDBRANCH   8   9
ENDBRANCH   7   8
ENDBRANCH   4   7
TORSDOF 3
ENDMDL
MODEL 7
REMARK VINA RESULT:      -4.3     11.324     12.298
REMARK  3 active torsions:
REMARK  status: ('A' for Active; 'I' for Inactive)
REMARK    1  A    between atoms: C4_4  and  C7_7 
REMARK    2  A    between atoms: C7_7  and  C9_9 
REMARK    3  A    between atoms: C8_8  and  C9_9 
ROOT
HETATM    1  C1  UNL     1     -36.302  14.895  -3.841  1.00 20.00     0.006 C 
HETATM    2  C2  UNL     1     -35.966  16.103  -2.961  1.00 20.00     0.020 C 
HETATM    3  C3  UNL     1     -33.936  14.897  -3.296  1.00 20.00     0.024 C 
HETATM    4  C4  UNL     1     -35.050  14.005  -3.844  1.00 20.00    -0.013 C 
HETATM    5  C5  UNL     1     -34.672  15.725  -2.254  1.00 20.00     0.082 C 
HETATM    6 CL10 UNL     1     -33.744  17.142  -1.741  1.00 20.00    -0.125 Cl
ENDROOT
BRANCH   4   7
HETATM    7  C7  UNL     1     -34.728  13.426  -5.211  1.00 20.00     0.005 C 
BRANCH   7   8
HETATM    8  C9  UNL     1     -35.364  14.248  -6.330  1.00 20.00     0.000 C 
BRANCH   8   9
HETATM    9  C8  UNL     1     -34.317  15.073  -7.077  1.00 20.00    -0.005 C 
HETATM   10  C6  UNL     1     -34.343  16.530  -6.642  1.00 20.00     0.005 C 
ENDBRANCH   8   9
ENDBRANCH   7   8
ENDBRANCH   4   7
TORSDOF 3
ENDMDL
MODEL 8
REMARK VINA RESULT:      -4.3     11.644     12.962
REMARK  3 active torsions:
REMARK  status: ('A' for Active; 'I' for Inactive)
REMARK    1  A    between atoms: C4_4  and  C7_7 
REMARK    2  A    between atoms: C7_7  and  C9_9 
REMARK    3  A    between atoms: C8_8  and  C9_9 
ROOT
HETATM    1  C1  UNL     1     -33.585  16.314  -5.077  1.00 20.00     0.006 C 
HETATM    2  C2  UNL     1     -34.203  16.251  -6.478  1.00 20.00     0.020 C 
HETATM    3  C3  UNL     1     -34.823  14.244  -5.349  1.00 20.00     0.024 C 
HETATM    4  C4  UNL     1     -33.784  14.924  -4.457  1.00 20.00    -0.013 C 
HETATM    5  C5  UNL     1     -34.456  14.771  -6.728  1.00 20.00     0.082 C 
HETATM    6 CL10 UNL     1     -35.737  14.496  -7.917  1.00 20.00    -0.125 Cl
ENDROOT
BRANCH   4   7
HETATM    7  C7  UNL     1     -34.197  14.972  -2.995  1.00 20.00     0.005 C 
BRANCH   7   8
HETATM    8  C9  UNL     1     -33.903  16.337  -2.377  1.00 20.00     0.000 C 
BRANCH   8   9
HETATM    9  C8  UNL     1     -34.673  16.532  -1.071  1.00 20.00    -0.005 C 
HETATM   10  C6  UNL     1     -34.065  17.641  -0.227  1.00 20.00     0.005 C 
ENDBRANCH   8   9
ENDBRANCH   7   8
ENDBRANCH   4   7
TORSDOF 3
ENDMDL
MODEL 9
REMARK VINA RESULT:      -4.2      2.503      4.757
REMARK  3 active torsions:
REMARK  status: ('A' for Active; 'I' for Inactive)
REMARK    1  A    between atoms: C4_4  and  C7_7 
REMARK    2  A    between atoms: C7_7  and  C9_9 
REMARK    3  A    between atoms: C8_8  and  C9_9 
ROOT
HETATM    1  C1  UNL     1     -33.554   4.978   2.577  1.00 20.00     0.006 C 
HETATM    2  C2  UNL     1     -32.189   5.665   2.695  1.00 20.00     0.020 C 
HETATM    3  C3  UNL     1     -33.752   7.004   3.901  1.00 20.00     0.024 C 
HETATM    4  C4  UNL     1     -34.583   5.968   3.143  1.00 20.00    -0.013 C 
HETATM    5  C5  UNL     1     -32.508   7.115   3.031  1.00 20.00     0.082 C 
HETATM    6 CL10 UNL     1     -31.174   7.924   3.865  1.00 20.00    -0.125 Cl
ENDROOT
BRANCH   4   7
HETATM    7  C7  UNL     1     -35.639   5.304   4.011  1.00 20.00     0.005 C 
BRANCH   7   8
HETATM    8  C9  UNL     1     -35.057   4.135   4.803  1.00 20.00     0.000 C 
BRANCH   8   9
HETATM    9  C8  UNL     1     -35.098   4.408   6.306  1.00 20.00    -0.005 C 
HETATM   10  C6  UNL     1     -34.438   5.735   6.648  1.00 20.00     0.005 C 
ENDBRANCH   8   9
ENDBRANCH   7   8
ENDBRANCH   4   7
TORSDOF 3
ENDMDL
