MODEL 1
REMARK VINA RESULT:      -5.0      0.000      0.000
REMARK  1 active torsions:
REMARK  status: ('A' for Active; 'I' for Inactive)
REMARK    1  A    between atoms: C8_8  and  C10_10 
ROOT
HETATM    1  C1  UNL     1     -34.991  17.306   0.487  1.00 20.00     0.012 C 
HETATM    2  C2  UNL     1     -34.455  17.189  -0.581  1.00 20.00    -0.117 C 
HETATM    3  C10 UNL     1     -33.792  17.063  -1.878  1.00 20.00     0.097 C 
ENDROOT
BRANCH   3   4
HETATM    4  C8  UNL     1     -34.274  15.806  -2.615  1.00 20.00    -0.002 C 
HETATM    5  C5  UNL     1     -33.069  15.148  -3.309  1.00 20.00     0.005 C 
HETATM    6  C3  UNL     1     -33.303  13.739  -3.846  1.00 20.00     0.000 C 
HETATM    7  C4  UNL     1     -34.462  13.593  -4.829  1.00 20.00     0.001 C 
HETATM    8  C6  UNL     1     -35.827  13.676  -4.146  1.00 20.00     0.016 C 
HETATM    9  C9  UNL     1     -36.367  15.088  -3.942  1.00 20.00     0.058 C 
HETATM   10  C7  UNL     1     -35.365  16.198  -3.626  1.00 20.00     0.021 C 
HETATM   11 BR11 UNL     1     -37.376  15.630  -5.550  1.00 20.00    -0.091 Br
ENDBRANCH   3   4
TORSDOF 1
ENDMDL
MODEL 2
REMARK VINA RESULT:      -4.9      1.768      2.860
REMARK  1 active torsions:
REMARK  status: ('A' for Active; 'I' for Inactive)
REMARK    1  A    between atoms: C8_8  and  C10_10 
ROOT
HETATM    1  C1  UNL     1     -33.475  18.763   1.018  1.00 20.00     0.012 C 
HETATM    2  C2  UNL     1     -34.040  17.934   0.359  1.00 20.00    -0.117 C 
HETATM    3  C10 UNL     1     -34.740  16.922  -0.430  1.00 20.00     0.097 C 
ENDROOT
BRANCH   3   4
HETATM    4  C8  UNL     1     -34.123  16.799  -1.829  1.00 20.00    -0.002 C 
HETATM    5  C5  UNL     1     -34.502  18.046  -2.647  1.00 20.00     0.005 C 
HETATM    6  C3  UNL     1     -33.742  18.234  -3.956  1.00 20.00     0.000 C 
HETATM    7  C4  UNL     1     -33.824  17.069  -4.939  1.00 20.00     0.001 C 
HETATM    8  C6  UNL     1     -32.987  15.868  -4.501  1.00 20.00     0.016 C 
HETATM    9  C9  UNL     1     -33.677  14.913  -3.532  1.00 20.00     0.058 C 
HETATM   10  C7  UNL     1     -34.630  15.509  -2.496  1.00 20.00     0.021 C 
HETATM   11 BR11 UNL     1     -34.682  13.564  -4.565  1.00 20.00    -0.091 Br
ENDBRANCH   3   4
TORSDOF 1
ENDMDL
MODEL 3
REMARK VINA RESULT:      -4.8      1.579      1.695
REMARK  1 active torsions:
REMARK  status: ('A' for Active; 'I' for Inactive)
REMARK    1  A    between atoms: C8_8  and  C10_10 
ROOT
HETATM    1  C1  UNL     1     -34.937  16.946  -0.025  1.00 20.00     0.012 C 
HETATM    2  C2  UNL     1     -34.336  16.841  -1.059  1.00 20.00    -0.117 C 
HETATM    3  C10 UNL     1     -33.590  16.723  -2.311  1.00 20.00     0.097 C 
ENDROOT
BRANCH   3   4
HETATM    4  C8  UNL     1     -34.400  15.942  -3.355  1.00 20.00    -0.002 C 
HETATM    5  C5  UNL     1     -33.936  14.475  -3.344  1.00 20.00     0.005 C 
HETATM    6  C3  UNL     1     -34.823  13.496  -4.107  1.00 20.00     0.000 C 
HETATM    7  C4  UNL     1     -35.062  13.831  -5.577  1.00 20.00     0.001 C 
HETATM    8  C6  UNL     1     -36.017  15.009  -5.765  1.00 20.00     0.016 C 
HETATM    9  C9  UNL     1     -35.368  16.388  -5.704  1.00 20.00     0.058 C 
HETATM   10  C7  UNL     1     -34.202  16.588  -4.737  1.00 20.00     0.021 C 
HETATM   11 BR11 UNL     1     -34.742  16.884  -7.510  1.00 20.00    -0.091 Br
ENDBRANCH   3   4
TORSDOF 1
ENDMDL
MODEL 4
REMARK VINA RESULT:      -4.7      2.704      4.910
REMARK  1 active torsions:
REMARK  status: ('A' for Active; 'I' for Inactive)
REMARK    1  A    between atoms: C8_8  and  C10_10 
ROOT
HETATM    1  C1  UNL     1     -37.737  15.124  -7.643  1.00 20.00     0.012 C 
HETATM    2  C2  UNL     1     -36.553  14.950  -7.729  1.00 20.00    -0.117 C 
HETATM    3  C10 UNL     1     -35.111  14.736  -7.851  1.00 20.00     0.097 C 
ENDROOT
BRANCH   3   4
HETATM    4  C8  UNL     1     -34.435  14.782  -6.474  1.00 20.00    -0.002 C 
HETATM    5  C5  UNL     1     -35.147  13.786  -5.542  1.00 20.00     0.005 C 
HETATM    6  C3  UNL     1     -34.434  13.486  -4.227  1.00 20.00     0.000 C 
HETATM    7  C4  UNL     1     -34.121  14.700  -3.355  1.00 20.00     0.001 C 
HETATM    8  C6  UNL     1     -32.974  15.544  -3.910  1.00 20.00     0.016 C 
HETATM    9  C9  UNL     1     -33.375  16.578  -4.957  1.00 20.00     0.058 C 
HETATM   10  C7  UNL     1     -34.501  16.217  -5.925  1.00 20.00     0.021 C 
HETATM   11 BR11 UNL     1     -33.882  18.254  -4.044  1.00 20.00    -0.091 Br
ENDBRANCH   3   4
TORSDOF 1
ENDMDL
MODEL 5
REMARK VINA RESULT:      -4.5      2.896      4.369
REMARK  1 active torsions:
REMARK  status: ('A' for Active; 'I' for Inactive)
REMARK    1  A    between atoms: C8_8  and  C10_10 
ROOT
HETATM    1  C1  UNL     1     -33.761  19.074  -7.041  1.00 20.00     0.012 C 
HETATM    2  C2  UNL     1     -34.257  17.983  -7.119  1.00 20.00    -0.117 C 
HETATM    3  C10 UNL     1     -34.868  16.659  -7.228  1.00 20.00     0.097 C 
ENDROOT
BRANCH   3   4
HETATM    4  C8  UNL     1     -34.363  15.732  -6.115  1.00 20.00    -0.002 C 
HETATM    5  C5  UNL     1     -35.213  14.450  -6.117  1.00 20.00     0.005 C 
HETATM    6  C3  UNL     1     -34.674  13.298  -5.274  1.00 20.00     0.000 C 
HETATM    7  C4  UNL     1     -34.432  13.618  -3.800  1.00 20.00     0.001 C 
HETATM    8  C6  UNL     1     -33.201  14.496  -3.582  1.00 20.00     0.016 C 
HETATM    9  C9  UNL     1     -33.440  15.996  -3.720  1.00 20.00     0.058 C 
HETATM   10  C7  UNL     1     -34.451  16.467  -4.766  1.00 20.00     0.021 C 
HETATM   11 BR11 UNL     1     -34.003  16.721  -1.972  1.00 20.00    -0.091 Br
ENDBRANCH   3   4
TORSDOF 1
ENDMDL
MODEL 6
REMARK VINA RESULT:      -4.4      1.935      4.303
REMARK  1 active torsions:
REMARK  status: ('A' for Active; 'I' for Inactive)
REMARK    1  A    between atoms: C8_8  and  C10_10 
ROOT
HETATM    1  C1  UNL     1     -35.137  13.214  -4.513  1.00 20.00     0.012 C 
HETATM    2  C2  UNL     1     -34.184  13.817  -4.102  1.00 20.00    -0.117 C 
HETATM    3  C10 UNL     1     -33.012  14.537  -3.606  1.00 20.00     0.097 C 
ENDROOT
BRANCH   3   4
HETATM    4  C8  UNL     1     -33.397  15.947  -3.137  1.00 20.00    -0.002 C 
HETATM    5  C5  UNL     1     -34.499  15.827  -2.070  1.00 20.00     0.005 C 
HETATM    6  C3  UNL     1     -34.800  17.101  -1.285  1.00 20.00     0.000 C 
HETATM    7  C4  UNL     1     -35.185  18.316  -2.126  1.00 20.00     0.001 C 
HETATM    8  C6  UNL     1     -33.992  18.923  -2.863  1.00 20.00     0.016 C 
HETATM    9  C9  UNL     1     -33.661  18.280  -4.206  1.00 20.00     0.058 C 
HETATM   10  C7  UNL     1     -33.868  16.772  -4.346  1.00 20.00     0.021 C 
HETATM   11 BR11 UNL     1     -34.714  19.166  -5.621  1.00 20.00    -0.091 Br
ENDBRANCH   3   4
TORSDOF 1
ENDMDL
MODEL 7
REMARK VINA RESULT:      -4.3      2.308      4.324
REMARK  1 active torsions:
REMARK  status: ('A' for Active; 'I' for Inactive)
REMARK    1  A    between atoms: C8_8  and  C10_10 
ROOT
HETATM    1  C1  UNL     1     -38.939  15.376  -6.321  1.00 20.00     0.012 C 
HETATM    2  C2  UNL     1     -38.401  15.099  -5.284  1.00 20.00    -0.117 C 
HETATM    3  C10 UNL     1     -37.763  14.757  -4.014  1.00 20.00     0.097 C 
ENDROOT
BRANCH   3   4
HETATM    4  C8  UNL     1     -36.244  14.961  -4.096  1.00 20.00    -0.002 C 
HETATM    5  C5  UNL     1     -35.564  13.582  -4.160  1.00 20.00     0.005 C 
HETATM    6  C3  UNL     1     -34.085  13.591  -4.534  1.00 20.00     0.000 C 
HETATM    7  C4  UNL     1     -33.185  14.443  -3.642  1.00 20.00     0.001 C 
HETATM    8  C6  UNL     1     -33.366  15.941  -3.882  1.00 20.00     0.016 C 
HETATM    9  C9  UNL     1     -34.507  16.591  -3.106  1.00 20.00     0.058 C 
HETATM   10  C7  UNL     1     -35.774  15.768  -2.874  1.00 20.00     0.021 C 
HETATM   11 BR11 UNL     1     -33.837  17.171  -1.342  1.00 20.00    -0.091 Br
ENDBRANCH   3   4
TORSDOF 1
ENDMDL
MODEL 8
REMARK VINA RESULT:      -4.3      2.250      4.068
REMARK  1 active torsions:
REMARK  status: ('A' for Active; 'I' for Inactive)
REMARK    1  A    between atoms: C8_8  and  C10_10 
ROOT
HETATM    1  C1  UNL     1     -39.252  14.699  -4.235  1.00 20.00     0.012 C 
HETATM    2  C2  UNL     1     -38.368  15.213  -4.864  1.00 20.00    -0.117 C 
HETATM    3  C10 UNL     1     -37.304  15.847  -5.640  1.00 20.00     0.097 C 
ENDROOT
BRANCH   3   4
HETATM    4  C8  UNL     1     -35.928  15.525  -5.042  1.00 20.00    -0.002 C 
HETATM    5  C5  UNL     1     -35.712  14.003  -5.092  1.00 20.00     0.005 C 
HETATM    6  C3  UNL     1     -34.291  13.526  -4.809  1.00 20.00     0.000 C 
HETATM    7  C4  UNL     1     -33.701  13.972  -3.473  1.00 20.00     0.001 C 
HETATM    8  C6  UNL     1     -33.323  15.453  -3.461  1.00 20.00     0.016 C 
HETATM    9  C9  UNL     1     -34.458  16.411  -3.116  1.00 20.00     0.058 C 
HETATM   10  C7  UNL     1     -35.864  16.058  -3.601  1.00 20.00     0.021 C 
HETATM   11 BR11 UNL     1     -34.538  16.634  -1.156  1.00 20.00    -0.091 Br
ENDBRANCH   3   4
TORSDOF 1
ENDMDL
MODEL 9
REMARK VINA RESULT:      -4.3      1.631      1.848
REMARK  1 active torsions:
REMARK  status: ('A' for Active; 'I' for Inactive)
REMARK    1  A    between atoms: C8_8  and  C10_10 
ROOT
HETATM    1  C1  UNL     1     -32.912  18.556  -0.533  1.00 20.00     0.012 C 
HETATM    2  C2  UNL     1     -33.715  17.670  -0.636  1.00 20.00    -0.117 C 
HETATM    3  C10 UNL     1     -34.696  16.591  -0.744  1.00 20.00     0.097 C 
ENDROOT
BRANCH   3   4
HETATM    4  C8  UNL     1     -34.881  16.168  -2.207  1.00 20.00    -0.002 C 
HETATM    5  C5  UNL     1     -33.506  15.807  -2.795  1.00 20.00     0.005 C 
HETATM    6  C3  UNL     1     -33.529  15.092  -4.142  1.00 20.00     0.000 C 
HETATM    7  C4  UNL     1     -34.265  15.823  -5.263  1.00 20.00     0.001 C 
HETATM    8  C6  UNL     1     -35.783  15.783  -5.093  1.00 20.00     0.016 C 
HETATM    9  C9  UNL     1     -36.366  16.871  -4.196  1.00 20.00     0.058 C 
HETATM   10  C7  UNL     1     -35.545  17.316  -2.986  1.00 20.00     0.021 C 
HETATM   11 BR11 UNL     1     -36.744  18.471  -5.288  1.00 20.00    -0.091 Br
ENDBRANCH   3   4
TORSDOF 1
ENDMDL
