MODEL 1
REMARK VINA RESULT:      -4.9      0.000      0.000
REMARK  3 active torsions:
REMARK  status: ('A' for Active; 'I' for Inactive)
REMARK    1  A    between atoms: C4_4  and  C5_5 
REMARK    2  A    between atoms: C5_5  and  C6_6 
REMARK    3  A    between atoms: C6_6  and  C7_7 
ROOT
HETATM    1  C1  UNL     1     -34.156   6.165   5.696  1.00 20.00     0.033 C 
HETATM    2  C2  UNL     1     -34.410   4.674   5.776  1.00 20.00     0.168 C 
HETATM    3  C3  UNL     1     -35.182   5.440   3.715  1.00 20.00     0.172 C 
HETATM    4  C4  UNL     1     -34.138   6.429   4.205  1.00 20.00     0.011 C 
HETATM    5  O8  UNL     1     -35.131   4.306   4.593  1.00 20.00    -0.391 OA
ENDROOT
BRANCH   4   6
HETATM    6  C5  UNL     1     -32.766   6.156   3.592  1.00 20.00     0.008 C 
BRANCH   6   7
HETATM    7  C6  UNL     1     -31.980   7.449   3.365  1.00 20.00     0.015 C 
BRANCH   7   8
HETATM    8  C7  UNL     1     -32.043   7.883   1.905  1.00 20.00     0.114 C 
HETATM    9 CL9  UNL     1     -32.492   9.600   1.788  1.00 20.00    -0.130 Cl
ENDBRANCH   7   8
ENDBRANCH   6   7
ENDBRANCH   4   6
TORSDOF 3
ENDMDL
MODEL 2
REMARK VINA RESULT:      -4.0     10.786     11.720
REMARK  3 active torsions:
REMARK  status: ('A' for Active; 'I' for Inactive)
REMARK    1  A    between atoms: C4_4  and  C5_5 
REMARK    2  A    between atoms: C5_5  and  C6_6 
REMARK    3  A    between atoms: C6_6  and  C7_7 
ROOT
HETATM    1  C1  UNL     1     -34.425  15.086  -5.215  1.00 20.00     0.033 C 
HETATM    2  C2  UNL     1     -35.215  13.795  -5.290  1.00 20.00     0.168 C 
HETATM    3  C3  UNL     1     -33.465  13.497  -3.779  1.00 20.00     0.172 C 
HETATM    4  C4  UNL     1     -33.741  14.989  -3.867  1.00 20.00     0.011 C 
HETATM    5  O8  UNL     1     -34.525  12.832  -4.482  1.00 20.00    -0.391 OA
ENDROOT
BRANCH   4   6
HETATM    6  C5  UNL     1     -34.643  15.467  -2.731  1.00 20.00     0.008 C 
BRANCH   6   7
HETATM    7  C6  UNL     1     -33.975  16.566  -1.903  1.00 20.00     0.015 C 
BRANCH   7   8
HETATM    8  C7  UNL     1     -34.724  16.806  -0.599  1.00 20.00     0.114 C 
HETATM    9 CL9  UNL     1     -33.889  18.035   0.380  1.00 20.00    -0.130 Cl
ENDBRANCH   7   8
ENDBRANCH   6   7
ENDBRANCH   4   6
TORSDOF 3
ENDMDL
MODEL 3
REMARK VINA RESULT:      -3.8     11.402     12.156
REMARK  3 active torsions:
REMARK  status: ('A' for Active; 'I' for Inactive)
REMARK    1  A    between atoms: C4_4  and  C5_5 
REMARK    2  A    between atoms: C5_5  and  C6_6 
REMARK    3  A    between atoms: C6_6  and  C7_7 
ROOT
HETATM    1  C1  UNL     1     -34.520  13.187  -5.004  1.00 20.00     0.033 C 
HETATM    2  C2  UNL     1     -35.178  14.146  -5.975  1.00 20.00     0.168 C 
HETATM    3  C3  UNL     1     -35.994  14.592  -3.839  1.00 20.00     0.172 C 
HETATM    4  C4  UNL     1     -34.649  13.904  -3.677  1.00 20.00     0.011 C 
HETATM    5  O8  UNL     1     -36.143  14.902  -5.232  1.00 20.00    -0.391 OA
ENDROOT
BRANCH   4   6
HETATM    6  C5  UNL     1     -33.521  14.912  -3.458  1.00 20.00     0.008 C 
BRANCH   6   7
HETATM    7  C6  UNL     1     -33.990  16.117  -2.640  1.00 20.00     0.015 C 
BRANCH   7   8
HETATM    8  C7  UNL     1     -33.772  17.418  -3.402  1.00 20.00     0.114 C 
HETATM    9 CL9  UNL     1     -33.305  17.081  -5.085  1.00 20.00    -0.130 Cl
ENDBRANCH   7   8
ENDBRANCH   6   7
ENDBRANCH   4   6
TORSDOF 3
ENDMDL
MODEL 4
REMARK VINA RESULT:      -3.7     11.661     12.450
REMARK  3 active torsions:
REMARK  status: ('A' for Active; 'I' for Inactive)
REMARK    1  A    between atoms: C4_4  and  C5_5 
REMARK    2  A    between atoms: C5_5  and  C6_6 
REMARK    3  A    between atoms: C6_6  and  C7_7 
ROOT
HETATM    1  C1  UNL     1     -34.287  16.171  -2.520  1.00 20.00     0.033 C 
HETATM    2  C2  UNL     1     -33.804  17.026  -3.674  1.00 20.00     0.168 C 
HETATM    3  C3  UNL     1     -32.817  14.923  -3.856  1.00 20.00     0.172 C 
HETATM    4  C4  UNL     1     -34.083  14.761  -3.032  1.00 20.00     0.011 C 
HETATM    5  O8  UNL     1     -32.832  16.255  -4.391  1.00 20.00    -0.391 OA
ENDROOT
BRANCH   4   6
HETATM    6  C5  UNL     1     -35.258  14.286  -3.885  1.00 20.00     0.008 C 
BRANCH   6   7
HETATM    7  C6  UNL     1     -34.783  13.566  -5.149  1.00 20.00     0.015 C 
BRANCH   7   8
HETATM    8  C7  UNL     1     -35.409  14.175  -6.398  1.00 20.00     0.114 C 
HETATM    9 CL9  UNL     1     -34.210  15.149  -7.280  1.00 20.00    -0.130 Cl
ENDBRANCH   7   8
ENDBRANCH   6   7
ENDBRANCH   4   6
TORSDOF 3
ENDMDL
MODEL 5
REMARK VINA RESULT:      -3.7     11.144     11.937
REMARK  3 active torsions:
REMARK  status: ('A' for Active; 'I' for Inactive)
REMARK    1  A    between atoms: C4_4  and  C5_5 
REMARK    2  A    between atoms: C5_5  and  C6_6 
REMARK    3  A    between atoms: C6_6  and  C7_7 
ROOT
HETATM    1  C1  UNL     1     -35.600  15.060  -5.110  1.00 20.00     0.033 C 
HETATM    2  C2  UNL     1     -36.287  14.082  -4.179  1.00 20.00     0.168 C 
HETATM    3  C3  UNL     1     -34.239  13.171  -4.817  1.00 20.00     0.172 C 
HETATM    4  C4  UNL     1     -34.140  14.678  -4.989  1.00 20.00     0.011 C 
HETATM    5  O8  UNL     1     -35.467  12.908  -4.123  1.00 20.00    -0.391 OA
ENDROOT
BRANCH   4   6
HETATM    6  C5  UNL     1     -33.471  15.342  -3.786  1.00 20.00     0.008 C 
BRANCH   6   7
HETATM    7  C6  UNL     1     -33.553  16.868  -3.865  1.00 20.00     0.015 C 
BRANCH   7   8
HETATM    8  C7  UNL     1     -34.117  17.457  -2.579  1.00 20.00     0.114 C 
HETATM    9 CL9  UNL     1     -34.645  16.160  -1.482  1.00 20.00    -0.130 Cl
ENDBRANCH   7   8
ENDBRANCH   6   7
ENDBRANCH   4   6
TORSDOF 3
ENDMDL
MODEL 6
REMARK VINA RESULT:      -3.7     11.012     12.015
REMARK  3 active torsions:
REMARK  status: ('A' for Active; 'I' for Inactive)
REMARK    1  A    between atoms: C4_4  and  C5_5 
REMARK    2  A    between atoms: C5_5  and  C6_6 
REMARK    3  A    between atoms: C6_6  and  C7_7 
ROOT
HETATM    1  C1  UNL     1     -34.415  15.098  -5.317  1.00 20.00     0.033 C 
HETATM    2  C2  UNL     1     -35.046  13.746  -5.579  1.00 20.00     0.168 C 
HETATM    3  C3  UNL     1     -33.557  13.527  -3.800  1.00 20.00     0.172 C 
HETATM    4  C4  UNL     1     -33.963  14.990  -3.876  1.00 20.00     0.011 C 
HETATM    5  O8  UNL     1     -34.409  12.807  -4.702  1.00 20.00    -0.391 OA
ENDROOT
BRANCH   4   6
HETATM    6  C5  UNL     1     -35.088  15.317  -2.896  1.00 20.00     0.008 C 
BRANCH   6   7
HETATM    7  C6  UNL     1     -34.610  16.240  -1.774  1.00 20.00     0.015 C 
BRANCH   7   8
HETATM    8  C7  UNL     1     -33.809  17.412  -2.329  1.00 20.00     0.114 C 
HETATM    9 CL9  UNL     1     -34.866  18.503  -3.254  1.00 20.00    -0.130 Cl
ENDBRANCH   7   8
ENDBRANCH   6   7
ENDBRANCH   4   6
TORSDOF 3
ENDMDL
MODEL 7
REMARK VINA RESULT:      -3.7     11.486     12.269
REMARK  3 active torsions:
REMARK  status: ('A' for Active; 'I' for Inactive)
REMARK    1  A    between atoms: C4_4  and  C5_5 
REMARK    2  A    between atoms: C5_5  and  C6_6 
REMARK    3  A    between atoms: C6_6  and  C7_7 
ROOT
HETATM    1  C1  UNL     1     -34.463  16.614  -1.194  1.00 20.00     0.033 C 
HETATM    2  C2  UNL     1     -35.482  17.624  -1.679  1.00 20.00     0.168 C 
HETATM    3  C3  UNL     1     -33.920  17.287  -3.375  1.00 20.00     0.172 C 
HETATM    4  C4  UNL     1     -33.895  16.057  -2.482  1.00 20.00     0.011 C 
HETATM    5  O8  UNL     1     -35.044  18.080  -2.966  1.00 20.00    -0.391 OA
ENDROOT
BRANCH   4   6
HETATM    6  C5  UNL     1     -34.756  14.929  -3.048  1.00 20.00     0.008 C 
BRANCH   6   7
HETATM    7  C6  UNL     1     -33.903  13.848  -3.716  1.00 20.00     0.015 C 
BRANCH   7   8
HETATM    8  C7  UNL     1     -34.563  13.334  -4.989  1.00 20.00     0.114 C 
HETATM    9 CL9  UNL     1     -34.517  14.578  -6.259  1.00 20.00    -0.130 Cl
ENDBRANCH   7   8
ENDBRANCH   6   7
ENDBRANCH   4   6
TORSDOF 3
ENDMDL
MODEL 8
REMARK VINA RESULT:      -3.6     11.307     12.053
REMARK  3 active torsions:
REMARK  status: ('A' for Active; 'I' for Inactive)
REMARK    1  A    between atoms: C4_4  and  C5_5 
REMARK    2  A    between atoms: C5_5  and  C6_6 
REMARK    3  A    between atoms: C6_6  and  C7_7 
ROOT
HETATM    1  C1  UNL     1     -35.056  14.772  -3.371  1.00 20.00     0.033 C 
HETATM    2  C2  UNL     1     -33.645  14.273  -3.602  1.00 20.00     0.168 C 
HETATM    3  C3  UNL     1     -33.645  16.593  -3.815  1.00 20.00     0.172 C 
HETATM    4  C4  UNL     1     -34.845  16.214  -2.963  1.00 20.00     0.011 C 
HETATM    5  O8  UNL     1     -32.852  15.408  -3.974  1.00 20.00    -0.391 OA
ENDROOT
BRANCH   4   6
HETATM    6  C5  UNL     1     -34.545  16.349  -1.471  1.00 20.00     0.008 C 
BRANCH   6   7
HETATM    7  C6  UNL     1     -33.597  17.517  -1.188  1.00 20.00     0.015 C 
BRANCH   7   8
HETATM    8  C7  UNL     1     -33.827  18.089   0.205  1.00 20.00     0.114 C 
HETATM    9 CL9  UNL     1     -35.289  17.381   0.932  1.00 20.00    -0.130 Cl
ENDBRANCH   7   8
ENDBRANCH   6   7
ENDBRANCH   4   6
TORSDOF 3
ENDMDL
MODEL 9
REMARK VINA RESULT:      -3.6     11.173     12.443
REMARK  3 active torsions:
REMARK  status: ('A' for Active; 'I' for Inactive)
REMARK    1  A    between atoms: C4_4  and  C5_5 
REMARK    2  A    between atoms: C5_5  and  C6_6 
REMARK    3  A    between atoms: C6_6  and  C7_7 
ROOT
HETATM    1  C1  UNL     1     -33.499  13.601  -3.751  1.00 20.00     0.033 C 
HETATM    2  C2  UNL     1     -34.699  13.320  -4.631  1.00 20.00     0.168 C 
HETATM    3  C3  UNL     1     -35.172  15.189  -3.323  1.00 20.00     0.172 C 
HETATM    4  C4  UNL     1     -33.660  15.068  -3.414  1.00 20.00     0.011 C 
HETATM    5  O8  UNL     1     -35.725  14.247  -4.253  1.00 20.00    -0.391 OA
ENDROOT
BRANCH   4   6
HETATM    6  C5  UNL     1     -33.084  15.973  -4.501  1.00 20.00     0.008 C 
BRANCH   6   7
HETATM    7  C6  UNL     1     -33.901  17.257  -4.660  1.00 20.00     0.015 C 
BRANCH   7   8
HETATM    8  C7  UNL     1     -34.227  17.525  -6.124  1.00 20.00     0.114 C 
HETATM    9 CL9  UNL     1     -34.267  16.001  -7.039  1.00 20.00    -0.130 Cl
ENDBRANCH   7   8
ENDBRANCH   6   7
ENDBRANCH   4   6
TORSDOF 3
ENDMDL
