MODEL 1
REMARK VINA RESULT:      -4.9      0.000      0.000
REMARK  5 active torsions:
REMARK  status: ('A' for Active; 'I' for Inactive)
REMARK    1  A    between atoms: C2_2  and  C8_8 
REMARK    2  A    between atoms: C3_3  and  C9_9 
REMARK    3  A    between atoms: C3_3  and  C11_11 
REMARK    4  A    between atoms: C8_8  and  C10_10 
REMARK    5  A    between atoms: C9_9  and  C10_10 
ROOT
HETATM    1  C1  UNL     1     -34.804  17.189   0.098  1.00 20.00    -0.111 C 
HETATM    2  C2  UNL     1     -34.389  16.843  -0.974  1.00 20.00    -0.107 C 
HETATM    3  C4  UNL     1     -35.310  17.616   1.402  1.00 20.00     0.112 C 
ENDROOT
BRANCH   2   4
HETATM    4  C8  UNL     1     -33.874  16.425  -2.285  1.00 20.00     0.094 C 
BRANCH   4   5
HETATM    5  C10 UNL     1     -34.354  15.025  -2.681  1.00 20.00     0.020 C 
BRANCH   5   6
HETATM    6  C9  UNL     1     -33.585  14.408  -3.853  1.00 20.00     0.080 C 
BRANCH   6   7
HETATM    7  C3  UNL     1     -34.491  13.888  -4.964  1.00 20.00     0.134 C 
HETATM    8  O12 UNL     1     -34.786  12.691  -5.027  1.00 20.00    -0.297 OA
BRANCH   7   9
HETATM    9  C11 UNL     1     -35.036  14.903  -5.990  1.00 20.00     0.009 C 
HETATM   10  C5  UNL     1     -36.392  15.455  -5.532  1.00 20.00     0.022 C 
HETATM   11  C6  UNL     1     -35.228  14.206  -7.350  1.00 20.00     0.022 C 
HETATM   12  C7  UNL     1     -34.022  16.041  -6.157  1.00 20.00     0.022 C 
ENDBRANCH   7   9
ENDBRANCH   6   7
ENDBRANCH   5   6
ENDBRANCH   4   5
ENDBRANCH   2   4
TORSDOF 5
ENDMDL
MODEL 2
REMARK VINA RESULT:      -4.8      1.395      2.303
REMARK  5 active torsions:
REMARK  status: ('A' for Active; 'I' for Inactive)
REMARK    1  A    between atoms: C2_2  and  C8_8 
REMARK    2  A    between atoms: C3_3  and  C9_9 
REMARK    3  A    between atoms: C3_3  and  C11_11 
REMARK    4  A    between atoms: C8_8  and  C10_10 
REMARK    5  A    between atoms: C9_9  and  C10_10 
ROOT
HETATM    1  C1  UNL     1     -34.254  16.425  -1.623  1.00 20.00    -0.111 C 
HETATM    2  C2  UNL     1     -33.740  15.895  -2.570  1.00 20.00    -0.107 C 
HETATM    3  C4  UNL     1     -34.875  17.069  -0.466  1.00 20.00     0.112 C 
ENDROOT
BRANCH   2   4
HETATM    4  C8  UNL     1     -33.110  15.240  -3.725  1.00 20.00     0.094 C 
BRANCH   4   5
HETATM    5  C10 UNL     1     -33.540  13.777  -3.872  1.00 20.00     0.020 C 
BRANCH   5   6
HETATM    6  C9  UNL     1     -35.035  13.587  -4.141  1.00 20.00     0.080 C 
BRANCH   6   7
HETATM    7  C3  UNL     1     -35.540  14.383  -5.339  1.00 20.00     0.134 C 
HETATM    8  O12 UNL     1     -35.067  14.197  -6.463  1.00 20.00    -0.297 OA
BRANCH   7   9
HETATM    9  C11 UNL     1     -36.667  15.411  -5.105  1.00 20.00     0.009 C 
HETATM   10  C5  UNL     1     -37.759  15.264  -6.173  1.00 20.00     0.022 C 
HETATM   11  C6  UNL     1     -36.090  16.835  -5.192  1.00 20.00     0.022 C 
HETATM   12  C7  UNL     1     -37.255  15.200  -3.704  1.00 20.00     0.022 C 
ENDBRANCH   7   9
ENDBRANCH   6   7
ENDBRANCH   5   6
ENDBRANCH   4   5
ENDBRANCH   2   4
TORSDOF 5
ENDMDL
MODEL 3
REMARK VINA RESULT:      -4.7      1.449      1.838
REMARK  5 active torsions:
REMARK  status: ('A' for Active; 'I' for Inactive)
REMARK    1  A    between atoms: C2_2  and  C8_8 
REMARK    2  A    between atoms: C3_3  and  C9_9 
REMARK    3  A    between atoms: C3_3  and  C11_11 
REMARK    4  A    between atoms: C8_8  and  C10_10 
REMARK    5  A    between atoms: C9_9  and  C10_10 
ROOT
HETATM    1  C1  UNL     1     -34.673  17.666   0.698  1.00 20.00    -0.111 C 
HETATM    2  C2  UNL     1     -34.723  17.012  -0.307  1.00 20.00    -0.107 C 
HETATM    3  C4  UNL     1     -34.615  18.467   1.921  1.00 20.00     0.112 C 
ENDROOT
BRANCH   2   4
HETATM    4  C8  UNL     1     -34.785  16.219  -1.542  1.00 20.00     0.094 C 
BRANCH   4   5
HETATM    5  C10 UNL     1     -33.618  16.520  -2.489  1.00 20.00     0.020 C 
BRANCH   5   6
HETATM    6  C9  UNL     1     -33.279  15.376  -3.449  1.00 20.00     0.080 C 
BRANCH   6   7
HETATM    7  C3  UNL     1     -33.825  15.586  -4.856  1.00 20.00     0.134 C 
HETATM    8  O12 UNL     1     -33.334  16.438  -5.601  1.00 20.00    -0.297 OA
BRANCH   7   9
HETATM    9  C11 UNL     1     -34.993  14.692  -5.322  1.00 20.00     0.009 C 
HETATM   10  C5  UNL     1     -36.338  15.309  -4.912  1.00 20.00     0.022 C 
HETATM   11  C6  UNL     1     -34.874  13.305  -4.664  1.00 20.00     0.022 C 
HETATM   12  C7  UNL     1     -34.922  14.525  -6.845  1.00 20.00     0.022 C 
ENDBRANCH   7   9
ENDBRANCH   6   7
ENDBRANCH   5   6
ENDBRANCH   4   5
ENDBRANCH   2   4
TORSDOF 5
ENDMDL
MODEL 4
REMARK VINA RESULT:      -4.6      1.512      2.103
REMARK  5 active torsions:
REMARK  status: ('A' for Active; 'I' for Inactive)
REMARK    1  A    between atoms: C2_2  and  C8_8 
REMARK    2  A    between atoms: C3_3  and  C9_9 
REMARK    3  A    between atoms: C3_3  and  C11_11 
REMARK    4  A    between atoms: C8_8  and  C10_10 
REMARK    5  A    between atoms: C9_9  and  C10_10 
ROOT
HETATM    1  C1  UNL     1     -34.781  17.695   0.705  1.00 20.00    -0.111 C 
HETATM    2  C2  UNL     1     -34.784  17.053  -0.310  1.00 20.00    -0.107 C 
HETATM    3  C4  UNL     1     -34.782  18.476   1.941  1.00 20.00     0.112 C 
ENDROOT
BRANCH   2   4
HETATM    4  C8  UNL     1     -34.796  16.270  -1.553  1.00 20.00     0.094 C 
BRANCH   4   5
HETATM    5  C10 UNL     1     -33.553  16.521  -2.413  1.00 20.00     0.020 C 
BRANCH   5   6
HETATM    6  C9  UNL     1     -33.262  15.415  -3.431  1.00 20.00     0.080 C 
BRANCH   6   7
HETATM    7  C3  UNL     1     -33.709  15.763  -4.847  1.00 20.00     0.134 C 
HETATM    8  O12 UNL     1     -33.240  16.743  -5.431  1.00 20.00    -0.297 OA
BRANCH   7   9
HETATM    9  C11 UNL     1     -34.747  14.846  -5.526  1.00 20.00     0.009 C 
HETATM   10  C5  UNL     1     -34.545  14.841  -7.048  1.00 20.00     0.022 C 
HETATM   11  C6  UNL     1     -36.165  15.363  -5.225  1.00 20.00     0.022 C 
HETATM   12  C7  UNL     1     -34.608  13.426  -4.963  1.00 20.00     0.022 C 
ENDBRANCH   7   9
ENDBRANCH   6   7
ENDBRANCH   5   6
ENDBRANCH   4   5
ENDBRANCH   2   4
TORSDOF 5
ENDMDL
MODEL 5
REMARK VINA RESULT:      -4.6      1.432      1.933
REMARK  5 active torsions:
REMARK  status: ('A' for Active; 'I' for Inactive)
REMARK    1  A    between atoms: C2_2  and  C8_8 
REMARK    2  A    between atoms: C3_3  and  C9_9 
REMARK    3  A    between atoms: C3_3  and  C11_11 
REMARK    4  A    between atoms: C8_8  and  C10_10 
REMARK    5  A    between atoms: C9_9  and  C10_10 
ROOT
HETATM    1  C1  UNL     1     -34.836  17.246   0.264  1.00 20.00    -0.111 C 
HETATM    2  C2  UNL     1     -34.750  16.658  -0.779  1.00 20.00    -0.107 C 
HETATM    3  C4  UNL     1     -34.943  17.966   1.533  1.00 20.00     0.112 C 
ENDROOT
BRANCH   2   4
HETATM    4  C8  UNL     1     -34.643  15.946  -2.060  1.00 20.00     0.094 C 
BRANCH   4   5
HETATM    5  C10 UNL     1     -33.663  16.622  -3.024  1.00 20.00     0.020 C 
BRANCH   5   6
HETATM    6  C9  UNL     1     -33.183  15.719  -4.164  1.00 20.00     0.080 C 
BRANCH   6   7
HETATM    7  C3  UNL     1     -34.031  15.834  -5.425  1.00 20.00     0.134 C 
HETATM    8  O12 UNL     1     -33.899  16.796  -6.187  1.00 20.00    -0.297 OA
BRANCH   7   9
HETATM    9  C11 UNL     1     -35.041  14.707  -5.725  1.00 20.00     0.009 C 
HETATM   10  C5  UNL     1     -34.634  13.415  -5.005  1.00 20.00     0.022 C 
HETATM   11  C6  UNL     1     -35.070  14.432  -7.240  1.00 20.00     0.022 C 
HETATM   12  C7  UNL     1     -36.439  15.154  -5.278  1.00 20.00     0.022 C 
ENDBRANCH   7   9
ENDBRANCH   6   7
ENDBRANCH   5   6
ENDBRANCH   4   5
ENDBRANCH   2   4
TORSDOF 5
ENDMDL
MODEL 6
REMARK VINA RESULT:      -4.4     11.586     13.103
REMARK  5 active torsions:
REMARK  status: ('A' for Active; 'I' for Inactive)
REMARK    1  A    between atoms: C2_2  and  C8_8 
REMARK    2  A    between atoms: C3_3  and  C9_9 
REMARK    3  A    between atoms: C3_3  and  C11_11 
REMARK    4  A    between atoms: C8_8  and  C10_10 
REMARK    5  A    between atoms: C9_9  and  C10_10 
ROOT
HETATM    1  C1  UNL     1     -32.179   8.730   1.668  1.00 20.00    -0.111 C 
HETATM    2  C2  UNL     1     -32.211   7.766   2.383  1.00 20.00    -0.107 C 
HETATM    3  C4  UNL     1     -32.142   9.901   0.792  1.00 20.00     0.112 C 
ENDROOT
BRANCH   2   4
HETATM    4  C8  UNL     1     -32.249   6.582   3.252  1.00 20.00     0.094 C 
BRANCH   4   5
HETATM    5  C10 UNL     1     -33.385   5.622   2.883  1.00 20.00     0.020 C 
BRANCH   5   6
HETATM    6  C9  UNL     1     -34.665   5.823   3.699  1.00 20.00     0.080 C 
BRANCH   6   7
HETATM    7  C3  UNL     1     -34.888   4.741   4.750  1.00 20.00     0.134 C 
HETATM    8  O12 UNL     1     -35.362   3.647   4.435  1.00 20.00    -0.297 OA
BRANCH   7   9
HETATM    9  C11 UNL     1     -34.488   5.052   6.208  1.00 20.00     0.009 C 
HETATM   10  C5  UNL     1     -34.102   6.530   6.355  1.00 20.00     0.022 C 
HETATM   11  C6  UNL     1     -33.275   4.190   6.603  1.00 20.00     0.022 C 
HETATM   12  C7  UNL     1     -35.661   4.709   7.134  1.00 20.00     0.022 C 
ENDBRANCH   7   9
ENDBRANCH   6   7
ENDBRANCH   5   6
ENDBRANCH   4   5
ENDBRANCH   2   4
TORSDOF 5
ENDMDL
MODEL 7
REMARK VINA RESULT:      -4.3      1.615      2.775
REMARK  5 active torsions:
REMARK  status: ('A' for Active; 'I' for Inactive)
REMARK    1  A    between atoms: C2_2  and  C8_8 
REMARK    2  A    between atoms: C3_3  and  C9_9 
REMARK    3  A    between atoms: C3_3  and  C11_11 
REMARK    4  A    between atoms: C8_8  and  C10_10 
REMARK    5  A    between atoms: C9_9  and  C10_10 
ROOT
HETATM    1  C1  UNL     1     -35.149  17.983   2.519  1.00 20.00    -0.111 C 
HETATM    2  C2  UNL     1     -34.705  17.897   1.407  1.00 20.00    -0.107 C 
HETATM    3  C4  UNL     1     -35.686  18.088   3.876  1.00 20.00     0.112 C 
ENDROOT
BRANCH   2   4
HETATM    4  C8  UNL     1     -34.155  17.788   0.049  1.00 20.00     0.094 C 
BRANCH   4   5
HETATM    5  C10 UNL     1     -34.768  16.625  -0.738  1.00 20.00     0.020 C 
BRANCH   5   6
HETATM    6  C9  UNL     1     -34.065  16.327  -2.065  1.00 20.00     0.080 C 
BRANCH   6   7
HETATM    7  C3  UNL     1     -34.918  15.513  -3.031  1.00 20.00     0.134 C 
HETATM    8  O12 UNL     1     -36.150  15.556  -2.973  1.00 20.00    -0.297 OA
BRANCH   7   9
HETATM    9  C11 UNL     1     -34.195  14.654  -4.089  1.00 20.00     0.009 C 
HETATM   10  C5  UNL     1     -34.176  15.374  -5.445  1.00 20.00     0.022 C 
HETATM   11  C6  UNL     1     -34.937  13.316  -4.259  1.00 20.00     0.022 C 
HETATM   12  C7  UNL     1     -32.765  14.369  -3.613  1.00 20.00     0.022 C 
ENDBRANCH   7   9
ENDBRANCH   6   7
ENDBRANCH   5   6
ENDBRANCH   4   5
ENDBRANCH   2   4
TORSDOF 5
ENDMDL
MODEL 8
REMARK VINA RESULT:      -4.3      2.540      4.947
REMARK  5 active torsions:
REMARK  status: ('A' for Active; 'I' for Inactive)
REMARK    1  A    between atoms: C2_2  and  C8_8 
REMARK    2  A    between atoms: C3_3  and  C9_9 
REMARK    3  A    between atoms: C3_3  and  C11_11 
REMARK    4  A    between atoms: C8_8  and  C10_10 
REMARK    5  A    between atoms: C9_9  and  C10_10 
ROOT
HETATM    1  C1  UNL     1     -35.358  14.763  -6.814  1.00 20.00    -0.111 C 
HETATM    2  C2  UNL     1     -34.994  14.068  -5.905  1.00 20.00    -0.107 C 
HETATM    3  C4  UNL     1     -35.805  15.612  -7.918  1.00 20.00     0.112 C 
ENDROOT
BRANCH   2   4
HETATM    4  C8  UNL     1     -34.557  13.216  -4.791  1.00 20.00     0.094 C 
BRANCH   4   5
HETATM    5  C10 UNL     1     -34.336  14.011  -3.500  1.00 20.00     0.020 C 
BRANCH   5   6
HETATM    6  C9  UNL     1     -33.273  15.107  -3.613  1.00 20.00     0.080 C 
BRANCH   6   7
HETATM    7  C3  UNL     1     -33.705  16.434  -2.999  1.00 20.00     0.134 C 
HETATM    8  O12 UNL     1     -33.671  16.602  -1.777  1.00 20.00    -0.297 OA
BRANCH   7   9
HETATM    9  C11 UNL     1     -34.166  17.558  -3.949  1.00 20.00     0.009 C 
HETATM   10  C5  UNL     1     -33.883  18.934  -3.332  1.00 20.00     0.022 C 
HETATM   11  C6  UNL     1     -35.681  17.435  -4.193  1.00 20.00     0.022 C 
HETATM   12  C7  UNL     1     -33.437  17.412  -5.291  1.00 20.00     0.022 C 
ENDBRANCH   7   9
ENDBRANCH   6   7
ENDBRANCH   5   6
ENDBRANCH   4   5
ENDBRANCH   2   4
TORSDOF 5
ENDMDL
MODEL 9
REMARK VINA RESULT:      -4.3      1.474      2.423
REMARK  5 active torsions:
REMARK  status: ('A' for Active; 'I' for Inactive)
REMARK    1  A    between atoms: C2_2  and  C8_8 
REMARK    2  A    between atoms: C3_3  and  C9_9 
REMARK    3  A    between atoms: C3_3  and  C11_11 
REMARK    4  A    between atoms: C8_8  and  C10_10 
REMARK    5  A    between atoms: C9_9  and  C10_10 
ROOT
HETATM    1  C1  UNL     1     -34.231  18.293   1.381  1.00 20.00    -0.111 C 
HETATM    2  C2  UNL     1     -34.033  17.899   0.264  1.00 20.00    -0.107 C 
HETATM    3  C4  UNL     1     -34.470  18.768   2.743  1.00 20.00     0.112 C 
ENDROOT
BRANCH   2   4
HETATM    4  C8  UNL     1     -33.795  17.410  -1.101  1.00 20.00     0.094 C 
BRANCH   4   5
HETATM    5  C10 UNL     1     -34.729  16.256  -1.479  1.00 20.00     0.020 C 
BRANCH   5   6
HETATM    6  C9  UNL     1     -35.427  16.433  -2.831  1.00 20.00     0.080 C 
BRANCH   6   7
HETATM    7  C3  UNL     1     -35.583  15.130  -3.606  1.00 20.00     0.134 C 
HETATM    8  O12 UNL     1     -36.607  14.451  -3.497  1.00 20.00    -0.297 OA
BRANCH   7   9
HETATM    9  C11 UNL     1     -34.432  14.700  -4.539  1.00 20.00     0.009 C 
HETATM   10  C5  UNL     1     -33.497  13.717  -3.821  1.00 20.00     0.022 C 
HETATM   11  C6  UNL     1     -33.614  15.937  -4.952  1.00 20.00     0.022 C 
HETATM   12  C7  UNL     1     -35.022  14.054  -5.799  1.00 20.00     0.022 C 
ENDBRANCH   7   9
ENDBRANCH   6   7
ENDBRANCH   5   6
ENDBRANCH   4   5
ENDBRANCH   2   4
TORSDOF 5
ENDMDL
