MODEL 1
REMARK VINA RESULT:      -5.4      0.000      0.000
REMARK  4 active torsions:
REMARK  status: ('A' for Active; 'I' for Inactive)
REMARK    1  A    between atoms: C4_4  and  C6_6 
REMARK    2  A    between atoms: C5_5  and  C8_8 
REMARK    3  A    between atoms: C6_6  and  C7_7 
REMARK    4  A    between atoms: C7_7  and  C8_8 
ROOT
HETATM    1  C1  UNL     1     -32.216   9.095   1.261  1.00 20.00     0.012 C 
HETATM    2  C2  UNL     1     -32.102   8.260   2.116  1.00 20.00    -0.117 C 
HETATM    3  C4  UNL     1     -31.958   7.242   3.165  1.00 20.00     0.093 C 
ENDROOT
BRANCH   3   4
HETATM    4  C6  UNL     1     -32.925   6.070   2.973  1.00 20.00     0.014 C 
BRANCH   4   5
HETATM    5  C7  UNL     1     -34.170   6.176   3.868  1.00 20.00     0.021 C 
BRANCH   5   6
HETATM    6  C8  UNL     1     -34.086   5.287   5.119  1.00 20.00     0.082 C 
HETATM    7 CL9  UNL     1     -35.202   3.891   4.983  1.00 20.00    -0.125 Cl
BRANCH   6   8
HETATM    8  C5  UNL     1     -34.355   6.059   6.421  1.00 20.00     0.016 C 
HETATM    9  C3  UNL     1     -33.422   7.233   6.692  1.00 20.00     0.006 C 
ENDBRANCH   6   8
ENDBRANCH   5   6
ENDBRANCH   4   5
ENDBRANCH   3   4
TORSDOF 4
ENDMDL
MODEL 2
REMARK VINA RESULT:      -5.1      1.720      1.920
REMARK  4 active torsions:
REMARK  status: ('A' for Active; 'I' for Inactive)
REMARK    1  A    between atoms: C4_4  and  C6_6 
REMARK    2  A    between atoms: C5_5  and  C8_8 
REMARK    3  A    between atoms: C6_6  and  C7_7 
REMARK    4  A    between atoms: C7_7  and  C8_8 
ROOT
HETATM    1  C1  UNL     1     -32.136   8.806   0.955  1.00 20.00     0.012 C 
HETATM    2  C2  UNL     1     -31.966   8.288   2.024  1.00 20.00    -0.117 C 
HETATM    3  C4  UNL     1     -31.756   7.659   3.336  1.00 20.00     0.093 C 
ENDROOT
BRANCH   3   4
HETATM    4  C6  UNL     1     -32.225   6.202   3.362  1.00 20.00     0.014 C 
BRANCH   4   5
HETATM    5  C7  UNL     1     -33.715   6.052   3.018  1.00 20.00     0.021 C 
BRANCH   5   6
HETATM    6  C8  UNL     1     -34.619   6.034   4.260  1.00 20.00     0.082 C 
HETATM    7 CL9  UNL     1     -33.726   6.605   5.705  1.00 20.00    -0.125 Cl
BRANCH   6   8
HETATM    8  C5  UNL     1     -35.241   4.654   4.529  1.00 20.00     0.016 C 
HETATM    9  C3  UNL     1     -34.882   4.022   5.868  1.00 20.00     0.006 C 
ENDBRANCH   6   8
ENDBRANCH   5   6
ENDBRANCH   4   5
ENDBRANCH   3   4
TORSDOF 4
ENDMDL
MODEL 3
REMARK VINA RESULT:      -5.1      1.429      1.564
REMARK  4 active torsions:
REMARK  status: ('A' for Active; 'I' for Inactive)
REMARK    1  A    between atoms: C4_4  and  C6_6 
REMARK    2  A    between atoms: C5_5  and  C8_8 
REMARK    3  A    between atoms: C6_6  and  C7_7 
REMARK    4  A    between atoms: C7_7  and  C8_8 
ROOT
HETATM    1  C1  UNL     1     -32.182   9.101   1.000  1.00 20.00     0.012 C 
HETATM    2  C2  UNL     1     -31.980   8.394   1.949  1.00 20.00    -0.117 C 
HETATM    3  C4  UNL     1     -31.730   7.534   3.113  1.00 20.00     0.093 C 
ENDROOT
BRANCH   3   4
HETATM    4  C6  UNL     1     -32.589   6.266   3.093  1.00 20.00     0.014 C 
BRANCH   4   5
HETATM    5  C7  UNL     1     -33.693   6.282   4.162  1.00 20.00     0.021 C 
BRANCH   5   6
HETATM    6  C8  UNL     1     -34.769   5.210   3.930  1.00 20.00     0.082 C 
HETATM    7 CL9  UNL     1     -36.243   5.933   3.212  1.00 20.00    -0.125 Cl
BRANCH   6   8
HETATM    8  C5  UNL     1     -35.124   4.432   5.208  1.00 20.00     0.016 C 
HETATM    9  C3  UNL     1     -34.585   5.020   6.505  1.00 20.00     0.006 C 
ENDBRANCH   6   8
ENDBRANCH   5   6
ENDBRANCH   4   5
ENDBRANCH   3   4
TORSDOF 4
ENDMDL
MODEL 4
REMARK VINA RESULT:      -4.8      2.363      4.967
REMARK  4 active torsions:
REMARK  status: ('A' for Active; 'I' for Inactive)
REMARK    1  A    between atoms: C4_4  and  C6_6 
REMARK    2  A    between atoms: C5_5  and  C8_8 
REMARK    3  A    between atoms: C6_6  and  C7_7 
REMARK    4  A    between atoms: C7_7  and  C8_8 
ROOT
HETATM    1  C1  UNL     1     -35.106   4.229   6.164  1.00 20.00     0.012 C 
HETATM    2  C2  UNL     1     -35.048   4.760   5.089  1.00 20.00    -0.117 C 
HETATM    3  C4  UNL     1     -34.983   5.408   3.772  1.00 20.00     0.093 C 
ENDROOT
BRANCH   3   4
HETATM    4  C6  UNL     1     -33.979   6.565   3.743  1.00 20.00     0.014 C 
BRANCH   4   5
HETATM    5  C7  UNL     1     -32.648   6.178   3.081  1.00 20.00     0.021 C 
BRANCH   5   6
HETATM    6  C8  UNL     1     -31.729   7.384   2.832  1.00 20.00     0.082 C 
HETATM    7 CL9  UNL     1     -30.984   7.942   4.364  1.00 20.00    -0.125 Cl
BRANCH   6   8
HETATM    8  C5  UNL     1     -32.446   8.549   2.133  1.00 20.00     0.016 C 
HETATM    9  C3  UNL     1     -31.933   8.895   0.741  1.00 20.00     0.006 C 
ENDBRANCH   6   8
ENDBRANCH   5   6
ENDBRANCH   4   5
ENDBRANCH   3   4
TORSDOF 4
ENDMDL
MODEL 5
REMARK VINA RESULT:      -4.3      1.489      4.316
REMARK  4 active torsions:
REMARK  status: ('A' for Active; 'I' for Inactive)
REMARK    1  A    between atoms: C4_4  and  C6_6 
REMARK    2  A    between atoms: C5_5  and  C8_8 
REMARK    3  A    between atoms: C6_6  and  C7_7 
REMARK    4  A    between atoms: C7_7  and  C8_8 
ROOT
HETATM    1  C1  UNL     1     -33.745   6.901   6.818  1.00 20.00     0.012 C 
HETATM    2  C2  UNL     1     -34.271   6.058   6.144  1.00 20.00    -0.117 C 
HETATM    3  C4  UNL     1     -34.918   5.024   5.325  1.00 20.00     0.093 C 
ENDROOT
BRANCH   3   4
HETATM    4  C6  UNL     1     -34.773   5.298   3.825  1.00 20.00     0.014 C 
BRANCH   4   5
HETATM    5  C7  UNL     1     -34.189   6.688   3.530  1.00 20.00     0.021 C 
BRANCH   5   6
HETATM    6  C8  UNL     1     -32.905   6.633   2.688  1.00 20.00     0.082 C 
HETATM    7 CL9  UNL     1     -31.848   5.290   3.228  1.00 20.00    -0.125 Cl
BRANCH   6   8
HETATM    8  C5  UNL     1     -32.127   7.958   2.694  1.00 20.00     0.016 C 
HETATM    9  C3  UNL     1     -32.041   8.675   1.353  1.00 20.00     0.006 C 
ENDBRANCH   6   8
ENDBRANCH   5   6
ENDBRANCH   4   5
ENDBRANCH   3   4
TORSDOF 4
ENDMDL
MODEL 6
REMARK VINA RESULT:      -4.3      1.632      4.569
REMARK  4 active torsions:
REMARK  status: ('A' for Active; 'I' for Inactive)
REMARK    1  A    between atoms: C4_4  and  C6_6 
REMARK    2  A    between atoms: C5_5  and  C8_8 
REMARK    3  A    between atoms: C6_6  and  C7_7 
REMARK    4  A    between atoms: C7_7  and  C8_8 
ROOT
HETATM    1  C1  UNL     1     -35.118   3.831   5.490  1.00 20.00     0.012 C 
HETATM    2  C2  UNL     1     -34.687   4.870   5.907  1.00 20.00    -0.117 C 
HETATM    3  C4  UNL     1     -34.161   6.141   6.424  1.00 20.00     0.093 C 
ENDROOT
BRANCH   3   4
HETATM    4  C6  UNL     1     -33.409   6.937   5.353  1.00 20.00     0.014 C 
BRANCH   4   5
HETATM    5  C7  UNL     1     -34.012   6.759   3.951  1.00 20.00     0.021 C 
BRANCH   5   6
HETATM    6  C8  UNL     1     -32.948   6.670   2.846  1.00 20.00     0.082 C 
HETATM    7 CL9  UNL     1     -31.958   5.187   3.035  1.00 20.00    -0.125 Cl
BRANCH   6   8
HETATM    8  C5  UNL     1     -32.042   7.910   2.786  1.00 20.00     0.016 C 
HETATM    9  C3  UNL     1     -32.053   8.666   1.463  1.00 20.00     0.006 C 
ENDBRANCH   6   8
ENDBRANCH   5   6
ENDBRANCH   4   5
ENDBRANCH   3   4
TORSDOF 4
ENDMDL
MODEL 7
REMARK VINA RESULT:      -4.0     11.231     12.462
REMARK  4 active torsions:
REMARK  status: ('A' for Active; 'I' for Inactive)
REMARK    1  A    between atoms: C4_4  and  C6_6 
REMARK    2  A    between atoms: C5_5  and  C8_8 
REMARK    3  A    between atoms: C6_6  and  C7_7 
REMARK    4  A    between atoms: C7_7  and  C8_8 
ROOT
HETATM    1  C1  UNL     1     -34.587  16.629  -0.821  1.00 20.00     0.012 C 
HETATM    2  C2  UNL     1     -34.151  16.528  -1.934  1.00 20.00    -0.117 C 
HETATM    3  C4  UNL     1     -33.619  16.409  -3.299  1.00 20.00     0.093 C 
ENDROOT
BRANCH   3   4
HETATM    4  C6  UNL     1     -33.004  15.031  -3.564  1.00 20.00     0.014 C 
BRANCH   4   5
HETATM    5  C7  UNL     1     -34.034  14.012  -4.076  1.00 20.00     0.021 C 
BRANCH   5   6
HETATM    6  C8  UNL     1     -35.206  14.668  -4.824  1.00 20.00     0.082 C 
HETATM    7 CL9  UNL     1     -36.759  14.327  -3.996  1.00 20.00    -0.125 Cl
BRANCH   6   8
HETATM    8  C5  UNL     1     -35.285  14.246  -6.300  1.00 20.00     0.016 C 
HETATM    9  C3  UNL     1     -34.390  15.026  -7.255  1.00 20.00     0.006 C 
ENDBRANCH   6   8
ENDBRANCH   5   6
ENDBRANCH   4   5
ENDBRANCH   3   4
TORSDOF 4
ENDMDL
MODEL 8
REMARK VINA RESULT:      -4.0     11.175     11.991
REMARK  4 active torsions:
REMARK  status: ('A' for Active; 'I' for Inactive)
REMARK    1  A    between atoms: C4_4  and  C6_6 
REMARK    2  A    between atoms: C5_5  and  C8_8 
REMARK    3  A    between atoms: C6_6  and  C7_7 
REMARK    4  A    between atoms: C7_7  and  C8_8 
ROOT
HETATM    1  C1  UNL     1     -34.827  14.762  -6.948  1.00 20.00     0.012 C 
HETATM    2  C2  UNL     1     -34.782  14.115  -5.939  1.00 20.00    -0.117 C 
HETATM    3  C4  UNL     1     -34.731  13.319  -4.705  1.00 20.00     0.093 C 
ENDROOT
BRANCH   3   4
HETATM    4  C6  UNL     1     -33.589  13.752  -3.781  1.00 20.00     0.014 C 
BRANCH   4   5
HETATM    5  C7  UNL     1     -33.509  15.278  -3.613  1.00 20.00     0.021 C 
BRANCH   5   6
HETATM    6  C8  UNL     1     -34.557  15.830  -2.634  1.00 20.00     0.082 C 
HETATM    7 CL9  UNL     1     -35.912  16.599  -3.519  1.00 20.00    -0.125 Cl
BRANCH   6   8
HETATM    8  C5  UNL     1     -33.962  16.812  -1.612  1.00 20.00     0.016 C 
HETATM    9  C3  UNL     1     -34.719  16.926  -0.295  1.00 20.00     0.006 C 
ENDBRANCH   6   8
ENDBRANCH   5   6
ENDBRANCH   4   5
ENDBRANCH   3   4
TORSDOF 4
ENDMDL
MODEL 9
REMARK VINA RESULT:      -4.0     11.077     12.102
REMARK  4 active torsions:
REMARK  status: ('A' for Active; 'I' for Inactive)
REMARK    1  A    between atoms: C4_4  and  C6_6 
REMARK    2  A    between atoms: C5_5  and  C8_8 
REMARK    3  A    between atoms: C6_6  and  C7_7 
REMARK    4  A    between atoms: C7_7  and  C8_8 
ROOT
HETATM    1  C1  UNL     1     -34.564  16.590  -0.862  1.00 20.00     0.012 C 
HETATM    2  C2  UNL     1     -34.135  16.520  -1.980  1.00 20.00    -0.117 C 
HETATM    3  C4  UNL     1     -33.610  16.440  -3.350  1.00 20.00     0.093 C 
ENDROOT
BRANCH   3   4
HETATM    4  C6  UNL     1     -33.170  15.020  -3.721  1.00 20.00     0.014 C 
BRANCH   4   5
HETATM    5  C7  UNL     1     -34.213  13.958  -3.339  1.00 20.00     0.021 C 
BRANCH   5   6
HETATM    6  C8  UNL     1     -35.265  13.728  -4.436  1.00 20.00     0.082 C 
HETATM    7 CL9  UNL     1     -34.661  14.296  -6.025  1.00 20.00    -0.125 Cl
BRANCH   6   8
HETATM    8  C5  UNL     1     -36.617  14.383  -4.115  1.00 20.00     0.016 C 
HETATM    9  C3  UNL     1     -36.895  15.700  -4.828  1.00 20.00     0.006 C 
ENDBRANCH   6   8
ENDBRANCH   5   6
ENDBRANCH   4   5
ENDBRANCH   3   4
TORSDOF 4
ENDMDL
