MODEL 1
REMARK VINA RESULT:      -5.4      0.000      0.000
REMARK  4 active torsions:
REMARK  status: ('A' for Active; 'I' for Inactive)
REMARK    1  A    between atoms: C4_4  and  C6_6 
REMARK    2  A    between atoms: C5_5  and  C8_8 
REMARK    3  A    between atoms: C6_6  and  C7_7 
REMARK    4  A    between atoms: C7_7  and  C8_8 
ROOT
HETATM    1  C1  UNL     1     -32.239   9.011   1.129  1.00 20.00     0.012 C 
HETATM    2  C2  UNL     1     -32.076   8.262   2.053  1.00 20.00    -0.117 C 
HETATM    3  C4  UNL     1     -31.871   7.346   3.184  1.00 20.00     0.093 C 
ENDROOT
BRANCH   3   4
HETATM    4  C6  UNL     1     -32.885   6.200   3.195  1.00 20.00     0.014 C 
BRANCH   4   5
HETATM    5  C7  UNL     1     -34.055   6.452   4.158  1.00 20.00     0.021 C 
BRANCH   5   6
HETATM    6  C8  UNL     1     -33.775   5.959   5.587  1.00 20.00     0.082 C 
HETATM    7 CL9  UNL     1     -33.652   7.347   6.715  1.00 20.00    -0.125 Cl
BRANCH   6   8
HETATM    8  C5  UNL     1     -34.818   4.950   6.090  1.00 20.00     0.016 C 
HETATM    9  C3  UNL     1     -35.169   3.829   5.118  1.00 20.00     0.006 C 
ENDBRANCH   6   8
ENDBRANCH   5   6
ENDBRANCH   4   5
ENDBRANCH   3   4
TORSDOF 4
ENDMDL
MODEL 2
REMARK VINA RESULT:      -5.2      1.818      1.990
REMARK  4 active torsions:
REMARK  status: ('A' for Active; 'I' for Inactive)
REMARK    1  A    between atoms: C4_4  and  C6_6 
REMARK    2  A    between atoms: C5_5  and  C8_8 
REMARK    3  A    between atoms: C6_6  and  C7_7 
REMARK    4  A    between atoms: C7_7  and  C8_8 
ROOT
HETATM    1  C1  UNL     1     -32.211   8.926   1.031  1.00 20.00     0.012 C 
HETATM    2  C2  UNL     1     -31.941   8.348   2.048  1.00 20.00    -0.117 C 
HETATM    3  C4  UNL     1     -31.607   7.642   3.293  1.00 20.00     0.093 C 
ENDROOT
BRANCH   3   4
HETATM    4  C6  UNL     1     -32.361   6.318   3.431  1.00 20.00     0.014 C 
BRANCH   4   5
HETATM    5  C7  UNL     1     -33.578   6.423   4.364  1.00 20.00     0.021 C 
BRANCH   5   6
HETATM    6  C8  UNL     1     -34.793   5.627   3.859  1.00 20.00     0.082 C 
HETATM    7 CL9  UNL     1     -34.498   5.022   2.197  1.00 20.00    -0.125 Cl
BRANCH   6   8
HETATM    8  C5  UNL     1     -35.181   4.468   4.790  1.00 20.00     0.016 C 
HETATM    9  C3  UNL     1     -34.799   4.647   6.254  1.00 20.00     0.006 C 
ENDBRANCH   6   8
ENDBRANCH   5   6
ENDBRANCH   4   5
ENDBRANCH   3   4
TORSDOF 4
ENDMDL
MODEL 3
REMARK VINA RESULT:      -5.1      1.704      2.096
REMARK  4 active torsions:
REMARK  status: ('A' for Active; 'I' for Inactive)
REMARK    1  A    between atoms: C4_4  and  C6_6 
REMARK    2  A    between atoms: C5_5  and  C8_8 
REMARK    3  A    between atoms: C6_6  and  C7_7 
REMARK    4  A    between atoms: C7_7  and  C8_8 
ROOT
HETATM    1  C1  UNL     1     -32.111   8.645   1.600  1.00 20.00     0.012 C 
HETATM    2  C2  UNL     1     -32.129   7.748   2.397  1.00 20.00    -0.117 C 
HETATM    3  C4  UNL     1     -32.146   6.649   3.373  1.00 20.00     0.093 C 
ENDROOT
BRANCH   3   4
HETATM    4  C6  UNL     1     -33.374   5.749   3.213  1.00 20.00     0.014 C 
BRANCH   4   5
HETATM    5  C7  UNL     1     -34.603   6.283   3.965  1.00 20.00     0.021 C 
BRANCH   5   6
HETATM    6  C8  UNL     1     -35.027   5.384   5.138  1.00 20.00     0.082 C 
HETATM    7 CL9  UNL     1     -34.963   3.657   4.659  1.00 20.00    -0.125 Cl
BRANCH   6   8
HETATM    8  C5  UNL     1     -34.194   5.619   6.408  1.00 20.00     0.016 C 
HETATM    9  C3  UNL     1     -33.770   7.061   6.656  1.00 20.00     0.006 C 
ENDBRANCH   6   8
ENDBRANCH   5   6
ENDBRANCH   4   5
ENDBRANCH   3   4
TORSDOF 4
ENDMDL
MODEL 4
REMARK VINA RESULT:      -4.8      1.450      5.009
REMARK  4 active torsions:
REMARK  status: ('A' for Active; 'I' for Inactive)
REMARK    1  A    between atoms: C4_4  and  C6_6 
REMARK    2  A    between atoms: C5_5  and  C8_8 
REMARK    3  A    between atoms: C6_6  and  C7_7 
REMARK    4  A    between atoms: C7_7  and  C8_8 
ROOT
HETATM    1  C1  UNL     1     -35.163   4.258   6.285  1.00 20.00     0.012 C 
HETATM    2  C2  UNL     1     -34.661   5.124   5.623  1.00 20.00    -0.117 C 
HETATM    3  C4  UNL     1     -34.046   6.189   4.817  1.00 20.00     0.093 C 
ENDROOT
BRANCH   3   4
HETATM    4  C6  UNL     1     -33.946   5.812   3.337  1.00 20.00     0.014 C 
BRANCH   4   5
HETATM    5  C7  UNL     1     -32.580   6.158   2.727  1.00 20.00     0.021 C 
BRANCH   5   6
HETATM    6  C8  UNL     1     -32.219   7.646   2.864  1.00 20.00     0.082 C 
HETATM    7 CL9  UNL     1     -30.940   7.869   4.100  1.00 20.00    -0.125 Cl
BRANCH   6   8
HETATM    8  C5  UNL     1     -31.797   8.288   1.534  1.00 20.00     0.016 C 
HETATM    9  C3  UNL     1     -32.446   9.630   1.217  1.00 20.00     0.006 C 
ENDBRANCH   6   8
ENDBRANCH   5   6
ENDBRANCH   4   5
ENDBRANCH   3   4
TORSDOF 4
ENDMDL
MODEL 5
REMARK VINA RESULT:      -4.4      1.764      4.809
REMARK  4 active torsions:
REMARK  status: ('A' for Active; 'I' for Inactive)
REMARK    1  A    between atoms: C4_4  and  C6_6 
REMARK    2  A    between atoms: C5_5  and  C8_8 
REMARK    3  A    between atoms: C6_6  and  C7_7 
REMARK    4  A    between atoms: C7_7  and  C8_8 
ROOT
HETATM    1  C1  UNL     1     -35.188   3.736   5.217  1.00 20.00     0.012 C 
HETATM    2  C2  UNL     1     -34.877   4.699   5.862  1.00 20.00    -0.117 C 
HETATM    3  C4  UNL     1     -34.499   5.877   6.656  1.00 20.00     0.093 C 
ENDROOT
BRANCH   3   4
HETATM    4  C6  UNL     1     -33.565   6.818   5.891  1.00 20.00     0.014 C 
BRANCH   4   5
HETATM    5  C7  UNL     1     -33.889   6.885   4.391  1.00 20.00     0.021 C 
BRANCH   5   6
HETATM    6  C8  UNL     1     -32.864   6.141   3.520  1.00 20.00     0.082 C 
HETATM    7 CL9  UNL     1     -33.686   5.286   2.176  1.00 20.00    -0.125 Cl
BRANCH   6   8
HETATM    8  C5  UNL     1     -31.759   7.059   2.975  1.00 20.00     0.016 C 
HETATM    9  C3  UNL     1     -32.239   8.230   2.125  1.00 20.00     0.006 C 
ENDBRANCH   6   8
ENDBRANCH   5   6
ENDBRANCH   4   5
ENDBRANCH   3   4
TORSDOF 4
ENDMDL
MODEL 6
REMARK VINA RESULT:      -4.2     11.295     12.272
REMARK  4 active torsions:
REMARK  status: ('A' for Active; 'I' for Inactive)
REMARK    1  A    between atoms: C4_4  and  C6_6 
REMARK    2  A    between atoms: C5_5  and  C8_8 
REMARK    3  A    between atoms: C6_6  and  C7_7 
REMARK    4  A    between atoms: C7_7  and  C8_8 
ROOT
HETATM    1  C1  UNL     1     -34.787  15.024  -6.895  1.00 20.00     0.012 C 
HETATM    2  C2  UNL     1     -34.748  14.199  -6.024  1.00 20.00    -0.117 C 
HETATM    3  C4  UNL     1     -34.703  13.185  -4.960  1.00 20.00     0.093 C 
ENDROOT
BRANCH   3   4
HETATM    4  C6  UNL     1     -34.375  13.792  -3.594  1.00 20.00     0.014 C 
BRANCH   4   5
HETATM    5  C7  UNL     1     -33.182  14.758  -3.644  1.00 20.00     0.021 C 
BRANCH   5   6
HETATM    6  C8  UNL     1     -33.505  16.143  -3.058  1.00 20.00     0.082 C 
HETATM    7 CL9  UNL     1     -33.621  17.364  -4.365  1.00 20.00    -0.125 Cl
BRANCH   6   8
HETATM    8  C5  UNL     1     -34.781  16.150  -2.202  1.00 20.00     0.016 C 
HETATM    9  C3  UNL     1     -34.613  16.668  -0.779  1.00 20.00     0.006 C 
ENDBRANCH   6   8
ENDBRANCH   5   6
ENDBRANCH   4   5
ENDBRANCH   3   4
TORSDOF 4
ENDMDL
MODEL 7
REMARK VINA RESULT:      -4.2      2.111      4.372
REMARK  4 active torsions:
REMARK  status: ('A' for Active; 'I' for Inactive)
REMARK    1  A    between atoms: C4_4  and  C6_6 
REMARK    2  A    between atoms: C5_5  and  C8_8 
REMARK    3  A    between atoms: C6_6  and  C7_7 
REMARK    4  A    between atoms: C7_7  and  C8_8 
ROOT
HETATM    1  C1  UNL     1     -33.730   7.066   6.564  1.00 20.00     0.012 C 
HETATM    2  C2  UNL     1     -34.285   6.002   6.568  1.00 20.00    -0.117 C 
HETATM    3  C4  UNL     1     -34.963   4.698   6.579  1.00 20.00     0.093 C 
ENDROOT
BRANCH   3   4
HETATM    4  C6  UNL     1     -35.187   4.148   5.169  1.00 20.00     0.014 C 
BRANCH   4   5
HETATM    5  C7  UNL     1     -34.033   4.482   4.211  1.00 20.00     0.021 C 
BRANCH   5   6
HETATM    6  C8  UNL     1     -34.446   5.444   3.085  1.00 20.00     0.082 C 
HETATM    7 CL9  UNL     1     -36.135   5.996   3.321  1.00 20.00    -0.125 Cl
BRANCH   6   8
HETATM    8  C5  UNL     1     -33.502   6.649   2.949  1.00 20.00     0.016 C 
HETATM    9  C3  UNL     1     -32.036   6.374   3.262  1.00 20.00     0.006 C 
ENDBRANCH   6   8
ENDBRANCH   5   6
ENDBRANCH   4   5
ENDBRANCH   3   4
TORSDOF 4
ENDMDL
MODEL 8
REMARK VINA RESULT:      -4.1      1.776      4.672
REMARK  4 active torsions:
REMARK  status: ('A' for Active; 'I' for Inactive)
REMARK    1  A    between atoms: C4_4  and  C6_6 
REMARK    2  A    between atoms: C5_5  and  C8_8 
REMARK    3  A    between atoms: C6_6  and  C7_7 
REMARK    4  A    between atoms: C7_7  and  C8_8 
ROOT
HETATM    1  C1  UNL     1     -33.987   6.544   6.659  1.00 20.00     0.012 C 
HETATM    2  C2  UNL     1     -34.438   5.882   5.765  1.00 20.00    -0.117 C 
HETATM    3  C4  UNL     1     -34.991   5.069   4.672  1.00 20.00     0.093 C 
ENDROOT
BRANCH   3   4
HETATM    4  C6  UNL     1     -34.482   5.516   3.300  1.00 20.00     0.014 C 
BRANCH   4   5
HETATM    5  C7  UNL     1     -34.003   6.975   3.291  1.00 20.00     0.021 C 
BRANCH   5   6
HETATM    6  C8  UNL     1     -32.477   7.107   3.165  1.00 20.00     0.082 C 
HETATM    7 CL9  UNL     1     -31.713   5.486   3.091  1.00 20.00    -0.125 Cl
BRANCH   6   8
HETATM    8  C5  UNL     1     -32.045   7.959   1.961  1.00 20.00     0.016 C 
HETATM    9  C3  UNL     1     -32.617   9.370   1.918  1.00 20.00     0.006 C 
ENDBRANCH   6   8
ENDBRANCH   5   6
ENDBRANCH   4   5
ENDBRANCH   3   4
TORSDOF 4
ENDMDL
MODEL 9
REMARK VINA RESULT:      -4.1     11.531     12.480
REMARK  4 active torsions:
REMARK  status: ('A' for Active; 'I' for Inactive)
REMARK    1  A    between atoms: C4_4  and  C6_6 
REMARK    2  A    between atoms: C5_5  and  C8_8 
REMARK    3  A    between atoms: C6_6  and  C7_7 
REMARK    4  A    between atoms: C7_7  and  C8_8 
ROOT
HETATM    1  C1  UNL     1     -34.534  16.397  -1.411  1.00 20.00     0.012 C 
HETATM    2  C2  UNL     1     -33.973  15.944  -2.371  1.00 20.00    -0.117 C 
HETATM    3  C4  UNL     1     -33.285  15.394  -3.548  1.00 20.00     0.093 C 
ENDROOT
BRANCH   3   4
HETATM    4  C6  UNL     1     -33.524  13.891  -3.711  1.00 20.00     0.014 C 
BRANCH   4   5
HETATM    5  C7  UNL     1     -34.446  13.562  -4.895  1.00 20.00     0.021 C 
BRANCH   5   6
HETATM    6  C8  UNL     1     -34.976  14.816  -5.610  1.00 20.00     0.082 C 
HETATM    7 CL9  UNL     1     -34.513  14.792  -7.342  1.00 20.00    -0.125 Cl
BRANCH   6   8
HETATM    8  C5  UNL     1     -36.495  14.994  -5.464  1.00 20.00     0.016 C 
HETATM    9  C3  UNL     1     -37.070  14.626  -4.102  1.00 20.00     0.006 C 
ENDBRANCH   6   8
ENDBRANCH   5   6
ENDBRANCH   4   5
ENDBRANCH   3   4
TORSDOF 4
ENDMDL
