MODEL 1
REMARK VINA RESULT:      -4.4      0.000      0.000
REMARK  1 active torsions:
REMARK  status: ('A' for Active; 'I' for Inactive)
REMARK    1  A    between atoms: C6_6  and  C8_8 
ROOT
HETATM    1  C1  UNL     1     -32.216   8.358   1.922  1.00 20.00     0.064 C 
HETATM    2  C2  UNL     1     -31.868   7.452   4.210  1.00 20.00     0.019 C 
HETATM    3  C3  UNL     1     -33.165   6.962   4.841  1.00 20.00     0.006 C 
HETATM    4  C4  UNL     1     -33.192   6.175   2.587  1.00 20.00     0.024 C 
HETATM    5  C5  UNL     1     -31.999   7.137   2.712  1.00 20.00     0.093 C 
HETATM    6  C6  UNL     1     -33.498   5.725   4.016  1.00 20.00    -0.014 C 
HETATM    7  N9  UNL     1     -32.386   9.320   1.297  1.00 20.00    -0.197 NA
ENDROOT
BRANCH   6   8
HETATM    8  C8  UNL     1     -34.928   5.249   4.201  1.00 20.00     0.000 C 
HETATM    9  C7  UNL     1     -35.118   4.536   5.504  1.00 20.00     0.005 C 
ENDBRANCH   6   8
TORSDOF 1
ENDMDL
MODEL 2
REMARK VINA RESULT:      -4.4     10.763     11.732
REMARK  1 active torsions:
REMARK  status: ('A' for Active; 'I' for Inactive)
REMARK    1  A    between atoms: C6_6  and  C8_8 
ROOT
HETATM    1  C1  UNL     1     -35.102  14.565  -6.643  1.00 20.00     0.064 C 
HETATM    2  C2  UNL     1     -34.590  13.239  -4.604  1.00 20.00     0.019 C 
HETATM    3  C3  UNL     1     -33.708  14.002  -3.624  1.00 20.00     0.006 C 
HETATM    4  C4  UNL     1     -35.350  15.561  -4.383  1.00 20.00     0.024 C 
HETATM    5  C5  UNL     1     -35.494  14.300  -5.250  1.00 20.00     0.093 C 
HETATM    6  C6  UNL     1     -34.637  15.096  -3.112  1.00 20.00    -0.014 C 
HETATM    7  N9  UNL     1     -34.795  14.774  -7.741  1.00 20.00    -0.197 NA
ENDROOT
BRANCH   6   8
HETATM    8  C8  UNL     1     -33.904  16.215  -2.393  1.00 20.00     0.000 C 
HETATM    9  C7  UNL     1     -34.546  16.556  -1.084  1.00 20.00     0.005 C 
ENDBRANCH   6   8
TORSDOF 1
ENDMDL
MODEL 3
REMARK VINA RESULT:      -4.3     10.902     11.779
REMARK  1 active torsions:
REMARK  status: ('A' for Active; 'I' for Inactive)
REMARK    1  A    between atoms: C6_6  and  C8_8 
ROOT
HETATM    1  C1  UNL     1     -34.496  13.745  -4.680  1.00 20.00     0.064 C 
HETATM    2  C2  UNL     1     -35.206  16.124  -4.795  1.00 20.00     0.019 C 
HETATM    3  C3  UNL     1     -35.277  16.774  -3.419  1.00 20.00     0.006 C 
HETATM    4  C4  UNL     1     -33.255  15.504  -3.443  1.00 20.00     0.024 C 
HETATM    5  C5  UNL     1     -34.030  15.139  -4.721  1.00 20.00     0.093 C 
HETATM    6  C6  UNL     1     -33.812  16.860  -3.009  1.00 20.00    -0.014 C 
HETATM    7  N9  UNL     1     -34.863  12.645  -4.648  1.00 20.00    -0.197 NA
ENDROOT
BRANCH   6   8
HETATM    8  C8  UNL     1     -33.620  17.140  -1.528  1.00 20.00     0.000 C 
HETATM    9  C7  UNL     1     -34.780  16.661  -0.712  1.00 20.00     0.005 C 
ENDBRANCH   6   8
TORSDOF 1
ENDMDL
MODEL 4
REMARK VINA RESULT:      -4.1     10.984     12.004
REMARK  1 active torsions:
REMARK  status: ('A' for Active; 'I' for Inactive)
REMARK    1  A    between atoms: C6_6  and  C8_8 
ROOT
HETATM    1  C1  UNL     1     -36.737  14.700  -3.860  1.00 20.00     0.064 C 
HETATM    2  C2  UNL     1     -35.283  16.538  -4.688  1.00 20.00     0.019 C 
HETATM    3  C3  UNL     1     -34.888  17.507  -3.581  1.00 20.00     0.006 C 
HETATM    4  C4  UNL     1     -34.658  15.319  -2.654  1.00 20.00     0.024 C 
HETATM    5  C5  UNL     1     -35.348  15.157  -4.018  1.00 20.00     0.093 C 
HETATM    6  C6  UNL     1     -33.949  16.672  -2.719  1.00 20.00    -0.014 C 
HETATM    7  N9  UNL     1     -37.831  14.337  -3.736  1.00 20.00    -0.197 NA
ENDROOT
BRANCH   6   8
HETATM    8  C8  UNL     1     -33.693  17.281  -1.351  1.00 20.00     0.000 C 
HETATM    9  C7  UNL     1     -34.756  16.910  -0.364  1.00 20.00     0.005 C 
ENDBRANCH   6   8
TORSDOF 1
ENDMDL
MODEL 5
REMARK VINA RESULT:      -4.1     10.849     11.681
REMARK  1 active torsions:
REMARK  status: ('A' for Active; 'I' for Inactive)
REMARK    1  A    between atoms: C6_6  and  C8_8 
ROOT
HETATM    1  C1  UNL     1     -33.688  17.687  -3.293  1.00 20.00     0.064 C 
HETATM    2  C2  UNL     1     -35.144  15.968  -2.244  1.00 20.00     0.019 C 
HETATM    3  C3  UNL     1     -35.608  14.915  -3.242  1.00 20.00     0.006 C 
HETATM    4  C4  UNL     1     -33.290  15.270  -3.690  1.00 20.00     0.024 C 
HETATM    5  C5  UNL     1     -33.723  16.349  -2.684  1.00 20.00     0.093 C 
HETATM    6  C6  UNL     1     -34.326  14.153  -3.553  1.00 20.00    -0.014 C 
HETATM    7  N9  UNL     1     -33.660  18.743  -3.772  1.00 20.00    -0.197 NA
ENDROOT
BRANCH   6   8
HETATM    8  C8  UNL     1     -34.434  13.280  -4.791  1.00 20.00     0.000 C 
HETATM    9  C7  UNL     1     -34.918  14.050  -5.980  1.00 20.00     0.005 C 
ENDBRANCH   6   8
TORSDOF 1
ENDMDL
MODEL 6
REMARK VINA RESULT:      -4.1      9.412     10.426
REMARK  1 active torsions:
REMARK  status: ('A' for Active; 'I' for Inactive)
REMARK    1  A    between atoms: C6_6  and  C8_8 
ROOT
HETATM    1  C1  UNL     1     -42.578   7.784  -0.979  1.00 20.00     0.064 C 
HETATM    2  C2  UNL     1     -40.835   6.149  -0.297  1.00 20.00     0.019 C 
HETATM    3  C3  UNL     1     -41.321   4.708  -0.399  1.00 20.00     0.006 C 
HETATM    4  C4  UNL     1     -42.076   5.801  -2.384  1.00 20.00     0.024 C 
HETATM    5  C5  UNL     1     -41.512   6.891  -1.458  1.00 20.00     0.093 C 
HETATM    6  C6  UNL     1     -41.438   4.496  -1.904  1.00 20.00    -0.014 C 
HETATM    7  N9  UNL     1     -43.417   8.489  -0.602  1.00 20.00    -0.197 NA
ENDROOT
BRANCH   6   8
HETATM    8  C8  UNL     1     -42.245   3.263  -2.273  1.00 20.00     0.000 C 
HETATM    9  C7  UNL     1     -41.572   2.450  -3.335  1.00 20.00     0.005 C 
ENDBRANCH   6   8
TORSDOF 1
ENDMDL
MODEL 7
REMARK VINA RESULT:      -4.1     10.396     11.963
REMARK  1 active torsions:
REMARK  status: ('A' for Active; 'I' for Inactive)
REMARK    1  A    between atoms: C6_6  and  C8_8 
ROOT
HETATM    1  C1  UNL     1     -34.114  15.803  -2.596  1.00 20.00     0.064 C 
HETATM    2  C2  UNL     1     -33.613  13.695  -3.813  1.00 20.00     0.019 C 
HETATM    3  C3  UNL     1     -34.670  13.366  -4.861  1.00 20.00     0.006 C 
HETATM    4  C4  UNL     1     -34.237  15.705  -5.073  1.00 20.00     0.024 C 
HETATM    5  C5  UNL     1     -33.509  15.227  -3.806  1.00 20.00     0.093 C 
HETATM    6  C6  UNL     1     -34.450  14.445  -5.914  1.00 20.00    -0.014 C 
HETATM    7  N9  UNL     1     -34.590  16.258  -1.642  1.00 20.00    -0.197 NA
ENDROOT
BRANCH   6   8
HETATM    8  C8  UNL     1     -35.604  14.567  -6.895  1.00 20.00     0.000 C 
HETATM    9  C7  UNL     1     -36.791  15.242  -6.283  1.00 20.00     0.005 C 
ENDBRANCH   6   8
TORSDOF 1
ENDMDL
MODEL 8
REMARK VINA RESULT:      -4.1     11.068     11.971
REMARK  1 active torsions:
REMARK  status: ('A' for Active; 'I' for Inactive)
REMARK    1  A    between atoms: C6_6  and  C8_8 
ROOT
HETATM    1  C1  UNL     1     -35.187  14.844  -5.586  1.00 20.00     0.064 C 
HETATM    2  C2  UNL     1     -33.378  16.345  -4.780  1.00 20.00     0.019 C 
HETATM    3  C3  UNL     1     -33.786  17.128  -3.538  1.00 20.00     0.006 C 
HETATM    4  C4  UNL     1     -34.551  14.893  -3.188  1.00 20.00     0.024 C 
HETATM    5  C5  UNL     1     -34.066  14.978  -4.644  1.00 20.00     0.093 C 
HETATM    6  C6  UNL     1     -33.857  16.048  -2.465  1.00 20.00    -0.014 C 
HETATM    7  N9  UNL     1     -36.071  14.737  -6.329  1.00 20.00    -0.197 NA
ENDROOT
BRANCH   6   8
HETATM    8  C8  UNL     1     -34.590  16.497  -1.212  1.00 20.00     0.000 C 
HETATM    9  C7  UNL     1     -33.899  17.641  -0.537  1.00 20.00     0.005 C 
ENDBRANCH   6   8
TORSDOF 1
ENDMDL
MODEL 9
REMARK VINA RESULT:      -4.0     10.677     12.565
REMARK  1 active torsions:
REMARK  status: ('A' for Active; 'I' for Inactive)
REMARK    1  A    between atoms: C6_6  and  C8_8 
ROOT
HETATM    1  C1  UNL     1     -37.392  14.645  -3.807  1.00 20.00     0.064 C 
HETATM    2  C2  UNL     1     -35.091  13.707  -3.800  1.00 20.00     0.019 C 
HETATM    3  C3  UNL     1     -34.527  13.548  -5.206  1.00 20.00     0.006 C 
HETATM    4  C4  UNL     1     -35.591  15.685  -5.162  1.00 20.00     0.024 C 
HETATM    5  C5  UNL     1     -35.960  14.973  -3.850  1.00 20.00     0.093 C 
HETATM    6  C6  UNL     1     -34.321  14.990  -5.654  1.00 20.00    -0.014 C 
HETATM    7  N9  UNL     1     -38.523  14.388  -3.772  1.00 20.00    -0.197 NA
ENDROOT
BRANCH   6   8
HETATM    8  C8  UNL     1     -34.105  15.127  -7.151  1.00 20.00     0.000 C 
HETATM    9  C7  UNL     1     -35.382  14.980  -7.918  1.00 20.00     0.005 C 
ENDBRANCH   6   8
TORSDOF 1
ENDMDL
