MODEL 1
REMARK VINA RESULT:      -4.5      0.000      0.000
REMARK  1 active torsions:
REMARK  status: ('A' for Active; 'I' for Inactive)
REMARK    1  A    between atoms: C4_4  and  C9_9 
ROOT
HETATM    1  C1  UNL     1     -34.732  16.556  -0.787  1.00 20.00     0.006 C 
HETATM    2  C2  UNL     1     -34.563  17.675   0.244  1.00 20.00     0.016 C 
HETATM    3  C3  UNL     1     -33.677  18.367  -1.924  1.00 20.00     0.021 C 
HETATM    4  C4  UNL     1     -33.682  16.840  -1.858  1.00 20.00    -0.006 C 
HETATM    5  C5  UNL     1     -33.802  18.795  -0.466  1.00 20.00     0.058 C 
HETATM    6 BR10 UNL     1     -32.023  19.002   0.322  1.00 20.00    -0.091 Br
ENDROOT
BRANCH   4   7
HETATM    7  C9  UNL     1     -33.997  16.186  -3.192  1.00 20.00    -0.048 C 
HETATM    8  C6  UNL     1     -32.898  15.168  -3.553  1.00 20.00     0.015 C 
HETATM    9  C7  UNL     1     -34.071  17.254  -4.299  1.00 20.00     0.015 C 
HETATM   10  C8  UNL     1     -35.350  15.453  -3.113  1.00 20.00     0.015 C 
ENDBRANCH   4   7
TORSDOF 1
ENDMDL
MODEL 2
REMARK VINA RESULT:      -4.2      1.838      2.411
REMARK  1 active torsions:
REMARK  status: ('A' for Active; 'I' for Inactive)
REMARK    1  A    between atoms: C4_4  and  C9_9 
ROOT
HETATM    1  C1  UNL     1     -36.088  16.163  -3.395  1.00 20.00     0.006 C 
HETATM    2  C2  UNL     1     -36.190  17.390  -2.485  1.00 20.00     0.016 C 
HETATM    3  C3  UNL     1     -33.883  16.595  -2.595  1.00 20.00     0.021 C 
HETATM    4  C4  UNL     1     -34.821  15.440  -2.946  1.00 20.00    -0.006 C 
HETATM    5  C5  UNL     1     -34.792  17.603  -1.901  1.00 20.00     0.058 C 
HETATM    6 BR10 UNL     1     -34.811  17.268   0.027  1.00 20.00    -0.091 Br
ENDROOT
BRANCH   4   7
HETATM    7  C9  UNL     1     -34.254  14.513  -4.008  1.00 20.00    -0.048 C 
HETATM    8  C6  UNL     1     -32.890  13.961  -3.553  1.00 20.00     0.015 C 
HETATM    9  C7  UNL     1     -34.067  15.279  -5.331  1.00 20.00     0.015 C 
HETATM   10  C8  UNL     1     -35.216  13.333  -4.245  1.00 20.00     0.015 C 
ENDBRANCH   4   7
TORSDOF 1
ENDMDL
MODEL 3
REMARK VINA RESULT:      -4.2      1.843      2.734
REMARK  1 active torsions:
REMARK  status: ('A' for Active; 'I' for Inactive)
REMARK    1  A    between atoms: C4_4  and  C9_9 
ROOT
HETATM    1  C1  UNL     1     -36.103  16.169  -3.398  1.00 20.00     0.006 C 
HETATM    2  C2  UNL     1     -36.200  17.396  -2.488  1.00 20.00     0.016 C 
HETATM    3  C3  UNL     1     -33.895  16.597  -2.605  1.00 20.00     0.021 C 
HETATM    4  C4  UNL     1     -34.836  15.444  -2.953  1.00 20.00    -0.006 C 
HETATM    5  C5  UNL     1     -34.800  17.607  -1.909  1.00 20.00     0.058 C 
HETATM    6 BR10 UNL     1     -34.814  17.273   0.019  1.00 20.00    -0.091 Br
ENDROOT
BRANCH   4   7
HETATM    7  C9  UNL     1     -34.275  14.515  -4.017  1.00 20.00    -0.048 C 
HETATM    8  C6  UNL     1     -35.241  13.340  -4.254  1.00 20.00     0.015 C 
HETATM    9  C7  UNL     1     -32.912  13.959  -3.565  1.00 20.00     0.015 C 
HETATM   10  C8  UNL     1     -34.087  15.283  -5.340  1.00 20.00     0.015 C 
ENDBRANCH   4   7
TORSDOF 1
ENDMDL
MODEL 4
REMARK VINA RESULT:      -4.2      1.836      2.764
REMARK  1 active torsions:
REMARK  status: ('A' for Active; 'I' for Inactive)
REMARK    1  A    between atoms: C4_4  and  C9_9 
ROOT
HETATM    1  C1  UNL     1     -36.109  16.100  -3.386  1.00 20.00     0.006 C 
HETATM    2  C2  UNL     1     -36.227  17.332  -2.485  1.00 20.00     0.016 C 
HETATM    3  C3  UNL     1     -33.903  16.595  -2.627  1.00 20.00     0.021 C 
HETATM    4  C4  UNL     1     -34.816  15.414  -2.952  1.00 20.00    -0.006 C 
HETATM    5  C5  UNL     1     -34.826  17.586  -1.927  1.00 20.00     0.058 C 
HETATM    6 BR10 UNL     1     -34.804  17.269   0.004  1.00 20.00    -0.091 Br
ENDROOT
BRANCH   4   7
HETATM    7  C9  UNL     1     -34.244  14.491  -4.015  1.00 20.00    -0.048 C 
HETATM    8  C6  UNL     1     -34.050  15.263  -5.334  1.00 20.00     0.015 C 
HETATM    9  C7  UNL     1     -35.203  13.312  -4.262  1.00 20.00     0.015 C 
HETATM   10  C8  UNL     1     -32.881  13.939  -3.555  1.00 20.00     0.015 C 
ENDBRANCH   4   7
TORSDOF 1
ENDMDL
MODEL 5
REMARK VINA RESULT:      -4.1      2.370      4.179
REMARK  1 active torsions:
REMARK  status: ('A' for Active; 'I' for Inactive)
REMARK    1  A    between atoms: C4_4  and  C9_9 
ROOT
HETATM    1  C1  UNL     1     -33.684  17.619  -3.509  1.00 20.00     0.006 C 
HETATM    2  C2  UNL     1     -33.944  16.532  -4.556  1.00 20.00     0.016 C 
HETATM    3  C3  UNL     1     -34.978  15.934  -2.426  1.00 20.00     0.021 C 
HETATM    4  C4  UNL     1     -33.839  16.918  -2.162  1.00 20.00    -0.006 C 
HETATM    5  C5  UNL     1     -34.691  15.413  -3.830  1.00 20.00     0.058 C 
HETATM    6 BR10 UNL     1     -33.571  13.812  -3.730  1.00 20.00    -0.091 Br
ENDROOT
BRANCH   4   7
HETATM    7  C9  UNL     1     -34.131  17.876  -1.020  1.00 20.00    -0.048 C 
HETATM    8  C6  UNL     1     -34.932  17.157   0.081  1.00 20.00     0.015 C 
HETATM    9  C7  UNL     1     -34.952  19.074  -1.533  1.00 20.00     0.015 C 
HETATM   10  C8  UNL     1     -32.811  18.396  -0.419  1.00 20.00     0.015 C 
ENDBRANCH   4   7
TORSDOF 1
ENDMDL
MODEL 6
REMARK VINA RESULT:      -3.9      3.596      5.291
REMARK  1 active torsions:
REMARK  status: ('A' for Active; 'I' for Inactive)
REMARK    1  A    between atoms: C4_4  and  C9_9 
ROOT
HETATM    1  C1  UNL     1     -34.825  14.409  -6.274  1.00 20.00     0.006 C 
HETATM    2  C2  UNL     1     -34.860  15.200  -7.584  1.00 20.00     0.016 C 
HETATM    3  C3  UNL     1     -33.984  16.583  -5.773  1.00 20.00     0.021 C 
HETATM    4  C4  UNL     1     -34.835  15.466  -5.172  1.00 20.00    -0.006 C 
HETATM    5  C5  UNL     1     -34.410  16.619  -7.236  1.00 20.00     0.058 C 
HETATM    6 BR10 UNL     1     -35.896  17.871  -7.467  1.00 20.00    -0.091 Br
ENDROOT
BRANCH   4   7
HETATM    7  C9  UNL     1     -34.298  14.952  -3.847  1.00 20.00    -0.048 C 
HETATM    8  C6  UNL     1     -32.793  15.260  -3.733  1.00 20.00     0.015 C 
HETATM    9  C7  UNL     1     -34.505  13.430  -3.748  1.00 20.00     0.015 C 
HETATM   10  C8  UNL     1     -35.037  15.634  -2.679  1.00 20.00     0.015 C 
ENDBRANCH   4   7
TORSDOF 1
ENDMDL
MODEL 7
REMARK VINA RESULT:      -3.9      3.699      5.429
REMARK  1 active torsions:
REMARK  status: ('A' for Active; 'I' for Inactive)
REMARK    1  A    between atoms: C4_4  and  C9_9 
ROOT
HETATM    1  C1  UNL     1     -35.034  14.290  -6.253  1.00 20.00     0.006 C 
HETATM    2  C2  UNL     1     -35.058  14.981  -7.619  1.00 20.00     0.016 C 
HETATM    3  C3  UNL     1     -34.014  16.424  -5.949  1.00 20.00     0.021 C 
HETATM    4  C4  UNL     1     -34.924  15.423  -5.237  1.00 20.00    -0.006 C 
HETATM    5  C5  UNL     1     -34.490  16.383  -7.396  1.00 20.00     0.058 C 
HETATM    6 BR10 UNL     1     -35.886  17.726  -7.677  1.00 20.00    -0.091 Br
ENDROOT
BRANCH   4   7
HETATM    7  C9  UNL     1     -34.377  14.970  -3.894  1.00 20.00    -0.048 C 
HETATM    8  C6  UNL     1     -34.485  13.439  -3.769  1.00 20.00     0.015 C 
HETATM    9  C7  UNL     1     -35.179  15.622  -2.751  1.00 20.00     0.015 C 
HETATM   10  C8  UNL     1     -32.897  15.379  -3.762  1.00 20.00     0.015 C 
ENDBRANCH   4   7
TORSDOF 1
ENDMDL
MODEL 8
REMARK VINA RESULT:      -3.9      3.969      5.545
REMARK  1 active torsions:
REMARK  status: ('A' for Active; 'I' for Inactive)
REMARK    1  A    between atoms: C4_4  and  C9_9 
ROOT
HETATM    1  C1  UNL     1     -34.839  14.336  -6.285  1.00 20.00     0.006 C 
HETATM    2  C2  UNL     1     -35.912  14.752  -7.296  1.00 20.00     0.016 C 
HETATM    3  C3  UNL     1     -35.900  16.274  -5.386  1.00 20.00     0.021 C 
HETATM    4  C4  UNL     1     -35.290  14.940  -4.958  1.00 20.00    -0.006 C 
HETATM    5  C5  UNL     1     -36.650  15.935  -6.670  1.00 20.00     0.058 C 
HETATM    6 BR10 UNL     1     -38.494  15.432  -6.251  1.00 20.00    -0.091 Br
ENDROOT
BRANCH   4   7
HETATM    7  C9  UNL     1     -34.158  15.095  -3.957  1.00 20.00    -0.048 C 
HETATM    8  C6  UNL     1     -34.713  15.571  -2.602  1.00 20.00     0.015 C 
HETATM    9  C7  UNL     1     -33.138  16.128  -4.470  1.00 20.00     0.015 C 
HETATM   10  C8  UNL     1     -33.443  13.744  -3.756  1.00 20.00     0.015 C 
ENDBRANCH   4   7
TORSDOF 1
ENDMDL
MODEL 9
REMARK VINA RESULT:      -3.8      2.320      3.047
REMARK  1 active torsions:
REMARK  status: ('A' for Active; 'I' for Inactive)
REMARK    1  A    between atoms: C4_4  and  C9_9 
ROOT
HETATM    1  C1  UNL     1     -34.438  15.114  -2.932  1.00 20.00     0.006 C 
HETATM    2  C2  UNL     1     -34.488  16.248  -1.905  1.00 20.00     0.016 C 
HETATM    3  C3  UNL     1     -35.553  16.936  -3.992  1.00 20.00     0.021 C 
HETATM    4  C4  UNL     1     -34.574  15.800  -4.288  1.00 20.00    -0.006 C 
HETATM    5  C5  UNL     1     -35.118  17.443  -2.622  1.00 20.00     0.058 C 
HETATM    6 BR10 UNL     1     -33.799  18.874  -2.828  1.00 20.00    -0.091 Br
ENDROOT
BRANCH   4   7
HETATM    7  C9  UNL     1     -35.058  14.867  -5.385  1.00 20.00    -0.048 C 
HETATM    8  C6  UNL     1     -34.320  15.172  -6.702  1.00 20.00     0.015 C 
HETATM    9  C7  UNL     1     -36.571  15.050  -5.606  1.00 20.00     0.015 C 
HETATM   10  C8  UNL     1     -34.785  13.403  -4.988  1.00 20.00     0.015 C 
ENDBRANCH   4   7
TORSDOF 1
ENDMDL
