MODEL 1
REMARK VINA RESULT:      -6.0      0.000      0.000
REMARK  2 active torsions:
REMARK  status: ('A' for Active; 'I' for Inactive)
REMARK    1  A    between atoms: C8_8  and  C10_10 
REMARK    2  A    between atoms: C9_9  and  C10_10 
ROOT
HETATM    1  C1  UNL     1     -32.155   8.740   1.259  1.00 20.00     0.012 C 
HETATM    2  C2  UNL     1     -32.060   8.025   2.218  1.00 20.00    -0.117 C 
HETATM    3  C9  UNL     1     -31.938   7.153   3.395  1.00 20.00     0.093 C 
ENDROOT
BRANCH   3   4
HETATM    4  C10 UNL     1     -32.810   5.923   3.226  1.00 20.00     0.017 C 
BRANCH   4   5
HETATM    5  C8  UNL     1     -34.257   6.222   3.628  1.00 20.00    -0.007 C 
HETATM    6  C5  UNL     1     -34.313   7.202   4.804  1.00 20.00     0.082 C 
HETATM    7  C3  UNL     1     -33.949   6.526   6.107  1.00 20.00     0.127 C 
HETATM    8  C4  UNL     1     -34.671   5.237   6.423  1.00 20.00     0.078 C 
HETATM    9  O11 UNL     1     -33.181   7.049   6.913  1.00 20.00    -0.298 OA
HETATM   10  C6  UNL     1     -34.596   4.276   5.245  1.00 20.00     0.008 C 
HETATM   11  C7  UNL     1     -35.042   4.938   3.942  1.00 20.00     0.005 C 
ENDBRANCH   4   5
ENDBRANCH   3   4
TORSDOF 2
ENDMDL
MODEL 2
REMARK VINA RESULT:      -5.3     11.116     12.137
REMARK  2 active torsions:
REMARK  status: ('A' for Active; 'I' for Inactive)
REMARK    1  A    between atoms: C8_8  and  C10_10 
REMARK    2  A    between atoms: C9_9  and  C10_10 
ROOT
HETATM    1  C1  UNL     1     -35.216  17.743   1.136  1.00 20.00     0.012 C 
HETATM    2  C2  UNL     1     -34.643  17.478   0.115  1.00 20.00    -0.117 C 
HETATM    3  C9  UNL     1     -33.939  17.157  -1.134  1.00 20.00     0.093 C 
ENDROOT
BRANCH   3   4
HETATM    4  C10 UNL     1     -34.612  15.988  -1.828  1.00 20.00     0.017 C 
BRANCH   4   5
HETATM    5  C8  UNL     1     -34.405  16.064  -3.344  1.00 20.00    -0.007 C 
HETATM    6  C5  UNL     1     -35.723  15.848  -4.094  1.00 20.00     0.082 C 
HETATM    7  C3  UNL     1     -36.134  14.392  -4.086  1.00 20.00     0.127 C 
HETATM    8  C4  UNL     1     -35.082  13.393  -4.512  1.00 20.00     0.078 C 
HETATM    9  O11 UNL     1     -37.289  14.048  -3.845  1.00 20.00    -0.298 OA
HETATM   10  C6  UNL     1     -33.785  13.621  -3.750  1.00 20.00     0.008 C 
HETATM   11  C7  UNL     1     -33.329  15.077  -3.825  1.00 20.00     0.005 C 
ENDBRANCH   4   5
ENDBRANCH   3   4
TORSDOF 2
ENDMDL
MODEL 3
REMARK VINA RESULT:      -5.2     11.577     12.644
REMARK  2 active torsions:
REMARK  status: ('A' for Active; 'I' for Inactive)
REMARK    1  A    between atoms: C8_8  and  C10_10 
REMARK    2  A    between atoms: C9_9  and  C10_10 
ROOT
HETATM    1  C1  UNL     1     -35.048  17.256   0.364  1.00 20.00     0.012 C 
HETATM    2  C2  UNL     1     -34.456  17.080  -0.665  1.00 20.00    -0.117 C 
HETATM    3  C9  UNL     1     -33.730  16.870  -1.925  1.00 20.00     0.093 C 
ENDROOT
BRANCH   3   4
HETATM    4  C10 UNL     1     -34.138  15.549  -2.549  1.00 20.00     0.017 C 
BRANCH   4   5
HETATM    5  C8  UNL     1     -35.340  15.737  -3.480  1.00 20.00    -0.007 C 
HETATM    6  C5  UNL     1     -35.929  14.388  -3.903  1.00 20.00     0.082 C 
HETATM    7  C3  UNL     1     -35.062  13.704  -4.938  1.00 20.00     0.127 C 
HETATM    8  C4  UNL     1     -34.660  14.535  -6.135  1.00 20.00     0.078 C 
HETATM    9  O11 UNL     1     -34.785  12.509  -4.860  1.00 20.00    -0.298 OA
HETATM   10  C6  UNL     1     -34.072  15.867  -5.692  1.00 20.00     0.008 C 
HETATM   11  C7  UNL     1     -34.986  16.593  -4.707  1.00 20.00     0.005 C 
ENDBRANCH   4   5
ENDBRANCH   3   4
TORSDOF 2
ENDMDL
MODEL 4
REMARK VINA RESULT:      -5.2     11.561     12.755
REMARK  2 active torsions:
REMARK  status: ('A' for Active; 'I' for Inactive)
REMARK    1  A    between atoms: C8_8  and  C10_10 
REMARK    2  A    between atoms: C9_9  and  C10_10 
ROOT
HETATM    1  C1  UNL     1     -35.148  17.374   0.553  1.00 20.00     0.012 C 
HETATM    2  C2  UNL     1     -34.531  17.200  -0.462  1.00 20.00    -0.117 C 
HETATM    3  C9  UNL     1     -33.773  16.993  -1.703  1.00 20.00     0.093 C 
ENDROOT
BRANCH   3   4
HETATM    4  C10 UNL     1     -34.288  15.766  -2.431  1.00 20.00     0.017 C 
BRANCH   4   5
HETATM    5  C8  UNL     1     -33.257  15.262  -3.445  1.00 20.00    -0.007 C 
HETATM    6  C5  UNL     1     -33.267  16.117  -4.716  1.00 20.00     0.082 C 
HETATM    7  C3  UNL     1     -34.469  15.810  -5.582  1.00 20.00     0.127 C 
HETATM    8  C4  UNL     1     -34.722  14.352  -5.891  1.00 20.00     0.078 C 
HETATM    9  O11 UNL     1     -35.143  16.703  -6.090  1.00 20.00    -0.298 OA
HETATM   10  C6  UNL     1     -34.715  13.523  -4.615  1.00 20.00     0.008 C 
HETATM   11  C7  UNL     1     -33.461  13.775  -3.779  1.00 20.00     0.005 C 
ENDBRANCH   4   5
ENDBRANCH   3   4
TORSDOF 2
ENDMDL
MODEL 5
REMARK VINA RESULT:      -4.8     11.605     12.832
REMARK  2 active torsions:
REMARK  status: ('A' for Active; 'I' for Inactive)
REMARK    1  A    between atoms: C8_8  and  C10_10 
REMARK    2  A    between atoms: C9_9  and  C10_10 
ROOT
HETATM    1  C1  UNL     1     -33.176  18.278  -0.420  1.00 20.00     0.012 C 
HETATM    2  C2  UNL     1     -33.815  17.390  -0.912  1.00 20.00    -0.117 C 
HETATM    3  C9  UNL     1     -34.598  16.299  -1.510  1.00 20.00     0.093 C 
ENDROOT
BRANCH   3   4
HETATM    4  C10 UNL     1     -34.697  16.489  -3.012  1.00 20.00     0.017 C 
BRANCH   4   5
HETATM    5  C8  UNL     1     -33.591  15.711  -3.732  1.00 20.00    -0.007 C 
HETATM    6  C5  UNL     1     -33.614  15.983  -5.239  1.00 20.00     0.082 C 
HETATM    7  C3  UNL     1     -34.754  15.257  -5.917  1.00 20.00     0.127 C 
HETATM    8  C4  UNL     1     -34.886  13.781  -5.618  1.00 20.00     0.078 C 
HETATM    9  O11 UNL     1     -35.471  15.813  -6.746  1.00 20.00    -0.298 OA
HETATM   10  C6  UNL     1     -34.869  13.534  -4.116  1.00 20.00     0.008 C 
HETATM   11  C7  UNL     1     -33.671  14.202  -3.443  1.00 20.00     0.005 C 
ENDBRANCH   4   5
ENDBRANCH   3   4
TORSDOF 2
ENDMDL
MODEL 6
REMARK VINA RESULT:      -4.7     11.236     13.034
REMARK  2 active torsions:
REMARK  status: ('A' for Active; 'I' for Inactive)
REMARK    1  A    between atoms: C8_8  and  C10_10 
REMARK    2  A    between atoms: C9_9  and  C10_10 
ROOT
HETATM    1  C1  UNL     1     -38.765  15.046  -3.632  1.00 20.00     0.012 C 
HETATM    2  C2  UNL     1     -37.999  15.292  -4.523  1.00 20.00    -0.117 C 
HETATM    3  C9  UNL     1     -37.064  15.590  -5.617  1.00 20.00     0.093 C 
ENDROOT
BRANCH   3   4
HETATM    4  C10 UNL     1     -35.849  16.323  -5.081  1.00 20.00     0.017 C 
BRANCH   4   5
HETATM    5  C8  UNL     1     -34.565  15.788  -5.722  1.00 20.00    -0.007 C 
HETATM    6  C5  UNL     1     -34.633  14.271  -5.915  1.00 20.00     0.082 C 
HETATM    7  C3  UNL     1     -34.446  13.535  -4.607  1.00 20.00     0.127 C 
HETATM    8  C4  UNL     1     -33.250  13.936  -3.774  1.00 20.00     0.078 C 
HETATM    9  O11 UNL     1     -35.169  12.593  -4.287  1.00 20.00    -0.298 OA
HETATM   10  C6  UNL     1     -33.207  15.446  -3.587  1.00 20.00     0.008 C 
HETATM   11  C7  UNL     1     -33.315  16.187  -4.920  1.00 20.00     0.005 C 
ENDBRANCH   4   5
ENDBRANCH   3   4
TORSDOF 2
ENDMDL
MODEL 7
REMARK VINA RESULT:      -4.6     11.821     12.889
REMARK  2 active torsions:
REMARK  status: ('A' for Active; 'I' for Inactive)
REMARK    1  A    between atoms: C8_8  and  C10_10 
REMARK    2  A    between atoms: C9_9  and  C10_10 
ROOT
HETATM    1  C1  UNL     1     -33.479  17.949  -0.932  1.00 20.00     0.012 C 
HETATM    2  C2  UNL     1     -34.105  17.017  -1.355  1.00 20.00    -0.117 C 
HETATM    3  C9  UNL     1     -34.875  15.875  -1.867  1.00 20.00     0.093 C 
ENDROOT
BRANCH   3   4
HETATM    4  C10 UNL     1     -34.290  15.398  -3.183  1.00 20.00     0.017 C 
BRANCH   4   5
HETATM    5  C8  UNL     1     -35.094  14.220  -3.741  1.00 20.00    -0.007 C 
HETATM    6  C5  UNL     1     -34.519  13.740  -5.076  1.00 20.00     0.082 C 
HETATM    7  C3  UNL     1     -34.867  14.686  -6.204  1.00 20.00     0.127 C 
HETATM    8  C4  UNL     1     -36.322  15.073  -6.333  1.00 20.00     0.078 C 
HETATM    9  O11 UNL     1     -34.029  15.041  -7.031  1.00 20.00    -0.298 OA
HETATM   10  C6  UNL     1     -36.871  15.555  -4.998  1.00 20.00     0.008 C 
HETATM   11  C7  UNL     1     -36.588  14.559  -3.874  1.00 20.00     0.005 C 
ENDBRANCH   4   5
ENDBRANCH   3   4
TORSDOF 2
ENDMDL
MODEL 8
REMARK VINA RESULT:      -4.5     11.675     12.900
REMARK  2 active torsions:
REMARK  status: ('A' for Active; 'I' for Inactive)
REMARK    1  A    between atoms: C8_8  and  C10_10 
REMARK    2  A    between atoms: C9_9  and  C10_10 
ROOT
HETATM    1  C1  UNL     1     -35.399  14.446  -7.336  1.00 20.00     0.012 C 
HETATM    2  C2  UNL     1     -35.157  14.018  -6.241  1.00 20.00    -0.117 C 
HETATM    3  C9  UNL     1     -34.859  13.489  -4.903  1.00 20.00     0.093 C 
ENDROOT
BRANCH   3   4
HETATM    4  C10 UNL     1     -35.363  14.445  -3.838  1.00 20.00     0.017 C 
BRANCH   4   5
HETATM    5  C8  UNL     1     -34.203  14.980  -2.995  1.00 20.00    -0.007 C 
HETATM    6  C5  UNL     1     -34.684  16.040  -2.000  1.00 20.00     0.082 C 
HETATM    7  C3  UNL     1     -34.970  17.357  -2.687  1.00 20.00     0.127 C 
HETATM    8  C4  UNL     1     -33.885  17.896  -3.591  1.00 20.00     0.078 C 
HETATM    9  O11 UNL     1     -35.987  18.004  -2.445  1.00 20.00    -0.298 OA
HETATM   10  C6  UNL     1     -33.427  16.829  -4.576  1.00 20.00     0.008 C 
HETATM   11  C7  UNL     1     -33.061  15.524  -3.871  1.00 20.00     0.005 C 
ENDBRANCH   4   5
ENDBRANCH   3   4
TORSDOF 2
ENDMDL
MODEL 9
REMARK VINA RESULT:      -4.4      9.769     11.207
REMARK  2 active torsions:
REMARK  status: ('A' for Active; 'I' for Inactive)
REMARK    1  A    between atoms: C8_8  and  C10_10 
REMARK    2  A    between atoms: C9_9  and  C10_10 
ROOT
HETATM    1  C1  UNL     1     -41.536   0.961  -4.053  1.00 20.00     0.012 C 
HETATM    2  C2  UNL     1     -41.944   2.019  -3.660  1.00 20.00    -0.117 C 
HETATM    3  C9  UNL     1     -42.447   3.314  -3.183  1.00 20.00     0.093 C 
ENDROOT
BRANCH   3   4
HETATM    4  C10 UNL     1     -41.623   3.793  -2.003  1.00 20.00     0.017 C 
BRANCH   4   5
HETATM    5  C8  UNL     1     -42.471   4.650  -1.059  1.00 20.00    -0.007 C 
HETATM    6  C5  UNL     1     -43.105   5.830  -1.801  1.00 20.00     0.082 C 
HETATM    7  C3  UNL     1     -42.090   6.913  -2.091  1.00 20.00     0.127 C 
HETATM    8  C4  UNL     1     -41.249   7.378  -0.924  1.00 20.00     0.078 C 
HETATM    9  O11 UNL     1     -42.023   7.458  -3.192  1.00 20.00    -0.298 OA
HETATM   10  C6  UNL     1     -40.623   6.191  -0.206  1.00 20.00     0.008 C 
HETATM   11  C7  UNL     1     -41.664   5.133   0.157  1.00 20.00     0.005 C 
ENDBRANCH   4   5
ENDBRANCH   3   4
TORSDOF 2
ENDMDL
