MODEL 1
REMARK VINA RESULT:      -5.8      0.000      0.000
REMARK  1 active torsions:
REMARK  status: ('A' for Active; 'I' for Inactive)
REMARK    1  A    between atoms: C6_6  and  C7_7 
ROOT
HETATM    1  C1  UNL     1     -35.000   4.107   5.167  1.00 20.00     0.002 C 
HETATM    2  C2  UNL     1     -35.157   5.133   4.041  1.00 20.00     0.006 C 
HETATM    3  C5  UNL     1     -34.351   4.843   6.341  1.00 20.00     0.020 C 
HETATM    4  C7  UNL     1     -34.246   6.308   4.421  1.00 20.00     0.008 C 
HETATM    5  C8  UNL     1     -34.393   6.316   5.947  1.00 20.00     0.086 C 
HETATM    6 CL9  UNL     1     -33.194   7.285   6.816  1.00 20.00    -0.125 Cl
ENDROOT
BRANCH   4   7
HETATM    7  C6  UNL     1     -32.843   6.097   3.909  1.00 20.00    -0.009 A 
HETATM    8  C3  UNL     1     -32.479   6.503   2.507  1.00 20.00     0.005 A 
HETATM    9  C4  UNL     1     -31.937   7.274   3.679  1.00 20.00     0.005 A 
ENDBRANCH   4   7
TORSDOF 1
ENDMDL
MODEL 2
REMARK VINA RESULT:      -4.3     11.778     12.647
REMARK  1 active torsions:
REMARK  status: ('A' for Active; 'I' for Inactive)
REMARK    1  A    between atoms: C6_6  and  C7_7 
ROOT
HETATM    1  C1  UNL     1     -33.295  13.799  -3.768  1.00 20.00     0.002 C 
HETATM    2  C2  UNL     1     -33.038  15.309  -3.771  1.00 20.00     0.006 C 
HETATM    3  C5  UNL     1     -34.814  13.615  -3.784  1.00 20.00     0.020 C 
HETATM    4  C7  UNL     1     -34.373  15.957  -3.381  1.00 20.00     0.008 C 
HETATM    5  C8  UNL     1     -35.371  15.009  -4.054  1.00 20.00     0.086 C 
HETATM    6 CL9  UNL     1     -37.051  15.182  -3.525  1.00 20.00    -0.125 Cl
ENDROOT
BRANCH   4   7
HETATM    7  C6  UNL     1     -34.504  16.074  -1.882  1.00 20.00    -0.009 A 
HETATM    8  C3  UNL     1     -33.808  17.186  -1.146  1.00 20.00     0.005 A 
HETATM    9  C4  UNL     1     -35.306  17.193  -1.278  1.00 20.00     0.005 A 
ENDBRANCH   4   7
TORSDOF 1
ENDMDL
MODEL 3
REMARK VINA RESULT:      -4.1     12.110     13.290
REMARK  1 active torsions:
REMARK  status: ('A' for Active; 'I' for Inactive)
REMARK    1  A    between atoms: C6_6  and  C7_7 
ROOT
HETATM    1  C1  UNL     1     -34.677  13.826  -4.705  1.00 20.00     0.002 C 
HETATM    2  C2  UNL     1     -33.847  14.012  -3.431  1.00 20.00     0.006 C 
HETATM    3  C5  UNL     1     -34.491  15.097  -5.536  1.00 20.00     0.020 C 
HETATM    4  C7  UNL     1     -33.535  15.513  -3.356  1.00 20.00     0.008 C 
HETATM    5  C8  UNL     1     -33.366  15.855  -4.840  1.00 20.00     0.086 C 
HETATM    6 CL9  UNL     1     -33.376  17.584  -5.221  1.00 20.00    -0.125 Cl
ENDROOT
BRANCH   4   7
HETATM    7  C6  UNL     1     -34.632  16.261  -2.641  1.00 20.00    -0.009 A 
HETATM    8  C3  UNL     1     -34.608  16.392  -1.143  1.00 20.00     0.005 A 
HETATM    9  C4  UNL     1     -34.349  17.595  -2.007  1.00 20.00     0.005 A 
ENDBRANCH   4   7
TORSDOF 1
ENDMDL
MODEL 4
REMARK VINA RESULT:      -4.0     12.218     13.731
REMARK  1 active torsions:
REMARK  status: ('A' for Active; 'I' for Inactive)
REMARK    1  A    between atoms: C6_6  and  C7_7 
ROOT
HETATM    1  C1  UNL     1     -33.484  13.619  -3.717  1.00 20.00     0.002 C 
HETATM    2  C2  UNL     1     -34.894  13.736  -4.305  1.00 20.00     0.006 C 
HETATM    3  C5  UNL     1     -32.863  15.016  -3.794  1.00 20.00     0.020 C 
HETATM    4  C7  UNL     1     -34.915  15.066  -5.070  1.00 20.00     0.008 C 
HETATM    5  C8  UNL     1     -34.018  15.934  -4.180  1.00 20.00     0.086 C 
HETATM    6 CL9  UNL     1     -33.465  17.447  -4.915  1.00 20.00    -0.125 Cl
ENDROOT
BRANCH   4   7
HETATM    7  C6  UNL     1     -34.437  14.885  -6.489  1.00 20.00    -0.009 A 
HETATM    8  C3  UNL     1     -35.398  14.457  -7.563  1.00 20.00     0.005 A 
HETATM    9  C4  UNL     1     -34.853  15.859  -7.557  1.00 20.00     0.005 A 
ENDBRANCH   4   7
TORSDOF 1
ENDMDL
MODEL 5
REMARK VINA RESULT:      -3.9     12.510     13.967
REMARK  1 active torsions:
REMARK  status: ('A' for Active; 'I' for Inactive)
REMARK    1  A    between atoms: C6_6  and  C7_7 
ROOT
HETATM    1  C1  UNL     1     -34.301  17.425  -2.966  1.00 20.00     0.002 C 
HETATM    2  C2  UNL     1     -33.534  17.632  -4.276  1.00 20.00     0.006 C 
HETATM    3  C5  UNL     1     -34.209  15.932  -2.638  1.00 20.00     0.020 C 
HETATM    4  C7  UNL     1     -33.367  16.233  -4.884  1.00 20.00     0.008 C 
HETATM    5  C8  UNL     1     -33.183  15.381  -3.623  1.00 20.00     0.086 C 
HETATM    6 CL9  UNL     1     -33.344  13.635  -3.862  1.00 20.00    -0.125 Cl
ENDROOT
BRANCH   4   7
HETATM    7  C6  UNL     1     -34.553  15.868  -5.742  1.00 20.00    -0.009 A 
HETATM    8  C3  UNL     1     -34.670  16.407  -7.141  1.00 20.00     0.005 A 
HETATM    9  C4  UNL     1     -34.380  14.948  -6.920  1.00 20.00     0.005 A 
ENDBRANCH   4   7
TORSDOF 1
ENDMDL
MODEL 6
REMARK VINA RESULT:      -3.8     12.060     12.952
REMARK  1 active torsions:
REMARK  status: ('A' for Active; 'I' for Inactive)
REMARK    1  A    between atoms: C6_6  and  C7_7 
ROOT
HETATM    1  C1  UNL     1     -36.079  14.911  -5.969  1.00 20.00     0.002 C 
HETATM    2  C2  UNL     1     -36.753  14.917  -4.593  1.00 20.00     0.006 C 
HETATM    3  C5  UNL     1     -34.692  14.295  -5.772  1.00 20.00     0.020 C 
HETATM    4  C7  UNL     1     -35.624  14.694  -3.578  1.00 20.00     0.008 C 
HETATM    5  C8  UNL     1     -34.713  13.736  -4.353  1.00 20.00     0.086 C 
HETATM    6 CL9  UNL     1     -33.088  13.530  -3.682  1.00 20.00    -0.125 Cl
ENDROOT
BRANCH   4   7
HETATM    7  C6  UNL     1     -34.990  16.002  -3.173  1.00 20.00    -0.009 A 
HETATM    8  C3  UNL     1     -35.736  16.963  -2.288  1.00 20.00     0.005 A 
HETATM    9  C4  UNL     1     -34.543  16.218  -1.753  1.00 20.00     0.005 A 
ENDBRANCH   4   7
TORSDOF 1
ENDMDL
MODEL 7
REMARK VINA RESULT:      -3.8     12.092     13.379
REMARK  1 active torsions:
REMARK  status: ('A' for Active; 'I' for Inactive)
REMARK    1  A    between atoms: C6_6  and  C7_7 
ROOT
HETATM    1  C1  UNL     1     -33.666  17.512  -1.074  1.00 20.00     0.002 C 
HETATM    2  C2  UNL     1     -34.650  16.348  -1.221  1.00 20.00     0.006 C 
HETATM    3  C5  UNL     1     -33.688  18.271  -2.403  1.00 20.00     0.020 C 
HETATM    4  C7  UNL     1     -34.909  16.211  -2.727  1.00 20.00     0.008 C 
HETATM    5  C8  UNL     1     -34.865  17.678  -3.170  1.00 20.00     0.086 C 
HETATM    6 CL9  UNL     1     -34.734  17.934  -4.917  1.00 20.00    -0.125 Cl
ENDROOT
BRANCH   4   7
HETATM    7  C6  UNL     1     -33.888  15.309  -3.375  1.00 20.00    -0.009 A 
HETATM    8  C3  UNL     1     -34.173  13.842  -3.544  1.00 20.00     0.005 A 
HETATM    9  C4  UNL     1     -34.139  14.746  -4.746  1.00 20.00     0.005 A 
ENDBRANCH   4   7
TORSDOF 1
ENDMDL
MODEL 8
REMARK VINA RESULT:      -3.8     11.939     13.600
REMARK  1 active torsions:
REMARK  status: ('A' for Active; 'I' for Inactive)
REMARK    1  A    between atoms: C6_6  and  C7_7 
ROOT
HETATM    1  C1  UNL     1     -34.031  17.966  -4.997  1.00 20.00     0.002 C 
HETATM    2  C2  UNL     1     -33.219  16.684  -5.200  1.00 20.00     0.006 C 
HETATM    3  C5  UNL     1     -34.553  17.929  -3.558  1.00 20.00     0.020 C 
HETATM    4  C7  UNL     1     -33.616  15.754  -4.045  1.00 20.00     0.008 C 
HETATM    5  C8  UNL     1     -33.815  16.763  -2.908  1.00 20.00     0.086 C 
HETATM    6 CL9  UNL     1     -34.659  16.137  -1.484  1.00 20.00    -0.125 Cl
ENDROOT
BRANCH   4   7
HETATM    7  C6  UNL     1     -34.831  14.934  -4.400  1.00 20.00    -0.009 A 
HETATM    8  C3  UNL     1     -34.721  13.811  -5.395  1.00 20.00     0.005 A 
HETATM    9  C4  UNL     1     -34.940  13.506  -3.939  1.00 20.00     0.005 A 
ENDBRANCH   4   7
TORSDOF 1
ENDMDL
MODEL 9
REMARK VINA RESULT:      -3.7     12.286     13.342
REMARK  1 active torsions:
REMARK  status: ('A' for Active; 'I' for Inactive)
REMARK    1  A    between atoms: C6_6  and  C7_7 
ROOT
HETATM    1  C1  UNL     1     -33.674  15.934  -2.892  1.00 20.00     0.002 C 
HETATM    2  C2  UNL     1     -33.285  14.864  -3.916  1.00 20.00     0.006 C 
HETATM    3  C5  UNL     1     -35.193  15.848  -2.726  1.00 20.00     0.020 C 
HETATM    4  C7  UNL     1     -34.592  14.465  -4.615  1.00 20.00     0.008 C 
HETATM    5  C8  UNL     1     -35.592  14.570  -3.458  1.00 20.00     0.086 C 
HETATM    6 CL9  UNL     1     -37.297  14.565  -3.931  1.00 20.00    -0.125 Cl
ENDROOT
BRANCH   4   7
HETATM    7  C6  UNL     1     -34.874  15.361  -5.795  1.00 20.00    -0.009 A 
HETATM    8  C3  UNL     1     -34.276  15.053  -7.140  1.00 20.00     0.005 A 
HETATM    9  C4  UNL     1     -35.753  14.881  -6.916  1.00 20.00     0.005 A 
ENDBRANCH   4   7
TORSDOF 1
ENDMDL
