MODEL 1
REMARK VINA RESULT:      -5.3      0.000      0.000
REMARK  2 active torsions:
REMARK  status: ('A' for Active; 'I' for Inactive)
REMARK    1  A    between atoms: C7_7  and  C9_9 
REMARK    2  A    between atoms: C8_8  and  O10_10 
ROOT
HETATM    1  C1  UNL     1     -32.159   9.116   1.099  1.00 20.00     0.012 C 
HETATM    2  C2  UNL     1     -32.056   8.275   1.950  1.00 20.00    -0.117 C 
HETATM    3  C9  UNL     1     -31.919   7.249   2.988  1.00 20.00     0.097 C 
ENDROOT
BRANCH   3   4
HETATM    4  C7  UNL     1     -33.285   6.816   3.514  1.00 20.00    -0.001 C 
HETATM    5  C4  UNL     1     -33.784   5.570   2.770  1.00 20.00     0.005 C 
HETATM    6  C3  UNL     1     -35.125   5.083   3.313  1.00 20.00     0.003 C 
HETATM    7  C5  UNL     1     -35.068   4.840   4.817  1.00 20.00     0.032 C 
HETATM    8  C8  UNL     1     -34.574   6.076   5.566  1.00 20.00     0.118 C 
HETATM    9  C6  UNL     1     -33.229   6.562   5.025  1.00 20.00     0.037 C 
BRANCH   8  10
HETATM   10  O10 UNL     1     -34.451   5.776   6.953  1.00 20.00    -0.396 OA
HETATM   11  H24 UNL     1     -35.258   5.301   7.206  1.00 20.00     0.210 HD
ENDBRANCH   8  10
ENDBRANCH   3   4
TORSDOF 2
ENDMDL
MODEL 2
REMARK VINA RESULT:      -5.1     10.979     12.065
REMARK  2 active torsions:
REMARK  status: ('A' for Active; 'I' for Inactive)
REMARK    1  A    between atoms: C7_7  and  C9_9 
REMARK    2  A    between atoms: C8_8  and  O10_10 
ROOT
HETATM    1  C1  UNL     1     -34.854  16.969  -0.185  1.00 20.00     0.012 C 
HETATM    2  C2  UNL     1     -34.220  16.864  -1.199  1.00 20.00    -0.117 C 
HETATM    3  C9  UNL     1     -33.438  16.739  -2.432  1.00 20.00     0.097 C 
ENDROOT
BRANCH   3   4
HETATM    4  C7  UNL     1     -34.266  16.099  -3.544  1.00 20.00    -0.001 C 
HETATM    5  C4  UNL     1     -33.595  16.308  -4.909  1.00 20.00     0.005 C 
HETATM    6  C3  UNL     1     -34.376  15.631  -6.034  1.00 20.00     0.003 C 
HETATM    7  C5  UNL     1     -34.599  14.151  -5.752  1.00 20.00     0.032 C 
HETATM    8  C8  UNL     1     -35.267  13.933  -4.395  1.00 20.00     0.118 C 
HETATM    9  C6  UNL     1     -34.485  14.607  -3.268  1.00 20.00     0.037 C 
BRANCH   8  10
HETATM   10  O10 UNL     1     -35.375  12.537  -4.134  1.00 20.00    -0.396 OA
HETATM   11  H24 UNL     1     -35.738  12.449  -3.239  1.00 20.00     0.210 HD
ENDBRANCH   8  10
ENDBRANCH   3   4
TORSDOF 2
ENDMDL
MODEL 3
REMARK VINA RESULT:      -4.9     10.701     11.548
REMARK  2 active torsions:
REMARK  status: ('A' for Active; 'I' for Inactive)
REMARK    1  A    between atoms: C7_7  and  C9_9 
REMARK    2  A    between atoms: C8_8  and  O10_10 
ROOT
HETATM    1  C1  UNL     1     -35.100  17.472   0.771  1.00 20.00     0.012 C 
HETATM    2  C2  UNL     1     -34.654  17.221  -0.315  1.00 20.00    -0.117 C 
HETATM    3  C9  UNL     1     -34.102  16.923  -1.640  1.00 20.00     0.097 C 
ENDROOT
BRANCH   3   4
HETATM    4  C7  UNL     1     -34.739  15.666  -2.229  1.00 20.00    -0.001 C 
HETATM    5  C4  UNL     1     -35.976  16.025  -3.065  1.00 20.00     0.005 C 
HETATM    6  C3  UNL     1     -36.602  14.791  -3.710  1.00 20.00     0.003 C 
HETATM    7  C5  UNL     1     -35.586  14.012  -4.536  1.00 20.00     0.032 C 
HETATM    8  C8  UNL     1     -34.351  13.649  -3.711  1.00 20.00     0.118 C 
HETATM    9  C6  UNL     1     -33.722  14.885  -3.068  1.00 20.00     0.037 C 
BRANCH   8  10
HETATM   10  O10 UNL     1     -33.394  13.003  -4.544  1.00 20.00    -0.396 OA
HETATM   11  H24 UNL     1     -33.884  12.632  -5.294  1.00 20.00     0.210 HD
ENDBRANCH   8  10
ENDBRANCH   3   4
TORSDOF 2
ENDMDL
MODEL 4
REMARK VINA RESULT:      -4.8     10.899     11.725
REMARK  2 active torsions:
REMARK  status: ('A' for Active; 'I' for Inactive)
REMARK    1  A    between atoms: C7_7  and  C9_9 
REMARK    2  A    between atoms: C8_8  and  O10_10 
ROOT
HETATM    1  C1  UNL     1     -34.726  16.899  -0.231  1.00 20.00     0.012 C 
HETATM    2  C2  UNL     1     -34.334  17.047  -1.356  1.00 20.00    -0.117 C 
HETATM    3  C9  UNL     1     -33.850  17.235  -2.727  1.00 20.00     0.097 C 
ENDROOT
BRANCH   3   4
HETATM    4  C7  UNL     1     -34.328  16.106  -3.637  1.00 20.00    -0.001 C 
HETATM    5  C4  UNL     1     -33.397  14.891  -3.529  1.00 20.00     0.005 C 
HETATM    6  C3  UNL     1     -33.882  13.726  -4.390  1.00 20.00     0.003 C 
HETATM    7  C5  UNL     1     -35.322  13.348  -4.065  1.00 20.00     0.032 C 
HETATM    8  C8  UNL     1     -36.256  14.553  -4.171  1.00 20.00     0.118 C 
HETATM    9  C6  UNL     1     -35.773  15.717  -3.307  1.00 20.00     0.037 C 
BRANCH   8  10
HETATM   10  O10 UNL     1     -37.570  14.174  -3.773  1.00 20.00    -0.396 OA
HETATM   11  H24 UNL     1     -37.946  13.665  -4.508  1.00 20.00     0.210 HD
ENDBRANCH   8  10
ENDBRANCH   3   4
TORSDOF 2
ENDMDL
MODEL 5
REMARK VINA RESULT:      -4.7      1.265      2.178
REMARK  2 active torsions:
REMARK  status: ('A' for Active; 'I' for Inactive)
REMARK    1  A    between atoms: C7_7  and  C9_9 
REMARK    2  A    between atoms: C8_8  and  O10_10 
ROOT
HETATM    1  C1  UNL     1     -31.793   8.433   2.203  1.00 20.00     0.012 C 
HETATM    2  C2  UNL     1     -32.419   7.422   2.374  1.00 20.00    -0.117 C 
HETATM    3  C9  UNL     1     -33.183   6.188   2.572  1.00 20.00     0.097 C 
ENDROOT
BRANCH   3   4
HETATM    4  C7  UNL     1     -33.264   5.824   4.053  1.00 20.00    -0.001 C 
HETATM    5  C4  UNL     1     -33.498   7.077   4.908  1.00 20.00     0.005 C 
HETATM    6  C3  UNL     1     -33.636   6.736   6.390  1.00 20.00     0.003 C 
HETATM    7  C5  UNL     1     -34.723   5.695   6.628  1.00 20.00     0.032 C 
HETATM    8  C8  UNL     1     -34.497   4.443   5.782  1.00 20.00     0.118 C 
HETATM    9  C6  UNL     1     -34.363   4.784   4.298  1.00 20.00     0.037 C 
BRANCH   8  10
HETATM   10  O10 UNL     1     -35.581   3.539   5.968  1.00 20.00    -0.396 OA
HETATM   11  H24 UNL     1     -35.400   3.055   6.789  1.00 20.00     0.210 HD
ENDBRANCH   8  10
ENDBRANCH   3   4
TORSDOF 2
ENDMDL
MODEL 6
REMARK VINA RESULT:      -4.5     10.837     12.966
REMARK  2 active torsions:
REMARK  status: ('A' for Active; 'I' for Inactive)
REMARK    1  A    between atoms: C7_7  and  C9_9 
REMARK    2  A    between atoms: C8_8  and  O10_10 
ROOT
HETATM    1  C1  UNL     1     -36.764  17.695  -6.080  1.00 20.00     0.012 C 
HETATM    2  C2  UNL     1     -35.836  17.112  -6.571  1.00 20.00    -0.117 C 
HETATM    3  C9  UNL     1     -34.704  16.407  -7.178  1.00 20.00     0.097 C 
ENDROOT
BRANCH   3   4
HETATM    4  C7  UNL     1     -34.042  15.466  -6.174  1.00 20.00    -0.001 C 
HETATM    5  C4  UNL     1     -33.494  16.250  -4.974  1.00 20.00     0.005 C 
HETATM    6  C3  UNL     1     -32.873  15.327  -3.929  1.00 20.00     0.003 C 
HETATM    7  C5  UNL     1     -33.849  14.247  -3.481  1.00 20.00     0.032 C 
HETATM    8  C8  UNL     1     -34.399  13.460  -4.670  1.00 20.00     0.118 C 
HETATM    9  C6  UNL     1     -35.025  14.382  -5.715  1.00 20.00     0.037 C 
BRANCH   8  10
HETATM   10  O10 UNL     1     -35.371  12.525  -4.214  1.00 20.00    -0.396 OA
HETATM   11  H24 UNL     1     -35.418  11.825  -4.884  1.00 20.00     0.210 HD
ENDBRANCH   8  10
ENDBRANCH   3   4
TORSDOF 2
ENDMDL
MODEL 7
REMARK VINA RESULT:      -4.5      9.581     10.675
REMARK  2 active torsions:
REMARK  status: ('A' for Active; 'I' for Inactive)
REMARK    1  A    between atoms: C7_7  and  C9_9 
REMARK    2  A    between atoms: C8_8  and  O10_10 
ROOT
HETATM    1  C1  UNL     1     -41.895   9.083  -5.303  1.00 20.00     0.012 C 
HETATM    2  C2  UNL     1     -42.388   8.478  -4.390  1.00 20.00    -0.117 C 
HETATM    3  C9  UNL     1     -42.998   7.743  -3.279  1.00 20.00     0.097 C 
ENDROOT
BRANCH   3   4
HETATM    4  C7  UNL     1     -41.972   6.852  -2.581  1.00 20.00    -0.001 C 
HETATM    5  C4  UNL     1     -41.717   7.339  -1.148  1.00 20.00     0.005 C 
HETATM    6  C3  UNL     1     -40.734   6.434  -0.409  1.00 20.00     0.003 C 
HETATM    7  C5  UNL     1     -41.188   4.979  -0.423  1.00 20.00     0.032 C 
HETATM    8  C8  UNL     1     -41.444   4.486  -1.847  1.00 20.00     0.118 C 
HETATM    9  C6  UNL     1     -42.431   5.389  -2.586  1.00 20.00     0.037 C 
BRANCH   8  10
HETATM   10  O10 UNL     1     -41.950   3.156  -1.807  1.00 20.00    -0.396 OA
HETATM   11  H24 UNL     1     -42.860   3.195  -2.143  1.00 20.00     0.210 HD
ENDBRANCH   8  10
ENDBRANCH   3   4
TORSDOF 2
ENDMDL
MODEL 8
REMARK VINA RESULT:      -4.5     11.758     12.322
REMARK  2 active torsions:
REMARK  status: ('A' for Active; 'I' for Inactive)
REMARK    1  A    between atoms: C7_7  and  C9_9 
REMARK    2  A    between atoms: C8_8  and  O10_10 
ROOT
HETATM    1  C1  UNL     1     -34.936  17.089   0.169  1.00 20.00     0.012 C 
HETATM    2  C2  UNL     1     -34.355  16.952  -0.873  1.00 20.00    -0.117 C 
HETATM    3  C9  UNL     1     -33.639  16.791  -2.141  1.00 20.00     0.097 C 
ENDROOT
BRANCH   3   4
HETATM    4  C7  UNL     1     -34.253  15.671  -2.980  1.00 20.00    -0.001 C 
HETATM    5  C4  UNL     1     -35.786  15.736  -2.933  1.00 20.00     0.005 C 
HETATM    6  C3  UNL     1     -36.426  14.660  -3.806  1.00 20.00     0.003 C 
HETATM    7  C5  UNL     1     -35.916  14.723  -5.241  1.00 20.00     0.032 C 
HETATM    8  C8  UNL     1     -34.390  14.658  -5.297  1.00 20.00     0.118 C 
HETATM    9  C6  UNL     1     -33.748  15.737  -4.426  1.00 20.00     0.037 C 
BRANCH   8  10
HETATM   10  O10 UNL     1     -33.955  14.809  -6.644  1.00 20.00    -0.396 OA
HETATM   11  H24 UNL     1     -34.264  14.026  -7.125  1.00 20.00     0.210 HD
ENDBRANCH   8  10
ENDBRANCH   3   4
TORSDOF 2
ENDMDL
MODEL 9
REMARK VINA RESULT:      -4.5     11.653     12.766
REMARK  2 active torsions:
REMARK  status: ('A' for Active; 'I' for Inactive)
REMARK    1  A    between atoms: C7_7  and  C9_9 
REMARK    2  A    between atoms: C8_8  and  O10_10 
ROOT
HETATM    1  C1  UNL     1     -32.933  18.620  -0.266  1.00 20.00     0.012 C 
HETATM    2  C2  UNL     1     -33.736  17.739  -0.416  1.00 20.00    -0.117 C 
HETATM    3  C9  UNL     1     -34.717  16.664  -0.589  1.00 20.00     0.097 C 
ENDROOT
BRANCH   3   4
HETATM    4  C7  UNL     1     -34.895  16.317  -2.065  1.00 20.00    -0.001 C 
HETATM    5  C4  UNL     1     -35.729  17.390  -2.779  1.00 20.00     0.005 C 
HETATM    6  C3  UNL     1     -35.878  17.094  -4.269  1.00 20.00     0.003 C 
HETATM    7  C5  UNL     1     -34.525  16.909  -4.944  1.00 20.00     0.032 C 
HETATM    8  C8  UNL     1     -33.689  15.841  -4.241  1.00 20.00     0.118 C 
HETATM    9  C6  UNL     1     -33.535  16.138  -2.749  1.00 20.00     0.037 C 
BRANCH   8  10
HETATM   10  O10 UNL     1     -32.403  15.765  -4.848  1.00 20.00    -0.396 OA
HETATM   11  H24 UNL     1     -32.446  16.300  -5.656  1.00 20.00     0.210 HD
ENDBRANCH   8  10
ENDBRANCH   3   4
TORSDOF 2
ENDMDL
