MODEL 1
REMARK VINA RESULT:      -6.2      0.000      0.000
REMARK  3 active torsions:
REMARK  status: ('A' for Active; 'I' for Inactive)
REMARK    1  A    between atoms: C2_2  and  C9_9 
REMARK    2  A    between atoms: C6_6  and  C9_9 
REMARK    3  A    between atoms: C7_7  and  O10_10 
ROOT
HETATM    1  C1  UNL     1     -32.255   8.488   1.851  1.00 20.00    -0.111 C 
HETATM    2  C2  UNL     1     -32.312   7.528   2.571  1.00 20.00    -0.107 C 
HETATM    3  C8  UNL     1     -32.184   9.656   0.975  1.00 20.00     0.112 C 
ENDROOT
BRANCH   2   4
HETATM    4  C9  UNL     1     -32.387   6.355   3.450  1.00 20.00     0.098 C 
BRANCH   4   5
HETATM    5  C6  UNL     1     -33.673   6.355   4.259  1.00 20.00    -0.001 C 
HETATM    6  C3  UNL     1     -33.473   5.886   5.698  1.00 20.00     0.008 C 
HETATM    7  C4  UNL     1     -34.883   5.502   6.126  1.00 20.00     0.032 C 
HETATM    8  C7  UNL     1     -35.439   4.783   4.901  1.00 20.00     0.118 C 
HETATM    9  C5  UNL     1     -34.749   5.418   3.690  1.00 20.00     0.037 C 
BRANCH   8  10
HETATM   10  O10 UNL     1     -35.089   3.403   4.955  1.00 20.00    -0.396 OA
HETATM   11  H24 UNL     1     -35.714   2.935   4.380  1.00 20.00     0.210 HD
ENDBRANCH   8  10
ENDBRANCH   4   5
ENDBRANCH   2   4
TORSDOF 3
ENDMDL
MODEL 2
REMARK VINA RESULT:      -4.8     11.351     12.239
REMARK  3 active torsions:
REMARK  status: ('A' for Active; 'I' for Inactive)
REMARK    1  A    between atoms: C2_2  and  C9_9 
REMARK    2  A    between atoms: C6_6  and  C9_9 
REMARK    3  A    between atoms: C7_7  and  O10_10 
ROOT
HETATM    1  C1  UNL     1     -34.686  16.992  -0.383  1.00 20.00    -0.111 C 
HETATM    2  C2  UNL     1     -34.209  16.625  -1.422  1.00 20.00    -0.107 C 
HETATM    3  C8  UNL     1     -35.267  17.437   0.883  1.00 20.00     0.112 C 
ENDROOT
BRANCH   2   4
HETATM    4  C9  UNL     1     -33.621  16.178  -2.691  1.00 20.00     0.098 C 
BRANCH   4   5
HETATM    5  C6  UNL     1     -34.487  15.124  -3.358  1.00 20.00    -0.001 C 
HETATM    6  C3  UNL     1     -33.710  13.866  -3.738  1.00 20.00     0.008 C 
HETATM    7  C4  UNL     1     -34.609  13.218  -4.783  1.00 20.00     0.032 C 
HETATM    8  C7  UNL     1     -35.083  14.400  -5.622  1.00 20.00     0.118 C 
HETATM    9  C5  UNL     1     -35.121  15.602  -4.673  1.00 20.00     0.037 C 
BRANCH   8  10
HETATM   10  O10 UNL     1     -34.138  14.664  -6.655  1.00 20.00    -0.396 OA
HETATM   11  H24 UNL     1     -34.295  15.576  -6.947  1.00 20.00     0.210 HD
ENDBRANCH   8  10
ENDBRANCH   4   5
ENDBRANCH   2   4
TORSDOF 3
ENDMDL
MODEL 3
REMARK VINA RESULT:      -4.8     11.534     11.871
REMARK  3 active torsions:
REMARK  status: ('A' for Active; 'I' for Inactive)
REMARK    1  A    between atoms: C2_2  and  C9_9 
REMARK    2  A    between atoms: C6_6  and  C9_9 
REMARK    3  A    between atoms: C7_7  and  O10_10 
ROOT
HETATM    1  C1  UNL     1     -34.613  17.038  -0.425  1.00 20.00    -0.111 C 
HETATM    2  C2  UNL     1     -34.121  16.679  -1.460  1.00 20.00    -0.107 C 
HETATM    3  C8  UNL     1     -35.210  17.476   0.836  1.00 20.00     0.112 C 
ENDROOT
BRANCH   2   4
HETATM    4  C9  UNL     1     -33.524  16.242  -2.727  1.00 20.00     0.098 C 
BRANCH   4   5
HETATM    5  C6  UNL     1     -34.592  15.827  -3.725  1.00 20.00    -0.001 C 
HETATM    6  C3  UNL     1     -35.865  15.311  -3.058  1.00 20.00     0.008 C 
HETATM    7  C4  UNL     1     -36.537  14.527  -4.177  1.00 20.00     0.032 C 
HETATM    8  C7  UNL     1     -35.376  13.789  -4.837  1.00 20.00     0.118 C 
HETATM    9  C5  UNL     1     -34.148  14.686  -4.652  1.00 20.00     0.037 C 
BRANCH   8  10
HETATM   10  O10 UNL     1     -35.146  12.556  -4.163  1.00 20.00    -0.396 OA
HETATM   11  H24 UNL     1     -36.018  12.187  -3.953  1.00 20.00     0.210 HD
ENDBRANCH   8  10
ENDBRANCH   4   5
ENDBRANCH   2   4
TORSDOF 3
ENDMDL
MODEL 4
REMARK VINA RESULT:      -4.7     10.824     11.988
REMARK  3 active torsions:
REMARK  status: ('A' for Active; 'I' for Inactive)
REMARK    1  A    between atoms: C2_2  and  C9_9 
REMARK    2  A    between atoms: C6_6  and  C9_9 
REMARK    3  A    between atoms: C7_7  and  O10_10 
ROOT
HETATM    1  C1  UNL     1     -33.335  17.846  -0.746  1.00 20.00    -0.111 C 
HETATM    2  C2  UNL     1     -34.051  17.028  -1.256  1.00 20.00    -0.107 C 
HETATM    3  C8  UNL     1     -32.465  18.843  -0.124  1.00 20.00     0.112 C 
ENDROOT
BRANCH   2   4
HETATM    4  C9  UNL     1     -34.924  16.024  -1.876  1.00 20.00     0.098 C 
BRANCH   4   5
HETATM    5  C6  UNL     1     -34.393  15.595  -3.234  1.00 20.00    -0.001 C 
HETATM    6  C3  UNL     1     -35.471  15.568  -4.315  1.00 20.00     0.008 C 
HETATM    7  C4  UNL     1     -34.854  14.674  -5.382  1.00 20.00     0.032 C 
HETATM    8  C7  UNL     1     -34.211  13.552  -4.573  1.00 20.00     0.118 C 
HETATM    9  C5  UNL     1     -33.804  14.177  -3.235  1.00 20.00     0.037 C 
BRANCH   8  10
HETATM   10  O10 UNL     1     -35.171  12.529  -4.326  1.00 20.00    -0.396 OA
HETATM   11  H24 UNL     1     -34.985  11.816  -4.956  1.00 20.00     0.210 HD
ENDBRANCH   8  10
ENDBRANCH   4   5
ENDBRANCH   2   4
TORSDOF 3
ENDMDL
MODEL 5
REMARK VINA RESULT:      -4.5     11.438     12.321
REMARK  3 active torsions:
REMARK  status: ('A' for Active; 'I' for Inactive)
REMARK    1  A    between atoms: C2_2  and  C9_9 
REMARK    2  A    between atoms: C6_6  and  C9_9 
REMARK    3  A    between atoms: C7_7  and  O10_10 
ROOT
HETATM    1  C1  UNL     1     -34.285  16.711  -1.253  1.00 20.00    -0.111 C 
HETATM    2  C2  UNL     1     -33.868  16.307  -2.304  1.00 20.00    -0.107 C 
HETATM    3  C8  UNL     1     -34.792  17.203   0.028  1.00 20.00     0.112 C 
ENDROOT
BRANCH   2   4
HETATM    4  C9  UNL     1     -33.363  15.813  -3.590  1.00 20.00     0.098 C 
BRANCH   4   5
HETATM    5  C6  UNL     1     -34.494  15.302  -4.467  1.00 20.00    -0.001 C 
HETATM    6  C3  UNL     1     -35.512  16.384  -4.818  1.00 20.00     0.008 C 
HETATM    7  C4  UNL     1     -36.732  15.574  -5.235  1.00 20.00     0.032 C 
HETATM    8  C7  UNL     1     -36.775  14.447  -4.208  1.00 20.00     0.118 C 
HETATM    9  C5  UNL     1     -35.320  14.189  -3.805  1.00 20.00     0.037 C 
BRANCH   8  10
HETATM   10  O10 UNL     1     -37.499  14.873  -3.058  1.00 20.00    -0.396 OA
HETATM   11  H24 UNL     1     -36.845  15.028  -2.360  1.00 20.00     0.210 HD
ENDBRANCH   8  10
ENDBRANCH   4   5
ENDBRANCH   2   4
TORSDOF 3
ENDMDL
MODEL 6
REMARK VINA RESULT:      -4.4      9.632     10.469
REMARK  3 active torsions:
REMARK  status: ('A' for Active; 'I' for Inactive)
REMARK    1  A    between atoms: C2_2  and  C9_9 
REMARK    2  A    between atoms: C6_6  and  C9_9 
REMARK    3  A    between atoms: C7_7  and  O10_10 
ROOT
HETATM    1  C1  UNL     1     -42.119   8.833  -4.947  1.00 20.00    -0.111 C 
HETATM    2  C2  UNL     1     -42.429   8.226  -3.959  1.00 20.00    -0.107 C 
HETATM    3  C8  UNL     1     -41.744   9.573  -6.151  1.00 20.00     0.112 C 
ENDROOT
BRANCH   2   4
HETATM    4  C9  UNL     1     -42.802   7.484  -2.749  1.00 20.00     0.098 C 
BRANCH   4   5
HETATM    5  C6  UNL     1     -41.643   6.646  -2.236  1.00 20.00    -0.001 C 
HETATM    6  C3  UNL     1     -41.977   5.159  -2.142  1.00 20.00     0.008 C 
HETATM    7  C4  UNL     1     -40.915   4.637  -1.184  1.00 20.00     0.032 C 
HETATM    8  C7  UNL     1     -40.842   5.721  -0.113  1.00 20.00     0.118 C 
HETATM    9  C5  UNL     1     -41.192   7.035  -0.821  1.00 20.00     0.037 C 
BRANCH   8  10
HETATM   10  O10 UNL     1     -41.819   5.470   0.892  1.00 20.00    -0.396 OA
HETATM   11  H24 UNL     1     -42.026   6.326   1.298  1.00 20.00     0.210 HD
ENDBRANCH   8  10
ENDBRANCH   4   5
ENDBRANCH   2   4
TORSDOF 3
ENDMDL
MODEL 7
REMARK VINA RESULT:      -4.3      1.092      1.474
REMARK  3 active torsions:
REMARK  status: ('A' for Active; 'I' for Inactive)
REMARK    1  A    between atoms: C2_2  and  C9_9 
REMARK    2  A    between atoms: C6_6  and  C9_9 
REMARK    3  A    between atoms: C7_7  and  O10_10 
ROOT
HETATM    1  C1  UNL     1     -32.183   8.509   1.738  1.00 20.00    -0.111 C 
HETATM    2  C2  UNL     1     -32.173   7.686   2.612  1.00 20.00    -0.107 C 
HETATM    3  C8  UNL     1     -32.197   9.511   0.673  1.00 20.00     0.112 C 
ENDROOT
BRANCH   2   4
HETATM    4  C9  UNL     1     -32.158   6.683   3.684  1.00 20.00     0.098 C 
BRANCH   4   5
HETATM    5  C6  UNL     1     -33.356   5.753   3.585  1.00 20.00    -0.001 C 
HETATM    6  C3  UNL     1     -34.690   6.495   3.594  1.00 20.00     0.008 C 
HETATM    7  C4  UNL     1     -35.679   5.405   3.984  1.00 20.00     0.032 C 
HETATM    8  C7  UNL     1     -34.946   4.641   5.082  1.00 20.00     0.118 C 
HETATM    9  C5  UNL     1     -33.454   4.763   4.755  1.00 20.00     0.037 C 
BRANCH   8  10
HETATM   10  O10 UNL     1     -35.189   5.259   6.342  1.00 20.00    -0.396 OA
HETATM   11  H24 UNL     1     -36.072   5.656   6.290  1.00 20.00     0.210 HD
ENDBRANCH   8  10
ENDBRANCH   4   5
ENDBRANCH   2   4
TORSDOF 3
ENDMDL
MODEL 8
REMARK VINA RESULT:      -4.3     11.378     12.532
REMARK  3 active torsions:
REMARK  status: ('A' for Active; 'I' for Inactive)
REMARK    1  A    between atoms: C2_2  and  C9_9 
REMARK    2  A    between atoms: C6_6  and  C9_9 
REMARK    3  A    between atoms: C7_7  and  O10_10 
ROOT
HETATM    1  C1  UNL     1     -35.310  14.747  -6.805  1.00 20.00    -0.111 C 
HETATM    2  C2  UNL     1     -34.969  14.047  -5.891  1.00 20.00    -0.107 C 
HETATM    3  C8  UNL     1     -35.724  15.600  -7.918  1.00 20.00     0.112 C 
ENDROOT
BRANCH   2   4
HETATM    4  C9  UNL     1     -34.552  13.187  -4.776  1.00 20.00     0.098 C 
BRANCH   4   5
HETATM    5  C6  UNL     1     -34.250  14.005  -3.532  1.00 20.00    -0.001 C 
HETATM    6  C3  UNL     1     -35.402  14.921  -3.126  1.00 20.00     0.008 C 
HETATM    7  C4  UNL     1     -34.717  15.943  -2.229  1.00 20.00     0.032 C 
HETATM    8  C7  UNL     1     -33.409  16.234  -2.958  1.00 20.00     0.118 C 
HETATM    9  C5  UNL     1     -33.046  14.943  -3.699  1.00 20.00     0.037 C 
BRANCH   8  10
HETATM   10  O10 UNL     1     -33.613  17.268  -3.916  1.00 20.00    -0.396 OA
HETATM   11  H24 UNL     1     -32.740  17.493  -4.271  1.00 20.00     0.210 HD
ENDBRANCH   8  10
ENDBRANCH   4   5
ENDBRANCH   2   4
TORSDOF 3
ENDMDL
MODEL 9
REMARK VINA RESULT:      -4.1     11.711     12.821
REMARK  3 active torsions:
REMARK  status: ('A' for Active; 'I' for Inactive)
REMARK    1  A    between atoms: C2_2  and  C9_9 
REMARK    2  A    between atoms: C6_6  and  C9_9 
REMARK    3  A    between atoms: C7_7  and  O10_10 
ROOT
HETATM    1  C1  UNL     1     -35.106  17.707   1.009  1.00 20.00    -0.111 C 
HETATM    2  C2  UNL     1     -34.389  17.608   0.052  1.00 20.00    -0.107 C 
HETATM    3  C8  UNL     1     -35.982  17.828   2.174  1.00 20.00     0.112 C 
ENDROOT
BRANCH   2   4
HETATM    4  C9  UNL     1     -33.507  17.483  -1.116  1.00 20.00     0.098 C 
BRANCH   4   5
HETATM    5  C6  UNL     1     -34.280  17.031  -2.344  1.00 20.00    -0.001 C 
HETATM    6  C3  UNL     1     -34.316  15.514  -2.501  1.00 20.00     0.008 C 
HETATM    7  C4  UNL     1     -34.671  15.337  -3.972  1.00 20.00     0.032 C 
HETATM    8  C7  UNL     1     -33.829  16.401  -4.668  1.00 20.00     0.118 C 
HETATM    9  C5  UNL     1     -33.681  17.546  -3.661  1.00 20.00     0.037 C 
BRANCH   8  10
HETATM   10  O10 UNL     1     -32.537  15.878  -4.957  1.00 20.00    -0.396 OA
HETATM   11  H24 UNL     1     -32.307  15.286  -4.225  1.00 20.00     0.210 HD
ENDBRANCH   8  10
ENDBRANCH   4   5
ENDBRANCH   2   4
TORSDOF 3
ENDMDL
