MODEL 1
REMARK VINA RESULT:      -5.5      0.000      0.000
REMARK  2 active torsions:
REMARK  status: ('A' for Active; 'I' for Inactive)
REMARK    1  A    between atoms: C8_8  and  C10_10 
REMARK    2  A    between atoms: C9_9  and  O11_11 
ROOT
HETATM    1  C1  UNL     1     -32.588   9.108   1.911  1.00 20.00     0.012 C 
HETATM    2  C2  UNL     1     -32.228   8.023   2.280  1.00 20.00    -0.117 C 
HETATM    3  C10 UNL     1     -31.775   6.703   2.718  1.00 20.00     0.097 C 
ENDROOT
BRANCH   3   4
HETATM    4  C8  UNL     1     -32.766   6.092   3.718  1.00 20.00    -0.001 C 
HETATM    5  C5  UNL     1     -33.992   5.575   2.952  1.00 20.00     0.005 C 
HETATM    6  C3  UNL     1     -35.247   5.261   3.763  1.00 20.00     0.000 C 
HETATM    7  C4  UNL     1     -35.002   4.660   5.142  1.00 20.00     0.002 C 
HETATM    8  C6  UNL     1     -34.785   5.726   6.212  1.00 20.00     0.032 C 
HETATM    9  C9  UNL     1     -33.440   6.448   6.158  1.00 20.00     0.118 C 
HETATM   10  C7  UNL     1     -33.100   7.107   4.819  1.00 20.00     0.037 C 
BRANCH   9  11
HETATM   11  O11 UNL     1     -33.455   7.480   7.150  1.00 20.00    -0.396 OA
HETATM   12  H27 UNL     1     -32.614   7.951   7.060  1.00 20.00     0.210 HD
ENDBRANCH   9  11
ENDBRANCH   3   4
TORSDOF 2
ENDMDL
MODEL 2
REMARK VINA RESULT:      -5.2     11.334     12.643
REMARK  2 active torsions:
REMARK  status: ('A' for Active; 'I' for Inactive)
REMARK    1  A    between atoms: C8_8  and  C10_10 
REMARK    2  A    between atoms: C9_9  and  O11_11 
ROOT
HETATM    1  C1  UNL     1     -33.023  18.371  -0.433  1.00 20.00     0.012 C 
HETATM    2  C2  UNL     1     -33.753  17.495  -0.809  1.00 20.00    -0.117 C 
HETATM    3  C10 UNL     1     -34.651  16.427  -1.249  1.00 20.00     0.097 C 
ENDROOT
BRANCH   3   4
HETATM    4  C8  UNL     1     -34.360  16.038  -2.704  1.00 20.00    -0.001 C 
HETATM    5  C5  UNL     1     -34.643  17.247  -3.609  1.00 20.00     0.005 C 
HETATM    6  C3  UNL     1     -34.771  16.988  -5.108  1.00 20.00     0.000 C 
HETATM    7  C4  UNL     1     -33.841  15.920  -5.670  1.00 20.00     0.002 C 
HETATM    8  C6  UNL     1     -34.428  14.516  -5.552  1.00 20.00     0.032 C 
HETATM    9  C9  UNL     1     -34.446  13.927  -4.143  1.00 20.00     0.118 C 
HETATM   10  C7  UNL     1     -35.150  14.778  -3.083  1.00 20.00     0.037 C 
BRANCH   9  11
HETATM   11  O11 UNL     1     -35.127  12.669  -4.201  1.00 20.00    -0.396 OA
HETATM   12  H27 UNL     1     -36.047  12.872  -4.423  1.00 20.00     0.210 HD
ENDBRANCH   9  11
ENDBRANCH   3   4
TORSDOF 2
ENDMDL
MODEL 3
REMARK VINA RESULT:      -4.8     11.352     12.090
REMARK  2 active torsions:
REMARK  status: ('A' for Active; 'I' for Inactive)
REMARK    1  A    between atoms: C8_8  and  C10_10 
REMARK    2  A    between atoms: C9_9  and  O11_11 
ROOT
HETATM    1  C1  UNL     1     -35.151  17.415   0.715  1.00 20.00     0.012 C 
HETATM    2  C2  UNL     1     -34.547  17.223  -0.305  1.00 20.00    -0.117 C 
HETATM    3  C10 UNL     1     -33.801  17.003  -1.544  1.00 20.00     0.097 C 
ENDROOT
BRANCH   3   4
HETATM    4  C8  UNL     1     -34.415  15.852  -2.352  1.00 20.00    -0.001 C 
HETATM    5  C5  UNL     1     -33.345  15.273  -3.289  1.00 20.00     0.005 C 
HETATM    6  C3  UNL     1     -33.819  14.376  -4.429  1.00 20.00     0.000 C 
HETATM    7  C4  UNL     1     -34.999  13.469  -4.100  1.00 20.00     0.002 C 
HETATM    8  C6  UNL     1     -36.342  14.159  -4.315  1.00 20.00     0.032 C 
HETATM    9  C9  UNL     1     -36.713  15.215  -3.276  1.00 20.00     0.118 C 
HETATM   10  C7  UNL     1     -35.683  16.329  -3.073  1.00 20.00     0.037 C 
BRANCH   9  11
HETATM   11  O11 UNL     1     -37.934  15.834  -3.692  1.00 20.00    -0.396 OA
HETATM   12  H27 UNL     1     -38.630  15.455  -3.137  1.00 20.00     0.210 HD
ENDBRANCH   9  11
ENDBRANCH   3   4
TORSDOF 2
ENDMDL
MODEL 4
REMARK VINA RESULT:      -4.7     11.271     12.098
REMARK  2 active torsions:
REMARK  status: ('A' for Active; 'I' for Inactive)
REMARK    1  A    between atoms: C8_8  and  C10_10 
REMARK    2  A    between atoms: C9_9  and  O11_11 
ROOT
HETATM    1  C1  UNL     1     -34.793  17.029  -0.014  1.00 20.00     0.012 C 
HETATM    2  C2  UNL     1     -34.467  17.196  -1.157  1.00 20.00    -0.117 C 
HETATM    3  C10 UNL     1     -34.062  17.417  -2.545  1.00 20.00     0.097 C 
ENDROOT
BRANCH   3   4
HETATM    4  C8  UNL     1     -34.560  16.278  -3.445  1.00 20.00    -0.001 C 
HETATM    5  C5  UNL     1     -36.093  16.219  -3.371  1.00 20.00     0.005 C 
HETATM    6  C3  UNL     1     -36.774  14.955  -3.889  1.00 20.00     0.000 C 
HETATM    7  C4  UNL     1     -36.126  14.317  -5.112  1.00 20.00     0.002 C 
HETATM    8  C6  UNL     1     -35.004  13.353  -4.740  1.00 20.00     0.032 C 
HETATM    9  C9  UNL     1     -33.712  14.004  -4.250  1.00 20.00     0.118 C 
HETATM   10  C7  UNL     1     -33.867  14.962  -3.066  1.00 20.00     0.037 C 
BRANCH   9  11
HETATM   11  O11 UNL     1     -32.821  12.961  -3.841  1.00 20.00    -0.396 OA
HETATM   12  H27 UNL     1     -31.999  13.103  -4.332  1.00 20.00     0.210 HD
ENDBRANCH   9  11
ENDBRANCH   3   4
TORSDOF 2
ENDMDL
MODEL 5
REMARK VINA RESULT:      -4.6      9.531     11.230
REMARK  2 active torsions:
REMARK  status: ('A' for Active; 'I' for Inactive)
REMARK    1  A    between atoms: C8_8  and  C10_10 
REMARK    2  A    between atoms: C9_9  and  O11_11 
ROOT
HETATM    1  C1  UNL     1     -41.201   1.520  -3.897  1.00 20.00     0.012 C 
HETATM    2  C2  UNL     1     -41.964   2.349  -3.483  1.00 20.00    -0.117 C 
HETATM    3  C10 UNL     1     -42.908   3.351  -2.987  1.00 20.00     0.097 C 
ENDROOT
BRANCH   3   4
HETATM    4  C8  UNL     1     -42.181   4.421  -2.162  1.00 20.00    -0.001 C 
HETATM    5  C5  UNL     1     -42.355   4.103  -0.669  1.00 20.00     0.005 C 
HETATM    6  C3  UNL     1     -42.032   5.212   0.328  1.00 20.00     0.000 C 
HETATM    7  C4  UNL     1     -40.855   6.106  -0.045  1.00 20.00     0.002 C 
HETATM    8  C6  UNL     1     -41.269   7.269  -0.942  1.00 20.00     0.032 C 
HETATM    9  C9  UNL     1     -41.599   6.900  -2.387  1.00 20.00     0.118 C 
HETATM   10  C7  UNL     1     -42.669   5.820  -2.562  1.00 20.00     0.037 C 
BRANCH   9  11
HETATM   11  O11 UNL     1     -42.072   8.080  -3.045  1.00 20.00    -0.396 OA
HETATM   12  H27 UNL     1     -42.936   8.277  -2.655  1.00 20.00     0.210 HD
ENDBRANCH   9  11
ENDBRANCH   3   4
TORSDOF 2
ENDMDL
MODEL 6
REMARK VINA RESULT:      -4.6     11.502     13.437
REMARK  2 active torsions:
REMARK  status: ('A' for Active; 'I' for Inactive)
REMARK    1  A    between atoms: C8_8  and  C10_10 
REMARK    2  A    between atoms: C9_9  and  O11_11 
ROOT
HETATM    1  C1  UNL     1     -37.757  15.118  -7.555  1.00 20.00     0.012 C 
HETATM    2  C2  UNL     1     -36.575  14.946  -7.675  1.00 20.00    -0.117 C 
HETATM    3  C10 UNL     1     -35.137  14.735  -7.840  1.00 20.00     0.097 C 
ENDROOT
BRANCH   3   4
HETATM    4  C8  UNL     1     -34.430  14.714  -6.478  1.00 20.00    -0.001 C 
HETATM    5  C5  UNL     1     -35.024  13.583  -5.625  1.00 20.00     0.005 C 
HETATM    6  C3  UNL     1     -34.735  13.607  -4.127  1.00 20.00     0.000 C 
HETATM    7  C4  UNL     1     -33.345  14.096  -3.736  1.00 20.00     0.002 C 
HETATM    8  C6  UNL     1     -33.280  15.614  -3.597  1.00 20.00     0.032 C 
HETATM    9  C9  UNL     1     -33.316  16.397  -4.908  1.00 20.00     0.118 C 
HETATM   10  C7  UNL     1     -34.509  16.099  -5.820  1.00 20.00     0.037 C 
BRANCH   9  11
HETATM   11  O11 UNL     1     -33.363  17.791  -4.587  1.00 20.00    -0.396 OA
HETATM   12  H27 UNL     1     -32.914  17.886  -3.735  1.00 20.00     0.210 HD
ENDBRANCH   9  11
ENDBRANCH   3   4
TORSDOF 2
ENDMDL
MODEL 7
REMARK VINA RESULT:      -4.6     11.772     13.117
REMARK  2 active torsions:
REMARK  status: ('A' for Active; 'I' for Inactive)
REMARK    1  A    between atoms: C8_8  and  C10_10 
REMARK    2  A    between atoms: C9_9  and  O11_11 
ROOT
HETATM    1  C1  UNL     1     -34.790  16.937  -0.280  1.00 20.00     0.012 C 
HETATM    2  C2  UNL     1     -34.299  17.081  -1.367  1.00 20.00    -0.117 C 
HETATM    3  C10 UNL     1     -33.692  17.271  -2.684  1.00 20.00     0.097 C 
ENDROOT
BRANCH   3   4
HETATM    4  C8  UNL     1     -34.212  16.225  -3.679  1.00 20.00    -0.001 C 
HETATM    5  C5  UNL     1     -33.804  14.827  -3.191  1.00 20.00     0.005 C 
HETATM    6  C3  UNL     1     -33.895  13.679  -4.193  1.00 20.00     0.000 C 
HETATM    7  C4  UNL     1     -35.071  13.746  -5.160  1.00 20.00     0.002 C 
HETATM    8  C6  UNL     1     -34.758  14.576  -6.401  1.00 20.00     0.032 C 
HETATM    9  C9  UNL     1     -34.698  16.086  -6.185  1.00 20.00     0.118 C 
HETATM   10  C7  UNL     1     -33.730  16.557  -5.097  1.00 20.00     0.037 C 
BRANCH   9  11
HETATM   11  O11 UNL     1     -34.284  16.691  -7.415  1.00 20.00    -0.396 OA
HETATM   12  H27 UNL     1     -34.500  16.056  -8.112  1.00 20.00     0.210 HD
ENDBRANCH   9  11
ENDBRANCH   3   4
TORSDOF 2
ENDMDL
MODEL 8
REMARK VINA RESULT:      -4.6     12.023     14.047
REMARK  2 active torsions:
REMARK  status: ('A' for Active; 'I' for Inactive)
REMARK    1  A    between atoms: C8_8  and  C10_10 
REMARK    2  A    between atoms: C9_9  and  O11_11 
ROOT
HETATM    1  C1  UNL     1     -34.605  16.662  -1.188  1.00 20.00     0.012 C 
HETATM    2  C2  UNL     1     -34.397  15.918  -2.107  1.00 20.00    -0.117 C 
HETATM    3  C10 UNL     1     -34.137  14.999  -3.215  1.00 20.00     0.097 C 
ENDROOT
BRANCH   3   4
HETATM    4  C8  UNL     1     -34.453  15.667  -4.561  1.00 20.00    -0.001 C 
HETATM    5  C5  UNL     1     -34.486  14.590  -5.655  1.00 20.00     0.005 C 
HETATM    6  C3  UNL     1     -34.422  15.060  -7.106  1.00 20.00     0.000 C 
HETATM    7  C4  UNL     1     -35.161  16.359  -7.406  1.00 20.00     0.002 C 
HETATM    8  C6  UNL     1     -34.300  17.592  -7.149  1.00 20.00     0.032 C 
HETATM    9  C9  UNL     1     -34.058  17.931  -5.680  1.00 20.00     0.118 C 
HETATM   10  C7  UNL     1     -33.460  16.804  -4.834  1.00 20.00     0.037 C 
BRANCH   9  11
HETATM   11  O11 UNL     1     -33.147  19.034  -5.627  1.00 20.00    -0.396 OA
HETATM   12  H27 UNL     1     -32.663  18.943  -4.793  1.00 20.00     0.210 HD
ENDBRANCH   9  11
ENDBRANCH   3   4
TORSDOF 2
ENDMDL
MODEL 9
REMARK VINA RESULT:      -4.5     11.270     13.504
REMARK  2 active torsions:
REMARK  status: ('A' for Active; 'I' for Inactive)
REMARK    1  A    between atoms: C8_8  and  C10_10 
REMARK    2  A    between atoms: C9_9  and  O11_11 
ROOT
HETATM    1  C1  UNL     1     -38.575  15.168  -7.632  1.00 20.00     0.012 C 
HETATM    2  C2  UNL     1     -37.389  15.356  -7.630  1.00 20.00    -0.117 C 
HETATM    3  C10 UNL     1     -35.944  15.586  -7.648  1.00 20.00     0.097 C 
ENDROOT
BRANCH   3   4
HETATM    4  C8  UNL     1     -35.370  15.542  -6.225  1.00 20.00    -0.001 C 
HETATM    5  C5  UNL     1     -34.113  16.423  -6.168  1.00 20.00     0.005 C 
HETATM    6  C3  UNL     1     -33.184  16.244  -4.970  1.00 20.00     0.000 C 
HETATM    7  C4  UNL     1     -33.875  15.957  -3.643  1.00 20.00     0.002 C 
HETATM    8  C6  UNL     1     -34.145  14.470  -3.436  1.00 20.00     0.032 C 
HETATM    9  C9  UNL     1     -35.270  13.881  -4.284  1.00 20.00     0.118 C 
HETATM   10  C7  UNL     1     -35.133  14.089  -5.794  1.00 20.00     0.037 C 
BRANCH   9  11
HETATM   11  O11 UNL     1     -35.307  12.470  -4.049  1.00 20.00    -0.396 OA
HETATM   12  H27 UNL     1     -35.857  12.095  -4.752  1.00 20.00     0.210 HD
ENDBRANCH   9  11
ENDBRANCH   3   4
TORSDOF 2
ENDMDL
