MODEL 1
REMARK VINA RESULT:      -5.5      0.000      0.000
REMARK  1 active torsions:
REMARK  status: ('A' for Active; 'I' for Inactive)
REMARK    1  A    between atoms: C4_4  and  C9_9 
ROOT
HETATM    1  C1  UNL     1     -34.113  15.524  -5.110  1.00 20.00     0.052 A 
HETATM    2  C2  UNL     1     -34.479  13.863  -3.448  1.00 20.00     0.123 A 
HETATM    3  C3  UNL     1     -34.816  13.318  -5.655  1.00 20.00     0.158 A 
HETATM    4  C4  UNL     1     -34.116  15.161  -3.768  1.00 20.00    -0.034 A 
HETATM    5  C5  UNL     1     -34.469  14.591  -6.078  1.00 20.00     0.134 A 
HETATM    6  N11 UNL     1     -34.830  12.929  -4.359  1.00 20.00    -0.269 NA
HETATM    7  F12 UNL     1     -34.474  14.912  -7.376  1.00 20.00    -0.205 F 
ENDROOT
BRANCH   4   8
HETATM    8  C9  UNL     1     -33.734  16.153  -2.691  1.00 20.00     0.021 C 
HETATM    9  C6  UNL     1     -33.753  17.628  -3.152  1.00 20.00     0.011 C 
HETATM   10  C7  UNL     1     -34.160  18.465  -1.935  1.00 20.00     0.021 C 
HETATM   11  C10 UNL     1     -34.179  17.487  -0.768  1.00 20.00     0.083 C 
HETATM   12  C8  UNL     1     -34.592  16.174  -1.417  1.00 20.00     0.029 C 
HETATM   13 CL13 UNL     1     -35.292  17.984   0.514  1.00 20.00    -0.125 Cl
ENDBRANCH   4   8
TORSDOF 1
ENDMDL
MODEL 2
REMARK VINA RESULT:      -5.4      2.088      2.573
REMARK  1 active torsions:
REMARK  status: ('A' for Active; 'I' for Inactive)
REMARK    1  A    between atoms: C4_4  and  C9_9 
ROOT
HETATM    1  C1  UNL     1     -33.819  15.148  -2.861  1.00 20.00     0.052 A 
HETATM    2  C2  UNL     1     -36.142  15.617  -3.056  1.00 20.00     0.123 A 
HETATM    3  C3  UNL     1     -35.295  13.754  -4.099  1.00 20.00     0.158 A 
HETATM    4  C4  UNL     1     -34.899  15.968  -2.556  1.00 20.00    -0.034 A 
HETATM    5  C5  UNL     1     -34.013  14.017  -3.648  1.00 20.00     0.134 A 
HETATM    6  N11 UNL     1     -36.369  14.528  -3.823  1.00 20.00    -0.269 NA
HETATM    7  F12 UNL     1     -32.992  13.210  -3.957  1.00 20.00    -0.205 F 
ENDROOT
BRANCH   4   8
HETATM    8  C9  UNL     1     -34.721  17.206  -1.703  1.00 20.00     0.021 C 
HETATM    9  C6  UNL     1     -35.131  17.021  -0.225  1.00 20.00     0.011 C 
HETATM   10  C7  UNL     1     -34.210  17.922   0.604  1.00 20.00     0.021 C 
HETATM   11  C10 UNL     1     -33.430  18.740  -0.416  1.00 20.00     0.083 C 
HETATM   12  C8  UNL     1     -33.306  17.794  -1.602  1.00 20.00     0.029 C 
HETATM   13 CL13 UNL     1     -31.855  19.263   0.196  1.00 20.00    -0.125 Cl
ENDBRANCH   4   8
TORSDOF 1
ENDMDL
MODEL 3
REMARK VINA RESULT:      -5.3      3.805      5.576
REMARK  1 active torsions:
REMARK  status: ('A' for Active; 'I' for Inactive)
REMARK    1  A    between atoms: C4_4  and  C9_9 
ROOT
HETATM    1  C1  UNL     1     -34.513  16.188  -1.511  1.00 20.00     0.052 A 
HETATM    2  C2  UNL     1     -33.753  17.865  -3.015  1.00 20.00     0.123 A 
HETATM    3  C3  UNL     1     -34.341  18.475  -0.880  1.00 20.00     0.158 A 
HETATM    4  C4  UNL     1     -34.049  16.533  -2.775  1.00 20.00    -0.034 A 
HETATM    5  C5  UNL     1     -34.665  17.171  -0.539  1.00 20.00     0.134 A 
HETATM    6  N11 UNL     1     -33.888  18.848  -2.098  1.00 20.00    -0.269 NA
HETATM    7  F12 UNL     1     -35.109  16.868   0.685  1.00 20.00    -0.205 F 
ENDROOT
BRANCH   4   8
HETATM    8  C9  UNL     1     -33.873  15.487  -3.854  1.00 20.00     0.021 C 
HETATM    9  C6  UNL     1     -34.406  14.088  -3.473  1.00 20.00     0.011 C 
HETATM   10  C7  UNL     1     -34.909  13.440  -4.767  1.00 20.00     0.021 C 
HETATM   11  C10 UNL     1     -34.485  14.390  -5.878  1.00 20.00     0.083 C 
HETATM   12  C8  UNL     1     -34.540  15.757  -5.212  1.00 20.00     0.029 C 
HETATM   13 CL13 UNL     1     -35.538  14.289  -7.295  1.00 20.00    -0.125 Cl
ENDBRANCH   4   8
TORSDOF 1
ENDMDL
MODEL 4
REMARK VINA RESULT:      -5.3      1.677      1.767
REMARK  1 active torsions:
REMARK  status: ('A' for Active; 'I' for Inactive)
REMARK    1  A    between atoms: C4_4  and  C9_9 
ROOT
HETATM    1  C1  UNL     1     -35.771  15.349  -3.259  1.00 20.00     0.052 A 
HETATM    2  C2  UNL     1     -33.638  14.309  -3.399  1.00 20.00     0.123 A 
HETATM    3  C3  UNL     1     -35.421  13.330  -4.466  1.00 20.00     0.158 A 
HETATM    4  C4  UNL     1     -34.422  15.348  -2.926  1.00 20.00    -0.034 A 
HETATM    5  C5  UNL     1     -36.289  14.323  -4.043  1.00 20.00     0.134 A 
HETATM    6  N11 UNL     1     -34.104  13.296  -4.163  1.00 20.00    -0.269 NA
HETATM    7  F12 UNL     1     -37.584  14.299  -4.379  1.00 20.00    -0.205 F 
ENDROOT
BRANCH   4   8
HETATM    8  C9  UNL     1     -33.828  16.449  -2.074  1.00 20.00     0.021 C 
HETATM    9  C6  UNL     1     -33.814  17.837  -2.752  1.00 20.00     0.011 C 
HETATM   10  C7  UNL     1     -33.990  18.873  -1.637  1.00 20.00     0.021 C 
HETATM   11  C10 UNL     1     -33.911  18.081  -0.340  1.00 20.00     0.083 C 
HETATM   12  C8  UNL     1     -34.497  16.729  -0.719  1.00 20.00     0.029 C 
HETATM   13 CL13 UNL     1     -34.797  18.853   0.981  1.00 20.00    -0.125 Cl
ENDBRANCH   4   8
TORSDOF 1
ENDMDL
MODEL 5
REMARK VINA RESULT:      -5.2      1.665      2.043
REMARK  1 active torsions:
REMARK  status: ('A' for Active; 'I' for Inactive)
REMARK    1  A    between atoms: C4_4  and  C9_9 
ROOT
HETATM    1  C1  UNL     1     -34.510  14.798  -3.103  1.00 20.00     0.052 A 
HETATM    2  C2  UNL     1     -33.586  16.595  -4.355  1.00 20.00     0.123 A 
HETATM    3  C3  UNL     1     -34.331  14.732  -5.474  1.00 20.00     0.158 A 
HETATM    4  C4  UNL     1     -33.934  16.063  -3.125  1.00 20.00    -0.034 A 
HETATM    5  C5  UNL     1     -34.715  14.113  -4.295  1.00 20.00     0.134 A 
HETATM    6  N11 UNL     1     -33.770  15.961  -5.534  1.00 20.00    -0.269 NA
HETATM    7  F12 UNL     1     -35.267  12.894  -4.304  1.00 20.00    -0.205 F 
ENDROOT
BRANCH   4   8
HETATM    8  C9  UNL     1     -33.697  16.834  -1.845  1.00 20.00     0.021 C 
HETATM    9  C6  UNL     1     -33.726  18.370  -2.015  1.00 20.00     0.011 C 
HETATM   10  C7  UNL     1     -34.281  18.948  -0.710  1.00 20.00     0.021 C 
HETATM   11  C10 UNL     1     -34.379  17.763   0.241  1.00 20.00     0.083 C 
HETATM   12  C8  UNL     1     -34.677  16.594  -0.686  1.00 20.00     0.029 C 
HETATM   13 CL13 UNL     1     -35.630  17.983   1.472  1.00 20.00    -0.125 Cl
ENDBRANCH   4   8
TORSDOF 1
ENDMDL
MODEL 6
REMARK VINA RESULT:      -5.1      2.221      3.162
REMARK  1 active torsions:
REMARK  status: ('A' for Active; 'I' for Inactive)
REMARK    1  A    between atoms: C4_4  and  C9_9 
ROOT
HETATM    1  C1  UNL     1     -34.379  15.654  -2.301  1.00 20.00     0.052 A 
HETATM    2  C2  UNL     1     -33.643  17.489  -3.621  1.00 20.00     0.123 A 
HETATM    3  C3  UNL     1     -33.805  15.415  -4.597  1.00 20.00     0.158 A 
HETATM    4  C4  UNL     1     -34.075  17.006  -2.396  1.00 20.00    -0.034 A 
HETATM    5  C5  UNL     1     -34.244  14.835  -3.418  1.00 20.00     0.134 A 
HETATM    6  N11 UNL     1     -33.499  16.726  -4.727  1.00 20.00    -0.269 NA
HETATM    7  F12 UNL     1     -34.531  13.530  -3.355  1.00 20.00    -0.205 F 
ENDROOT
BRANCH   4   8
HETATM    8  C9  UNL     1     -34.211  17.923  -1.200  1.00 20.00     0.021 C 
HETATM    9  C6  UNL     1     -35.049  17.334  -0.043  1.00 20.00     0.011 C 
HETATM   10  C7  UNL     1     -34.459  17.892   1.256  1.00 20.00     0.021 C 
HETATM   11  C10 UNL     1     -33.432  18.925   0.816  1.00 20.00     0.083 C 
HETATM   12  C8  UNL     1     -32.916  18.367  -0.502  1.00 20.00     0.029 C 
HETATM   13 CL13 UNL     1     -32.141  19.146   2.005  1.00 20.00    -0.125 Cl
ENDBRANCH   4   8
TORSDOF 1
ENDMDL
MODEL 7
REMARK VINA RESULT:      -4.9      4.090      5.721
REMARK  1 active torsions:
REMARK  status: ('A' for Active; 'I' for Inactive)
REMARK    1  A    between atoms: C4_4  and  C9_9 
ROOT
HETATM    1  C1  UNL     1     -34.581  17.010  -0.259  1.00 20.00     0.052 A 
HETATM    2  C2  UNL     1     -33.865  17.833  -2.372  1.00 20.00     0.123 A 
HETATM    3  C3  UNL     1     -33.298  19.000  -0.476  1.00 20.00     0.158 A 
HETATM    4  C4  UNL     1     -34.543  16.870  -1.642  1.00 20.00    -0.034 A 
HETATM    5  C5  UNL     1     -33.949  18.092   0.343  1.00 20.00     0.134 A 
HETATM    6  N11 UNL     1     -33.239  18.898  -1.824  1.00 20.00    -0.269 NA
HETATM    7  F12 UNL     1     -33.969  18.251   1.671  1.00 20.00    -0.205 F 
ENDROOT
BRANCH   4   8
HETATM    8  C9  UNL     1     -35.221  15.704  -2.327  1.00 20.00     0.021 C 
HETATM    9  C6  UNL     1     -36.357  16.109  -3.292  1.00 20.00     0.011 C 
HETATM   10  C7  UNL     1     -36.365  15.076  -4.423  1.00 20.00     0.021 C 
HETATM   11  C10 UNL     1     -35.373  14.005  -3.991  1.00 20.00     0.083 C 
HETATM   12  C8  UNL     1     -34.341  14.786  -3.190  1.00 20.00     0.029 C 
HETATM   13 CL13 UNL     1     -34.654  13.153  -5.364  1.00 20.00    -0.125 Cl
ENDBRANCH   4   8
TORSDOF 1
ENDMDL
MODEL 8
REMARK VINA RESULT:      -4.9      4.102      5.842
REMARK  1 active torsions:
REMARK  status: ('A' for Active; 'I' for Inactive)
REMARK    1  A    between atoms: C4_4  and  C9_9 
ROOT
HETATM    1  C1  UNL     1     -34.798  16.789  -0.382  1.00 20.00     0.052 A 
HETATM    2  C2  UNL     1     -33.193  18.281  -1.304  1.00 20.00     0.123 A 
HETATM    3  C3  UNL     1     -34.168  18.806   0.709  1.00 20.00     0.158 A 
HETATM    4  C4  UNL     1     -33.914  17.103  -1.408  1.00 20.00    -0.034 A 
HETATM    5  C5  UNL     1     -34.934  17.652   0.700  1.00 20.00     0.134 A 
HETATM    6  N11 UNL     1     -33.297  19.145  -0.270  1.00 20.00    -0.269 NA
HETATM    7  F12 UNL     1     -35.777  17.375   1.701  1.00 20.00    -0.205 F 
ENDROOT
BRANCH   4   8
HETATM    8  C9  UNL     1     -33.743  16.185  -2.599  1.00 20.00     0.021 C 
HETATM    9  C6  UNL     1     -34.916  15.202  -2.815  1.00 20.00     0.011 C 
HETATM   10  C7  UNL     1     -35.031  14.979  -4.326  1.00 20.00     0.021 C 
HETATM   11  C10 UNL     1     -33.818  15.677  -4.925  1.00 20.00     0.083 C 
HETATM   12  C8  UNL     1     -33.581  16.844  -3.977  1.00 20.00     0.029 C 
HETATM   13 CL13 UNL     1     -34.095  16.207  -6.590  1.00 20.00    -0.125 Cl
ENDBRANCH   4   8
TORSDOF 1
ENDMDL
MODEL 9
REMARK VINA RESULT:      -4.8      3.135      4.381
REMARK  1 active torsions:
REMARK  status: ('A' for Active; 'I' for Inactive)
REMARK    1  A    between atoms: C4_4  and  C9_9 
ROOT
HETATM    1  C1  UNL     1     -34.591  16.466  -1.168  1.00 20.00     0.052 A 
HETATM    2  C2  UNL     1     -36.310  18.063  -1.548  1.00 20.00     0.123 A 
HETATM    3  C3  UNL     1     -36.013  16.369  -3.072  1.00 20.00     0.158 A 
HETATM    4  C4  UNL     1     -35.273  17.603  -0.754  1.00 20.00    -0.034 A 
HETATM    5  C5  UNL     1     -34.961  15.831  -2.349  1.00 20.00     0.134 A 
HETATM    6  N11 UNL     1     -36.700  17.473  -2.701  1.00 20.00    -0.269 NA
HETATM    7  F12 UNL     1     -34.322  14.734  -2.771  1.00 20.00    -0.205 F 
ENDROOT
BRANCH   4   8
HETATM    8  C9  UNL     1     -34.894  18.318   0.526  1.00 20.00     0.021 C 
HETATM    9  C6  UNL     1     -35.494  17.689   1.803  1.00 20.00     0.011 C 
HETATM   10  C7  UNL     1     -34.477  17.919   2.926  1.00 20.00     0.021 C 
HETATM   11  C10 UNL     1     -33.416  18.829   2.323  1.00 20.00     0.083 C 
HETATM   12  C8  UNL     1     -33.397  18.422   0.857  1.00 20.00     0.029 C 
HETATM   13 CL13 UNL     1     -31.838  18.635   3.096  1.00 20.00    -0.125 Cl
ENDBRANCH   4   8
TORSDOF 1
ENDMDL
