MODEL 1
REMARK VINA RESULT:      -4.4      0.000      0.000
REMARK  5 active torsions:
REMARK  status: ('A' for Active; 'I' for Inactive)
REMARK    1  A    between atoms: C6_6  and  C7_7 
REMARK    2  A    between atoms: C7_7  and  C8_8 
REMARK    3  A    between atoms: C8_8  and  C9_9 
REMARK    4  A    between atoms: C9_9  and  C10_10 
REMARK    5  A    between atoms: C10_10  and  C11_11 
ROOT
HETATM    1  C1  UNL     1     -34.671  16.547  -0.873  1.00 20.00     0.012 C 
HETATM    2  C2  UNL     1     -34.170  16.458  -1.960  1.00 20.00    -0.117 C 
HETATM    3  C6  UNL     1     -33.558  16.354  -3.292  1.00 20.00     0.093 C 
ENDROOT
BRANCH   3   4
HETATM    4  C7  UNL     1     -32.954  14.972  -3.548  1.00 20.00     0.012 C 
BRANCH   4   5
HETATM    5  C8  UNL     1     -34.000  13.850  -3.521  1.00 20.00     0.002 C 
BRANCH   5   6
HETATM    6  C9  UNL     1     -34.435  13.467  -4.945  1.00 20.00     0.021 C 
BRANCH   6   7
HETATM    7  C10 UNL     1     -35.795  14.070  -5.355  1.00 20.00     0.089 C 
HETATM    8 CL12 UNL     1     -36.675  14.593  -3.869  1.00 20.00    -0.124 Cl
BRANCH   7   9
HETATM    9  C11 UNL     1     -35.709  15.229  -6.409  1.00 20.00    -0.035 C 
HETATM   10  C3  UNL     1     -36.626  14.922  -7.614  1.00 20.00     0.016 C 
HETATM   11  C4  UNL     1     -36.206  16.557  -5.792  1.00 20.00     0.016 C 
HETATM   12  C5  UNL     1     -34.278  15.440  -6.937  1.00 20.00     0.016 C 
ENDBRANCH   7   9
ENDBRANCH   6   7
ENDBRANCH   5   6
ENDBRANCH   4   5
ENDBRANCH   3   4
TORSDOF 5
ENDMDL
MODEL 2
REMARK VINA RESULT:      -4.3      2.258      3.478
REMARK  5 active torsions:
REMARK  status: ('A' for Active; 'I' for Inactive)
REMARK    1  A    between atoms: C6_6  and  C7_7 
REMARK    2  A    between atoms: C7_7  and  C8_8 
REMARK    3  A    between atoms: C8_8  and  C9_9 
REMARK    4  A    between atoms: C9_9  and  C10_10 
REMARK    5  A    between atoms: C10_10  and  C11_11 
ROOT
HETATM    1  C1  UNL     1     -31.711  19.169   0.907  1.00 20.00     0.012 C 
HETATM    2  C2  UNL     1     -32.457  18.779   0.051  1.00 20.00    -0.117 C 
HETATM    3  C6  UNL     1     -33.368  18.304  -1.000  1.00 20.00     0.093 C 
ENDROOT
BRANCH   3   4
HETATM    4  C7  UNL     1     -34.436  17.353  -0.458  1.00 20.00     0.012 C 
BRANCH   4   5
HETATM    5  C8  UNL     1     -34.776  16.220  -1.435  1.00 20.00     0.002 C 
BRANCH   5   6
HETATM    6  C9  UNL     1     -33.741  16.138  -2.568  1.00 20.00     0.021 C 
BRANCH   6   7
HETATM    7  C10 UNL     1     -34.372  16.094  -3.975  1.00 20.00     0.089 C 
HETATM    8 CL12 UNL     1     -33.318  17.008  -5.119  1.00 20.00    -0.124 Cl
BRANCH   7   9
HETATM    9  C11 UNL     1     -34.686  14.653  -4.510  1.00 20.00    -0.035 C 
HETATM   10  C3  UNL     1     -36.141  14.263  -4.168  1.00 20.00     0.016 C 
HETATM   11  C4  UNL     1     -34.558  14.610  -6.050  1.00 20.00     0.016 C 
HETATM   12  C5  UNL     1     -33.750  13.586  -3.912  1.00 20.00     0.016 C 
ENDBRANCH   7   9
ENDBRANCH   6   7
ENDBRANCH   5   6
ENDBRANCH   4   5
ENDBRANCH   3   4
TORSDOF 5
ENDMDL
MODEL 3
REMARK VINA RESULT:      -4.2      1.684      4.146
REMARK  5 active torsions:
REMARK  status: ('A' for Active; 'I' for Inactive)
REMARK    1  A    between atoms: C6_6  and  C7_7 
REMARK    2  A    between atoms: C7_7  and  C8_8 
REMARK    3  A    between atoms: C8_8  and  C9_9 
REMARK    4  A    between atoms: C9_9  and  C10_10 
REMARK    5  A    between atoms: C10_10  and  C11_11 
ROOT
HETATM    1  C1  UNL     1     -34.456  17.679  -6.832  1.00 20.00     0.012 C 
HETATM    2  C2  UNL     1     -34.402  16.492  -6.997  1.00 20.00    -0.117 C 
HETATM    3  C6  UNL     1     -34.334  15.038  -7.201  1.00 20.00     0.093 C 
ENDROOT
BRANCH   3   4
HETATM    4  C7  UNL     1     -35.342  14.280  -6.334  1.00 20.00     0.012 C 
BRANCH   4   5
HETATM    5  C8  UNL     1     -34.685  13.554  -5.153  1.00 20.00     0.002 C 
BRANCH   5   6
HETATM    6  C9  UNL     1     -35.255  14.048  -3.814  1.00 20.00     0.021 C 
BRANCH   6   7
HETATM    7  C10 UNL     1     -34.240  14.854  -2.975  1.00 20.00     0.089 C 
HETATM    8 CL12 UNL     1     -32.647  14.850  -3.822  1.00 20.00    -0.124 Cl
BRANCH   7   9
HETATM    9  C11 UNL     1     -34.696  16.311  -2.616  1.00 20.00    -0.035 C 
HETATM   10  C3  UNL     1     -36.146  16.549  -3.094  1.00 20.00     0.016 C 
HETATM   11  C4  UNL     1     -34.687  16.517  -1.084  1.00 20.00     0.016 C 
HETATM   12  C5  UNL     1     -33.797  17.385  -3.258  1.00 20.00     0.016 C 
ENDBRANCH   7   9
ENDBRANCH   6   7
ENDBRANCH   5   6
ENDBRANCH   4   5
ENDBRANCH   3   4
TORSDOF 5
ENDMDL
MODEL 4
REMARK VINA RESULT:      -4.2      1.911      4.085
REMARK  5 active torsions:
REMARK  status: ('A' for Active; 'I' for Inactive)
REMARK    1  A    between atoms: C6_6  and  C7_7 
REMARK    2  A    between atoms: C7_7  and  C8_8 
REMARK    3  A    between atoms: C8_8  and  C9_9 
REMARK    4  A    between atoms: C9_9  and  C10_10 
REMARK    5  A    between atoms: C10_10  and  C11_11 
ROOT
HETATM    1  C1  UNL     1     -35.149  14.874  -6.770  1.00 20.00     0.012 C 
HETATM    2  C2  UNL     1     -34.938  14.068  -5.906  1.00 20.00    -0.117 C 
HETATM    3  C6  UNL     1     -34.682  13.079  -4.850  1.00 20.00     0.093 C 
ENDROOT
BRANCH   3   4
HETATM    4  C7  UNL     1     -34.250  13.730  -3.535  1.00 20.00     0.012 C 
BRANCH   4   5
HETATM    5  C8  UNL     1     -33.147  14.779  -3.723  1.00 20.00     0.002 C 
BRANCH   5   6
HETATM    6  C9  UNL     1     -33.521  16.103  -3.038  1.00 20.00     0.021 C 
BRANCH   6   7
HETATM    7  C10 UNL     1     -34.897  16.065  -2.339  1.00 20.00     0.089 C 
HETATM    8 CL12 UNL     1     -34.697  16.596  -0.626  1.00 20.00    -0.124 Cl
BRANCH   7   9
HETATM    9  C11 UNL     1     -36.025  16.878  -3.065  1.00 20.00    -0.035 C 
HETATM   10  C3  UNL     1     -36.616  17.939  -2.109  1.00 20.00     0.016 C 
HETATM   11  C4  UNL     1     -35.446  17.639  -4.279  1.00 20.00     0.016 C 
HETATM   12  C5  UNL     1     -37.176  15.980  -3.555  1.00 20.00     0.016 C 
ENDBRANCH   7   9
ENDBRANCH   6   7
ENDBRANCH   5   6
ENDBRANCH   4   5
ENDBRANCH   3   4
TORSDOF 5
ENDMDL
MODEL 5
REMARK VINA RESULT:      -4.2      1.943      3.217
REMARK  5 active torsions:
REMARK  status: ('A' for Active; 'I' for Inactive)
REMARK    1  A    between atoms: C6_6  and  C7_7 
REMARK    2  A    between atoms: C7_7  and  C8_8 
REMARK    3  A    between atoms: C8_8  and  C9_9 
REMARK    4  A    between atoms: C9_9  and  C10_10 
REMARK    5  A    between atoms: C10_10  and  C11_11 
ROOT
HETATM    1  C1  UNL     1     -34.677  16.866  -0.466  1.00 20.00     0.012 C 
HETATM    2  C2  UNL     1     -34.231  17.518  -1.370  1.00 20.00    -0.117 C 
HETATM    3  C6  UNL     1     -33.682  18.317  -2.474  1.00 20.00     0.093 C 
ENDROOT
BRANCH   3   4
HETATM    4  C7  UNL     1     -34.555  18.254  -3.729  1.00 20.00     0.012 C 
BRANCH   4   5
HETATM    5  C8  UNL     1     -33.735  18.135  -5.020  1.00 20.00     0.002 C 
BRANCH   5   6
HETATM    6  C9  UNL     1     -33.282  16.686  -5.256  1.00 20.00     0.021 C 
BRANCH   6   7
HETATM    7  C10 UNL     1     -34.453  15.705  -5.480  1.00 20.00     0.089 C 
HETATM    8 CL12 UNL     1     -34.314  14.996  -7.133  1.00 20.00    -0.124 Cl
BRANCH   7   9
HETATM    9  C11 UNL     1     -34.594  14.589  -4.387  1.00 20.00    -0.035 C 
HETATM   10  C3  UNL     1     -33.375  14.615  -3.438  1.00 20.00     0.016 C 
HETATM   11  C4  UNL     1     -35.847  14.841  -3.517  1.00 20.00     0.016 C 
HETATM   12  C5  UNL     1     -34.697  13.178  -4.995  1.00 20.00     0.016 C 
ENDBRANCH   7   9
ENDBRANCH   6   7
ENDBRANCH   5   6
ENDBRANCH   4   5
ENDBRANCH   3   4
TORSDOF 5
ENDMDL
MODEL 6
REMARK VINA RESULT:      -4.2      0.930      1.555
REMARK  5 active torsions:
REMARK  status: ('A' for Active; 'I' for Inactive)
REMARK    1  A    between atoms: C6_6  and  C7_7 
REMARK    2  A    between atoms: C7_7  and  C8_8 
REMARK    3  A    between atoms: C8_8  and  C9_9 
REMARK    4  A    between atoms: C9_9  and  C10_10 
REMARK    5  A    between atoms: C10_10  and  C11_11 
ROOT
HETATM    1  C1  UNL     1     -34.737  16.263  -1.551  1.00 20.00     0.012 C 
HETATM    2  C2  UNL     1     -34.052  15.890  -2.463  1.00 20.00    -0.117 C 
HETATM    3  C6  UNL     1     -33.212  15.437  -3.580  1.00 20.00     0.093 C 
ENDROOT
BRANCH   3   4
HETATM    4  C7  UNL     1     -33.291  13.923  -3.791  1.00 20.00     0.012 C 
BRANCH   4   5
HETATM    5  C8  UNL     1     -34.688  13.453  -4.217  1.00 20.00     0.002 C 
BRANCH   5   6
HETATM    6  C9  UNL     1     -35.034  13.957  -5.627  1.00 20.00     0.021 C 
BRANCH   6   7
HETATM    7  C10 UNL     1     -36.308  14.826  -5.674  1.00 20.00     0.089 C 
HETATM    8 CL12 UNL     1     -37.110  14.775  -4.058  1.00 20.00    -0.124 Cl
BRANCH   7   9
HETATM    9  C11 UNL     1     -36.080  16.302  -6.155  1.00 20.00    -0.035 C 
HETATM   10  C3  UNL     1     -34.669  16.450  -6.768  1.00 20.00     0.016 C 
HETATM   11  C4  UNL     1     -37.093  16.671  -7.262  1.00 20.00     0.016 C 
HETATM   12  C5  UNL     1     -36.214  17.323  -5.009  1.00 20.00     0.016 C 
ENDBRANCH   7   9
ENDBRANCH   6   7
ENDBRANCH   5   6
ENDBRANCH   4   5
ENDBRANCH   3   4
TORSDOF 5
ENDMDL
MODEL 7
REMARK VINA RESULT:      -4.2      2.024      3.300
REMARK  5 active torsions:
REMARK  status: ('A' for Active; 'I' for Inactive)
REMARK    1  A    between atoms: C6_6  and  C7_7 
REMARK    2  A    between atoms: C7_7  and  C8_8 
REMARK    3  A    between atoms: C8_8  and  C9_9 
REMARK    4  A    between atoms: C9_9  and  C10_10 
REMARK    5  A    between atoms: C10_10  and  C11_11 
ROOT
HETATM    1  C1  UNL     1     -32.142  19.003   0.334  1.00 20.00     0.012 C 
HETATM    2  C2  UNL     1     -33.214  18.463   0.322  1.00 20.00    -0.117 C 
HETATM    3  C6  UNL     1     -34.527  17.803   0.309  1.00 20.00     0.093 C 
ENDROOT
BRANCH   3   4
HETATM    4  C7  UNL     1     -34.600  16.670  -0.716  1.00 20.00     0.012 C 
BRANCH   4   5
HETATM    5  C8  UNL     1     -33.875  17.004  -2.026  1.00 20.00     0.002 C 
BRANCH   5   6
HETATM    6  C9  UNL     1     -33.756  15.762  -2.923  1.00 20.00     0.021 C 
BRANCH   6   7
HETATM    7  C10 UNL     1     -34.521  15.893  -4.258  1.00 20.00     0.089 C 
HETATM    8 CL12 UNL     1     -33.374  16.444  -5.537  1.00 20.00    -0.124 Cl
BRANCH   7   9
HETATM    9  C11 UNL     1     -35.297  14.603  -4.699  1.00 20.00    -0.035 C 
HETATM   10  C3  UNL     1     -34.555  13.340  -4.210  1.00 20.00     0.016 C 
HETATM   11  C4  UNL     1     -36.704  14.575  -4.060  1.00 20.00     0.016 C 
HETATM   12  C5  UNL     1     -35.454  14.504  -6.229  1.00 20.00     0.016 C 
ENDBRANCH   7   9
ENDBRANCH   6   7
ENDBRANCH   5   6
ENDBRANCH   4   5
ENDBRANCH   3   4
TORSDOF 5
ENDMDL
MODEL 8
REMARK VINA RESULT:      -4.1      1.861      2.769
REMARK  5 active torsions:
REMARK  status: ('A' for Active; 'I' for Inactive)
REMARK    1  A    between atoms: C6_6  and  C7_7 
REMARK    2  A    between atoms: C7_7  and  C8_8 
REMARK    3  A    between atoms: C8_8  and  C9_9 
REMARK    4  A    between atoms: C9_9  and  C10_10 
REMARK    5  A    between atoms: C10_10  and  C11_11 
ROOT
HETATM    1  C1  UNL     1     -31.924  18.922   0.714  1.00 20.00     0.012 C 
HETATM    2  C2  UNL     1     -32.669  18.547  -0.149  1.00 20.00    -0.117 C 
HETATM    3  C6  UNL     1     -33.581  18.091  -1.209  1.00 20.00     0.093 C 
ENDROOT
BRANCH   3   4
HETATM    4  C7  UNL     1     -34.409  16.877  -0.781  1.00 20.00     0.012 C 
BRANCH   4   5
HETATM    5  C8  UNL     1     -34.762  15.954  -1.954  1.00 20.00     0.002 C 
BRANCH   5   6
HETATM    6  C9  UNL     1     -33.594  15.854  -2.949  1.00 20.00     0.021 C 
BRANCH   6   7
HETATM    7  C10 UNL     1     -33.963  15.124  -4.258  1.00 20.00     0.089 C 
HETATM    8 CL12 UNL     1     -35.246  13.905  -3.906  1.00 20.00    -0.124 Cl
BRANCH   7   9
HETATM    9  C11 UNL     1     -34.376  16.067  -5.442  1.00 20.00    -0.035 C 
HETATM   10  C3  UNL     1     -35.861  16.473  -5.307  1.00 20.00     0.016 C 
HETATM   11  C4  UNL     1     -33.547  17.371  -5.407  1.00 20.00     0.016 C 
HETATM   12  C5  UNL     1     -34.185  15.403  -6.819  1.00 20.00     0.016 C 
ENDBRANCH   7   9
ENDBRANCH   6   7
ENDBRANCH   5   6
ENDBRANCH   4   5
ENDBRANCH   3   4
TORSDOF 5
ENDMDL
MODEL 9
REMARK VINA RESULT:      -4.1      1.392      2.052
REMARK  5 active torsions:
REMARK  status: ('A' for Active; 'I' for Inactive)
REMARK    1  A    between atoms: C6_6  and  C7_7 
REMARK    2  A    between atoms: C7_7  and  C8_8 
REMARK    3  A    between atoms: C8_8  and  C9_9 
REMARK    4  A    between atoms: C9_9  and  C10_10 
REMARK    5  A    between atoms: C10_10  and  C11_11 
ROOT
HETATM    1  C1  UNL     1     -34.747  17.664   0.675  1.00 20.00     0.012 C 
HETATM    2  C2  UNL     1     -34.751  16.992  -0.319  1.00 20.00    -0.117 C 
HETATM    3  C6  UNL     1     -34.759  16.166  -1.535  1.00 20.00     0.093 C 
ENDROOT
BRANCH   3   4
HETATM    4  C7  UNL     1     -33.623  16.530  -2.493  1.00 20.00     0.012 C 
BRANCH   4   5
HETATM    5  C8  UNL     1     -33.267  15.390  -3.455  1.00 20.00     0.002 C 
BRANCH   5   6
HETATM    6  C9  UNL     1     -33.815  15.666  -4.865  1.00 20.00     0.021 C 
BRANCH   6   7
HETATM    7  C10 UNL     1     -35.020  14.777  -5.240  1.00 20.00     0.089 C 
HETATM    8 CL12 UNL     1     -34.991  13.290  -4.218  1.00 20.00    -0.124 Cl
BRANCH   7   9
HETATM    9  C11 UNL     1     -36.413  15.495  -5.170  1.00 20.00    -0.035 C 
HETATM   10  C3  UNL     1     -37.216  15.228  -6.463  1.00 20.00     0.016 C 
HETATM   11  C4  UNL     1     -37.250  14.935  -3.997  1.00 20.00     0.016 C 
HETATM   12  C5  UNL     1     -36.283  17.019  -4.993  1.00 20.00     0.016 C 
ENDBRANCH   7   9
ENDBRANCH   6   7
ENDBRANCH   5   6
ENDBRANCH   4   5
ENDBRANCH   3   4
TORSDOF 5
ENDMDL
