MODEL 1
REMARK VINA RESULT:      -5.2      0.000      0.000
REMARK  2 active torsions:
REMARK  status: ('A' for Active; 'I' for Inactive)
REMARK    1  A    between atoms: C6_6  and  C7_7 
REMARK    2  A    between atoms: C8_8  and  O9_9 
ROOT
HETATM    1  C1  UNL     1     -35.242   4.254   5.097  1.00 20.00     0.003 C 
HETATM    2  C2  UNL     1     -34.617   4.969   3.898  1.00 20.00     0.007 C 
HETATM    3  C5  UNL     1     -34.879   5.083   6.329  1.00 20.00     0.032 C 
HETATM    4  C7  UNL     1     -33.564   5.893   4.505  1.00 20.00     0.018 C 
HETATM    5  C8  UNL     1     -34.242   6.359   5.790  1.00 20.00     0.122 C 
ENDROOT
BRANCH   4   6
HETATM    6  C6  UNL     1     -33.170   7.037   3.584  1.00 20.00    -0.008 A 
HETATM    7  C3  UNL     1     -31.746   7.520   3.543  1.00 20.00     0.005 A 
HETATM    8  C4  UNL     1     -32.321   6.774   2.371  1.00 20.00     0.005 A 
ENDBRANCH   4   6
BRANCH   5   9
HETATM    9  O9  UNL     1     -33.301   6.893   6.701  1.00 20.00    -0.395 OA
HETATM   10  H23 UNL     1     -33.774   7.538   7.255  1.00 20.00     0.210 HD
ENDBRANCH   5   9
TORSDOF 2
ENDMDL
MODEL 2
REMARK VINA RESULT:      -4.9      1.694      2.245
REMARK  2 active torsions:
REMARK  status: ('A' for Active; 'I' for Inactive)
REMARK    1  A    between atoms: C6_6  and  C7_7 
REMARK    2  A    between atoms: C8_8  and  O9_9 
ROOT
HETATM    1  C1  UNL     1     -34.557   5.800   6.384  1.00 20.00     0.003 C 
HETATM    2  C2  UNL     1     -33.335   6.500   5.788  1.00 20.00     0.007 C 
HETATM    3  C5  UNL     1     -35.205   5.019   5.240  1.00 20.00     0.032 C 
HETATM    4  C7  UNL     1     -33.572   6.477   4.280  1.00 20.00     0.018 C 
HETATM    5  C8  UNL     1     -34.227   5.114   4.075  1.00 20.00     0.122 C 
ENDROOT
BRANCH   4   6
HETATM    6  C6  UNL     1     -32.297   6.660   3.472  1.00 20.00    -0.008 A 
HETATM    7  C3  UNL     1     -32.187   7.782   2.475  1.00 20.00     0.005 A 
HETATM    8  C4  UNL     1     -31.387   7.824   3.748  1.00 20.00     0.005 A 
ENDBRANCH   4   6
BRANCH   5   9
HETATM    9  O9  UNL     1     -34.895   5.050   2.830  1.00 20.00    -0.395 OA
HETATM   10  H23 UNL     1     -34.716   4.170   2.455  1.00 20.00     0.210 HD
ENDBRANCH   5   9
TORSDOF 2
ENDMDL
MODEL 3
REMARK VINA RESULT:      -4.6     11.902     12.304
REMARK  2 active torsions:
REMARK  status: ('A' for Active; 'I' for Inactive)
REMARK    1  A    between atoms: C6_6  and  C7_7 
REMARK    2  A    between atoms: C8_8  and  O9_9 
ROOT
HETATM    1  C1  UNL     1     -34.017  13.692  -4.319  1.00 20.00     0.003 C 
HETATM    2  C2  UNL     1     -33.612  14.861  -3.420  1.00 20.00     0.007 C 
HETATM    3  C5  UNL     1     -35.546  13.690  -4.359  1.00 20.00     0.032 C 
HETATM    4  C7  UNL     1     -34.873  15.197  -2.629  1.00 20.00     0.018 C 
HETATM    5  C8  UNL     1     -35.974  14.977  -3.664  1.00 20.00     0.122 C 
ENDROOT
BRANCH   4   6
HETATM    6  C6  UNL     1     -34.861  16.604  -2.053  1.00 20.00    -0.008 A 
HETATM    7  C3  UNL     1     -34.768  16.812  -0.565  1.00 20.00     0.005 A 
HETATM    8  C4  UNL     1     -33.603  17.163  -1.449  1.00 20.00     0.005 A 
ENDBRANCH   4   6
BRANCH   5   9
HETATM    9  O9  UNL     1     -37.238  14.836  -3.044  1.00 20.00    -0.395 OA
HETATM   10  H23 UNL     1     -37.261  13.951  -2.641  1.00 20.00     0.210 HD
ENDBRANCH   5   9
TORSDOF 2
ENDMDL
MODEL 4
REMARK VINA RESULT:      -4.3     11.767     13.459
REMARK  2 active torsions:
REMARK  status: ('A' for Active; 'I' for Inactive)
REMARK    1  A    between atoms: C6_6  and  C7_7 
REMARK    2  A    between atoms: C8_8  and  O9_9 
ROOT
HETATM    1  C1  UNL     1     -33.311  15.592  -3.842  1.00 20.00     0.003 C 
HETATM    2  C2  UNL     1     -33.853  15.733  -5.265  1.00 20.00     0.007 C 
HETATM    3  C5  UNL     1     -33.749  14.212  -3.350  1.00 20.00     0.032 C 
HETATM    4  C7  UNL     1     -34.937  14.664  -5.374  1.00 20.00     0.018 C 
HETATM    5  C8  UNL     1     -34.342  13.514  -4.568  1.00 20.00     0.122 C 
ENDROOT
BRANCH   4   6
HETATM    6  C6  UNL     1     -35.264  14.287  -6.811  1.00 20.00    -0.008 A 
HETATM    7  C3  UNL     1     -36.456  14.893  -7.500  1.00 20.00     0.005 A 
HETATM    8  C4  UNL     1     -35.066  15.285  -7.918  1.00 20.00     0.005 A 
ENDBRANCH   4   6
BRANCH   5   9
HETATM    9  O9  UNL     1     -35.338  12.580  -4.197  1.00 20.00    -0.395 OA
HETATM   10  H23 UNL     1     -35.634  12.820  -3.302  1.00 20.00     0.210 HD
ENDBRANCH   5   9
TORSDOF 2
ENDMDL
MODEL 5
REMARK VINA RESULT:      -4.3     12.399     12.948
REMARK  2 active torsions:
REMARK  status: ('A' for Active; 'I' for Inactive)
REMARK    1  A    between atoms: C6_6  and  C7_7 
REMARK    2  A    between atoms: C8_8  and  O9_9 
ROOT
HETATM    1  C1  UNL     1     -35.848  14.441  -4.632  1.00 20.00     0.003 C 
HETATM    2  C2  UNL     1     -35.682  15.084  -3.255  1.00 20.00     0.007 C 
HETATM    3  C5  UNL     1     -34.507  14.607  -5.348  1.00 20.00     0.032 C 
HETATM    4  C7  UNL     1     -34.450  15.976  -3.389  1.00 20.00     0.018 C 
HETATM    5  C8  UNL     1     -33.545  15.145  -4.295  1.00 20.00     0.122 C 
ENDROOT
BRANCH   4   6
HETATM    6  C6  UNL     1     -33.812  16.320  -2.053  1.00 20.00    -0.008 A 
HETATM    7  C3  UNL     1     -33.820  17.739  -1.552  1.00 20.00     0.005 A 
HETATM    8  C4  UNL     1     -34.671  16.698  -0.879  1.00 20.00     0.005 A 
ENDBRANCH   4   6
BRANCH   5   9
HETATM    9  O9  UNL     1     -32.532  15.943  -4.877  1.00 20.00    -0.395 OA
HETATM   10  H23 UNL     1     -31.771  15.924  -4.271  1.00 20.00     0.210 HD
ENDBRANCH   5   9
TORSDOF 2
ENDMDL
MODEL 6
REMARK VINA RESULT:      -4.1     12.079     13.058
REMARK  2 active torsions:
REMARK  status: ('A' for Active; 'I' for Inactive)
REMARK    1  A    between atoms: C6_6  and  C7_7 
REMARK    2  A    between atoms: C8_8  and  O9_9 
ROOT
HETATM    1  C1  UNL     1     -34.398  15.450  -6.322  1.00 20.00     0.003 C 
HETATM    2  C2  UNL     1     -34.599  16.194  -5.002  1.00 20.00     0.007 C 
HETATM    3  C5  UNL     1     -34.755  13.988  -6.051  1.00 20.00     0.032 C 
HETATM    4  C7  UNL     1     -34.618  15.099  -3.939  1.00 20.00     0.018 C 
HETATM    5  C8  UNL     1     -35.355  13.968  -4.650  1.00 20.00     0.122 C 
ENDROOT
BRANCH   4   6
HETATM    6  C6  UNL     1     -35.286  15.533  -2.644  1.00 20.00    -0.008 A 
HETATM    7  C3  UNL     1     -34.494  16.254  -1.587  1.00 20.00     0.005 A 
HETATM    8  C4  UNL     1     -35.541  16.990  -2.376  1.00 20.00     0.005 A 
ENDBRANCH   4   6
BRANCH   5   9
HETATM    9  O9  UNL     1     -35.131  12.728  -4.008  1.00 20.00    -0.395 OA
HETATM   10  H23 UNL     1     -35.901  12.164  -4.200  1.00 20.00     0.210 HD
ENDBRANCH   5   9
TORSDOF 2
ENDMDL
MODEL 7
REMARK VINA RESULT:      -4.1     11.653     12.823
REMARK  2 active torsions:
REMARK  status: ('A' for Active; 'I' for Inactive)
REMARK    1  A    between atoms: C6_6  and  C7_7 
REMARK    2  A    between atoms: C8_8  and  O9_9 
ROOT
HETATM    1  C1  UNL     1     -33.279  15.408  -3.439  1.00 20.00     0.003 C 
HETATM    2  C2  UNL     1     -34.651  16.043  -3.666  1.00 20.00     0.007 C 
HETATM    3  C5  UNL     1     -33.433  13.922  -3.769  1.00 20.00     0.032 C 
HETATM    4  C7  UNL     1     -35.626  14.869  -3.670  1.00 20.00     0.018 C 
HETATM    5  C8  UNL     1     -34.822  13.782  -4.379  1.00 20.00     0.122 C 
ENDROOT
BRANCH   4   6
HETATM    6  C6  UNL     1     -36.944  15.188  -4.358  1.00 20.00    -0.008 A 
HETATM    7  C3  UNL     1     -38.248  14.921  -3.657  1.00 20.00     0.005 A 
HETATM    8  C4  UNL     1     -37.788  16.336  -3.879  1.00 20.00     0.005 A 
ENDBRANCH   4   6
BRANCH   5   9
HETATM    9  O9  UNL     1     -35.369  12.500  -4.135  1.00 20.00    -0.395 OA
HETATM   10  H23 UNL     1     -36.298  12.630  -3.879  1.00 20.00     0.210 HD
ENDBRANCH   5   9
TORSDOF 2
ENDMDL
MODEL 8
REMARK VINA RESULT:      -4.0      1.857      4.086
REMARK  2 active torsions:
REMARK  status: ('A' for Active; 'I' for Inactive)
REMARK    1  A    between atoms: C6_6  and  C7_7 
REMARK    2  A    between atoms: C8_8  and  O9_9 
ROOT
HETATM    1  C1  UNL     1     -31.893   7.473   3.782  1.00 20.00     0.003 C 
HETATM    2  C2  UNL     1     -32.818   7.002   4.904  1.00 20.00     0.007 C 
HETATM    3  C5  UNL     1     -32.395   6.804   2.502  1.00 20.00     0.032 C 
HETATM    4  C7  UNL     1     -33.510   5.763   4.342  1.00 20.00     0.018 C 
HETATM    5  C8  UNL     1     -33.715   6.142   2.878  1.00 20.00     0.122 C 
ENDROOT
BRANCH   4   6
HETATM    6  C6  UNL     1     -34.805   5.422   5.063  1.00 20.00    -0.008 A 
HETATM    7  C3  UNL     1     -34.997   4.058   5.669  1.00 20.00     0.005 A 
HETATM    8  C4  UNL     1     -34.818   5.259   6.557  1.00 20.00     0.005 A 
ENDBRANCH   4   6
BRANCH   5   9
HETATM    9  O9  UNL     1     -33.967   4.998   2.084  1.00 20.00    -0.395 OA
HETATM   10  H23 UNL     1     -33.151   4.810   1.589  1.00 20.00     0.210 HD
ENDBRANCH   5   9
TORSDOF 2
ENDMDL
MODEL 9
REMARK VINA RESULT:      -3.9      9.941     10.887
REMARK  2 active torsions:
REMARK  status: ('A' for Active; 'I' for Inactive)
REMARK    1  A    between atoms: C6_6  and  C7_7 
REMARK    2  A    between atoms: C8_8  and  O9_9 
ROOT
HETATM    1  C1  UNL     1     -43.112   3.836  -3.436  1.00 20.00     0.003 C 
HETATM    2  C2  UNL     1     -43.292   5.182  -2.733  1.00 20.00     0.007 C 
HETATM    3  C5  UNL     1     -41.881   3.183  -2.806  1.00 20.00     0.032 C 
HETATM    4  C7  UNL     1     -41.945   5.457  -2.072  1.00 20.00     0.018 C 
HETATM    5  C8  UNL     1     -41.515   4.065  -1.618  1.00 20.00     0.122 C 
ENDROOT
BRANCH   4   6
HETATM    6  C6  UNL     1     -42.031   6.462  -0.933  1.00 20.00    -0.008 A 
HETATM    7  C3  UNL     1     -41.205   7.718  -0.967  1.00 20.00     0.005 A 
HETATM    8  C4  UNL     1     -42.696   7.793  -1.148  1.00 20.00     0.005 A 
ENDBRANCH   4   6
BRANCH   5   9
HETATM    9  O9  UNL     1     -40.127   4.021  -1.347  1.00 20.00    -0.395 OA
HETATM   10  H23 UNL     1     -39.696   4.632  -1.970  1.00 20.00     0.210 HD
ENDBRANCH   5   9
TORSDOF 2
ENDMDL
