MODEL 1
REMARK VINA RESULT:      -5.4      0.000      0.000
REMARK  2 active torsions:
REMARK  status: ('A' for Active; 'I' for Inactive)
REMARK    1  A    between atoms: C6_6  and  C7_7 
REMARK    2  A    between atoms: C8_8  and  O9_9 
ROOT
HETATM    1  C3  UNL     1     -34.501   5.323   3.229  1.00 20.00     0.007 C 
HETATM    2  C4  UNL     1     -35.618   5.057   4.228  1.00 20.00     0.032 C 
HETATM    3  C5  UNL     1     -33.735   6.111   5.379  1.00 20.00     0.036 C 
HETATM    4  C7  UNL     1     -33.729   6.463   3.884  1.00 20.00    -0.008 C 
HETATM    5  C8  UNL     1     -34.924   5.165   5.583  1.00 20.00     0.118 C 
ENDROOT
BRANCH   4   6
HETATM    6  C6  UNL     1     -32.332   6.641   3.316  1.00 20.00    -0.010 A 
HETATM    7  C1  UNL     1     -32.053   7.729   2.317  1.00 20.00     0.005 A 
HETATM    8  C2  UNL     1     -31.500   7.830   3.711  1.00 20.00     0.005 A 
ENDBRANCH   4   6
BRANCH   5   9
HETATM    9  O9  UNL     1     -34.450   3.875   5.960  1.00 20.00    -0.396 OA
HETATM   10  H23 UNL     1     -34.190   3.426   5.141  1.00 20.00     0.210 HD
ENDBRANCH   5   9
TORSDOF 2
ENDMDL
MODEL 2
REMARK VINA RESULT:      -4.7     11.751     12.184
REMARK  2 active torsions:
REMARK  status: ('A' for Active; 'I' for Inactive)
REMARK    1  A    between atoms: C6_6  and  C7_7 
REMARK    2  A    between atoms: C8_8  and  O9_9 
ROOT
HETATM    1  C3  UNL     1     -33.550  15.239  -3.629  1.00 20.00     0.007 C 
HETATM    2  C4  UNL     1     -34.051  14.607  -4.920  1.00 20.00     0.032 C 
HETATM    3  C5  UNL     1     -35.920  14.859  -3.363  1.00 20.00     0.036 C 
HETATM    4  C7  UNL     1     -34.812  15.876  -3.056  1.00 20.00    -0.008 C 
HETATM    5  C8  UNL     1     -35.401  14.012  -4.531  1.00 20.00     0.118 C 
ENDROOT
BRANCH   4   6
HETATM    6  C6  UNL     1     -34.694  16.207  -1.578  1.00 20.00    -0.010 A 
HETATM    7  C1  UNL     1     -33.741  17.273  -1.113  1.00 20.00     0.005 A 
HETATM    8  C2  UNL     1     -35.223  17.512  -1.051  1.00 20.00     0.005 A 
ENDBRANCH   4   6
BRANCH   5   9
HETATM    9  O9  UNL     1     -35.203  12.669  -4.098  1.00 20.00    -0.396 OA
HETATM   10  H23 UNL     1     -35.423  12.647  -3.154  1.00 20.00     0.210 HD
ENDBRANCH   5   9
TORSDOF 2
ENDMDL
MODEL 3
REMARK VINA RESULT:      -4.5     11.870     12.298
REMARK  2 active torsions:
REMARK  status: ('A' for Active; 'I' for Inactive)
REMARK    1  A    between atoms: C6_6  and  C7_7 
REMARK    2  A    between atoms: C8_8  and  O9_9 
ROOT
HETATM    1  C3  UNL     1     -35.834  15.022  -3.467  1.00 20.00     0.007 C 
HETATM    2  C4  UNL     1     -35.627  13.754  -4.283  1.00 20.00     0.032 C 
HETATM    3  C5  UNL     1     -33.451  14.688  -3.672  1.00 20.00     0.036 C 
HETATM    4  C7  UNL     1     -34.534  15.128  -2.677  1.00 20.00    -0.008 C 
HETATM    5  C8  UNL     1     -34.172  13.846  -4.732  1.00 20.00     0.118 C 
ENDROOT
BRANCH   4   6
HETATM    6  C6  UNL     1     -34.295  16.514  -2.105  1.00 20.00    -0.010 A 
HETATM    7  C1  UNL     1     -35.456  17.372  -1.685  1.00 20.00     0.005 A 
HETATM    8  C2  UNL     1     -34.542  16.785  -0.647  1.00 20.00     0.005 A 
ENDBRANCH   4   6
BRANCH   5   9
HETATM    9  O9  UNL     1     -34.121  14.513  -5.990  1.00 20.00    -0.396 OA
HETATM   10  H23 UNL     1     -34.935  15.036  -6.059  1.00 20.00     0.210 HD
ENDBRANCH   5   9
TORSDOF 2
ENDMDL
MODEL 4
REMARK VINA RESULT:      -4.5     11.680     13.434
REMARK  2 active torsions:
REMARK  status: ('A' for Active; 'I' for Inactive)
REMARK    1  A    between atoms: C6_6  and  C7_7 
REMARK    2  A    between atoms: C8_8  and  O9_9 
ROOT
HETATM    1  C3  UNL     1     -34.519  13.838  -4.978  1.00 20.00     0.007 C 
HETATM    2  C4  UNL     1     -34.177  14.110  -3.520  1.00 20.00     0.032 C 
HETATM    3  C5  UNL     1     -33.435  15.994  -4.891  1.00 20.00     0.036 C 
HETATM    4  C7  UNL     1     -34.585  15.240  -5.573  1.00 20.00    -0.008 C 
HETATM    5  C8  UNL     1     -33.144  15.230  -3.593  1.00 20.00     0.118 C 
ENDROOT
BRANCH   4   6
HETATM    6  C6  UNL     1     -34.490  15.249  -7.089  1.00 20.00    -0.010 A 
HETATM    7  C1  UNL     1     -35.462  14.451  -7.914  1.00 20.00     0.005 A 
HETATM    8  C2  UNL     1     -35.537  15.952  -7.909  1.00 20.00     0.005 A 
ENDBRANCH   4   6
BRANCH   5   9
HETATM    9  O9  UNL     1     -31.844  14.653  -3.659  1.00 20.00    -0.396 OA
HETATM   10  H23 UNL     1     -31.405  15.047  -4.429  1.00 20.00     0.210 HD
ENDBRANCH   5   9
TORSDOF 2
ENDMDL
MODEL 5
REMARK VINA RESULT:      -4.4     11.235     13.016
REMARK  2 active torsions:
REMARK  status: ('A' for Active; 'I' for Inactive)
REMARK    1  A    between atoms: C6_6  and  C7_7 
REMARK    2  A    between atoms: C8_8  and  O9_9 
ROOT
HETATM    1  C3  UNL     1     -33.495  15.090  -3.562  1.00 20.00     0.007 C 
HETATM    2  C4  UNL     1     -33.266  13.594  -3.724  1.00 20.00     0.032 C 
HETATM    3  C5  UNL     1     -34.571  14.424  -5.619  1.00 20.00     0.036 C 
HETATM    4  C7  UNL     1     -33.733  15.550  -4.996  1.00 20.00    -0.008 C 
HETATM    5  C8  UNL     1     -34.304  13.180  -4.763  1.00 20.00     0.118 C 
ENDROOT
BRANCH   4   6
HETATM    6  C6  UNL     1     -34.401  16.911  -5.083  1.00 20.00    -0.010 A 
HETATM    7  C1  UNL     1     -33.831  18.084  -4.334  1.00 20.00     0.005 A 
HETATM    8  C2  UNL     1     -33.737  18.033  -5.833  1.00 20.00     0.005 A 
ENDBRANCH   4   6
BRANCH   5   9
HETATM    9  O9  UNL     1     -35.500  12.797  -4.090  1.00 20.00    -0.396 OA
HETATM   10  H23 UNL     1     -35.247  12.575  -3.180  1.00 20.00     0.210 HD
ENDBRANCH   5   9
TORSDOF 2
ENDMDL
MODEL 6
REMARK VINA RESULT:      -4.4     11.900     12.923
REMARK  2 active torsions:
REMARK  status: ('A' for Active; 'I' for Inactive)
REMARK    1  A    between atoms: C6_6  and  C7_7 
REMARK    2  A    between atoms: C8_8  and  O9_9 
ROOT
HETATM    1  C3  UNL     1     -33.688  17.523  -3.113  1.00 20.00     0.007 C 
HETATM    2  C4  UNL     1     -33.554  16.932  -4.509  1.00 20.00     0.032 C 
HETATM    3  C5  UNL     1     -34.062  15.145  -2.918  1.00 20.00     0.036 C 
HETATM    4  C7  UNL     1     -34.564  16.500  -2.398  1.00 20.00    -0.008 C 
HETATM    5  C8  UNL     1     -33.368  15.439  -4.253  1.00 20.00     0.118 C 
ENDROOT
BRANCH   4   6
HETATM    6  C6  UNL     1     -34.508  16.619  -0.885  1.00 20.00    -0.010 A 
HETATM    7  C1  UNL     1     -33.903  17.837  -0.243  1.00 20.00     0.005 A 
HETATM    8  C2  UNL     1     -35.387  17.608  -0.170  1.00 20.00     0.005 A 
ENDBRANCH   4   6
BRANCH   5   9
HETATM    9  O9  UNL     1     -31.974  15.164  -4.139  1.00 20.00    -0.396 OA
HETATM   10  H23 UNL     1     -31.897  14.305  -3.696  1.00 20.00     0.210 HD
ENDBRANCH   5   9
TORSDOF 2
ENDMDL
MODEL 7
REMARK VINA RESULT:      -4.3      9.315     10.957
REMARK  2 active torsions:
REMARK  status: ('A' for Active; 'I' for Inactive)
REMARK    1  A    between atoms: C6_6  and  C7_7 
REMARK    2  A    between atoms: C8_8  and  O9_9 
ROOT
HETATM    1  C3  UNL     1     -40.758   4.299  -1.411  1.00 20.00     0.007 C 
HETATM    2  C4  UNL     1     -40.748   5.547  -0.539  1.00 20.00     0.032 C 
HETATM    3  C5  UNL     1     -42.620   5.670  -2.108  1.00 20.00     0.036 C 
HETATM    4  C7  UNL     1     -42.215   4.211  -1.853  1.00 20.00    -0.008 C 
HETATM    5  C8  UNL     1     -41.638   6.526  -1.299  1.00 20.00     0.118 C 
ENDROOT
BRANCH   4   6
HETATM    6  C6  UNL     1     -42.419   3.313  -3.060  1.00 20.00    -0.010 A 
HETATM    7  C1  UNL     1     -41.441   2.211  -3.359  1.00 20.00     0.005 A 
HETATM    8  C2  UNL     1     -42.824   1.876  -2.875  1.00 20.00     0.005 A 
ENDBRANCH   4   6
BRANCH   5   9
HETATM    9  O9  UNL     1     -40.826   7.291  -2.186  1.00 20.00    -0.396 OA
HETATM   10  H23 UNL     1     -40.175   7.753  -1.636  1.00 20.00     0.210 HD
ENDBRANCH   5   9
TORSDOF 2
ENDMDL
MODEL 8
REMARK VINA RESULT:      -4.2      2.260      3.999
REMARK  2 active torsions:
REMARK  status: ('A' for Active; 'I' for Inactive)
REMARK    1  A    between atoms: C6_6  and  C7_7 
REMARK    2  A    between atoms: C8_8  and  O9_9 
ROOT
HETATM    1  C3  UNL     1     -33.560   5.586   2.799  1.00 20.00     0.007 C 
HETATM    2  C4  UNL     1     -32.274   6.087   2.157  1.00 20.00     0.032 C 
HETATM    3  C5  UNL     1     -32.582   7.187   4.320  1.00 20.00     0.036 C 
HETATM    4  C7  UNL     1     -33.314   5.838   4.283  1.00 20.00    -0.008 C 
HETATM    5  C8  UNL     1     -31.958   7.363   2.930  1.00 20.00     0.118 C 
ENDROOT
BRANCH   4   6
HETATM    6  C6  UNL     1     -34.588   5.825   5.110  1.00 20.00    -0.010 A 
HETATM    7  C1  UNL     1     -35.261   4.523   5.445  1.00 20.00     0.005 A 
HETATM    8  C2  UNL     1     -34.568   5.309   6.522  1.00 20.00     0.005 A 
ENDBRANCH   4   6
BRANCH   5   9
HETATM    9  O9  UNL     1     -32.570   8.466   2.267  1.00 20.00    -0.396 OA
HETATM   10  H23 UNL     1     -32.693   9.157   2.936  1.00 20.00     0.210 HD
ENDBRANCH   5   9
TORSDOF 2
ENDMDL
MODEL 9
REMARK VINA RESULT:      -4.1      9.260     10.543
REMARK  2 active torsions:
REMARK  status: ('A' for Active; 'I' for Inactive)
REMARK    1  A    between atoms: C6_6  and  C7_7 
REMARK    2  A    between atoms: C8_8  and  O9_9 
ROOT
HETATM    1  C3  UNL     1     -41.637   7.003  -0.829  1.00 20.00     0.007 C 
HETATM    2  C4  UNL     1     -40.654   6.067  -0.140  1.00 20.00     0.032 C 
HETATM    3  C5  UNL     1     -41.679   4.911  -2.036  1.00 20.00     0.036 C 
HETATM    4  C7  UNL     1     -41.708   6.433  -2.242  1.00 20.00    -0.008 C 
HETATM    5  C8  UNL     1     -41.045   4.687  -0.658  1.00 20.00     0.118 C 
ENDROOT
BRANCH   4   6
HETATM    6  C6  UNL     1     -42.925   6.909  -3.017  1.00 20.00    -0.010 A 
HETATM    7  C1  UNL     1     -43.417   8.321  -2.861  1.00 20.00     0.005 A 
HETATM    8  C2  UNL     1     -42.767   7.890  -4.145  1.00 20.00     0.005 A 
ENDBRANCH   4   6
BRANCH   5   9
HETATM    9  O9  UNL     1     -42.009   4.121   0.226  1.00 20.00    -0.396 OA
HETATM   10  H23 UNL     1     -42.839   4.063  -0.271  1.00 20.00     0.210 HD
ENDBRANCH   5   9
TORSDOF 2
ENDMDL
