MODEL 1
REMARK VINA RESULT:      -4.7      0.000      0.000
REMARK  7 active torsions:
REMARK  status: ('A' for Active; 'I' for Inactive)
REMARK    1  A    between atoms: C4_4  and  C8_8 
REMARK    2  A    between atoms: C5_5  and  C6_6 
REMARK    3  A    between atoms: C5_5  and  C7_7 
REMARK    4  A    between atoms: C6_6  and  C9_9 
REMARK    5  A    between atoms: C7_7  and  C10_10 
REMARK    6  A    between atoms: C8_8  and  C11_11 
REMARK    7  A    between atoms: C9_9  and  C11_11 
ROOT
HETATM    1  C6  UNL     1     -32.120   6.359   3.361  1.00 20.00     0.001 C 
ENDROOT
BRANCH   1   2
HETATM    2  C5  UNL     1     -31.786   7.793   2.932  1.00 20.00     0.000 C 
BRANCH   2   3
HETATM    3  C7  UNL     1     -31.620   7.946   1.416  1.00 20.00     0.004 C 
BRANCH   3   4
HETATM    4  C10 UNL     1     -32.119   9.302   0.882  1.00 20.00    -0.023 C 
HETATM    5  C2  UNL     1     -32.836  10.067   1.997  1.00 20.00     0.009 C 
HETATM    6  C3  UNL     1     -33.052   9.148  -0.320  1.00 20.00     0.009 C 
ENDBRANCH   3   4
ENDBRANCH   2   3
ENDBRANCH   1   2
BRANCH   1   7
HETATM    7  C9  UNL     1     -33.461   5.859   2.803  1.00 20.00     0.020 C 
BRANCH   7   8
HETATM    8  C11 UNL     1     -34.482   5.501   3.895  1.00 20.00     0.082 C 
HETATM    9 CL12 UNL     1     -36.147   5.882   3.334  1.00 20.00    -0.125 Cl
BRANCH   8  10
HETATM   10  C8  UNL     1     -34.242   6.250   5.216  1.00 20.00     0.020 C 
BRANCH  10  11
HETATM   11  C4  UNL     1     -34.553   5.410   6.458  1.00 20.00    -0.003 C 
HETATM   12  C1  UNL     1     -34.969   3.996   6.079  1.00 20.00     0.005 C 
ENDBRANCH  10  11
ENDBRANCH   8  10
ENDBRANCH   7   8
ENDBRANCH   1   7
TORSDOF 7
ENDMDL
MODEL 2
REMARK VINA RESULT:      -4.6      1.823      5.697
REMARK  7 active torsions:
REMARK  status: ('A' for Active; 'I' for Inactive)
REMARK    1  A    between atoms: C4_4  and  C8_8 
REMARK    2  A    between atoms: C5_5  and  C6_6 
REMARK    3  A    between atoms: C5_5  and  C7_7 
REMARK    4  A    between atoms: C6_6  and  C9_9 
REMARK    5  A    between atoms: C7_7  and  C10_10 
REMARK    6  A    between atoms: C8_8  and  C11_11 
REMARK    7  A    between atoms: C9_9  and  C11_11 
ROOT
HETATM    1  C6  UNL     1     -33.678   5.783   2.720  1.00 20.00     0.001 C 
ENDROOT
BRANCH   1   2
HETATM    2  C5  UNL     1     -34.753   6.173   3.741  1.00 20.00     0.000 C 
BRANCH   2   3
HETATM    3  C7  UNL     1     -35.330   4.972   4.498  1.00 20.00     0.004 C 
BRANCH   3   4
HETATM    4  C10 UNL     1     -34.928   4.939   5.986  1.00 20.00    -0.023 C 
HETATM    5  C2  UNL     1     -34.238   6.252   6.366  1.00 20.00     0.009 C 
HETATM    6  C3  UNL     1     -34.012   3.761   6.316  1.00 20.00     0.009 C 
ENDBRANCH   3   4
ENDBRANCH   2   3
ENDBRANCH   1   2
BRANCH   1   7
HETATM    7  C9  UNL     1     -32.250   5.883   3.277  1.00 20.00     0.020 C 
BRANCH   7   8
HETATM    8  C11 UNL     1     -31.588   7.247   3.019  1.00 20.00     0.082 C 
HETATM    9 CL12 UNL     1     -31.203   8.053   4.578  1.00 20.00    -0.125 Cl
BRANCH   8  10
HETATM   10  C8  UNL     1     -32.469   8.201   2.195  1.00 20.00     0.020 C 
BRANCH  10  11
HETATM   11  C4  UNL     1     -31.748   8.804   0.986  1.00 20.00    -0.003 C 
HETATM   12  C1  UNL     1     -32.702   9.012  -0.180  1.00 20.00     0.005 C 
ENDBRANCH  10  11
ENDBRANCH   8  10
ENDBRANCH   7   8
ENDBRANCH   1   7
TORSDOF 7
ENDMDL
MODEL 3
REMARK VINA RESULT:      -4.4     10.483     11.782
REMARK  7 active torsions:
REMARK  status: ('A' for Active; 'I' for Inactive)
REMARK    1  A    between atoms: C4_4  and  C8_8 
REMARK    2  A    between atoms: C5_5  and  C6_6 
REMARK    3  A    between atoms: C5_5  and  C7_7 
REMARK    4  A    between atoms: C6_6  and  C9_9 
REMARK    5  A    between atoms: C7_7  and  C10_10 
REMARK    6  A    between atoms: C8_8  and  C11_11 
REMARK    7  A    between atoms: C9_9  and  C11_11 
ROOT
HETATM    1  C6  UNL     1     -33.449  13.724  -3.731  1.00 20.00     0.001 C 
ENDROOT
BRANCH   1   2
HETATM    2  C5  UNL     1     -34.883  13.745  -4.272  1.00 20.00     0.000 C 
BRANCH   2   3
HETATM    3  C7  UNL     1     -34.960  13.531  -5.788  1.00 20.00     0.004 C 
BRANCH   3   4
HETATM    4  C10 UNL     1     -35.780  14.614  -6.516  1.00 20.00    -0.023 C 
HETATM    5  C2  UNL     1     -34.848  15.501  -7.345  1.00 20.00     0.009 C 
HETATM    6  C3  UNL     1     -36.591  15.478  -5.550  1.00 20.00     0.009 C 
ENDBRANCH   3   4
ENDBRANCH   2   3
ENDBRANCH   1   2
BRANCH   1   7
HETATM    7  C9  UNL     1     -32.767  15.100  -3.775  1.00 20.00     0.020 C 
BRANCH   7   8
HETATM    8  C11 UNL     1     -33.740  16.271  -3.566  1.00 20.00     0.082 C 
HETATM    9 CL12 UNL     1     -33.428  17.560  -4.780  1.00 20.00    -0.125 Cl
BRANCH   8  10
HETATM   10  C8  UNL     1     -33.638  16.901  -2.167  1.00 20.00     0.020 C 
BRANCH  10  11
HETATM   11  C4  UNL     1     -34.726  16.421  -1.202  1.00 20.00    -0.003 C 
HETATM   12  C1  UNL     1     -34.750  17.259   0.067  1.00 20.00     0.005 C 
ENDBRANCH  10  11
ENDBRANCH   8  10
ENDBRANCH   7   8
ENDBRANCH   1   7
TORSDOF 7
ENDMDL
MODEL 4
REMARK VINA RESULT:      -4.4     10.465     11.770
REMARK  7 active torsions:
REMARK  status: ('A' for Active; 'I' for Inactive)
REMARK    1  A    between atoms: C4_4  and  C8_8 
REMARK    2  A    between atoms: C5_5  and  C6_6 
REMARK    3  A    between atoms: C5_5  and  C7_7 
REMARK    4  A    between atoms: C6_6  and  C9_9 
REMARK    5  A    between atoms: C7_7  and  C10_10 
REMARK    6  A    between atoms: C8_8  and  C11_11 
REMARK    7  A    between atoms: C9_9  and  C11_11 
ROOT
HETATM    1  C6  UNL     1     -34.602  16.379  -1.279  1.00 20.00     0.001 C 
ENDROOT
BRANCH   1   2
HETATM    2  C5  UNL     1     -33.752  17.571  -0.824  1.00 20.00     0.000 C 
BRANCH   2   3
HETATM    3  C7  UNL     1     -34.136  18.090   0.567  1.00 20.00     0.004 C 
BRANCH   3   4
HETATM    4  C10 UNL     1     -33.094  19.055   1.166  1.00 20.00    -0.023 C 
HETATM    5  C2  UNL     1     -31.827  19.049   0.307  1.00 20.00     0.009 C 
HETATM    6  C3  UNL     1     -32.739  18.704   2.611  1.00 20.00     0.009 C 
ENDBRANCH   3   4
ENDBRANCH   2   3
ENDBRANCH   1   2
BRANCH   1   7
HETATM    7  C9  UNL     1     -34.676  16.237  -2.806  1.00 20.00     0.020 C 
BRANCH   7   8
HETATM    8  C11 UNL     1     -33.338  15.833  -3.447  1.00 20.00     0.082 C 
HETATM    9 CL12 UNL     1     -33.163  16.611  -5.058  1.00 20.00    -0.125 Cl
BRANCH   8  10
HETATM   10  C8  UNL     1     -33.191  14.313  -3.635  1.00 20.00     0.020 C 
BRANCH  10  11
HETATM   11  C4  UNL     1     -34.529  13.589  -3.807  1.00 20.00    -0.003 C 
HETATM   12  C1  UNL     1     -34.843  13.347  -5.276  1.00 20.00     0.005 C 
ENDBRANCH  10  11
ENDBRANCH   8  10
ENDBRANCH   7   8
ENDBRANCH   1   7
TORSDOF 7
ENDMDL
MODEL 5
REMARK VINA RESULT:      -4.4     10.459     12.148
REMARK  7 active torsions:
REMARK  status: ('A' for Active; 'I' for Inactive)
REMARK    1  A    between atoms: C4_4  and  C8_8 
REMARK    2  A    between atoms: C5_5  and  C6_6 
REMARK    3  A    between atoms: C5_5  and  C7_7 
REMARK    4  A    between atoms: C6_6  and  C9_9 
REMARK    5  A    between atoms: C7_7  and  C10_10 
REMARK    6  A    between atoms: C8_8  and  C11_11 
REMARK    7  A    between atoms: C9_9  and  C11_11 
ROOT
HETATM    1  C6  UNL     1     -33.352  17.011  -5.165  1.00 20.00     0.001 C 
ENDROOT
BRANCH   1   2
HETATM    2  C5  UNL     1     -33.884  17.599  -3.852  1.00 20.00     0.000 C 
BRANCH   2   3
HETATM    3  C7  UNL     1     -33.594  16.715  -2.634  1.00 20.00     0.004 C 
BRANCH   3   4
HETATM    4  C10 UNL     1     -34.846  16.421  -1.784  1.00 20.00    -0.023 C 
HETATM    5  C2  UNL     1     -36.082  17.029  -2.451  1.00 20.00     0.009 C 
HETATM    6  C3  UNL     1     -34.718  16.951  -0.356  1.00 20.00     0.009 C 
ENDBRANCH   3   4
ENDBRANCH   2   3
ENDBRANCH   1   2
BRANCH   1   7
HETATM    7  C9  UNL     1     -34.467  16.542  -6.111  1.00 20.00     0.020 C 
BRANCH   7   8
HETATM    8  C11 UNL     1     -34.642  15.015  -6.140  1.00 20.00     0.082 C 
HETATM    9 CL12 UNL     1     -35.182  14.483  -7.769  1.00 20.00    -0.125 Cl
BRANCH   8  10
HETATM   10  C8  UNL     1     -35.663  14.503  -5.110  1.00 20.00     0.020 C 
BRANCH  10  11
HETATM   11  C4  UNL     1     -35.139  13.345  -4.256  1.00 20.00    -0.003 C 
HETATM   12  C1  UNL     1     -33.654  13.498  -3.967  1.00 20.00     0.005 C 
ENDBRANCH  10  11
ENDBRANCH   8  10
ENDBRANCH   7   8
ENDBRANCH   1   7
TORSDOF 7
ENDMDL
MODEL 6
REMARK VINA RESULT:      -4.3      1.159      1.306
REMARK  7 active torsions:
REMARK  status: ('A' for Active; 'I' for Inactive)
REMARK    1  A    between atoms: C4_4  and  C8_8 
REMARK    2  A    between atoms: C5_5  and  C6_6 
REMARK    3  A    between atoms: C5_5  and  C7_7 
REMARK    4  A    between atoms: C6_6  and  C9_9 
REMARK    5  A    between atoms: C7_7  and  C10_10 
REMARK    6  A    between atoms: C8_8  and  C11_11 
REMARK    7  A    between atoms: C9_9  and  C11_11 
ROOT
HETATM    1  C6  UNL     1     -31.961   6.477   3.431  1.00 20.00     0.001 C 
ENDROOT
BRANCH   1   2
HETATM    2  C5  UNL     1     -31.767   7.909   2.919  1.00 20.00     0.000 C 
BRANCH   2   3
HETATM    3  C7  UNL     1     -31.624   7.990   1.395  1.00 20.00     0.004 C 
BRANCH   3   4
HETATM    4  C10 UNL     1     -32.127   9.322   0.806  1.00 20.00    -0.023 C 
HETATM    5  C2  UNL     1     -32.807  10.149   1.899  1.00 20.00     0.009 C 
HETATM    6  C3  UNL     1     -33.094   9.115  -0.360  1.00 20.00     0.009 C 
ENDBRANCH   3   4
ENDBRANCH   2   3
ENDBRANCH   1   2
BRANCH   1   7
HETATM    7  C9  UNL     1     -33.323   5.879   3.050  1.00 20.00     0.020 C 
BRANCH   7   8
HETATM    8  C11 UNL     1     -34.445   6.233   4.040  1.00 20.00     0.082 C 
HETATM    9 CL12 UNL     1     -33.747   6.662   5.639  1.00 20.00    -0.125 Cl
BRANCH   8  10
HETATM   10  C8  UNL     1     -35.450   5.088   4.251  1.00 20.00     0.020 C 
BRANCH  10  11
HETATM   11  C4  UNL     1     -34.918   3.970   5.153  1.00 20.00    -0.003 C 
HETATM   12  C1  UNL     1     -35.242   4.236   6.615  1.00 20.00     0.005 C 
ENDBRANCH  10  11
ENDBRANCH   8  10
ENDBRANCH   7   8
ENDBRANCH   1   7
TORSDOF 7
ENDMDL
MODEL 7
REMARK VINA RESULT:      -4.3      0.943      1.758
REMARK  7 active torsions:
REMARK  status: ('A' for Active; 'I' for Inactive)
REMARK    1  A    between atoms: C4_4  and  C8_8 
REMARK    2  A    between atoms: C5_5  and  C6_6 
REMARK    3  A    between atoms: C5_5  and  C7_7 
REMARK    4  A    between atoms: C6_6  and  C9_9 
REMARK    5  A    between atoms: C7_7  and  C10_10 
REMARK    6  A    between atoms: C8_8  and  C11_11 
REMARK    7  A    between atoms: C9_9  and  C11_11 
ROOT
HETATM    1  C6  UNL     1     -33.449   6.085   2.990  1.00 20.00     0.001 C 
ENDROOT
BRANCH   1   2
HETATM    2  C5  UNL     1     -31.990   6.475   3.254  1.00 20.00     0.000 C 
BRANCH   2   3
HETATM    3  C7  UNL     1     -31.719   7.970   3.054  1.00 20.00     0.004 C 
BRANCH   3   4
HETATM    4  C10 UNL     1     -32.425   8.558   1.817  1.00 20.00    -0.023 C 
HETATM    5  C2  UNL     1     -31.539   8.382   0.581  1.00 20.00     0.009 C 
HETATM    6  C3  UNL     1     -32.777  10.035   1.993  1.00 20.00     0.009 C 
ENDBRANCH   3   4
ENDBRANCH   2   3
ENDBRANCH   1   2
BRANCH   1   7
HETATM    7  C9  UNL     1     -33.834   4.734   3.609  1.00 20.00     0.020 C 
BRANCH   7   8
HETATM    8  C11 UNL     1     -35.253   4.715   4.201  1.00 20.00     0.082 C 
HETATM    9 CL12 UNL     1     -36.205   6.105   3.572  1.00 20.00    -0.125 Cl
BRANCH   8  10
HETATM   10  C8  UNL     1     -35.270   4.784   5.737  1.00 20.00     0.020 C 
BRANCH  10  11
HETATM   11  C4  UNL     1     -33.939   5.242   6.340  1.00 20.00    -0.003 C 
HETATM   12  C1  UNL     1     -33.924   6.746   6.571  1.00 20.00     0.005 C 
ENDBRANCH  10  11
ENDBRANCH   8  10
ENDBRANCH   7   8
ENDBRANCH   1   7
TORSDOF 7
ENDMDL
MODEL 8
REMARK VINA RESULT:      -4.3     10.222     12.108
REMARK  7 active torsions:
REMARK  status: ('A' for Active; 'I' for Inactive)
REMARK    1  A    between atoms: C4_4  and  C8_8 
REMARK    2  A    between atoms: C5_5  and  C6_6 
REMARK    3  A    between atoms: C5_5  and  C7_7 
REMARK    4  A    between atoms: C6_6  and  C9_9 
REMARK    5  A    between atoms: C7_7  and  C10_10 
REMARK    6  A    between atoms: C8_8  and  C11_11 
REMARK    7  A    between atoms: C9_9  and  C11_11 
ROOT
HETATM    1  C6  UNL     1     -33.701  13.882  -3.563  1.00 20.00     0.001 C 
ENDROOT
BRANCH   1   2
HETATM    2  C5  UNL     1     -33.262  15.315  -3.885  1.00 20.00     0.000 C 
BRANCH   2   3
HETATM    3  C7  UNL     1     -33.350  16.257  -2.679  1.00 20.00     0.004 C 
BRANCH   3   4
HETATM    4  C10 UNL     1     -34.750  16.295  -2.036  1.00 20.00    -0.023 C 
HETATM    5  C2  UNL     1     -35.654  17.252  -2.817  1.00 20.00     0.009 C 
HETATM    6  C3  UNL     1     -34.704  16.713  -0.566  1.00 20.00     0.009 C 
ENDBRANCH   3   4
ENDBRANCH   2   3
ENDBRANCH   1   2
BRANCH   1   7
HETATM    7  C9  UNL     1     -34.859  13.393  -4.446  1.00 20.00     0.020 C 
BRANCH   7   8
HETATM    8  C11 UNL     1     -35.525  14.515  -5.258  1.00 20.00     0.082 C 
HETATM    9 CL12 UNL     1     -37.228  14.738  -4.728  1.00 20.00    -0.125 Cl
BRANCH   8  10
HETATM   10  C8  UNL     1     -35.530  14.246  -6.772  1.00 20.00     0.020 C 
BRANCH  10  11
HETATM   11  C4  UNL     1     -34.520  15.098  -7.546  1.00 20.00    -0.003 C 
HETATM   12  C1  UNL     1     -34.511  16.535  -7.047  1.00 20.00     0.005 C 
ENDBRANCH  10  11
ENDBRANCH   8  10
ENDBRANCH   7   8
ENDBRANCH   1   7
TORSDOF 7
ENDMDL
MODEL 9
REMARK VINA RESULT:      -4.3     10.234     11.733
REMARK  7 active torsions:
REMARK  status: ('A' for Active; 'I' for Inactive)
REMARK    1  A    between atoms: C4_4  and  C8_8 
REMARK    2  A    between atoms: C5_5  and  C6_6 
REMARK    3  A    between atoms: C5_5  and  C7_7 
REMARK    4  A    between atoms: C6_6  and  C9_9 
REMARK    5  A    between atoms: C7_7  and  C10_10 
REMARK    6  A    between atoms: C8_8  and  C11_11 
REMARK    7  A    between atoms: C9_9  and  C11_11 
ROOT
HETATM    1  C6  UNL     1     -34.094  15.936  -2.625  1.00 20.00     0.001 C 
ENDROOT
BRANCH   1   2
HETATM    2  C5  UNL     1     -34.517  16.481  -1.255  1.00 20.00     0.000 C 
BRANCH   2   3
HETATM    3  C7  UNL     1     -33.688  17.689  -0.804  1.00 20.00     0.004 C 
BRANCH   3   4
HETATM    4  C10 UNL     1     -34.249  18.377   0.455  1.00 20.00    -0.023 C 
HETATM    5  C2  UNL     1     -33.107  18.704   1.421  1.00 20.00     0.009 C 
HETATM    6  C3  UNL     1     -35.298  17.523   1.168  1.00 20.00     0.009 C 
ENDBRANCH   3   4
ENDBRANCH   2   3
ENDBRANCH   1   2
BRANCH   1   7
HETATM    7  C9  UNL     1     -35.160  15.042  -3.275  1.00 20.00     0.020 C 
BRANCH   7   8
HETATM    8  C11 UNL     1     -34.601  13.710  -3.801  1.00 20.00     0.082 C 
HETATM    9 CL12 UNL     1     -32.824  13.637  -3.539  1.00 20.00    -0.125 Cl
BRANCH   8  10
HETATM   10  C8  UNL     1     -34.869  13.491  -5.300  1.00 20.00     0.020 C 
BRANCH  10  11
HETATM   11  C4  UNL     1     -35.346  14.753  -6.024  1.00 20.00    -0.003 C 
HETATM   12  C1  UNL     1     -34.763  14.839  -7.427  1.00 20.00     0.005 C 
ENDBRANCH  10  11
ENDBRANCH   8  10
ENDBRANCH   7   8
ENDBRANCH   1   7
TORSDOF 7
ENDMDL
