MODEL 1
REMARK VINA RESULT:      -3.2      0.000      0.000
REMARK  1 active torsions:
REMARK  status: ('A' for Active; 'I' for Inactive)
REMARK    1  A    between atoms: C4_4  and  S6_6 
ROOT
HETATM    1  C1  UNL     1     -33.641   6.212   5.697  1.00 20.00     0.043 C 
HETATM    2  C2  UNL     1     -34.836   5.452   6.237  1.00 20.00     0.168 C 
HETATM    3  C3  UNL     1     -34.698   5.053   3.943  1.00 20.00     0.182 C 
HETATM    4  C4  UNL     1     -34.027   6.381   4.244  1.00 20.00     0.070 C 
HETATM    5  O5  UNL     1     -35.316   4.625   5.168  1.00 20.00    -0.390 OA
ENDROOT
BRANCH   4   6
HETATM    6  S6  UNL     1     -32.616   6.728   3.168  1.00 20.00    -0.175 SA
HETATM    7  H14 UNL     1     -32.462   5.467   2.744  1.00 20.00     0.102 HD
ENDBRANCH   4   6
TORSDOF 1
ENDMDL
MODEL 2
REMARK VINA RESULT:      -2.8     12.118     12.339
REMARK  1 active torsions:
REMARK  status: ('A' for Active; 'I' for Inactive)
REMARK    1  A    between atoms: C4_4  and  S6_6 
ROOT
HETATM    1  C1  UNL     1     -35.491  14.599  -3.602  1.00 20.00     0.043 C 
HETATM    2  C2  UNL     1     -35.229  13.371  -4.450  1.00 20.00     0.168 C 
HETATM    3  C3  UNL     1     -33.181  14.156  -3.656  1.00 20.00     0.182 C 
HETATM    4  C4  UNL     1     -34.162  15.314  -3.694  1.00 20.00     0.070 C 
HETATM    5  O5  UNL     1     -33.841  13.046  -4.288  1.00 20.00    -0.390 OA
ENDROOT
BRANCH   4   6
HETATM    6  S6  UNL     1     -33.904  16.511  -2.363  1.00 20.00    -0.175 SA
HETATM    7  H14 UNL     1     -35.204  16.737  -2.136  1.00 20.00     0.102 HD
ENDBRANCH   4   6
TORSDOF 1
ENDMDL
MODEL 3
REMARK VINA RESULT:      -2.8     12.079     12.446
REMARK  1 active torsions:
REMARK  status: ('A' for Active; 'I' for Inactive)
REMARK    1  A    between atoms: C4_4  and  S6_6 
ROOT
HETATM    1  C1  UNL     1     -33.804  14.945  -3.816  1.00 20.00     0.043 C 
HETATM    2  C2  UNL     1     -33.569  13.449  -3.866  1.00 20.00     0.168 C 
HETATM    3  C3  UNL     1     -35.843  13.839  -4.208  1.00 20.00     0.182 C 
HETATM    4  C4  UNL     1     -35.264  15.005  -3.426  1.00 20.00     0.070 C 
HETATM    5  O5  UNL     1     -34.801  12.852  -4.293  1.00 20.00    -0.390 OA
ENDROOT
BRANCH   4   6
HETATM    6  S6  UNL     1     -36.043  16.588  -3.825  1.00 20.00    -0.175 SA
HETATM    7  H14 UNL     1     -35.087  17.347  -3.273  1.00 20.00     0.102 HD
ENDBRANCH   4   6
TORSDOF 1
ENDMDL
MODEL 4
REMARK VINA RESULT:      -2.7     12.016     12.736
REMARK  1 active torsions:
REMARK  status: ('A' for Active; 'I' for Inactive)
REMARK    1  A    between atoms: C4_4  and  S6_6 
ROOT
HETATM    1  C1  UNL     1     -34.900  15.138  -5.121  1.00 20.00     0.043 C 
HETATM    2  C2  UNL     1     -34.972  13.753  -5.730  1.00 20.00     0.168 C 
HETATM    3  C3  UNL     1     -34.130  13.551  -3.564  1.00 20.00     0.182 C 
HETATM    4  C4  UNL     1     -33.826  14.949  -4.074  1.00 20.00     0.070 C 
HETATM    5  O5  UNL     1     -34.674  12.824  -4.679  1.00 20.00    -0.390 OA
ENDROOT
BRANCH   4   6
HETATM    6  S6  UNL     1     -33.866  16.206  -2.774  1.00 20.00    -0.175 SA
HETATM    7  H14 UNL     1     -32.736  16.818  -3.150  1.00 20.00     0.102 HD
ENDBRANCH   4   6
TORSDOF 1
ENDMDL
MODEL 5
REMARK VINA RESULT:      -2.7     12.416     13.029
REMARK  1 active torsions:
REMARK  status: ('A' for Active; 'I' for Inactive)
REMARK    1  A    between atoms: C4_4  and  S6_6 
ROOT
HETATM    1  C1  UNL     1     -33.688  14.937  -4.171  1.00 20.00     0.043 C 
HETATM    2  C2  UNL     1     -34.091  13.630  -3.519  1.00 20.00     0.168 C 
HETATM    3  C3  UNL     1     -34.972  13.668  -5.679  1.00 20.00     0.182 C 
HETATM    4  C4  UNL     1     -34.773  15.099  -5.212  1.00 20.00     0.070 C 
HETATM    5  O5  UNL     1     -34.701  12.830  -4.542  1.00 20.00    -0.390 OA
ENDROOT
BRANCH   4   6
HETATM    6  S6  UNL     1     -34.315  16.227  -6.550  1.00 20.00    -0.175 SA
HETATM    7  H14 UNL     1     -35.506  16.195  -7.161  1.00 20.00     0.102 HD
ENDBRANCH   4   6
TORSDOF 1
ENDMDL
MODEL 6
REMARK VINA RESULT:      -2.7     12.568     12.961
REMARK  1 active torsions:
REMARK  status: ('A' for Active; 'I' for Inactive)
REMARK    1  A    between atoms: C4_4  and  S6_6 
ROOT
HETATM    1  C1  UNL     1     -33.895  15.417  -4.721  1.00 20.00     0.043 C 
HETATM    2  C2  UNL     1     -33.168  14.568  -3.698  1.00 20.00     0.168 C 
HETATM    3  C3  UNL     1     -34.660  13.196  -4.854  1.00 20.00     0.182 C 
HETATM    4  C4  UNL     1     -35.168  14.626  -4.916  1.00 20.00     0.070 C 
HETATM    5  O5  UNL     1     -33.536  13.206  -3.958  1.00 20.00    -0.390 OA
ENDROOT
BRANCH   4   6
HETATM    6  S6  UNL     1     -36.018  15.013  -6.465  1.00 20.00    -0.175 SA
HETATM    7  H14 UNL     1     -37.171  15.382  -5.892  1.00 20.00     0.102 HD
ENDBRANCH   4   6
TORSDOF 1
ENDMDL
MODEL 7
REMARK VINA RESULT:      -2.6     12.233     12.534
REMARK  1 active torsions:
REMARK  status: ('A' for Active; 'I' for Inactive)
REMARK    1  A    between atoms: C4_4  and  S6_6 
ROOT
HETATM    1  C1  UNL     1     -35.501  15.195  -3.014  1.00 20.00     0.043 C 
HETATM    2  C2  UNL     1     -34.785  16.141  -2.071  1.00 20.00     0.168 C 
HETATM    3  C3  UNL     1     -33.213  15.266  -3.555  1.00 20.00     0.182 C 
HETATM    4  C4  UNL     1     -34.369  14.289  -3.444  1.00 20.00     0.070 C 
HETATM    5  O5  UNL     1     -33.447  16.285  -2.569  1.00 20.00    -0.390 OA
ENDROOT
BRANCH   4   6
HETATM    6  S6  UNL     1     -34.709  13.408  -4.987  1.00 20.00    -0.175 SA
HETATM    7  H14 UNL     1     -33.658  13.902  -5.653  1.00 20.00     0.102 HD
ENDBRANCH   4   6
TORSDOF 1
ENDMDL
MODEL 8
REMARK VINA RESULT:      -2.6      9.373      9.957
REMARK  1 active torsions:
REMARK  status: ('A' for Active; 'I' for Inactive)
REMARK    1  A    between atoms: C4_4  and  S6_6 
ROOT
HETATM    1  C1  UNL     1     -41.149   6.998  -1.165  1.00 20.00     0.043 C 
HETATM    2  C2  UNL     1     -40.693   5.818  -0.331  1.00 20.00     0.168 C 
HETATM    3  C3  UNL     1     -41.847   4.996  -2.184  1.00 20.00     0.182 C 
HETATM    4  C4  UNL     1     -42.331   6.406  -1.898  1.00 20.00     0.070 C 
HETATM    5  O5  UNL     1     -40.979   4.638  -1.095  1.00 20.00    -0.390 OA
ENDROOT
BRANCH   4   6
HETATM    6  S6  UNL     1     -42.775   7.324  -3.393  1.00 20.00    -0.175 SA
HETATM    7  H14 UNL     1     -41.559   7.851  -3.588  1.00 20.00     0.102 HD
ENDBRANCH   4   6
TORSDOF 1
ENDMDL
MODEL 9
REMARK VINA RESULT:      -2.6     12.205     12.448
REMARK  1 active torsions:
REMARK  status: ('A' for Active; 'I' for Inactive)
REMARK    1  A    between atoms: C4_4  and  S6_6 
ROOT
HETATM    1  C1  UNL     1     -34.009  14.272  -4.122  1.00 20.00     0.043 C 
HETATM    2  C2  UNL     1     -35.069  13.220  -4.378  1.00 20.00     0.168 C 
HETATM    3  C3  UNL     1     -36.105  15.078  -3.423  1.00 20.00     0.182 C 
HETATM    4  C4  UNL     1     -34.645  15.072  -3.008  1.00 20.00     0.070 C 
HETATM    5  O5  UNL     1     -36.336  13.838  -4.111  1.00 20.00    -0.390 OA
ENDROOT
BRANCH   4   6
HETATM    6  S6  UNL     1     -33.946  16.731  -2.832  1.00 20.00    -0.175 SA
HETATM    7  H14 UNL     1     -32.850  16.489  -3.563  1.00 20.00     0.102 HD
ENDBRANCH   4   6
TORSDOF 1
ENDMDL
