MODEL 1
REMARK VINA RESULT:      -5.2      0.000      0.000
REMARK  0 active torsions:
REMARK  status: ('A' for Active; 'I' for Inactive)
ROOT
HETATM    1  C1  UNL     1     -32.466   6.984   3.110  1.00 20.00     0.088 C 
HETATM    2  C2  UNL     1     -34.133   5.710   4.291  1.00 20.00    -0.044 C 
HETATM    3  C3  UNL     1     -33.458   5.972   3.169  1.00 20.00     0.098 C 
HETATM    4  C4  UNL     1     -35.188   4.672   4.454  1.00 20.00     0.063 C 
HETATM    5  C5  UNL     1     -33.894   6.351   5.616  1.00 20.00     0.202 C 
HETATM    6  C6  UNL     1     -35.073   4.394   5.939  1.00 20.00     0.172 C 
HETATM    7  N7  UNL     1     -31.653   7.812   3.059  1.00 20.00    -0.192 NA
HETATM    8  O8  UNL     1     -34.752   5.656   6.540  1.00 20.00    -0.387 OA
ENDROOT
TORSDOF 0
ENDMDL
MODEL 2
REMARK VINA RESULT:      -4.0     11.820     12.473
REMARK  0 active torsions:
REMARK  status: ('A' for Active; 'I' for Inactive)
ROOT
HETATM    1  C1  UNL     1     -37.567  14.824  -3.663  1.00 20.00     0.088 C 
HETATM    2  C2  UNL     1     -35.167  14.681  -3.797  1.00 20.00    -0.044 C 
HETATM    3  C3  UNL     1     -36.267  15.346  -3.436  1.00 20.00     0.098 C 
HETATM    4  C4  UNL     1     -33.764  15.141  -3.603  1.00 20.00     0.063 C 
HETATM    5  C5  UNL     1     -35.136  13.311  -4.387  1.00 20.00     0.202 C 
HETATM    6  C6  UNL     1     -33.043  13.810  -3.554  1.00 20.00     0.172 C 
HETATM    7  N7  UNL     1     -38.632  14.399  -3.848  1.00 20.00    -0.192 NA
HETATM    8  O8  UNL     1     -33.742  12.962  -4.474  1.00 20.00    -0.387 OA
ENDROOT
TORSDOF 0
ENDMDL
MODEL 3
REMARK VINA RESULT:      -3.9     11.908     12.587
REMARK  0 active torsions:
REMARK  status: ('A' for Active; 'I' for Inactive)
ROOT
HETATM    1  C1  UNL     1     -34.359  13.536  -4.121  1.00 20.00     0.088 C 
HETATM    2  C2  UNL     1     -34.480  15.542  -2.795  1.00 20.00    -0.044 C 
HETATM    3  C3  UNL     1     -33.765  14.539  -3.312  1.00 20.00     0.098 C 
HETATM    4  C4  UNL     1     -33.953  16.639  -1.937  1.00 20.00     0.063 C 
HETATM    5  C5  UNL     1     -35.928  15.797  -3.049  1.00 20.00     0.202 C 
HETATM    6  C6  UNL     1     -34.965  17.728  -2.231  1.00 20.00     0.172 C 
HETATM    7  N7  UNL     1     -34.841  12.714  -4.783  1.00 20.00    -0.192 NA
HETATM    8  O8  UNL     1     -36.217  17.050  -2.403  1.00 20.00    -0.387 OA
ENDROOT
TORSDOF 0
ENDMDL
MODEL 4
REMARK VINA RESULT:      -3.8     11.737     12.164
REMARK  0 active torsions:
REMARK  status: ('A' for Active; 'I' for Inactive)
ROOT
HETATM    1  C1  UNL     1     -34.388  16.555  -1.855  1.00 20.00     0.088 C 
HETATM    2  C2  UNL     1     -34.947  14.735  -3.329  1.00 20.00    -0.044 C 
HETATM    3  C3  UNL     1     -35.306  15.835  -2.662  1.00 20.00     0.098 C 
HETATM    4  C4  UNL     1     -35.833  13.912  -4.198  1.00 20.00     0.063 C 
HETATM    5  C5  UNL     1     -33.568  14.171  -3.395  1.00 20.00     0.202 C 
HETATM    6  C6  UNL     1     -34.809  13.302  -5.134  1.00 20.00     0.172 C 
HETATM    7  N7  UNL     1     -33.639  17.146  -1.194  1.00 20.00    -0.192 NA
HETATM    8  O8  UNL     1     -33.641  13.082  -4.332  1.00 20.00    -0.387 OA
ENDROOT
TORSDOF 0
ENDMDL
MODEL 5
REMARK VINA RESULT:      -3.7     13.058     14.489
REMARK  0 active torsions:
REMARK  status: ('A' for Active; 'I' for Inactive)
ROOT
HETATM    1  C1  UNL     1     -34.873  13.538  -5.198  1.00 20.00     0.088 C 
HETATM    2  C2  UNL     1     -34.294  15.697  -6.093  1.00 20.00    -0.044 C 
HETATM    3  C3  UNL     1     -34.959  14.543  -6.195  1.00 20.00     0.098 C 
HETATM    4  C4  UNL     1     -34.319  16.810  -7.082  1.00 20.00     0.063 C 
HETATM    5  C5  UNL     1     -33.468  16.121  -4.926  1.00 20.00     0.202 C 
HETATM    6  C6  UNL     1     -33.996  17.984  -6.181  1.00 20.00     0.172 C 
HETATM    7  N7  UNL     1     -34.805  12.713  -4.384  1.00 20.00    -0.192 NA
HETATM    8  O8  UNL     1     -33.074  17.477  -5.207  1.00 20.00    -0.387 OA
ENDROOT
TORSDOF 0
ENDMDL
MODEL 6
REMARK VINA RESULT:      -3.7      1.356      1.775
REMARK  0 active torsions:
REMARK  status: ('A' for Active; 'I' for Inactive)
ROOT
HETATM    1  C1  UNL     1     -32.264   7.564   2.786  1.00 20.00     0.088 C 
HETATM    2  C2  UNL     1     -33.465   6.096   4.270  1.00 20.00    -0.044 C 
HETATM    3  C3  UNL     1     -32.539   7.039   4.075  1.00 20.00     0.098 C 
HETATM    4  C4  UNL     1     -33.825   5.483   5.578  1.00 20.00     0.063 C 
HETATM    5  C5  UNL     1     -34.371   5.540   3.224  1.00 20.00     0.202 C 
HETATM    6  C6  UNL     1     -35.255   5.067   5.301  1.00 20.00     0.172 C 
HETATM    7  N7  UNL     1     -32.037   7.996   1.733  1.00 20.00    -0.192 NA
HETATM    8  O8  UNL     1     -35.278   4.669   3.924  1.00 20.00    -0.387 OA
ENDROOT
TORSDOF 0
ENDMDL
MODEL 7
REMARK VINA RESULT:      -3.6     10.203     10.930
REMARK  0 active torsions:
REMARK  status: ('A' for Active; 'I' for Inactive)
ROOT
HETATM    1  C1  UNL     1     -40.753   5.455  -0.652  1.00 20.00     0.088 C 
HETATM    2  C2  UNL     1     -41.632   3.952  -2.315  1.00 20.00    -0.044 C 
HETATM    3  C3  UNL     1     -40.791   4.197  -1.307  1.00 20.00     0.098 C 
HETATM    4  C4  UNL     1     -41.748   2.670  -3.064  1.00 20.00     0.063 C 
HETATM    5  C5  UNL     1     -42.673   4.891  -2.824  1.00 20.00     0.202 C 
HETATM    6  C6  UNL     1     -43.185   2.757  -3.535  1.00 20.00     0.172 C 
HETATM    7  N7  UNL     1     -40.719   6.483  -0.114  1.00 20.00    -0.192 NA
HETATM    8  O8  UNL     1     -43.416   4.146  -3.806  1.00 20.00    -0.387 OA
ENDROOT
TORSDOF 0
ENDMDL
MODEL 8
REMARK VINA RESULT:      -3.6     12.543     13.712
REMARK  0 active torsions:
REMARK  status: ('A' for Active; 'I' for Inactive)
ROOT
HETATM    1  C1  UNL     1     -34.623  13.745  -4.957  1.00 20.00     0.088 C 
HETATM    2  C2  UNL     1     -33.890  16.028  -4.740  1.00 20.00    -0.044 C 
HETATM    3  C3  UNL     1     -34.233  14.992  -5.510  1.00 20.00     0.098 C 
HETATM    4  C4  UNL     1     -33.467  17.372  -5.222  1.00 20.00     0.063 C 
HETATM    5  C5  UNL     1     -33.947  16.058  -3.250  1.00 20.00     0.202 C 
HETATM    6  C6  UNL     1     -33.864  18.226  -4.035  1.00 20.00     0.172 C 
HETATM    7  N7  UNL     1     -34.942  12.723  -4.508  1.00 20.00    -0.192 NA
HETATM    8  O8  UNL     1     -33.624  17.411  -2.880  1.00 20.00    -0.387 OA
ENDROOT
TORSDOF 0
ENDMDL
MODEL 9
REMARK VINA RESULT:      -3.6     11.922     12.398
REMARK  0 active torsions:
REMARK  status: ('A' for Active; 'I' for Inactive)
ROOT
HETATM    1  C1  UNL     1     -34.930  17.003  -1.297  1.00 20.00     0.088 C 
HETATM    2  C2  UNL     1     -34.670  15.320  -3.000  1.00 20.00    -0.044 C 
HETATM    3  C3  UNL     1     -34.136  16.115  -2.069  1.00 20.00     0.098 C 
HETATM    4  C4  UNL     1     -33.926  14.357  -3.858  1.00 20.00     0.063 C 
HETATM    5  C5  UNL     1     -36.126  15.185  -3.295  1.00 20.00     0.202 C 
HETATM    6  C6  UNL     1     -35.020  13.354  -4.159  1.00 20.00     0.172 C 
HETATM    7  N7  UNL     1     -35.576  17.730  -0.665  1.00 20.00    -0.192 NA
HETATM    8  O8  UNL     1     -36.226  14.123  -4.260  1.00 20.00    -0.387 OA
ENDROOT
TORSDOF 0
ENDMDL
