MODEL 1
REMARK VINA RESULT:      -4.2      0.000      0.000
REMARK  3 active torsions:
REMARK  status: ('A' for Active; 'I' for Inactive)
REMARK    1  A    between atoms: C1_1  and  C7_7 
REMARK       I    between atoms: C1_1  and  N8_8 
REMARK    2  A    between atoms: C5_5  and  C6_6 
REMARK    3  A    between atoms: C5_5  and  N8_8 
ROOT
HETATM    1  C1  UNL     1     -33.561   6.206   4.824  1.00 20.00     0.222 C 
HETATM    2  C4  UNL     1     -32.198   5.477   2.904  1.00 20.00     0.152 C 
HETATM    3  N8  UNL     1     -32.666   6.530   3.800  1.00 20.00    -0.355 N 
HETATM    4  O9  UNL     1     -33.597   6.819   5.897  1.00 20.00    -0.273 OA
ENDROOT
BRANCH   1   5
HETATM    5  C7  UNL     1     -34.546   5.060   4.576  1.00 20.00     0.070 C 
HETATM    6  C2  UNL     1     -35.755   5.570   3.792  1.00 20.00     0.019 C 
HETATM    7  C3  UNL     1     -35.011   4.443   5.898  1.00 20.00     0.019 C 
ENDBRANCH   1   5
BRANCH   3   8
HETATM    8  C5  UNL     1     -32.152   7.864   3.492  1.00 20.00     0.140 C 
BRANCH   8   9
HETATM    9  C6  UNL     1     -32.047   8.118   1.997  1.00 20.00     0.134 C 
HETATM   10 CL10 UNL     1     -32.499   9.793   1.593  1.00 20.00    -0.129 Cl
ENDBRANCH   8   9
ENDBRANCH   3   8
TORSDOF 3
ENDMDL
MODEL 2
REMARK VINA RESULT:      -3.9     11.096     11.960
REMARK  3 active torsions:
REMARK  status: ('A' for Active; 'I' for Inactive)
REMARK    1  A    between atoms: C1_1  and  C7_7 
REMARK       I    between atoms: C1_1  and  N8_8 
REMARK    2  A    between atoms: C5_5  and  C6_6 
REMARK    3  A    between atoms: C5_5  and  N8_8 
ROOT
HETATM    1  C1  UNL     1     -34.805  15.897  -2.708  1.00 20.00     0.222 C 
HETATM    2  C4  UNL     1     -32.729  15.002  -3.689  1.00 20.00     0.152 C 
HETATM    3  N8  UNL     1     -34.144  14.855  -3.365  1.00 20.00    -0.355 N 
HETATM    4  O9  UNL     1     -36.010  16.126  -2.861  1.00 20.00    -0.273 OA
ENDROOT
BRANCH   1   5
HETATM    5  C7  UNL     1     -33.989  16.763  -1.742  1.00 20.00     0.070 C 
HETATM    6  C2  UNL     1     -34.702  16.857  -0.394  1.00 20.00     0.019 C 
HETATM    7  C3  UNL     1     -33.779  18.168  -2.314  1.00 20.00     0.019 C 
ENDBRANCH   1   5
BRANCH   3   8
HETATM    8  C5  UNL     1     -34.728  13.570  -3.749  1.00 20.00     0.140 C 
BRANCH   8   9
HETATM    9  C6  UNL     1     -34.725  13.355  -5.254  1.00 20.00     0.134 C 
HETATM   10 CL10 UNL     1     -35.606  14.656  -6.094  1.00 20.00    -0.129 Cl
ENDBRANCH   8   9
ENDBRANCH   3   8
TORSDOF 3
ENDMDL
MODEL 3
REMARK VINA RESULT:      -3.8     11.695     12.554
REMARK  3 active torsions:
REMARK  status: ('A' for Active; 'I' for Inactive)
REMARK    1  A    between atoms: C1_1  and  C7_7 
REMARK       I    between atoms: C1_1  and  N8_8 
REMARK    2  A    between atoms: C5_5  and  C6_6 
REMARK    3  A    between atoms: C5_5  and  N8_8 
ROOT
HETATM    1  C1  UNL     1     -33.938  15.876  -4.483  1.00 20.00     0.222 C 
HETATM    2  C4  UNL     1     -35.963  16.309  -3.144  1.00 20.00     0.152 C 
HETATM    3  N8  UNL     1     -34.509  16.284  -3.273  1.00 20.00    -0.355 N 
HETATM    4  O9  UNL     1     -32.850  16.303  -4.886  1.00 20.00    -0.273 OA
ENDROOT
BRANCH   1   5
HETATM    5  C7  UNL     1     -34.697  14.837  -5.315  1.00 20.00     0.070 C 
HETATM    6  C2  UNL     1     -34.346  13.428  -4.838  1.00 20.00     0.019 C 
HETATM    7  C3  UNL     1     -34.360  14.977  -6.803  1.00 20.00     0.019 C 
ENDBRANCH   1   5
BRANCH   3   8
HETATM    8  C5  UNL     1     -33.783  16.672  -2.064  1.00 20.00     0.140 C 
BRANCH   8   9
HETATM    9  C6  UNL     1     -34.660  16.640  -0.823  1.00 20.00     0.134 C 
HETATM   10 CL10 UNL     1     -34.151  17.872   0.359  1.00 20.00    -0.129 Cl
ENDBRANCH   8   9
ENDBRANCH   3   8
TORSDOF 3
ENDMDL
MODEL 4
REMARK VINA RESULT:      -3.7     11.695     12.348
REMARK  3 active torsions:
REMARK  status: ('A' for Active; 'I' for Inactive)
REMARK    1  A    between atoms: C1_1  and  C7_7 
REMARK       I    between atoms: C1_1  and  N8_8 
REMARK    2  A    between atoms: C5_5  and  C6_6 
REMARK    3  A    between atoms: C5_5  and  N8_8 
ROOT
HETATM    1  C1  UNL     1     -34.174  15.209  -3.507  1.00 20.00     0.222 C 
HETATM    2  C4  UNL     1     -36.510  14.501  -3.851  1.00 20.00     0.152 C 
HETATM    3  N8  UNL     1     -35.105  14.469  -4.243  1.00 20.00    -0.355 N 
HETATM    4  O9  UNL     1     -32.994  14.865  -3.385  1.00 20.00    -0.273 OA
ENDROOT
BRANCH   1   5
HETATM    5  C7  UNL     1     -34.653  16.511  -2.854  1.00 20.00     0.070 C 
HETATM    6  C2  UNL     1     -33.835  17.690  -3.380  1.00 20.00     0.019 C 
HETATM    7  C3  UNL     1     -34.529  16.434  -1.330  1.00 20.00     0.019 C 
ENDBRANCH   1   5
BRANCH   3   8
HETATM    8  C5  UNL     1     -34.821  13.662  -5.430  1.00 20.00     0.140 C 
BRANCH   8   9
HETATM    9  C6  UNL     1     -35.229  14.358  -6.718  1.00 20.00     0.134 C 
HETATM   10 CL10 UNL     1     -34.202  15.777  -7.040  1.00 20.00    -0.129 Cl
ENDBRANCH   8   9
ENDBRANCH   3   8
TORSDOF 3
ENDMDL
MODEL 5
REMARK VINA RESULT:      -3.6     11.686     12.904
REMARK  3 active torsions:
REMARK  status: ('A' for Active; 'I' for Inactive)
REMARK    1  A    between atoms: C1_1  and  C7_7 
REMARK       I    between atoms: C1_1  and  N8_8 
REMARK    2  A    between atoms: C5_5  and  C6_6 
REMARK    3  A    between atoms: C5_5  and  N8_8 
ROOT
HETATM    1  C1  UNL     1     -35.005  15.255  -5.031  1.00 20.00     0.222 C 
HETATM    2  C4  UNL     1     -32.922  15.058  -3.728  1.00 20.00     0.152 C 
HETATM    3  N8  UNL     1     -34.353  15.333  -3.796  1.00 20.00    -0.355 N 
HETATM    4  O9  UNL     1     -36.195  14.937  -5.139  1.00 20.00    -0.273 OA
ENDROOT
BRANCH   1   5
HETATM    5  C7  UNL     1     -34.201  15.607  -6.286  1.00 20.00     0.070 C 
HETATM    6  C2  UNL     1     -34.292  17.108  -6.561  1.00 20.00     0.019 C 
HETATM    7  C3  UNL     1     -34.714  14.828  -7.500  1.00 20.00     0.019 C 
ENDBRANCH   1   5
BRANCH   3   8
HETATM    8  C5  UNL     1     -34.963  15.707  -2.521  1.00 20.00     0.140 C 
BRANCH   8   9
HETATM    9  C6  UNL     1     -34.091  16.656  -1.714  1.00 20.00     0.134 C 
HETATM   10 CL10 UNL     1     -34.790  16.965  -0.105  1.00 20.00    -0.129 Cl
ENDBRANCH   8   9
ENDBRANCH   3   8
TORSDOF 3
ENDMDL
MODEL 6
REMARK VINA RESULT:      -3.6     11.961     12.650
REMARK  3 active torsions:
REMARK  status: ('A' for Active; 'I' for Inactive)
REMARK    1  A    between atoms: C1_1  and  C7_7 
REMARK       I    between atoms: C1_1  and  N8_8 
REMARK    2  A    between atoms: C5_5  and  C6_6 
REMARK    3  A    between atoms: C5_5  and  N8_8 
ROOT
HETATM    1  C1  UNL     1     -34.227  15.648  -4.313  1.00 20.00     0.222 C 
HETATM    2  C4  UNL     1     -34.570  13.298  -4.977  1.00 20.00     0.152 C 
HETATM    3  N8  UNL     1     -34.346  14.696  -5.332  1.00 20.00    -0.355 N 
HETATM    4  O9  UNL     1     -33.541  16.669  -4.430  1.00 20.00    -0.273 OA
ENDROOT
BRANCH   1   5
HETATM    5  C7  UNL     1     -35.010  15.408  -3.018  1.00 20.00     0.070 C 
HETATM    6  C2  UNL     1     -36.471  15.813  -3.208  1.00 20.00     0.019 C 
HETATM    7  C3  UNL     1     -34.401  16.201  -1.858  1.00 20.00     0.019 C 
ENDBRANCH   1   5
BRANCH   3   8
HETATM    8  C5  UNL     1     -34.302  14.961  -6.769  1.00 20.00     0.140 C 
BRANCH   8   9
HETATM    9  C6  UNL     1     -35.536  14.449  -7.493  1.00 20.00     0.134 C 
HETATM   10 CL10 UNL     1     -37.020  15.196  -6.850  1.00 20.00    -0.129 Cl
ENDBRANCH   8   9
ENDBRANCH   3   8
TORSDOF 3
ENDMDL
MODEL 7
REMARK VINA RESULT:      -3.5     11.521     13.557
REMARK  3 active torsions:
REMARK  status: ('A' for Active; 'I' for Inactive)
REMARK    1  A    between atoms: C1_1  and  C7_7 
REMARK       I    between atoms: C1_1  and  N8_8 
REMARK    2  A    between atoms: C5_5  and  C6_6 
REMARK    3  A    between atoms: C5_5  and  N8_8 
ROOT
HETATM    1  C1  UNL     1     -34.156  16.475  -5.294  1.00 20.00     0.222 C 
HETATM    2  C4  UNL     1     -36.338  16.294  -4.161  1.00 20.00     0.152 C 
HETATM    3  N8  UNL     1     -34.908  16.009  -4.210  1.00 20.00    -0.355 N 
HETATM    4  O9  UNL     1     -32.959  16.770  -5.199  1.00 20.00    -0.273 OA
ENDROOT
BRANCH   1   5
HETATM    5  C7  UNL     1     -34.857  16.591  -6.651  1.00 20.00     0.070 C 
HETATM    6  C2  UNL     1     -34.609  15.330  -7.477  1.00 20.00     0.019 C 
HETATM    7  C3  UNL     1     -34.359  17.819  -7.419  1.00 20.00     0.019 C 
ENDBRANCH   1   5
BRANCH   3   8
HETATM    8  C5  UNL     1     -34.407  15.207  -3.094  1.00 20.00     0.140 C 
BRANCH   8   9
HETATM    9  C6  UNL     1     -33.831  13.875  -3.545  1.00 20.00     0.134 C 
HETATM   10 CL10 UNL     1     -34.944  13.031  -4.651  1.00 20.00    -0.129 Cl
ENDBRANCH   8   9
ENDBRANCH   3   8
TORSDOF 3
ENDMDL
MODEL 8
REMARK VINA RESULT:      -3.5     11.929     13.029
REMARK  3 active torsions:
REMARK  status: ('A' for Active; 'I' for Inactive)
REMARK    1  A    between atoms: C1_1  and  C7_7 
REMARK       I    between atoms: C1_1  and  N8_8 
REMARK    2  A    between atoms: C5_5  and  C6_6 
REMARK    3  A    between atoms: C5_5  and  N8_8 
ROOT
HETATM    1  C1  UNL     1     -35.617  15.796  -3.822  1.00 20.00     0.222 C 
HETATM    2  C4  UNL     1     -35.558  17.819  -5.229  1.00 20.00     0.152 C 
HETATM    3  N8  UNL     1     -35.954  16.430  -5.022  1.00 20.00    -0.355 N 
HETATM    4  O9  UNL     1     -36.306  14.898  -3.324  1.00 20.00    -0.273 OA
ENDROOT
BRANCH   1   5
HETATM    5  C7  UNL     1     -34.323  16.229  -3.124  1.00 20.00     0.070 C 
HETATM    6  C2  UNL     1     -33.190  15.269  -3.483  1.00 20.00     0.019 C 
HETATM    7  C3  UNL     1     -34.508  16.266  -1.605  1.00 20.00     0.019 C 
ENDBRANCH   1   5
BRANCH   3   8
HETATM    8  C5  UNL     1     -36.656  15.821  -6.151  1.00 20.00     0.140 C 
BRANCH   8   9
HETATM    9  C6  UNL     1     -35.886  14.659  -6.758  1.00 20.00     0.134 C 
HETATM   10 CL10 UNL     1     -34.214  15.128  -7.153  1.00 20.00    -0.129 Cl
ENDBRANCH   8   9
ENDBRANCH   3   8
TORSDOF 3
ENDMDL
MODEL 9
REMARK VINA RESULT:      -3.5     11.903     12.758
REMARK  3 active torsions:
REMARK  status: ('A' for Active; 'I' for Inactive)
REMARK    1  A    between atoms: C1_1  and  C7_7 
REMARK       I    between atoms: C1_1  and  N8_8 
REMARK    2  A    between atoms: C5_5  and  C6_6 
REMARK    3  A    between atoms: C5_5  and  N8_8 
ROOT
HETATM    1  C1  UNL     1     -33.922  17.491  -2.931  1.00 20.00     0.222 C 
HETATM    2  C4  UNL     1     -33.002  15.321  -3.653  1.00 20.00     0.152 C 
HETATM    3  N8  UNL     1     -33.917  16.440  -3.855  1.00 20.00    -0.355 N 
HETATM    4  O9  UNL     1     -34.206  18.653  -3.244  1.00 20.00    -0.273 OA
ENDROOT
BRANCH   1   5
HETATM    5  C7  UNL     1     -33.586  17.162  -1.473  1.00 20.00     0.070 C 
HETATM    6  C2  UNL     1     -34.822  16.610  -0.764  1.00 20.00     0.019 C 
HETATM    7  C3  UNL     1     -33.080  18.406  -0.736  1.00 20.00     0.019 C 
ENDBRANCH   1   5
BRANCH   3   8
HETATM    8  C5  UNL     1     -34.783  16.317  -5.026  1.00 20.00     0.140 C 
BRANCH   8   9
HETATM    9  C6  UNL     1     -36.254  16.221  -4.656  1.00 20.00     0.134 C 
HETATM   10 CL10 UNL     1     -36.552  14.866  -3.539  1.00 20.00    -0.129 Cl
ENDBRANCH   8   9
ENDBRANCH   3   8
TORSDOF 3
ENDMDL
