MODEL 1
REMARK VINA RESULT:      -4.5      0.000      0.000
REMARK  2 active torsions:
REMARK  status: ('A' for Active; 'I' for Inactive)
REMARK    1  A    between atoms: C3_3  and  C6_6 
REMARK    2  A    between atoms: C5_5  and  C6_6 
ROOT
HETATM    1  C6  UNL     1     -33.987   6.523   4.186  1.00 20.00     0.086 C 
HETATM    2 CL7  UNL     1     -35.056   5.288   3.457  1.00 20.00    -0.125 Cl
ENDROOT
BRANCH   1   3
HETATM    3  C3  UNL     1     -32.650   6.452   3.507  1.00 20.00     0.004 A 
HETATM    4  C1  UNL     1     -32.264   7.485   2.485  1.00 20.00     0.006 A 
HETATM    5  C2  UNL     1     -31.584   7.463   3.825  1.00 20.00     0.006 A 
ENDBRANCH   1   3
BRANCH   1   6
HETATM    6  C5  UNL     1     -33.860   6.315   5.700  1.00 20.00     0.016 C 
HETATM    7  C4  UNL     1     -34.662   5.130   6.220  1.00 20.00     0.006 C 
ENDBRANCH   1   6
TORSDOF 2
ENDMDL
MODEL 2
REMARK VINA RESULT:      -4.4      0.997      3.492
REMARK  2 active torsions:
REMARK  status: ('A' for Active; 'I' for Inactive)
REMARK    1  A    between atoms: C3_3  and  C6_6 
REMARK    2  A    between atoms: C5_5  and  C6_6 
ROOT
HETATM    1  C6  UNL     1     -33.701   5.461   3.963  1.00 20.00     0.086 C 
HETATM    2 CL7  UNL     1     -34.377   5.245   2.321  1.00 20.00    -0.125 Cl
ENDROOT
BRANCH   1   3
HETATM    3  C3  UNL     1     -34.825   5.362   4.954  1.00 20.00     0.004 A 
HETATM    4  C1  UNL     1     -34.925   4.174   5.870  1.00 20.00     0.006 A 
HETATM    5  C2  UNL     1     -34.555   5.521   6.424  1.00 20.00     0.006 A 
ENDBRANCH   1   3
BRANCH   1   6
HETATM    6  C5  UNL     1     -32.963   6.799   4.083  1.00 20.00     0.016 C 
HETATM    7  C4  UNL     1     -32.206   7.190   2.821  1.00 20.00     0.006 C 
ENDBRANCH   1   6
TORSDOF 2
ENDMDL
MODEL 3
REMARK VINA RESULT:      -4.4      1.664      1.929
REMARK  2 active torsions:
REMARK  status: ('A' for Active; 'I' for Inactive)
REMARK    1  A    between atoms: C3_3  and  C6_6 
REMARK    2  A    between atoms: C5_5  and  C6_6 
ROOT
HETATM    1  C6  UNL     1     -33.689   5.857   5.018  1.00 20.00     0.086 C 
HETATM    2 CL7  UNL     1     -33.857   6.917   6.450  1.00 20.00    -0.125 Cl
ENDROOT
BRANCH   1   3
HETATM    3  C3  UNL     1     -33.377   6.716   3.827  1.00 20.00     0.004 A 
HETATM    4  C1  UNL     1     -31.962   7.141   3.548  1.00 20.00     0.006 A 
HETATM    5  C2  UNL     1     -32.637   6.142   2.651  1.00 20.00     0.006 A 
ENDBRANCH   1   3
BRANCH   1   6
HETATM    6  C5  UNL     1     -34.959   5.027   4.796  1.00 20.00     0.016 C 
HETATM    7  C4  UNL     1     -35.169   3.945   5.846  1.00 20.00     0.006 C 
ENDBRANCH   1   6
TORSDOF 2
ENDMDL
MODEL 4
REMARK VINA RESULT:      -4.0      1.827      3.812
REMARK  2 active torsions:
REMARK  status: ('A' for Active; 'I' for Inactive)
REMARK    1  A    between atoms: C3_3  and  C6_6 
REMARK    2  A    between atoms: C5_5  and  C6_6 
ROOT
HETATM    1  C6  UNL     1     -34.180   6.433   5.218  1.00 20.00     0.086 C 
HETATM    2 CL7  UNL     1     -33.210   7.177   6.525  1.00 20.00    -0.125 Cl
ENDROOT
BRANCH   1   3
HETATM    3  C3  UNL     1     -34.141   4.942   5.391  1.00 20.00     0.004 A 
HETATM    4  C1  UNL     1     -35.173   4.251   6.239  1.00 20.00     0.006 A 
HETATM    5  C2  UNL     1     -35.188   4.077   4.746  1.00 20.00     0.006 A 
ENDBRANCH   1   3
BRANCH   1   6
HETATM    6  C5  UNL     1     -33.658   6.853   3.839  1.00 20.00     0.016 C 
HETATM    7  C4  UNL     1     -32.358   6.164   3.447  1.00 20.00     0.006 C 
ENDBRANCH   1   6
TORSDOF 2
ENDMDL
MODEL 5
REMARK VINA RESULT:      -3.8      1.841      3.199
REMARK  2 active torsions:
REMARK  status: ('A' for Active; 'I' for Inactive)
REMARK    1  A    between atoms: C3_3  and  C6_6 
REMARK    2  A    between atoms: C5_5  and  C6_6 
ROOT
HETATM    1  C6  UNL     1     -33.738   6.387   4.069  1.00 20.00     0.086 C 
HETATM    2 CL7  UNL     1     -32.185   6.533   3.194  1.00 20.00    -0.125 Cl
ENDROOT
BRANCH   1   3
HETATM    3  C3  UNL     1     -33.446   6.000   5.490  1.00 20.00     0.004 A 
HETATM    4  C1  UNL     1     -33.918   6.867   6.624  1.00 20.00     0.006 A 
HETATM    5  C2  UNL     1     -34.553   5.525   6.389  1.00 20.00     0.006 A 
ENDBRANCH   1   3
BRANCH   1   6
HETATM    6  C5  UNL     1     -34.660   5.368   3.388  1.00 20.00     0.016 C 
HETATM    7  C4  UNL     1     -36.125   5.782   3.386  1.00 20.00     0.006 C 
ENDBRANCH   1   6
TORSDOF 2
ENDMDL
MODEL 6
REMARK VINA RESULT:      -3.5      2.199      4.097
REMARK  2 active torsions:
REMARK  status: ('A' for Active; 'I' for Inactive)
REMARK    1  A    between atoms: C3_3  and  C6_6 
REMARK    2  A    between atoms: C5_5  and  C6_6 
ROOT
HETATM    1  C6  UNL     1     -32.369   7.600   3.166  1.00 20.00     0.086 C 
HETATM    2 CL7  UNL     1     -30.991   7.914   4.263  1.00 20.00    -0.125 Cl
ENDROOT
BRANCH   1   3
HETATM    3  C3  UNL     1     -32.752   6.153   3.290  1.00 20.00     0.004 A 
HETATM    4  C1  UNL     1     -33.799   5.729   4.283  1.00 20.00     0.006 A 
HETATM    5  C2  UNL     1     -34.097   5.681   2.810  1.00 20.00     0.006 A 
ENDBRANCH   1   3
BRANCH   1   6
HETATM    6  C5  UNL     1     -32.015   7.965   1.720  1.00 20.00     0.016 C 
HETATM    7  C4  UNL     1     -32.341   9.408   1.361  1.00 20.00     0.006 C 
ENDBRANCH   1   6
TORSDOF 2
ENDMDL
MODEL 7
REMARK VINA RESULT:      -3.4     11.171     11.704
REMARK  2 active torsions:
REMARK  status: ('A' for Active; 'I' for Inactive)
REMARK    1  A    between atoms: C3_3  and  C6_6 
REMARK    2  A    between atoms: C5_5  and  C6_6 
ROOT
HETATM    1  C6  UNL     1     -34.745  15.750  -3.401  1.00 20.00     0.086 C 
HETATM    2 CL7  UNL     1     -36.476  16.139  -3.169  1.00 20.00    -0.125 Cl
ENDROOT
BRANCH   1   3
HETATM    3  C3  UNL     1     -34.593  14.256  -3.413  1.00 20.00     0.004 A 
HETATM    4  C1  UNL     1     -34.400  13.524  -4.713  1.00 20.00     0.006 A 
HETATM    5  C2  UNL     1     -33.264  13.632  -3.735  1.00 20.00     0.006 A 
ENDBRANCH   1   3
BRANCH   1   6
HETATM    6  C5  UNL     1     -33.885  16.393  -2.308  1.00 20.00     0.016 C 
HETATM    7  C4  UNL     1     -34.617  16.572  -0.985  1.00 20.00     0.006 C 
ENDBRANCH   1   6
TORSDOF 2
ENDMDL
MODEL 8
REMARK VINA RESULT:      -3.4     11.415     12.243
REMARK  2 active torsions:
REMARK  status: ('A' for Active; 'I' for Inactive)
REMARK    1  A    between atoms: C3_3  and  C6_6 
REMARK    2  A    between atoms: C5_5  and  C6_6 
ROOT
HETATM    1  C6  UNL     1     -34.441  16.284  -3.403  1.00 20.00     0.086 C 
HETATM    2 CL7  UNL     1     -33.172  16.368  -4.662  1.00 20.00    -0.125 Cl
ENDROOT
BRANCH   1   3
HETATM    3  C3  UNL     1     -33.789  16.466  -2.062  1.00 20.00     0.004 A 
HETATM    4  C1  UNL     1     -33.847  17.797  -1.365  1.00 20.00     0.006 A 
HETATM    5  C2  UNL     1     -34.630  16.632  -0.827  1.00 20.00     0.006 A 
ENDBRANCH   1   3
BRANCH   1   6
HETATM    6  C5  UNL     1     -35.206  14.958  -3.480  1.00 20.00     0.016 C 
HETATM    7  C4  UNL     1     -34.303  13.745  -3.658  1.00 20.00     0.006 C 
ENDBRANCH   1   6
TORSDOF 2
ENDMDL
MODEL 9
REMARK VINA RESULT:      -3.3     11.237     12.384
REMARK  2 active torsions:
REMARK  status: ('A' for Active; 'I' for Inactive)
REMARK    1  A    between atoms: C3_3  and  C6_6 
REMARK    2  A    between atoms: C5_5  and  C6_6 
ROOT
HETATM    1  C6  UNL     1     -34.457  15.648  -3.392  1.00 20.00     0.086 C 
HETATM    2 CL7  UNL     1     -34.489  16.156  -1.676  1.00 20.00    -0.125 Cl
ENDROOT
BRANCH   1   3
HETATM    3  C3  UNL     1     -34.549  14.150  -3.443  1.00 20.00     0.004 A 
HETATM    4  C1  UNL     1     -35.598  13.484  -4.290  1.00 20.00     0.006 A 
HETATM    5  C2  UNL     1     -34.151  13.409  -4.689  1.00 20.00     0.006 A 
ENDBRANCH   1   3
BRANCH   1   6
HETATM    6  C5  UNL     1     -33.193  16.157  -4.093  1.00 20.00     0.016 C 
HETATM    7  C4  UNL     1     -33.481  17.052  -5.291  1.00 20.00     0.006 C 
ENDBRANCH   1   6
TORSDOF 2
ENDMDL
