MODEL 1
REMARK VINA RESULT:      -4.3      0.000      0.000
REMARK  3 active torsions:
REMARK  status: ('A' for Active; 'I' for Inactive)
REMARK    1  A    between atoms: C2_2  and  C8_8 
REMARK    2  A    between atoms: C7_7  and  C9_9 
REMARK    3  A    between atoms: C8_8  and  N10_10 
ROOT
HETATM    1  C3  UNL     1     -34.148  13.632  -4.057  1.00 20.00     0.031 C 
HETATM    2  C4  UNL     1     -34.664  13.986  -5.448  1.00 20.00     0.009 C 
HETATM    3  C5  UNL     1     -34.385  14.775  -3.069  1.00 20.00     0.272 C 
HETATM    4  C6  UNL     1     -34.327  16.416  -4.853  1.00 20.00     0.278 C 
HETATM    5  C7  UNL     1     -34.084  15.326  -5.912  1.00 20.00     0.028 C 
HETATM    6  N10 UNL     1     -33.776  16.022  -3.548  1.00 20.00     0.092 N 
ENDROOT
BRANCH   6   7
HETATM    7  C8  UNL     1     -33.965  17.093  -2.569  1.00 20.00     0.299 C 
BRANCH   7   8
HETATM    8  C2  UNL     1     -34.689  16.538  -1.385  1.00 20.00    -0.007 C 
HETATM    9  C1  UNL     1     -34.661  17.092  -0.167  1.00 20.00     0.008 C 
ENDBRANCH   7   8
ENDBRANCH   6   7
BRANCH   5  10
HETATM   10  C9  UNL     1     -34.679  15.735  -7.258  1.00 20.00     0.121 C 
HETATM   11 CL11 UNL     1     -35.659  14.415  -7.918  1.00 20.00    -0.130 Cl
ENDBRANCH   5  10
TORSDOF 3
ENDMDL
MODEL 2
REMARK VINA RESULT:      -4.3      1.058      1.058
REMARK  3 active torsions:
REMARK  status: ('A' for Active; 'I' for Inactive)
REMARK    1  A    between atoms: C2_2  and  C8_8 
REMARK    2  A    between atoms: C7_7  and  C9_9 
REMARK    3  A    between atoms: C8_8  and  N10_10 
ROOT
HETATM    1  C3  UNL     1     -34.442  13.451  -4.430  1.00 20.00     0.031 C 
HETATM    2  C4  UNL     1     -34.974  13.930  -5.776  1.00 20.00     0.009 C 
HETATM    3  C5  UNL     1     -34.513  14.558  -3.377  1.00 20.00     0.272 C 
HETATM    4  C6  UNL     1     -34.352  16.276  -5.082  1.00 20.00     0.278 C 
HETATM    5  C7  UNL     1     -34.272  15.224  -6.201  1.00 20.00     0.028 C 
HETATM    6  N10 UNL     1     -33.793  15.758  -3.824  1.00 20.00     0.092 N 
ENDROOT
BRANCH   6   7
HETATM    7  C8  UNL     1     -33.825  16.789  -2.787  1.00 20.00     0.299 C 
BRANCH   7   8
HETATM    8  C2  UNL     1     -34.559  16.254  -1.601  1.00 20.00    -0.007 C 
HETATM    9  C1  UNL     1     -34.681  16.911  -0.441  1.00 20.00     0.008 C 
ENDBRANCH   7   8
ENDBRANCH   6   7
BRANCH   5  10
HETATM   10  C9  UNL     1     -34.875  15.764  -7.497  1.00 20.00     0.121 C 
HETATM   11 CL11 UNL     1     -34.484  17.482  -7.683  1.00 20.00    -0.130 Cl
ENDBRANCH   5  10
TORSDOF 3
ENDMDL
MODEL 3
REMARK VINA RESULT:      -4.2     11.416     12.721
REMARK  3 active torsions:
REMARK  status: ('A' for Active; 'I' for Inactive)
REMARK    1  A    between atoms: C2_2  and  C8_8 
REMARK    2  A    between atoms: C7_7  and  C9_9 
REMARK    3  A    between atoms: C8_8  and  N10_10 
ROOT
HETATM    1  C3  UNL     1     -34.618   5.270   2.602  1.00 20.00     0.031 C 
HETATM    2  C4  UNL     1     -34.772   4.943   4.083  1.00 20.00     0.009 C 
HETATM    3  C5  UNL     1     -33.238   5.857   2.302  1.00 20.00     0.272 C 
HETATM    4  C6  UNL     1     -33.045   6.721   4.560  1.00 20.00     0.278 C 
HETATM    5  C7  UNL     1     -34.427   6.164   4.942  1.00 20.00     0.028 C 
HETATM    6  N10 UNL     1     -32.979   7.044   3.127  1.00 20.00     0.092 N 
ENDROOT
BRANCH   6   7
HETATM    7  C8  UNL     1     -31.678   7.625   2.793  1.00 20.00     0.299 C 
BRANCH   7   8
HETATM    8  C2  UNL     1     -31.823   8.443   1.551  1.00 20.00    -0.007 C 
HETATM    9  C1  UNL     1     -32.472   9.612   1.498  1.00 20.00     0.008 C 
ENDBRANCH   7   8
ENDBRANCH   6   7
BRANCH   5  10
HETATM   10  C9  UNL     1     -34.478   5.810   6.428  1.00 20.00     0.121 C 
HETATM   11 CL11 UNL     1     -35.270   4.242   6.654  1.00 20.00    -0.130 Cl
ENDBRANCH   5  10
TORSDOF 3
ENDMDL
MODEL 4
REMARK VINA RESULT:      -4.1     12.104     13.542
REMARK  3 active torsions:
REMARK  status: ('A' for Active; 'I' for Inactive)
REMARK    1  A    between atoms: C2_2  and  C8_8 
REMARK    2  A    between atoms: C7_7  and  C9_9 
REMARK    3  A    between atoms: C8_8  and  N10_10 
ROOT
HETATM    1  C3  UNL     1     -40.704   5.788  -0.479  1.00 20.00     0.031 C 
HETATM    2  C4  UNL     1     -41.206   7.020  -1.225  1.00 20.00     0.009 C 
HETATM    3  C5  UNL     1     -40.993   4.507  -1.264  1.00 20.00     0.272 C 
HETATM    4  C6  UNL     1     -42.900   5.531  -2.357  1.00 20.00     0.278 C 
HETATM    5  C7  UNL     1     -42.681   6.855  -1.605  1.00 20.00     0.028 C 
HETATM    6  N10 UNL     1     -42.424   4.386  -1.568  1.00 20.00     0.092 N 
ENDROOT
BRANCH   6   7
HETATM    7  C8  UNL     1     -42.693   3.132  -2.272  1.00 20.00     0.299 C 
BRANCH   7   8
HETATM    8  C2  UNL     1     -41.493   2.771  -3.086  1.00 20.00    -0.007 C 
HETATM    9  C1  UNL     1     -41.431   1.705  -3.892  1.00 20.00     0.008 C 
ENDBRANCH   7   8
ENDBRANCH   6   7
BRANCH   5  10
HETATM   10  C9  UNL     1     -43.158   8.041  -2.443  1.00 20.00     0.121 C 
HETATM   11 CL11 UNL     1     -42.374   8.020  -4.031  1.00 20.00    -0.130 Cl
ENDBRANCH   5  10
TORSDOF 3
ENDMDL
MODEL 5
REMARK VINA RESULT:      -4.0     11.510     12.769
REMARK  3 active torsions:
REMARK  status: ('A' for Active; 'I' for Inactive)
REMARK    1  A    between atoms: C2_2  and  C8_8 
REMARK    2  A    between atoms: C7_7  and  C9_9 
REMARK    3  A    between atoms: C8_8  and  N10_10 
ROOT
HETATM    1  C3  UNL     1     -40.686   6.013  -0.515  1.00 20.00     0.031 C 
HETATM    2  C4  UNL     1     -41.291   4.638  -0.781  1.00 20.00     0.009 C 
HETATM    3  C5  UNL     1     -41.600   7.130  -1.019  1.00 20.00     0.272 C 
HETATM    4  C6  UNL     1     -42.561   5.673  -2.702  1.00 20.00     0.278 C 
HETATM    5  C7  UNL     1     -41.674   4.497  -2.258  1.00 20.00     0.028 C 
HETATM    6  N10 UNL     1     -41.902   6.962  -2.446  1.00 20.00     0.092 N 
ENDROOT
BRANCH   6   7
HETATM    7  C8  UNL     1     -42.733   8.066  -2.926  1.00 20.00     0.299 C 
BRANCH   7   8
HETATM    8  C2  UNL     1     -42.653   8.114  -4.417  1.00 20.00    -0.007 C 
HETATM    9  C1  UNL     1     -41.989   9.056  -5.098  1.00 20.00     0.008 C 
ENDBRANCH   7   8
ENDBRANCH   6   7
BRANCH   5  10
HETATM   10  C9  UNL     1     -42.376   3.163  -2.508  1.00 20.00     0.121 C 
HETATM   11 CL11 UNL     1     -41.382   2.138  -3.557  1.00 20.00    -0.130 Cl
ENDBRANCH   5  10
TORSDOF 3
ENDMDL
MODEL 6
REMARK VINA RESULT:      -4.0      2.668      4.614
REMARK  3 active torsions:
REMARK  status: ('A' for Active; 'I' for Inactive)
REMARK    1  A    between atoms: C2_2  and  C8_8 
REMARK    2  A    between atoms: C7_7  and  C9_9 
REMARK    3  A    between atoms: C8_8  and  N10_10 
ROOT
HETATM    1  C3  UNL     1     -34.406  13.251  -4.563  1.00 20.00     0.031 C 
HETATM    2  C4  UNL     1     -33.686  14.178  -3.589  1.00 20.00     0.009 C 
HETATM    3  C5  UNL     1     -34.972  14.025  -5.754  1.00 20.00     0.272 C 
HETATM    4  C6  UNL     1     -35.155  16.050  -4.432  1.00 20.00     0.278 C 
HETATM    5  C7  UNL     1     -34.596  15.343  -3.185  1.00 20.00     0.028 C 
HETATM    6  N10 UNL     1     -35.863  15.104  -5.307  1.00 20.00     0.092 N 
ENDROOT
BRANCH   6   7
HETATM    7  C8  UNL     1     -36.437  15.802  -6.457  1.00 20.00     0.299 C 
BRANCH   7   8
HETATM    8  C2  UNL     1     -35.397  15.905  -7.525  1.00 20.00    -0.007 C 
HETATM    9  C1  UNL     1     -34.844  17.059  -7.918  1.00 20.00     0.008 C 
ENDBRANCH   7   8
ENDBRANCH   6   7
BRANCH   5  10
HETATM   10  C9  UNL     1     -33.844  16.330  -2.293  1.00 20.00     0.121 C 
HETATM   11 CL11 UNL     1     -34.684  16.515  -0.745  1.00 20.00    -0.130 Cl
ENDBRANCH   5  10
TORSDOF 3
ENDMDL
MODEL 7
REMARK VINA RESULT:      -4.0      2.825      4.696
REMARK  3 active torsions:
REMARK  status: ('A' for Active; 'I' for Inactive)
REMARK    1  A    between atoms: C2_2  and  C8_8 
REMARK    2  A    between atoms: C7_7  and  C9_9 
REMARK    3  A    between atoms: C8_8  and  N10_10 
ROOT
HETATM    1  C3  UNL     1     -33.556  18.044  -4.930  1.00 20.00     0.031 C 
HETATM    2  C4  UNL     1     -34.298  18.575  -3.708  1.00 20.00     0.009 C 
HETATM    3  C5  UNL     1     -33.595  16.516  -4.983  1.00 20.00     0.272 C 
HETATM    4  C6  UNL     1     -33.815  16.374  -2.572  1.00 20.00     0.278 C 
HETATM    5  C7  UNL     1     -33.781  17.906  -2.431  1.00 20.00     0.028 C 
HETATM    6  N10 UNL     1     -33.055  15.931  -3.749  1.00 20.00     0.092 N 
ENDROOT
BRANCH   6   7
HETATM    7  C8  UNL     1     -33.049  14.470  -3.836  1.00 20.00     0.299 C 
BRANCH   7   8
HETATM    8  C2  UNL     1     -34.425  13.967  -3.543  1.00 20.00    -0.007 C 
HETATM    9  C1  UNL     1     -35.140  13.215  -4.389  1.00 20.00     0.008 C 
ENDBRANCH   7   8
ENDBRANCH   6   7
BRANCH   5  10
HETATM   10  C9  UNL     1     -34.592  18.357  -1.218  1.00 20.00     0.121 C 
HETATM   11 CL11 UNL     1     -34.826  17.002  -0.101  1.00 20.00    -0.130 Cl
ENDBRANCH   5  10
TORSDOF 3
ENDMDL
MODEL 8
REMARK VINA RESULT:      -4.0      3.297      4.684
REMARK  3 active torsions:
REMARK  status: ('A' for Active; 'I' for Inactive)
REMARK    1  A    between atoms: C2_2  and  C8_8 
REMARK    2  A    between atoms: C7_7  and  C9_9 
REMARK    3  A    between atoms: C8_8  and  N10_10 
ROOT
HETATM    1  C3  UNL     1     -34.053  13.730  -4.160  1.00 20.00     0.031 C 
HETATM    2  C4  UNL     1     -33.468  14.977  -3.504  1.00 20.00     0.009 C 
HETATM    3  C5  UNL     1     -35.447  14.001  -4.726  1.00 20.00     0.272 C 
HETATM    4  C6  UNL     1     -35.833  15.763  -3.104  1.00 20.00     0.278 C 
HETATM    5  C7  UNL     1     -34.446  15.552  -2.474  1.00 20.00     0.028 C 
HETATM    6  N10 UNL     1     -36.349  14.515  -3.687  1.00 20.00     0.092 N 
ENDROOT
BRANCH   6   7
HETATM    7  C8  UNL     1     -37.692  14.720  -4.230  1.00 20.00     0.299 C 
BRANCH   7   8
HETATM    8  C2  UNL     1     -37.584  15.518  -5.489  1.00 20.00    -0.007 C 
HETATM    9  C1  UNL     1     -38.403  15.372  -6.537  1.00 20.00     0.008 C 
ENDBRANCH   7   8
ENDBRANCH   6   7
BRANCH   5  10
HETATM   10  C9  UNL     1     -33.910  16.859  -1.891  1.00 20.00     0.121 C 
HETATM   11 CL11 UNL     1     -34.531  17.094  -0.249  1.00 20.00    -0.130 Cl
ENDBRANCH   5  10
TORSDOF 3
ENDMDL
MODEL 9
REMARK VINA RESULT:      -4.0      1.812      2.622
REMARK  3 active torsions:
REMARK  status: ('A' for Active; 'I' for Inactive)
REMARK    1  A    between atoms: C2_2  and  C8_8 
REMARK    2  A    between atoms: C7_7  and  C9_9 
REMARK    3  A    between atoms: C8_8  and  N10_10 
ROOT
HETATM    1  C3  UNL     1     -34.220  17.190  -6.414  1.00 20.00     0.031 C 
HETATM    2  C4  UNL     1     -34.052  15.674  -6.387  1.00 20.00     0.009 C 
HETATM    3  C5  UNL     1     -33.767  17.823  -5.098  1.00 20.00     0.272 C 
HETATM    4  C6  UNL     1     -34.263  15.789  -3.875  1.00 20.00     0.278 C 
HETATM    5  C7  UNL     1     -34.740  15.079  -5.154  1.00 20.00     0.028 C 
HETATM    6  N10 UNL     1     -34.484  17.240  -3.957  1.00 20.00     0.092 N 
ENDROOT
BRANCH   6   7
HETATM    7  C8  UNL     1     -34.079  17.892  -2.712  1.00 20.00     0.299 C 
BRANCH   7   8
HETATM    8  C2  UNL     1     -34.026  16.865  -1.628  1.00 20.00    -0.007 C 
HETATM    9  C1  UNL     1     -34.575  17.028  -0.418  1.00 20.00     0.008 C 
ENDBRANCH   7   8
ENDBRANCH   6   7
BRANCH   5  10
HETATM   10  C9  UNL     1     -34.485  13.575  -5.067  1.00 20.00     0.121 C 
HETATM   11 CL11 UNL     1     -33.347  13.224  -3.756  1.00 20.00    -0.130 Cl
ENDBRANCH   5  10
TORSDOF 3
ENDMDL
