MODEL 1
REMARK VINA RESULT:      -4.4      0.000      0.000
REMARK  1 active torsions:
REMARK  status: ('A' for Active; 'I' for Inactive)
REMARK    1  A    between atoms: C8_8  and  N9_9 
ROOT
HETATM    1  C1  UNL     1     -36.102  14.270  -4.045  1.00 20.00     0.050 C 
HETATM    2  C2  UNL     1     -33.726  13.472  -4.167  1.00 20.00     0.050 C 
HETATM    3  C3  UNL     1     -35.589  15.575  -3.428  1.00 20.00     0.274 C 
HETATM    4  C4  UNL     1     -33.291  14.803  -3.546  1.00 20.00     0.274 C 
HETATM    5  C5  UNL     1     -35.054  13.581  -4.919  1.00 20.00     0.085 C 
HETATM    6  N9  UNL     1     -34.344  15.353  -2.680  1.00 20.00     0.092 N 
HETATM    7 CL10 UNL     1     -34.831  14.479  -6.453  1.00 20.00    -0.125 Cl
ENDROOT
BRANCH   6   8
HETATM    8  C8  UNL     1     -33.895  16.596  -2.053  1.00 20.00     0.215 C 
HETATM    9  C6  UNL     1     -34.639  16.788  -0.740  1.00 20.00     0.042 C 
HETATM   10  C7  UNL     1     -34.142  17.750  -3.014  1.00 20.00     0.042 C 
ENDBRANCH   6   8
TORSDOF 1
ENDMDL
MODEL 2
REMARK VINA RESULT:      -4.3      0.563      1.255
REMARK  1 active torsions:
REMARK  status: ('A' for Active; 'I' for Inactive)
REMARK    1  A    between atoms: C8_8  and  N9_9 
ROOT
HETATM    1  C1  UNL     1     -35.922  13.914  -4.075  1.00 20.00     0.050 C 
HETATM    2  C2  UNL     1     -33.422  13.958  -3.870  1.00 20.00     0.050 C 
HETATM    3  C3  UNL     1     -35.953  15.332  -3.497  1.00 20.00     0.274 C 
HETATM    4  C4  UNL     1     -33.534  15.375  -3.299  1.00 20.00     0.274 C 
HETATM    5  C5  UNL     1     -34.601  13.593  -4.774  1.00 20.00     0.085 C 
HETATM    6  N9  UNL     1     -34.813  15.563  -2.599  1.00 20.00     0.092 N 
HETATM    7 CL10 UNL     1     -34.488  14.471  -6.332  1.00 20.00    -0.125 Cl
ENDROOT
BRANCH   6   8
HETATM    8  C8  UNL     1     -34.885  16.901  -2.014  1.00 20.00     0.215 C 
HETATM    9  C6  UNL     1     -33.852  17.795  -2.685  1.00 20.00     0.042 C 
HETATM   10  C7  UNL     1     -34.647  16.796  -0.514  1.00 20.00     0.042 C 
ENDBRANCH   6   8
TORSDOF 1
ENDMDL
MODEL 3
REMARK VINA RESULT:      -4.1     11.597     12.221
REMARK  1 active torsions:
REMARK  status: ('A' for Active; 'I' for Inactive)
REMARK    1  A    between atoms: C8_8  and  N9_9 
ROOT
HETATM    1  C1  UNL     1     -35.323   5.346   3.740  1.00 20.00     0.050 C 
HETATM    2  C2  UNL     1     -34.426   6.279   5.890  1.00 20.00     0.050 C 
HETATM    3  C3  UNL     1     -33.975   5.667   3.087  1.00 20.00     0.274 C 
HETATM    4  C4  UNL     1     -33.107   6.568   5.167  1.00 20.00     0.274 C 
HETATM    5  C5  UNL     1     -35.209   5.131   5.249  1.00 20.00     0.085 C 
HETATM    6  N9  UNL     1     -33.332   6.818   3.736  1.00 20.00     0.092 N 
HETATM    7 CL10 UNL     1     -34.415   3.563   5.599  1.00 20.00    -0.125 Cl
ENDROOT
BRANCH   6   8
HETATM    8  C8  UNL     1     -32.072   7.144   3.069  1.00 20.00     0.215 C 
HETATM    9  C6  UNL     1     -31.090   7.687   4.097  1.00 20.00     0.042 C 
HETATM   10  C7  UNL     1     -32.347   8.156   1.965  1.00 20.00     0.042 C 
ENDBRANCH   6   8
TORSDOF 1
ENDMDL
MODEL 4
REMARK VINA RESULT:      -3.9      1.354      1.954
REMARK  1 active torsions:
REMARK  status: ('A' for Active; 'I' for Inactive)
REMARK    1  A    between atoms: C8_8  and  N9_9 
ROOT
HETATM    1  C1  UNL     1     -34.089  15.633  -5.591  1.00 20.00     0.050 C 
HETATM    2  C2  UNL     1     -36.197  15.153  -4.316  1.00 20.00     0.050 C 
HETATM    3  C3  UNL     1     -33.436  16.053  -4.271  1.00 20.00     0.274 C 
HETATM    4  C4  UNL     1     -35.474  15.589  -3.038  1.00 20.00     0.274 C 
HETATM    5  C5  UNL     1     -35.235  14.641  -5.390  1.00 20.00     0.085 C 
HETATM    6  N9  UNL     1     -34.433  16.583  -3.331  1.00 20.00     0.092 N 
HETATM    7 CL10 UNL     1     -34.595  13.030  -4.938  1.00 20.00    -0.125 Cl
ENDROOT
BRANCH   6   8
HETATM    8  C8  UNL     1     -33.787  17.029  -2.097  1.00 20.00     0.215 C 
HETATM    9  C6  UNL     1     -34.631  16.593  -0.908  1.00 20.00     0.042 C 
HETATM   10  C7  UNL     1     -33.622  18.541  -2.145  1.00 20.00     0.042 C 
ENDBRANCH   6   8
TORSDOF 1
ENDMDL
MODEL 5
REMARK VINA RESULT:      -3.9      2.263      4.103
REMARK  1 active torsions:
REMARK  status: ('A' for Active; 'I' for Inactive)
REMARK    1  A    between atoms: C8_8  and  N9_9 
ROOT
HETATM    1  C1  UNL     1     -36.231  16.759  -2.995  1.00 20.00     0.050 C 
HETATM    2  C2  UNL     1     -33.844  17.496  -3.240  1.00 20.00     0.050 C 
HETATM    3  C3  UNL     1     -35.854  15.449  -3.695  1.00 20.00     0.274 C 
HETATM    4  C4  UNL     1     -33.546  16.162  -3.931  1.00 20.00     0.274 C 
HETATM    5  C5  UNL     1     -35.041  17.412  -2.291  1.00 20.00     0.085 C 
HETATM    6  N9  UNL     1     -34.735  15.648  -4.625  1.00 20.00     0.092 N 
HETATM    7 CL10 UNL     1     -34.606  16.491  -0.816  1.00 20.00    -0.125 Cl
ENDROOT
BRANCH   6   8
HETATM    8  C8  UNL     1     -34.422  14.402  -5.324  1.00 20.00     0.215 C 
HETATM    9  C6  UNL     1     -35.081  14.421  -6.695  1.00 20.00     0.042 C 
HETATM   10  C7  UNL     1     -34.908  13.230  -4.483  1.00 20.00     0.042 C 
ENDBRANCH   6   8
TORSDOF 1
ENDMDL
MODEL 6
REMARK VINA RESULT:      -3.9      2.473      4.122
REMARK  1 active torsions:
REMARK  status: ('A' for Active; 'I' for Inactive)
REMARK    1  A    between atoms: C8_8  and  N9_9 
ROOT
HETATM    1  C1  UNL     1     -33.319  16.367  -4.244  1.00 20.00     0.050 C 
HETATM    2  C2  UNL     1     -33.473  13.986  -3.468  1.00 20.00     0.050 C 
HETATM    3  C3  UNL     1     -34.473  16.083  -5.211  1.00 20.00     0.274 C 
HETATM    4  C4  UNL     1     -34.622  13.780  -4.460  1.00 20.00     0.274 C 
HETATM    5  C5  UNL     1     -33.332  15.444  -3.026  1.00 20.00     0.085 C 
HETATM    6  N9  UNL     1     -34.486  14.672  -5.620  1.00 20.00     0.092 N 
HETATM    7 CL10 UNL     1     -34.666  15.891  -1.916  1.00 20.00    -0.125 Cl
ENDROOT
BRANCH   6   8
HETATM    8  C8  UNL     1     -35.559  14.428  -6.583  1.00 20.00     0.215 C 
HETATM    9  C6  UNL     1     -35.183  15.055  -7.918  1.00 20.00     0.042 C 
HETATM   10  C7  UNL     1     -36.855  15.009  -6.035  1.00 20.00     0.042 C 
ENDBRANCH   6   8
TORSDOF 1
ENDMDL
MODEL 7
REMARK VINA RESULT:      -3.8      1.965      3.702
REMARK  1 active torsions:
REMARK  status: ('A' for Active; 'I' for Inactive)
REMARK    1  A    between atoms: C8_8  and  N9_9 
ROOT
HETATM    1  C1  UNL     1     -34.257  13.812  -3.646  1.00 20.00     0.050 C 
HETATM    2  C2  UNL     1     -34.811  15.927  -2.415  1.00 20.00     0.050 C 
HETATM    3  C3  UNL     1     -35.583  13.952  -4.400  1.00 20.00     0.274 C 
HETATM    4  C4  UNL     1     -36.118  15.999  -3.210  1.00 20.00     0.274 C 
HETATM    5  C5  UNL     1     -33.716  15.154  -3.153  1.00 20.00     0.085 C 
HETATM    6  N9  UNL     1     -36.584  14.657  -3.586  1.00 20.00     0.092 N 
HETATM    7 CL10 UNL     1     -33.088  16.117  -4.527  1.00 20.00    -0.125 Cl
ENDROOT
BRANCH   6   8
HETATM    8  C8  UNL     1     -37.859  14.737  -4.297  1.00 20.00     0.215 C 
HETATM    9  C6  UNL     1     -37.684  15.600  -5.539  1.00 20.00     0.042 C 
HETATM   10  C7  UNL     1     -38.912  15.309  -3.359  1.00 20.00     0.042 C 
ENDBRANCH   6   8
TORSDOF 1
ENDMDL
MODEL 8
REMARK VINA RESULT:      -3.8      2.547      3.513
REMARK  1 active torsions:
REMARK  status: ('A' for Active; 'I' for Inactive)
REMARK    1  A    between atoms: C8_8  and  N9_9 
ROOT
HETATM    1  C1  UNL     1     -34.380  16.059  -7.089  1.00 20.00     0.050 C 
HETATM    2  C2  UNL     1     -33.696  18.197  -5.965  1.00 20.00     0.050 C 
HETATM    3  C3  UNL     1     -34.266  15.358  -5.731  1.00 20.00     0.274 C 
HETATM    4  C4  UNL     1     -33.605  17.426  -4.645  1.00 20.00     0.274 C 
HETATM    5  C5  UNL     1     -34.671  17.555  -6.955  1.00 20.00     0.085 C 
HETATM    6  N9  UNL     1     -33.266  16.015  -4.878  1.00 20.00     0.092 N 
HETATM    7 CL10 UNL     1     -36.362  17.818  -6.427  1.00 20.00    -0.125 Cl
ENDROOT
BRANCH   6   8
HETATM    8  C8  UNL     1     -33.130  15.303  -3.608  1.00 20.00     0.215 C 
HETATM    9  C6  UNL     1     -33.548  13.853  -3.802  1.00 20.00     0.042 C 
HETATM   10  C7  UNL     1     -33.986  16.000  -2.559  1.00 20.00     0.042 C 
ENDBRANCH   6   8
TORSDOF 1
ENDMDL
MODEL 9
REMARK VINA RESULT:      -3.7     11.682     13.257
REMARK  1 active torsions:
REMARK  status: ('A' for Active; 'I' for Inactive)
REMARK    1  A    between atoms: C8_8  and  N9_9 
ROOT
HETATM    1  C1  UNL     1     -41.961   7.179  -2.663  1.00 20.00     0.050 C 
HETATM    2  C2  UNL     1     -41.113   6.187  -0.519  1.00 20.00     0.050 C 
HETATM    3  C3  UNL     1     -42.666   5.850  -2.950  1.00 20.00     0.274 C 
HETATM    4  C4  UNL     1     -41.847   4.891  -0.876  1.00 20.00     0.274 C 
HETATM    5  C5  UNL     1     -41.746   7.420  -1.169  1.00 20.00     0.085 C 
HETATM    6  N9  UNL     1     -41.950   4.725  -2.333  1.00 20.00     0.092 N 
HETATM    7 CL10 UNL     1     -43.301   7.817  -0.370  1.00 20.00    -0.125 Cl
ENDROOT
BRANCH   6   8
HETATM    8  C8  UNL     1     -42.605   3.459  -2.660  1.00 20.00     0.215 C 
HETATM    9  C6  UNL     1     -43.417   2.994  -1.460  1.00 20.00     0.042 C 
HETATM   10  C7  UNL     1     -41.543   2.441  -3.048  1.00 20.00     0.042 C 
ENDBRANCH   6   8
TORSDOF 1
ENDMDL
