MODEL 1
REMARK VINA RESULT:      -4.3      0.000      0.000
REMARK  2 active torsions:
REMARK  status: ('A' for Active; 'I' for Inactive)
REMARK    1  A    between atoms: C6_6  and  C8_8 
REMARK    2  A    between atoms: C8_8  and  N9_9 
ROOT
HETATM    1  C3  UNL     1     -34.365  13.676  -4.808  1.00 20.00     0.052 C 
HETATM    2  C4  UNL     1     -34.564  14.357  -3.454  1.00 20.00     0.274 C 
HETATM    3  C5  UNL     1     -35.505  15.783  -5.039  1.00 20.00     0.292 C 
HETATM    4  C7  UNL     1     -35.212  14.491  -5.782  1.00 20.00     0.112 C 
HETATM    5  N9  UNL     1     -35.674  15.287  -3.672  1.00 20.00     0.090 N 
HETATM    6 CL10 UNL     1     -34.391  14.776  -7.325  1.00 20.00    -0.123 Cl
ENDROOT
BRANCH   5   7
HETATM    7  C8  UNL     1     -35.702  16.361  -2.689  1.00 20.00     0.277 C 
BRANCH   7   8
HETATM    8  C6  UNL     1     -34.617  16.194  -1.680  1.00 20.00     0.014 A 
HETATM    9  C1  UNL     1     -33.684  17.334  -1.375  1.00 20.00     0.007 A 
HETATM   10  C2  UNL     1     -34.701  16.901  -0.355  1.00 20.00     0.007 A 
ENDBRANCH   7   8
ENDBRANCH   5   7
TORSDOF 2
ENDMDL
MODEL 2
REMARK VINA RESULT:      -4.1     11.129     11.956
REMARK  2 active torsions:
REMARK  status: ('A' for Active; 'I' for Inactive)
REMARK    1  A    between atoms: C6_6  and  C8_8 
REMARK    2  A    between atoms: C8_8  and  N9_9 
ROOT
HETATM    1  C3  UNL     1     -34.738   5.213   3.688  1.00 20.00     0.052 C 
HETATM    2  C4  UNL     1     -33.883   6.128   2.812  1.00 20.00     0.274 C 
HETATM    3  C5  UNL     1     -33.084   6.385   4.986  1.00 20.00     0.292 C 
HETATM    4  C7  UNL     1     -34.032   5.199   5.042  1.00 20.00     0.112 C 
HETATM    5  N9  UNL     1     -32.657   6.336   3.586  1.00 20.00     0.090 N 
HETATM    6 CL10 UNL     1     -35.162   5.307   6.401  1.00 20.00    -0.123 Cl
ENDROOT
BRANCH   5   7
HETATM    7  C8  UNL     1     -31.939   7.535   3.180  1.00 20.00     0.277 C 
BRANCH   7   8
HETATM    8  C6  UNL     1     -32.540   8.132   1.953  1.00 20.00     0.014 A 
HETATM    9  C1  UNL     1     -32.469   9.616   1.719  1.00 20.00     0.007 A 
HETATM   10  C2  UNL     1     -31.654   8.681   0.868  1.00 20.00     0.007 A 
ENDBRANCH   7   8
ENDBRANCH   5   7
TORSDOF 2
ENDMDL
MODEL 3
REMARK VINA RESULT:      -3.9      1.074      1.443
REMARK  2 active torsions:
REMARK  status: ('A' for Active; 'I' for Inactive)
REMARK    1  A    between atoms: C6_6  and  C8_8 
REMARK    2  A    between atoms: C8_8  and  N9_9 
ROOT
HETATM    1  C3  UNL     1     -33.917  16.135  -6.174  1.00 20.00     0.052 C 
HETATM    2  C4  UNL     1     -34.128  16.821  -4.825  1.00 20.00     0.274 C 
HETATM    3  C5  UNL     1     -35.453  14.905  -4.789  1.00 20.00     0.292 C 
HETATM    4  C7  UNL     1     -34.578  14.768  -6.024  1.00 20.00     0.112 C 
HETATM    5  N9  UNL     1     -34.613  15.755  -3.945  1.00 20.00     0.090 N 
HETATM    6 CL10 UNL     1     -35.509  14.300  -7.456  1.00 20.00    -0.123 Cl
ENDROOT
BRANCH   5   7
HETATM    7  C8  UNL     1     -35.329  16.272  -2.787  1.00 20.00     0.277 C 
BRANCH   7   8
HETATM    8  C6  UNL     1     -34.475  16.232  -1.565  1.00 20.00     0.014 A 
HETATM    9  C1  UNL     1     -33.668  17.436  -1.164  1.00 20.00     0.007 A 
HETATM   10  C2  UNL     1     -34.861  17.024  -0.346  1.00 20.00     0.007 A 
ENDBRANCH   7   8
ENDBRANCH   5   7
TORSDOF 2
ENDMDL
MODEL 4
REMARK VINA RESULT:      -3.9      1.581      2.184
REMARK  2 active torsions:
REMARK  status: ('A' for Active; 'I' for Inactive)
REMARK    1  A    between atoms: C6_6  and  C8_8 
REMARK    2  A    between atoms: C8_8  and  N9_9 
ROOT
HETATM    1  C3  UNL     1     -34.296  16.653  -6.559  1.00 20.00     0.052 C 
HETATM    2  C4  UNL     1     -33.787  16.920  -5.142  1.00 20.00     0.274 C 
HETATM    3  C5  UNL     1     -34.301  14.648  -5.228  1.00 20.00     0.292 C 
HETATM    4  C7  UNL     1     -34.373  15.133  -6.666  1.00 20.00     0.112 C 
HETATM    5  N9  UNL     1     -33.354  15.607  -4.657  1.00 20.00     0.090 N 
HETATM    6 CL10 UNL     1     -35.842  14.580  -7.487  1.00 20.00    -0.123 Cl
ENDROOT
BRANCH   5   7
HETATM    7  C8  UNL     1     -33.301  15.541  -3.204  1.00 20.00     0.277 C 
BRANCH   7   8
HETATM    8  C6  UNL     1     -34.119  16.624  -2.586  1.00 20.00     0.014 A 
HETATM    9  C1  UNL     1     -34.769  16.413  -1.246  1.00 20.00     0.007 A 
HETATM   10  C2  UNL     1     -33.609  17.361  -1.378  1.00 20.00     0.007 A 
ENDBRANCH   7   8
ENDBRANCH   5   7
TORSDOF 2
ENDMDL
MODEL 5
REMARK VINA RESULT:      -3.9      1.707      2.178
REMARK  2 active torsions:
REMARK  status: ('A' for Active; 'I' for Inactive)
REMARK    1  A    between atoms: C6_6  and  C8_8 
REMARK    2  A    between atoms: C8_8  and  N9_9 
ROOT
HETATM    1  C3  UNL     1     -34.056  15.617  -5.560  1.00 20.00     0.052 C 
HETATM    2  C4  UNL     1     -34.072  16.956  -4.823  1.00 20.00     0.274 C 
HETATM    3  C5  UNL     1     -34.201  15.311  -3.177  1.00 20.00     0.292 C 
HETATM    4  C7  UNL     1     -33.876  14.570  -4.463  1.00 20.00     0.112 C 
HETATM    5  N9  UNL     1     -33.634  16.630  -3.463  1.00 20.00     0.090 N 
HETATM    6 CL10 UNL     1     -34.909  13.151  -4.699  1.00 20.00    -0.123 Cl
ENDROOT
BRANCH   5   7
HETATM    7  C8  UNL     1     -34.042  17.635  -2.492  1.00 20.00     0.277 C 
BRANCH   7   8
HETATM    8  C6  UNL     1     -33.737  17.192  -1.101  1.00 20.00     0.014 A 
HETATM    9  C1  UNL     1     -33.701  18.192   0.022  1.00 20.00     0.007 A 
HETATM   10  C2  UNL     1     -34.818  17.188  -0.055  1.00 20.00     0.007 A 
ENDBRANCH   7   8
ENDBRANCH   5   7
TORSDOF 2
ENDMDL
MODEL 6
REMARK VINA RESULT:      -3.8     12.710     14.042
REMARK  2 active torsions:
REMARK  status: ('A' for Active; 'I' for Inactive)
REMARK    1  A    between atoms: C6_6  and  C8_8 
REMARK    2  A    between atoms: C8_8  and  N9_9 
ROOT
HETATM    1  C3  UNL     1     -40.714   5.837  -0.636  1.00 20.00     0.052 C 
HETATM    2  C4  UNL     1     -40.959   4.364  -0.962  1.00 20.00     0.274 C 
HETATM    3  C5  UNL     1     -42.487   5.572  -2.242  1.00 20.00     0.292 C 
HETATM    4  C7  UNL     1     -41.533   6.606  -1.669  1.00 20.00     0.112 C 
HETATM    5  N9  UNL     1     -41.631   4.384  -2.264  1.00 20.00     0.090 N 
HETATM    6 CL10 UNL     1     -42.388   7.990  -0.968  1.00 20.00    -0.123 Cl
ENDROOT
BRANCH   5   7
HETATM    7  C8  UNL     1     -42.379   3.162  -2.524  1.00 20.00     0.277 C 
BRANCH   7   8
HETATM    8  C6  UNL     1     -41.638   2.267  -3.459  1.00 20.00     0.014 A 
HETATM    9  C1  UNL     1     -41.990   0.808  -3.550  1.00 20.00     0.007 A 
HETATM   10  C2  UNL     1     -42.317   1.733  -4.690  1.00 20.00     0.007 A 
ENDBRANCH   7   8
ENDBRANCH   5   7
TORSDOF 2
ENDMDL
MODEL 7
REMARK VINA RESULT:      -3.7      2.806      4.587
REMARK  2 active torsions:
REMARK  status: ('A' for Active; 'I' for Inactive)
REMARK    1  A    between atoms: C6_6  and  C8_8 
REMARK    2  A    between atoms: C8_8  and  N9_9 
ROOT
HETATM    1  C3  UNL     1     -33.809  18.347  -2.819  1.00 20.00     0.052 C 
HETATM    2  C4  UNL     1     -34.389  17.217  -3.668  1.00 20.00     0.274 C 
HETATM    3  C5  UNL     1     -34.575  16.520  -1.452  1.00 20.00     0.292 C 
HETATM    4  C7  UNL     1     -34.179  17.985  -1.383  1.00 20.00     0.112 C 
HETATM    5  N9  UNL     1     -35.255  16.475  -2.748  1.00 20.00     0.090 N 
HETATM    6 CL10 UNL     1     -32.853  18.268  -0.244  1.00 20.00    -0.123 Cl
ENDROOT
BRANCH   5   7
HETATM    7  C8  UNL     1     -35.508  15.114  -3.198  1.00 20.00     0.277 C 
BRANCH   7   8
HETATM    8  C6  UNL     1     -34.476  14.670  -4.178  1.00 20.00     0.014 A 
HETATM    9  C1  UNL     1     -33.425  13.673  -3.773  1.00 20.00     0.007 A 
HETATM   10  C2  UNL     1     -34.511  13.272  -4.732  1.00 20.00     0.007 A 
ENDBRANCH   7   8
ENDBRANCH   5   7
TORSDOF 2
ENDMDL
MODEL 8
REMARK VINA RESULT:      -3.6      2.308      4.658
REMARK  2 active torsions:
REMARK  status: ('A' for Active; 'I' for Inactive)
REMARK    1  A    between atoms: C6_6  and  C8_8 
REMARK    2  A    between atoms: C8_8  and  N9_9 
ROOT
HETATM    1  C3  UNL     1     -36.062  16.481  -2.579  1.00 20.00     0.052 C 
HETATM    2  C4  UNL     1     -36.320  15.657  -3.840  1.00 20.00     0.274 C 
HETATM    3  C5  UNL     1     -34.155  15.132  -3.156  1.00 20.00     0.292 C 
HETATM    4  C7  UNL     1     -34.758  15.927  -2.011  1.00 20.00     0.112 C 
HETATM    5  N9  UNL     1     -35.358  14.556  -3.761  1.00 20.00     0.090 N 
HETATM    6 CL10 UNL     1     -33.671  17.200  -1.433  1.00 20.00    -0.123 Cl
ENDROOT
BRANCH   5   7
HETATM    7  C8  UNL     1     -35.095  13.951  -5.059  1.00 20.00     0.277 C 
BRANCH   7   8
HETATM    8  C6  UNL     1     -35.381  14.909  -6.165  1.00 20.00     0.014 A 
HETATM    9  C1  UNL     1     -34.339  15.193  -7.211  1.00 20.00     0.007 A 
HETATM   10  C2  UNL     1     -35.569  14.406  -7.571  1.00 20.00     0.007 A 
ENDBRANCH   7   8
ENDBRANCH   5   7
TORSDOF 2
ENDMDL
MODEL 9
REMARK VINA RESULT:      -3.6     11.310     12.039
REMARK  2 active torsions:
REMARK  status: ('A' for Active; 'I' for Inactive)
REMARK    1  A    between atoms: C6_6  and  C8_8 
REMARK    2  A    between atoms: C8_8  and  N9_9 
ROOT
HETATM    1  C3  UNL     1     -31.405   7.804   3.381  1.00 20.00     0.052 C 
HETATM    2  C4  UNL     1     -32.244   6.801   4.171  1.00 20.00     0.274 C 
HETATM    3  C5  UNL     1     -33.534   7.412   2.329  1.00 20.00     0.292 C 
HETATM    4  C7  UNL     1     -32.152   7.982   2.061  1.00 20.00     0.112 C 
HETATM    5  N9  UNL     1     -33.205   6.279   3.197  1.00 20.00     0.090 N 
HETATM    6 CL10 UNL     1     -32.215   9.673   1.537  1.00 20.00    -0.123 Cl
ENDROOT
BRANCH   5   7
HETATM    7  C8  UNL     1     -34.382   5.701   3.830  1.00 20.00     0.277 C 
BRANCH   7   8
HETATM    8  C6  UNL     1     -34.034   5.066   5.134  1.00 20.00     0.014 A 
HETATM    9  C1  UNL     1     -34.782   5.442   6.383  1.00 20.00     0.007 A 
HETATM   10  C2  UNL     1     -34.977   4.082   5.770  1.00 20.00     0.007 A 
ENDBRANCH   7   8
ENDBRANCH   5   7
TORSDOF 2
ENDMDL
