MODEL 1
REMARK VINA RESULT:      -4.2      0.000      0.000
REMARK  4 active torsions:
REMARK  status: ('A' for Active; 'I' for Inactive)
REMARK    1  A    between atoms: C4_4  and  C7_7 
REMARK    2  A    between atoms: C8_8  and  C10_10 
REMARK    3  A    between atoms: C9_9  and  C10_10 
REMARK    4  A    between atoms: C9_9  and  N11_11 
ROOT
HETATM    1  C1  UNL     1     -36.142  16.001  -3.109  1.00 20.00     0.035 C 
HETATM    2  C2  UNL     1     -36.515  14.793  -3.950  1.00 20.00     0.235 C 
HETATM    3  C3  UNL     1     -34.155  14.737  -3.314  1.00 20.00     0.240 C 
HETATM    4  C4  UNL     1     -34.953  15.523  -2.289  1.00 20.00     0.027 C 
HETATM    5  N11 UNL     1     -35.224  14.008  -4.101  1.00 20.00    -0.070 N 
HETATM    6  H33 UNL     1     -35.371  13.100  -3.636  1.00 20.00     0.279 HD
ENDROOT
BRANCH   5   7
HETATM    7  C9  UNL     1     -34.840  13.719  -5.516  1.00 20.00     0.239 C 
BRANCH   7   8
HETATM    8  C10 UNL     1     -35.189  14.880  -6.456  1.00 20.00     0.007 C 
HETATM    9  C6  UNL     1     -35.744  14.371  -7.792  1.00 20.00     0.011 C 
BRANCH   8  10
HETATM   10  C8  UNL     1     -34.031  15.863  -6.719  1.00 20.00     0.001 C 
HETATM   11  C5  UNL     1     -34.230  17.228  -6.079  1.00 20.00     0.005 C 
ENDBRANCH   8  10
ENDBRANCH   7   8
ENDBRANCH   5   7
BRANCH   4  12
HETATM   12  C7  UNL     1     -34.161  16.657  -1.663  1.00 20.00     0.121 C 
HETATM   13 CL12 UNL     1     -34.790  17.031  -0.045  1.00 20.00    -0.130 Cl
ENDBRANCH   4  12
TORSDOF 4
ENDMDL
MODEL 2
REMARK VINA RESULT:      -4.1      2.424      4.675
REMARK  4 active torsions:
REMARK  status: ('A' for Active; 'I' for Inactive)
REMARK    1  A    between atoms: C4_4  and  C7_7 
REMARK    2  A    between atoms: C8_8  and  C10_10 
REMARK    3  A    between atoms: C9_9  and  C10_10 
REMARK    4  A    between atoms: C9_9  and  N11_11 
ROOT
HETATM    1  C1  UNL     1     -34.219  16.345  -6.405  1.00 20.00     0.035 C 
HETATM    2  C2  UNL     1     -33.362  16.198  -5.159  1.00 20.00     0.235 C 
HETATM    3  C3  UNL     1     -34.605  14.146  -5.628  1.00 20.00     0.240 C 
HETATM    4  C4  UNL     1     -34.372  14.920  -6.914  1.00 20.00     0.027 C 
HETATM    5  N11 UNL     1     -33.645  14.795  -4.654  1.00 20.00    -0.070 N 
HETATM    6  H33 UNL     1     -32.759  14.273  -4.713  1.00 20.00     0.279 HD
ENDROOT
BRANCH   5   7
HETATM    7  C9  UNL     1     -34.096  14.732  -3.230  1.00 20.00     0.239 C 
BRANCH   7   8
HETATM    8  C10 UNL     1     -34.894  15.978  -2.823  1.00 20.00     0.007 C 
HETATM    9  C6  UNL     1     -34.622  16.365  -1.365  1.00 20.00     0.011 C 
BRANCH   8  10
HETATM   10  C8  UNL     1     -36.414  15.869  -3.053  1.00 20.00     0.001 C 
HETATM   11  C5  UNL     1     -36.969  16.928  -3.994  1.00 20.00     0.005 C 
ENDBRANCH   8  10
ENDBRANCH   7   8
ENDBRANCH   5   7
BRANCH   4  12
HETATM   12  C7  UNL     1     -35.499  14.757  -7.917  1.00 20.00     0.121 C 
HETATM   13 CL12 UNL     1     -37.068  15.039  -7.135  1.00 20.00    -0.130 Cl
ENDBRANCH   4  12
TORSDOF 4
ENDMDL
MODEL 3
REMARK VINA RESULT:      -4.1      2.489      3.556
REMARK  4 active torsions:
REMARK  status: ('A' for Active; 'I' for Inactive)
REMARK    1  A    between atoms: C4_4  and  C7_7 
REMARK    2  A    between atoms: C8_8  and  C10_10 
REMARK    3  A    between atoms: C9_9  and  C10_10 
REMARK    4  A    between atoms: C9_9  and  N11_11 
ROOT
HETATM    1  C1  UNL     1     -35.697  18.707  -1.042  1.00 20.00     0.035 C 
HETATM    2  C2  UNL     1     -36.406  17.762  -1.996  1.00 20.00     0.235 C 
HETATM    3  C3  UNL     1     -34.613  16.621  -0.786  1.00 20.00     0.240 C 
HETATM    4  C4  UNL     1     -35.136  17.789   0.033  1.00 20.00     0.027 C 
HETATM    5  N11 UNL     1     -35.680  16.437  -1.845  1.00 20.00    -0.070 N 
HETATM    6  H33 UNL     1     -36.363  15.764  -1.468  1.00 20.00     0.279 HD
ENDROOT
BRANCH   5   7
HETATM    7  C9  UNL     1     -35.164  15.867  -3.127  1.00 20.00     0.239 C 
BRANCH   7   8
HETATM    8  C10 UNL     1     -33.687  16.212  -3.358  1.00 20.00     0.007 C 
HETATM    9  C6  UNL     1     -33.526  17.295  -4.432  1.00 20.00     0.011 C 
BRANCH   8  10
HETATM   10  C8  UNL     1     -32.792  15.006  -3.704  1.00 20.00     0.001 C 
HETATM   11  C5  UNL     1     -33.551  13.692  -3.810  1.00 20.00     0.005 C 
ENDBRANCH   8  10
ENDBRANCH   7   8
ENDBRANCH   5   7
BRANCH   4  12
HETATM   12  C7  UNL     1     -34.062  18.445   0.883  1.00 20.00     0.121 C 
HETATM   13 CL12 UNL     1     -32.543  18.570  -0.028  1.00 20.00    -0.130 Cl
ENDBRANCH   4  12
TORSDOF 4
ENDMDL
MODEL 4
REMARK VINA RESULT:      -4.0      1.416      2.129
REMARK  4 active torsions:
REMARK  status: ('A' for Active; 'I' for Inactive)
REMARK    1  A    between atoms: C4_4  and  C7_7 
REMARK    2  A    between atoms: C8_8  and  C10_10 
REMARK    3  A    between atoms: C9_9  and  C10_10 
REMARK    4  A    between atoms: C9_9  and  N11_11 
ROOT
HETATM    1  C1  UNL     1     -34.435  14.577  -3.065  1.00 20.00     0.035 C 
HETATM    2  C2  UNL     1     -33.857  14.261  -4.434  1.00 20.00     0.235 C 
HETATM    3  C3  UNL     1     -33.817  16.665  -3.987  1.00 20.00     0.240 C 
HETATM    4  C4  UNL     1     -33.770  15.890  -2.681  1.00 20.00     0.027 C 
HETATM    5  N11 UNL     1     -33.495  15.611  -5.026  1.00 20.00    -0.070 N 
HETATM    6  H33 UNL     1     -32.473  15.617  -5.153  1.00 20.00     0.279 HD
ENDROOT
BRANCH   5   7
HETATM    7  C9  UNL     1     -34.103  15.880  -6.366  1.00 20.00     0.239 C 
BRANCH   7   8
HETATM    8  C10 UNL     1     -35.440  15.149  -6.548  1.00 20.00     0.007 C 
HETATM    9  C6  UNL     1     -35.523  14.466  -7.918  1.00 20.00     0.011 C 
BRANCH   8  10
HETATM   10  C8  UNL     1     -36.687  16.030  -6.334  1.00 20.00     0.001 C 
HETATM   11  C5  UNL     1     -37.352  15.832  -4.980  1.00 20.00     0.005 C 
ENDBRANCH   8  10
ENDBRANCH   7   8
ENDBRANCH   5   7
BRANCH   4  12
HETATM   12  C7  UNL     1     -34.469  16.607  -1.541  1.00 20.00     0.121 C 
HETATM   13 CL12 UNL     1     -33.358  17.746  -0.752  1.00 20.00    -0.130 Cl
ENDBRANCH   4  12
TORSDOF 4
ENDMDL
MODEL 5
REMARK VINA RESULT:      -4.0      1.426      2.427
REMARK  4 active torsions:
REMARK  status: ('A' for Active; 'I' for Inactive)
REMARK    1  A    between atoms: C4_4  and  C7_7 
REMARK    2  A    between atoms: C8_8  and  C10_10 
REMARK    3  A    between atoms: C9_9  and  C10_10 
REMARK    4  A    between atoms: C9_9  and  N11_11 
ROOT
HETATM    1  C1  UNL     1     -33.889  17.289  -3.059  1.00 20.00     0.035 C 
HETATM    2  C2  UNL     1     -34.539  17.371  -4.430  1.00 20.00     0.235 C 
HETATM    3  C3  UNL     1     -35.975  16.198  -2.836  1.00 20.00     0.240 C 
HETATM    4  C4  UNL     1     -35.066  17.171  -2.103  1.00 20.00     0.027 C 
HETATM    5  N11 UNL     1     -35.861  16.640  -4.280  1.00 20.00    -0.070 N 
HETATM    6  H33 UNL     1     -36.605  17.333  -4.441  1.00 20.00     0.279 HD
ENDROOT
BRANCH   5   7
HETATM    7  C9  UNL     1     -36.069  15.535  -5.266  1.00 20.00     0.239 C 
BRANCH   7   8
HETATM    8  C10 UNL     1     -34.746  14.883  -5.689  1.00 20.00     0.007 C 
HETATM    9  C6  UNL     1     -34.665  14.718  -7.211  1.00 20.00     0.011 C 
BRANCH   8  10
HETATM   10  C8  UNL     1     -34.449  13.534  -5.007  1.00 20.00     0.001 C 
HETATM   11  C5  UNL     1     -33.490  13.641  -3.830  1.00 20.00     0.005 C 
ENDBRANCH   8  10
ENDBRANCH   7   8
ENDBRANCH   5   7
BRANCH   4  12
HETATM   12  C7  UNL     1     -34.671  16.685  -0.721  1.00 20.00     0.121 C 
HETATM   13 CL12 UNL     1     -33.779  17.951   0.148  1.00 20.00    -0.130 Cl
ENDBRANCH   4  12
TORSDOF 4
ENDMDL
MODEL 6
REMARK VINA RESULT:      -4.0      1.445      1.705
REMARK  4 active torsions:
REMARK  status: ('A' for Active; 'I' for Inactive)
REMARK    1  A    between atoms: C4_4  and  C7_7 
REMARK    2  A    between atoms: C8_8  and  C10_10 
REMARK    3  A    between atoms: C9_9  and  C10_10 
REMARK    4  A    between atoms: C9_9  and  N11_11 
ROOT
HETATM    1  C1  UNL     1     -34.793  14.793  -3.062  1.00 20.00     0.035 C 
HETATM    2  C2  UNL     1     -34.601  13.906  -4.280  1.00 20.00     0.235 C 
HETATM    3  C3  UNL     1     -33.499  16.069  -4.574  1.00 20.00     0.240 C 
HETATM    4  C4  UNL     1     -33.594  15.728  -3.097  1.00 20.00     0.027 C 
HETATM    5  N11 UNL     1     -33.797  14.749  -5.254  1.00 20.00    -0.070 N 
HETATM    6  H33 UNL     1     -32.895  14.271  -5.388  1.00 20.00     0.279 HD
ENDROOT
BRANCH   5   7
HETATM    7  C9  UNL     1     -34.421  14.893  -6.605  1.00 20.00     0.239 C 
BRANCH   7   8
HETATM    8  C10 UNL     1     -35.367  16.100  -6.676  1.00 20.00     0.007 C 
HETATM    9  C6  UNL     1     -36.836  15.660  -6.668  1.00 20.00     0.011 C 
BRANCH   8  10
HETATM   10  C8  UNL     1     -35.117  17.041  -7.870  1.00 20.00     0.001 C 
HETATM   11  C5  UNL     1     -34.315  18.284  -7.512  1.00 20.00     0.005 C 
ENDBRANCH   8  10
ENDBRANCH   7   8
ENDBRANCH   5   7
BRANCH   4  12
HETATM   12  C7  UNL     1     -33.762  16.953  -2.216  1.00 20.00     0.121 C 
HETATM   13 CL12 UNL     1     -34.645  16.532  -0.734  1.00 20.00    -0.130 Cl
ENDBRANCH   4  12
TORSDOF 4
ENDMDL
MODEL 7
REMARK VINA RESULT:      -3.9      2.476      4.519
REMARK  4 active torsions:
REMARK  status: ('A' for Active; 'I' for Inactive)
REMARK    1  A    between atoms: C4_4  and  C7_7 
REMARK    2  A    between atoms: C8_8  and  C10_10 
REMARK    3  A    between atoms: C9_9  and  C10_10 
REMARK    4  A    between atoms: C9_9  and  N11_11 
ROOT
HETATM    1  C1  UNL     1     -34.370  13.947  -5.176  1.00 20.00     0.035 C 
HETATM    2  C2  UNL     1     -34.917  14.043  -3.762  1.00 20.00     0.235 C 
HETATM    3  C3  UNL     1     -36.276  15.339  -5.328  1.00 20.00     0.240 C 
HETATM    4  C4  UNL     1     -35.586  14.197  -6.056  1.00 20.00     0.027 C 
HETATM    5  N11 UNL     1     -36.118  14.964  -3.869  1.00 20.00    -0.070 N 
HETATM    6  H33 UNL     1     -36.946  14.407  -3.612  1.00 20.00     0.279 HD
ENDROOT
BRANCH   5   7
HETATM    7  C9  UNL     1     -36.078  16.140  -2.946  1.00 20.00     0.239 C 
BRANCH   7   8
HETATM    8  C10 UNL     1     -34.656  16.436  -2.453  1.00 20.00     0.007 C 
HETATM    9  C6  UNL     1     -34.605  16.546  -0.924  1.00 20.00     0.011 C 
BRANCH   8  10
HETATM   10  C8  UNL     1     -34.006  17.684  -3.081  1.00 20.00     0.001 C 
HETATM   11  C5  UNL     1     -33.463  17.452  -4.484  1.00 20.00     0.005 C 
ENDBRANCH   8  10
ENDBRANCH   7   8
ENDBRANCH   5   7
BRANCH   4  12
HETATM   12  C7  UNL     1     -35.229  14.539  -7.491  1.00 20.00     0.121 C 
HETATM   13 CL12 UNL     1     -34.759  16.246  -7.622  1.00 20.00    -0.130 Cl
ENDBRANCH   4  12
TORSDOF 4
ENDMDL
MODEL 8
REMARK VINA RESULT:      -3.9      1.848      2.881
REMARK  4 active torsions:
REMARK  status: ('A' for Active; 'I' for Inactive)
REMARK    1  A    between atoms: C4_4  and  C7_7 
REMARK    2  A    between atoms: C8_8  and  C10_10 
REMARK    3  A    between atoms: C9_9  and  C10_10 
REMARK    4  A    between atoms: C9_9  and  N11_11 
ROOT
HETATM    1  C1  UNL     1     -34.751  16.662  -0.956  1.00 20.00     0.035 C 
HETATM    2  C2  UNL     1     -34.760  15.721  -2.149  1.00 20.00     0.235 C 
HETATM    3  C3  UNL     1     -33.681  17.845  -2.702  1.00 20.00     0.240 C 
HETATM    4  C4  UNL     1     -33.556  17.567  -1.213  1.00 20.00     0.027 C 
HETATM    5  N11 UNL     1     -34.100  16.505  -3.269  1.00 20.00    -0.070 N 
HETATM    6  H33 UNL     1     -33.237  16.001  -3.517  1.00 20.00     0.279 HD
ENDROOT
BRANCH   5   7
HETATM    7  C9  UNL     1     -34.920  16.608  -4.515  1.00 20.00     0.239 C 
BRANCH   7   8
HETATM    8  C10 UNL     1     -34.413  15.668  -5.618  1.00 20.00     0.007 C 
HETATM    9  C6  UNL     1     -34.416  16.358  -6.987  1.00 20.00     0.011 C 
BRANCH   8  10
HETATM   10  C8  UNL     1     -35.167  14.327  -5.714  1.00 20.00     0.001 C 
HETATM   11  C5  UNL     1     -34.565  13.223  -4.857  1.00 20.00     0.005 C 
ENDBRANCH   8  10
ENDBRANCH   7   8
ENDBRANCH   5   7
BRANCH   4  12
HETATM   12  C7  UNL     1     -33.567  18.830  -0.372  1.00 20.00     0.121 C 
HETATM   13 CL12 UNL     1     -31.928  19.210   0.196  1.00 20.00    -0.130 Cl
ENDBRANCH   4  12
TORSDOF 4
ENDMDL
MODEL 9
REMARK VINA RESULT:      -3.9      2.631      5.127
REMARK  4 active torsions:
REMARK  status: ('A' for Active; 'I' for Inactive)
REMARK    1  A    between atoms: C4_4  and  C7_7 
REMARK    2  A    between atoms: C8_8  and  C10_10 
REMARK    3  A    between atoms: C9_9  and  C10_10 
REMARK    4  A    between atoms: C9_9  and  N11_11 
ROOT
HETATM    1  C1  UNL     1     -34.436  13.425  -4.933  1.00 20.00     0.035 C 
HETATM    2  C2  UNL     1     -34.281  13.785  -3.465  1.00 20.00     0.235 C 
HETATM    3  C3  UNL     1     -35.164  15.667  -4.752  1.00 20.00     0.240 C 
HETATM    4  C4  UNL     1     -35.534  14.356  -5.424  1.00 20.00     0.027 C 
HETATM    5  N11 UNL     1     -34.720  15.235  -3.370  1.00 20.00    -0.070 N 
HETATM    6  H33 UNL     1     -35.556  15.254  -2.767  1.00 20.00     0.279 HD
ENDROOT
BRANCH   5   7
HETATM    7  C9  UNL     1     -33.711  16.145  -2.748  1.00 20.00     0.239 C 
BRANCH   7   8
HETATM    8  C10 UNL     1     -34.367  17.224  -1.876  1.00 20.00     0.007 C 
HETATM    9  C6  UNL     1     -33.535  18.511  -1.856  1.00 20.00     0.011 C 
BRANCH   8  10
HETATM   10  C8  UNL     1     -34.671  16.783  -0.431  1.00 20.00     0.001 C 
HETATM   11  C5  UNL     1     -34.566  17.909   0.587  1.00 20.00     0.005 C 
ENDBRANCH   8  10
ENDBRANCH   7   8
ENDBRANCH   5   7
BRANCH   4  12
HETATM   12  C7  UNL     1     -35.600  14.463  -6.936  1.00 20.00     0.121 C 
HETATM   13 CL12 UNL     1     -34.284  15.488  -7.542  1.00 20.00    -0.130 Cl
ENDBRANCH   4  12
TORSDOF 4
ENDMDL
