MODEL 1
REMARK VINA RESULT:      -4.4      0.000      0.000
REMARK  3 active torsions:
REMARK  status: ('A' for Active; 'I' for Inactive)
REMARK    1  A    between atoms: C7_7  and  C8_8 
REMARK    2  A    between atoms: C7_7  and  C9_9 
REMARK    3  A    between atoms: C8_8  and  N10_10 
ROOT
HETATM    1  C1  UNL     1     -35.399   4.957   4.043  1.00 20.00     0.052 C 
HETATM    2  C2  UNL     1     -34.344   5.347   3.008  1.00 20.00     0.274 C 
HETATM    3  C3  UNL     1     -33.459   5.932   5.083  1.00 20.00     0.292 C 
HETATM    4  C4  UNL     1     -34.915   5.586   5.347  1.00 20.00     0.112 C 
HETATM    5  N10 UNL     1     -33.523   6.355   3.683  1.00 20.00     0.089 N 
HETATM    6 CL11 UNL     1     -35.103   4.502   6.736  1.00 20.00    -0.123 Cl
ENDROOT
BRANCH   5   7
HETATM    7  C8  UNL     1     -32.206   6.495   3.081  1.00 20.00     0.272 C 
BRANCH   7   8
HETATM    8  C7  UNL     1     -31.799   7.955   2.899  1.00 20.00     0.034 C 
BRANCH   8   9
HETATM    9  C9  UNL     1     -32.420   8.658   1.676  1.00 20.00    -0.021 C 
HETATM   10  C5  UNL     1     -31.482   8.530   0.474  1.00 20.00     0.009 C 
HETATM   11  C6  UNL     1     -32.719  10.135   1.941  1.00 20.00     0.009 C 
ENDBRANCH   8   9
ENDBRANCH   7   8
ENDBRANCH   5   7
TORSDOF 3
ENDMDL
MODEL 2
REMARK VINA RESULT:      -4.3     11.069     12.035
REMARK  3 active torsions:
REMARK  status: ('A' for Active; 'I' for Inactive)
REMARK    1  A    between atoms: C7_7  and  C8_8 
REMARK    2  A    between atoms: C7_7  and  C9_9 
REMARK    3  A    between atoms: C8_8  and  N10_10 
ROOT
HETATM    1  C1  UNL     1     -34.802  13.460  -4.668  1.00 20.00     0.052 C 
HETATM    2  C2  UNL     1     -34.478  14.257  -3.404  1.00 20.00     0.274 C 
HETATM    3  C3  UNL     1     -34.372  15.774  -5.170  1.00 20.00     0.292 C 
HETATM    4  C4  UNL     1     -34.468  14.404  -5.820  1.00 20.00     0.112 C 
HETATM    5  N10 UNL     1     -33.751  15.432  -3.889  1.00 20.00     0.089 N 
HETATM    6 CL11 UNL     1     -35.680  14.359  -7.110  1.00 20.00    -0.123 Cl
ENDROOT
BRANCH   5   7
HETATM    7  C8  UNL     1     -33.781  16.537  -2.942  1.00 20.00     0.272 C 
BRANCH   7   8
HETATM    8  C7  UNL     1     -34.734  16.281  -1.777  1.00 20.00     0.034 C 
BRANCH   8   9
HETATM    9  C9  UNL     1     -34.388  17.028  -0.474  1.00 20.00    -0.021 C 
HETATM   10  C5  UNL     1     -35.633  17.743   0.058  1.00 20.00     0.009 C 
HETATM   11  C6  UNL     1     -33.255  18.039  -0.664  1.00 20.00     0.009 C 
ENDBRANCH   8   9
ENDBRANCH   7   8
ENDBRANCH   5   7
TORSDOF 3
ENDMDL
MODEL 3
REMARK VINA RESULT:      -4.1     11.469     12.656
REMARK  3 active torsions:
REMARK  status: ('A' for Active; 'I' for Inactive)
REMARK    1  A    between atoms: C7_7  and  C8_8 
REMARK    2  A    between atoms: C7_7  and  C9_9 
REMARK    3  A    between atoms: C8_8  and  N10_10 
ROOT
HETATM    1  C1  UNL     1     -35.137  14.398  -6.967  1.00 20.00     0.052 C 
HETATM    2  C2  UNL     1     -35.163  13.821  -5.552  1.00 20.00     0.274 C 
HETATM    3  C3  UNL     1     -34.021  15.847  -5.402  1.00 20.00     0.292 C 
HETATM    4  C4  UNL     1     -34.167  15.574  -6.889  1.00 20.00     0.112 C 
HETATM    5  N10 UNL     1     -34.053  14.485  -4.865  1.00 20.00     0.089 N 
HETATM    6 CL11 UNL     1     -34.747  16.994  -7.775  1.00 20.00    -0.123 Cl
ENDROOT
BRANCH   5   7
HETATM    7  C8  UNL     1     -34.198  14.459  -3.417  1.00 20.00     0.272 C 
BRANCH   7   8
HETATM    8  C7  UNL     1     -33.742  15.759  -2.760  1.00 20.00     0.034 C 
BRANCH   8   9
HETATM    9  C9  UNL     1     -34.697  16.319  -1.688  1.00 20.00    -0.021 C 
HETATM   10  C5  UNL     1     -35.891  16.999  -2.363  1.00 20.00     0.009 C 
HETATM   11  C6  UNL     1     -34.005  17.307  -0.748  1.00 20.00     0.009 C 
ENDBRANCH   8   9
ENDBRANCH   7   8
ENDBRANCH   5   7
TORSDOF 3
ENDMDL
MODEL 4
REMARK VINA RESULT:      -4.0     10.476     11.744
REMARK  3 active torsions:
REMARK  status: ('A' for Active; 'I' for Inactive)
REMARK    1  A    between atoms: C7_7  and  C8_8 
REMARK    2  A    between atoms: C7_7  and  C9_9 
REMARK    3  A    between atoms: C8_8  and  N10_10 
ROOT
HETATM    1  C1  UNL     1     -33.855  18.823  -0.865  1.00 20.00     0.052 C 
HETATM    2  C2  UNL     1     -33.793  18.366  -2.323  1.00 20.00     0.274 C 
HETATM    3  C3  UNL     1     -34.621  16.555  -1.112  1.00 20.00     0.292 C 
HETATM    4  C4  UNL     1     -34.141  17.552  -0.071  1.00 20.00     0.112 C 
HETATM    5  N10 UNL     1     -33.764  16.904  -2.247  1.00 20.00     0.089 N 
HETATM    6 CL11 UNL     1     -35.336  17.806   1.212  1.00 20.00    -0.123 Cl
ENDROOT
BRANCH   5   7
HETATM    7  C8  UNL     1     -34.194  16.273  -3.486  1.00 20.00     0.272 C 
BRANCH   7   8
HETATM    8  C7  UNL     1     -35.117  15.082  -3.246  1.00 20.00     0.034 C 
BRANCH   8   9
HETATM    9  C9  UNL     1     -34.648  13.755  -3.874  1.00 20.00    -0.021 C 
HETATM   10  C5  UNL     1     -33.140  13.591  -3.670  1.00 20.00     0.009 C 
HETATM   11  C6  UNL     1     -34.979  13.666  -5.365  1.00 20.00     0.009 C 
ENDBRANCH   8   9
ENDBRANCH   7   8
ENDBRANCH   5   7
TORSDOF 3
ENDMDL
MODEL 5
REMARK VINA RESULT:      -4.0     11.110     12.057
REMARK  3 active torsions:
REMARK  status: ('A' for Active; 'I' for Inactive)
REMARK    1  A    between atoms: C7_7  and  C8_8 
REMARK    2  A    between atoms: C7_7  and  C9_9 
REMARK    3  A    between atoms: C8_8  and  N10_10 
ROOT
HETATM    1  C1  UNL     1     -33.278  16.264  -4.284  1.00 20.00     0.052 C 
HETATM    2  C2  UNL     1     -33.831  17.392  -3.413  1.00 20.00     0.274 C 
HETATM    3  C3  UNL     1     -34.810  15.429  -2.626  1.00 20.00     0.292 C 
HETATM    4  C4  UNL     1     -34.125  15.046  -3.927  1.00 20.00     0.112 C 
HETATM    5  N10 UNL     1     -35.073  16.851  -2.858  1.00 20.00     0.089 N 
HETATM    6 CL11 UNL     1     -33.161  13.569  -3.765  1.00 20.00    -0.123 Cl
ENDROOT
BRANCH   5   7
HETATM    7  C8  UNL     1     -35.493  17.546  -1.650  1.00 20.00     0.272 C 
BRANCH   7   8
HETATM    8  C7  UNL     1     -34.618  17.205  -0.446  1.00 20.00     0.034 C 
BRANCH   8   9
HETATM    9  C9  UNL     1     -34.052  18.421   0.314  1.00 20.00    -0.021 C 
HETATM   10  C5  UNL     1     -32.575  18.612  -0.044  1.00 20.00     0.009 C 
HETATM   11  C6  UNL     1     -34.201  18.283   1.830  1.00 20.00     0.009 C 
ENDBRANCH   8   9
ENDBRANCH   7   8
ENDBRANCH   5   7
TORSDOF 3
ENDMDL
MODEL 6
REMARK VINA RESULT:      -4.0     11.190     12.241
REMARK  3 active torsions:
REMARK  status: ('A' for Active; 'I' for Inactive)
REMARK    1  A    between atoms: C7_7  and  C8_8 
REMARK    2  A    between atoms: C7_7  and  C9_9 
REMARK    3  A    between atoms: C8_8  and  N10_10 
ROOT
HETATM    1  C1  UNL     1     -34.435  17.025  -0.503  1.00 20.00     0.052 C 
HETATM    2  C2  UNL     1     -34.865  16.243  -1.745  1.00 20.00     0.274 C 
HETATM    3  C3  UNL     1     -33.748  18.133  -2.527  1.00 20.00     0.292 C 
HETATM    4  C4  UNL     1     -33.949  18.369  -1.039  1.00 20.00     0.112 C 
HETATM    5  N10 UNL     1     -34.867  17.237  -2.821  1.00 20.00     0.089 N 
HETATM    6 CL11 UNL     1     -32.467  18.923  -0.243  1.00 20.00    -0.123 Cl
ENDROOT
BRANCH   5   7
HETATM    7  C8  UNL     1     -34.766  16.630  -4.140  1.00 20.00     0.272 C 
BRANCH   7   8
HETATM    8  C7  UNL     1     -33.728  15.512  -4.191  1.00 20.00     0.034 C 
BRANCH   8   9
HETATM    9  C9  UNL     1     -34.160  14.255  -4.971  1.00 20.00    -0.021 C 
HETATM   10  C5  UNL     1     -34.637  14.655  -6.370  1.00 20.00     0.009 C 
HETATM   11  C6  UNL     1     -35.262  13.472  -4.255  1.00 20.00     0.009 C 
ENDBRANCH   8   9
ENDBRANCH   7   8
ENDBRANCH   5   7
TORSDOF 3
ENDMDL
MODEL 7
REMARK VINA RESULT:      -3.9     11.045     12.333
REMARK  3 active torsions:
REMARK  status: ('A' for Active; 'I' for Inactive)
REMARK    1  A    between atoms: C7_7  and  C8_8 
REMARK    2  A    between atoms: C7_7  and  C9_9 
REMARK    3  A    between atoms: C8_8  and  N10_10 
ROOT
HETATM    1  C1  UNL     1     -35.018  18.265  -2.526  1.00 20.00     0.052 C 
HETATM    2  C2  UNL     1     -34.809  17.758  -3.953  1.00 20.00     0.274 C 
HETATM    3  C3  UNL     1     -33.669  16.271  -2.566  1.00 20.00     0.292 C 
HETATM    4  C4  UNL     1     -34.055  17.440  -1.676  1.00 20.00     0.112 C 
HETATM    5  N10 UNL     1     -33.605  16.927  -3.874  1.00 20.00     0.089 N 
HETATM    6 CL11 UNL     1     -34.780  16.908  -0.150  1.00 20.00    -0.123 Cl
ENDROOT
BRANCH   5   7
HETATM    7  C8  UNL     1     -33.512  15.976  -4.972  1.00 20.00     0.272 C 
BRANCH   7   8
HETATM    8  C7  UNL     1     -34.873  15.654  -5.584  1.00 20.00     0.034 C 
BRANCH   8   9
HETATM    9  C9  UNL     1     -35.446  14.273  -5.210  1.00 20.00    -0.021 C 
HETATM   10  C5  UNL     1     -36.510  14.432  -4.121  1.00 20.00     0.009 C 
HETATM   11  C6  UNL     1     -34.364  13.300  -4.737  1.00 20.00     0.009 C 
ENDBRANCH   8   9
ENDBRANCH   7   8
ENDBRANCH   5   7
TORSDOF 3
ENDMDL
MODEL 8
REMARK VINA RESULT:      -3.9     11.226     12.504
REMARK  3 active torsions:
REMARK  status: ('A' for Active; 'I' for Inactive)
REMARK    1  A    between atoms: C7_7  and  C8_8 
REMARK    2  A    between atoms: C7_7  and  C9_9 
REMARK    3  A    between atoms: C8_8  and  N10_10 
ROOT
HETATM    1  C1  UNL     1     -33.818  18.495  -2.146  1.00 20.00     0.052 C 
HETATM    2  C2  UNL     1     -33.816  18.251  -3.655  1.00 20.00     0.274 C 
HETATM    3  C3  UNL     1     -34.112  16.163  -2.664  1.00 20.00     0.292 C 
HETATM    4  C4  UNL     1     -33.747  17.102  -1.527  1.00 20.00     0.112 C 
HETATM    5  N10 UNL     1     -33.472  16.835  -3.796  1.00 20.00     0.089 N 
HETATM    6 CL11 UNL     1     -34.827  16.919  -0.135  1.00 20.00    -0.123 Cl
ENDROOT
BRANCH   5   7
HETATM    7  C8  UNL     1     -33.887  16.286  -5.079  1.00 20.00     0.272 C 
BRANCH   7   8
HETATM    8  C7  UNL     1     -35.316  15.749  -5.050  1.00 20.00     0.034 C 
BRANCH   8   9
HETATM    9  C9  UNL     1     -35.518  14.393  -5.752  1.00 20.00    -0.021 C 
HETATM   10  C5  UNL     1     -34.719  13.309  -5.024  1.00 20.00     0.009 C 
HETATM   11  C6  UNL     1     -35.109  14.431  -7.226  1.00 20.00     0.009 C 
ENDBRANCH   8   9
ENDBRANCH   7   8
ENDBRANCH   5   7
TORSDOF 3
ENDMDL
MODEL 9
REMARK VINA RESULT:      -3.9      9.947     11.584
REMARK  3 active torsions:
REMARK  status: ('A' for Active; 'I' for Inactive)
REMARK    1  A    between atoms: C7_7  and  C8_8 
REMARK    2  A    between atoms: C7_7  and  C9_9 
REMARK    3  A    between atoms: C8_8  and  N10_10 
ROOT
HETATM    1  C1  UNL     1     -40.799   5.745  -0.632  1.00 20.00     0.052 C 
HETATM    2  C2  UNL     1     -40.901   4.394  -1.339  1.00 20.00     0.274 C 
HETATM    3  C3  UNL     1     -43.010   5.372  -1.507  1.00 20.00     0.292 C 
HETATM    4  C4  UNL     1     -42.239   6.238  -0.525  1.00 20.00     0.112 C 
HETATM    5  N10 UNL     1     -42.333   4.085  -1.334  1.00 20.00     0.089 N 
HETATM    6 CL11 UNL     1     -42.397   7.964  -0.889  1.00 20.00    -0.123 Cl
ENDROOT
BRANCH   5   7
HETATM    7  C8  UNL     1     -42.698   3.119  -2.359  1.00 20.00     0.272 C 
BRANCH   7   8
HETATM    8  C7  UNL     1     -41.493   2.630  -3.157  1.00 20.00     0.034 C 
BRANCH   8   9
HETATM    9  C9  UNL     1     -41.804   1.552  -4.214  1.00 20.00    -0.021 C 
HETATM   10  C5  UNL     1     -43.020   1.975  -5.042  1.00 20.00     0.009 C 
HETATM   11  C6  UNL     1     -42.058   0.178  -3.590  1.00 20.00     0.009 C 
ENDBRANCH   8   9
ENDBRANCH   7   8
ENDBRANCH   5   7
TORSDOF 3
ENDMDL
