MODEL 1
REMARK VINA RESULT:      -4.1      0.000      0.000
REMARK  3 active torsions:
REMARK  status: ('A' for Active; 'I' for Inactive)
REMARK    1  A    between atoms: C4_4  and  C6_6 
REMARK    2  A    between atoms: C7_7  and  C8_8 
REMARK    3  A    between atoms: C8_8  and  N9_9 
ROOT
HETATM    1  C1  UNL     1     -35.870  14.021  -4.245  1.00 20.00     0.032 C 
HETATM    2  C2  UNL     1     -34.449  13.763  -4.736  1.00 20.00     0.038 C 
HETATM    3  C3  UNL     1     -35.742  15.111  -3.187  1.00 20.00     0.273 C 
HETATM    4  C4  UNL     1     -33.635  14.951  -4.228  1.00 20.00     0.236 C 
HETATM    5  N9  UNL     1     -34.304  15.220  -2.950  1.00 20.00     0.094 N 
ENDROOT
BRANCH   5   6
HETATM    6  C8  UNL     1     -33.929  16.461  -2.293  1.00 20.00     0.272 C 
BRANCH   6   7
HETATM    7  C7  UNL     1     -34.599  16.622  -0.934  1.00 20.00     0.026 C 
HETATM    8  C5  UNL     1     -34.021  17.776  -0.128  1.00 20.00     0.007 C 
ENDBRANCH   6   7
ENDBRANCH   5   6
BRANCH   4   9
HETATM    9  C6  UNL     1     -33.628  16.101  -5.240  1.00 20.00     0.150 C 
HETATM   10 CL10 UNL     1     -34.033  15.496  -6.858  1.00 20.00    -0.128 Cl
ENDBRANCH   4   9
TORSDOF 3
ENDMDL
MODEL 2
REMARK VINA RESULT:      -3.9      1.518      1.672
REMARK  3 active torsions:
REMARK  status: ('A' for Active; 'I' for Inactive)
REMARK    1  A    between atoms: C4_4  and  C6_6 
REMARK    2  A    between atoms: C7_7  and  C8_8 
REMARK    3  A    between atoms: C8_8  and  N9_9 
ROOT
HETATM    1  C1  UNL     1     -34.775  13.285  -4.630  1.00 20.00     0.032 C 
HETATM    2  C2  UNL     1     -34.669  14.209  -5.838  1.00 20.00     0.038 C 
HETATM    3  C3  UNL     1     -34.455  14.158  -3.421  1.00 20.00     0.273 C 
HETATM    4  C4  UNL     1     -34.667  15.621  -5.256  1.00 20.00     0.236 C 
HETATM    5  N9  UNL     1     -33.947  15.402  -3.996  1.00 20.00     0.094 N 
ENDROOT
BRANCH   5   6
HETATM    6  C8  UNL     1     -33.967  16.511  -3.059  1.00 20.00     0.272 C 
BRANCH   6   7
HETATM    7  C7  UNL     1     -34.661  16.152  -1.750  1.00 20.00     0.026 C 
HETATM    8  C5  UNL     1     -34.371  17.149  -0.638  1.00 20.00     0.007 C 
ENDBRANCH   6   7
ENDBRANCH   5   6
BRANCH   4   9
HETATM    9  C6  UNL     1     -36.089  16.178  -5.130  1.00 20.00     0.150 C 
HETATM   10 CL10 UNL     1     -37.133  15.481  -6.383  1.00 20.00    -0.128 Cl
ENDBRANCH   4   9
TORSDOF 3
ENDMDL
MODEL 3
REMARK VINA RESULT:      -3.8     12.310     14.156
REMARK  3 active torsions:
REMARK  status: ('A' for Active; 'I' for Inactive)
REMARK    1  A    between atoms: C4_4  and  C6_6 
REMARK    2  A    between atoms: C7_7  and  C8_8 
REMARK    3  A    between atoms: C8_8  and  N9_9 
ROOT
HETATM    1  C1  UNL     1     -41.386   7.016  -0.990  1.00 20.00     0.032 C 
HETATM    2  C2  UNL     1     -41.057   5.955   0.054  1.00 20.00     0.038 C 
HETATM    3  C3  UNL     1     -41.861   6.246  -2.217  1.00 20.00     0.273 C 
HETATM    4  C4  UNL     1     -41.700   4.673  -0.470  1.00 20.00     0.236 C 
HETATM    5  N9  UNL     1     -41.538   4.852  -1.917  1.00 20.00     0.094 N 
ENDROOT
BRANCH   5   6
HETATM    6  C8  UNL     1     -42.261   3.909  -2.753  1.00 20.00     0.272 C 
BRANCH   6   7
HETATM    7  C7  UNL     1     -41.441   2.663  -3.065  1.00 20.00     0.026 C 
HETATM    8  C5  UNL     1     -42.170   1.694  -3.984  1.00 20.00     0.007 C 
ENDBRANCH   6   7
ENDBRANCH   5   6
BRANCH   4   9
HETATM    9  C6  UNL     1     -43.139   4.522   0.033  1.00 20.00     0.150 C 
HETATM   10 CL10 UNL     1     -43.375   5.468   1.514  1.00 20.00    -0.128 Cl
ENDBRANCH   4   9
TORSDOF 3
ENDMDL
MODEL 4
REMARK VINA RESULT:      -3.8      1.432      2.226
REMARK  3 active torsions:
REMARK  status: ('A' for Active; 'I' for Inactive)
REMARK    1  A    between atoms: C4_4  and  C6_6 
REMARK    2  A    between atoms: C7_7  and  C8_8 
REMARK    3  A    between atoms: C8_8  and  N9_9 
ROOT
HETATM    1  C1  UNL     1     -34.033  16.296  -5.943  1.00 20.00     0.032 C 
HETATM    2  C2  UNL     1     -35.280  15.562  -5.461  1.00 20.00     0.038 C 
HETATM    3  C3  UNL     1     -33.341  16.794  -4.679  1.00 20.00     0.273 C 
HETATM    4  C4  UNL     1     -35.057  15.346  -3.966  1.00 20.00     0.236 C 
HETATM    5  N9  UNL     1     -34.317  16.564  -3.616  1.00 20.00     0.094 N 
ENDROOT
BRANCH   5   6
HETATM    6  C8  UNL     1     -33.727  16.581  -2.289  1.00 20.00     0.272 C 
BRANCH   6   7
HETATM    7  C7  UNL     1     -34.777  16.517  -1.186  1.00 20.00     0.026 C 
HETATM    8  C5  UNL     1     -34.468  17.452  -0.026  1.00 20.00     0.007 C 
ENDBRANCH   6   7
ENDBRANCH   5   6
BRANCH   4   9
HETATM    9  C6  UNL     1     -34.340  14.020  -3.692  1.00 20.00     0.150 C 
HETATM   10 CL10 UNL     1     -34.642  12.875  -5.013  1.00 20.00    -0.128 Cl
ENDBRANCH   4   9
TORSDOF 3
ENDMDL
MODEL 5
REMARK VINA RESULT:      -3.7      1.899      3.933
REMARK  3 active torsions:
REMARK  status: ('A' for Active; 'I' for Inactive)
REMARK    1  A    between atoms: C4_4  and  C6_6 
REMARK    2  A    between atoms: C7_7  and  C8_8 
REMARK    3  A    between atoms: C8_8  and  N9_9 
ROOT
HETATM    1  C1  UNL     1     -35.599  17.368  -2.301  1.00 20.00     0.032 C 
HETATM    2  C2  UNL     1     -34.569  16.459  -1.640  1.00 20.00     0.038 C 
HETATM    3  C3  UNL     1     -35.113  17.560  -3.733  1.00 20.00     0.273 C 
HETATM    4  C4  UNL     1     -33.761  15.873  -2.795  1.00 20.00     0.236 C 
HETATM    5  N9  UNL     1     -33.762  17.000  -3.736  1.00 20.00     0.094 N 
ENDROOT
BRANCH   5   6
HETATM    6  C8  UNL     1     -33.272  16.706  -5.071  1.00 20.00     0.272 C 
BRANCH   6   7
HETATM    7  C7  UNL     1     -34.389  16.683  -6.107  1.00 20.00     0.026 C 
HETATM    8  C5  UNL     1     -34.368  15.427  -6.966  1.00 20.00     0.007 C 
ENDBRANCH   6   7
ENDBRANCH   5   6
BRANCH   4   9
HETATM    9  C6  UNL     1     -34.379  14.568  -3.307  1.00 20.00     0.150 C 
HETATM   10 CL10 UNL     1     -33.104  13.410  -3.728  1.00 20.00    -0.128 Cl
ENDBRANCH   4   9
TORSDOF 3
ENDMDL
MODEL 6
REMARK VINA RESULT:      -3.7     12.203     13.782
REMARK  3 active torsions:
REMARK  status: ('A' for Active; 'I' for Inactive)
REMARK    1  A    between atoms: C4_4  and  C6_6 
REMARK    2  A    between atoms: C7_7  and  C8_8 
REMARK    3  A    between atoms: C8_8  and  N9_9 
ROOT
HETATM    1  C1  UNL     1     -40.732   5.898  -0.545  1.00 20.00     0.032 C 
HETATM    2  C2  UNL     1     -42.119   6.529  -0.590  1.00 20.00     0.038 C 
HETATM    3  C3  UNL     1     -40.884   4.533  -1.209  1.00 20.00     0.273 C 
HETATM    4  C4  UNL     1     -42.904   5.684  -1.592  1.00 20.00     0.236 C 
HETATM    5  N9  UNL     1     -42.328   4.357  -1.348  1.00 20.00     0.094 N 
ENDROOT
BRANCH   5   6
HETATM    6  C8  UNL     1     -42.684   3.330  -2.311  1.00 20.00     0.272 C 
BRANCH   6   7
HETATM    7  C7  UNL     1     -41.465   2.749  -3.017  1.00 20.00     0.026 C 
HETATM    8  C5  UNL     1     -41.763   1.431  -3.716  1.00 20.00     0.007 C 
ENDBRANCH   6   7
ENDBRANCH   5   6
BRANCH   4   9
HETATM    9  C6  UNL     1     -42.763   6.228  -3.017  1.00 20.00     0.150 C 
HETATM   10 CL10 UNL     1     -42.477   7.978  -2.980  1.00 20.00    -0.128 Cl
ENDBRANCH   4   9
TORSDOF 3
ENDMDL
MODEL 7
REMARK VINA RESULT:      -3.7      2.399      4.066
REMARK  3 active torsions:
REMARK  status: ('A' for Active; 'I' for Inactive)
REMARK    1  A    between atoms: C4_4  and  C6_6 
REMARK    2  A    between atoms: C7_7  and  C8_8 
REMARK    3  A    between atoms: C8_8  and  N9_9 
ROOT
HETATM    1  C1  UNL     1     -34.076  17.529  -5.897  1.00 20.00     0.032 C 
HETATM    2  C2  UNL     1     -33.661  18.178  -4.581  1.00 20.00     0.038 C 
HETATM    3  C3  UNL     1     -33.884  16.031  -5.689  1.00 20.00     0.273 C 
HETATM    4  C4  UNL     1     -33.613  17.032  -3.574  1.00 20.00     0.236 C 
HETATM    5  N9  UNL     1     -33.154  15.930  -4.427  1.00 20.00     0.094 N 
ENDROOT
BRANCH   5   6
HETATM    6  C8  UNL     1     -33.222  14.605  -3.836  1.00 20.00     0.272 C 
BRANCH   6   7
HETATM    7  C7  UNL     1     -34.053  13.639  -4.672  1.00 20.00     0.026 C 
HETATM    8  C5  UNL     1     -35.440  13.403  -4.092  1.00 20.00     0.007 C 
ENDBRANCH   6   7
ENDBRANCH   5   6
BRANCH   4   9
HETATM    9  C6  UNL     1     -34.968  16.831  -2.887  1.00 20.00     0.150 C 
HETATM   10 CL10 UNL     1     -34.735  16.382  -1.188  1.00 20.00    -0.128 Cl
ENDBRANCH   4   9
TORSDOF 3
ENDMDL
MODEL 8
REMARK VINA RESULT:      -3.6      2.156      4.419
REMARK  3 active torsions:
REMARK  status: ('A' for Active; 'I' for Inactive)
REMARK    1  A    between atoms: C4_4  and  C6_6 
REMARK    2  A    between atoms: C7_7  and  C8_8 
REMARK    3  A    between atoms: C8_8  and  N9_9 
ROOT
HETATM    1  C1  UNL     1     -33.685  16.682  -3.046  1.00 20.00     0.032 C 
HETATM    2  C2  UNL     1     -34.731  15.918  -2.243  1.00 20.00     0.038 C 
HETATM    3  C3  UNL     1     -33.581  15.950  -4.379  1.00 20.00     0.273 C 
HETATM    4  C4  UNL     1     -35.442  15.031  -3.263  1.00 20.00     0.236 C 
HETATM    5  N9  UNL     1     -34.335  14.715  -4.174  1.00 20.00     0.094 N 
ENDROOT
BRANCH   5   6
HETATM    6  C8  UNL     1     -34.711  14.065  -5.418  1.00 20.00     0.272 C 
BRANCH   6   7
HETATM    7  C7  UNL     1     -34.421  14.934  -6.636  1.00 20.00     0.026 C 
HETATM    8  C5  UNL     1     -35.336  14.623  -7.811  1.00 20.00     0.007 C 
ENDBRANCH   6   7
ENDBRANCH   5   6
BRANCH   4   9
HETATM    9  C6  UNL     1     -36.644  15.746  -3.887  1.00 20.00     0.150 C 
HETATM   10 CL10 UNL     1     -38.031  14.645  -3.981  1.00 20.00    -0.128 Cl
ENDBRANCH   4   9
TORSDOF 3
ENDMDL
MODEL 9
REMARK VINA RESULT:      -3.6      1.794      2.164
REMARK  3 active torsions:
REMARK  status: ('A' for Active; 'I' for Inactive)
REMARK    1  A    between atoms: C4_4  and  C6_6 
REMARK    2  A    between atoms: C7_7  and  C8_8 
REMARK    3  A    between atoms: C8_8  and  N9_9 
ROOT
HETATM    1  C1  UNL     1     -37.299  15.737  -4.869  1.00 20.00     0.032 C 
HETATM    2  C2  UNL     1     -36.852  14.536  -4.044  1.00 20.00     0.038 C 
HETATM    3  C3  UNL     1     -36.337  16.862  -4.503  1.00 20.00     0.273 C 
HETATM    4  C4  UNL     1     -35.458  14.900  -3.539  1.00 20.00     0.236 C 
HETATM    5  N9  UNL     1     -35.600  16.348  -3.350  1.00 20.00     0.094 N 
ENDROOT
BRANCH   5   6
HETATM    6  C8  UNL     1     -34.367  17.073  -3.094  1.00 20.00     0.272 C 
BRANCH   6   7
HETATM    7  C7  UNL     1     -33.770  16.739  -1.733  1.00 20.00     0.026 C 
HETATM    8  C5  UNL     1     -34.774  16.887  -0.598  1.00 20.00     0.007 C 
ENDBRANCH   6   7
ENDBRANCH   5   6
BRANCH   4   9
HETATM    9  C6  UNL     1     -34.371  14.453  -4.522  1.00 20.00     0.150 C 
HETATM   10 CL10 UNL     1     -33.051  13.649  -3.653  1.00 20.00    -0.128 Cl
ENDBRANCH   4   9
TORSDOF 3
ENDMDL
