MODEL 1
REMARK VINA RESULT:      -4.2      0.000      0.000
REMARK  3 active torsions:
REMARK  status: ('A' for Active; 'I' for Inactive)
REMARK    1  A    between atoms: C4_4  and  C7_7 
REMARK    2  A    between atoms: C8_8  and  C9_9 
REMARK    3  A    between atoms: C8_8  and  N10_10 
ROOT
HETATM    1  C1  UNL     1     -33.682  13.598  -4.048  1.00 20.00     0.032 C 
HETATM    2  C2  UNL     1     -35.167  13.342  -4.276  1.00 20.00     0.038 C 
HETATM    3  C3  UNL     1     -33.609  14.908  -3.273  1.00 20.00     0.273 C 
HETATM    4  C4  UNL     1     -35.849  14.673  -3.965  1.00 20.00     0.236 C 
HETATM    5  N10 UNL     1     -34.993  15.179  -2.886  1.00 20.00     0.094 N 
ENDROOT
BRANCH   5   6
HETATM    6  C8  UNL     1     -35.217  16.562  -2.503  1.00 20.00     0.277 C 
BRANCH   6   7
HETATM    7  C9  UNL     1     -34.201  17.033  -1.456  1.00 20.00     0.006 C 
HETATM    8  C5  UNL     1     -33.569  18.376  -1.824  1.00 20.00     0.011 C 
HETATM    9  C6  UNL     1     -34.808  17.090  -0.053  1.00 20.00     0.011 C 
ENDBRANCH   6   7
ENDBRANCH   5   6
BRANCH   4  10
HETATM   10  C7  UNL     1     -35.950  15.556  -5.214  1.00 20.00     0.150 C 
HETATM   11 CL11 UNL     1     -35.817  14.564  -6.679  1.00 20.00    -0.128 Cl
ENDBRANCH   4  10
TORSDOF 3
ENDMDL
MODEL 2
REMARK VINA RESULT:      -4.1      1.662      2.135
REMARK  3 active torsions:
REMARK  status: ('A' for Active; 'I' for Inactive)
REMARK    1  A    between atoms: C4_4  and  C7_7 
REMARK    2  A    between atoms: C8_8  and  C9_9 
REMARK    3  A    between atoms: C8_8  and  N10_10 
ROOT
HETATM    1  C1  UNL     1     -34.756  13.313  -4.960  1.00 20.00     0.032 C 
HETATM    2  C2  UNL     1     -35.442  14.548  -5.531  1.00 20.00     0.038 C 
HETATM    3  C3  UNL     1     -34.017  13.795  -3.717  1.00 20.00     0.273 C 
HETATM    4  C4  UNL     1     -34.775  15.729  -4.830  1.00 20.00     0.236 C 
HETATM    5  N10 UNL     1     -34.514  15.154  -3.506  1.00 20.00     0.094 N 
ENDROOT
BRANCH   5   6
HETATM    6  C8  UNL     1     -33.658  15.943  -2.637  1.00 20.00     0.277 C 
BRANCH   6   7
HETATM    7  C9  UNL     1     -34.428  17.086  -1.965  1.00 20.00     0.006 C 
HETATM    8  C5  UNL     1     -34.689  16.818  -0.483  1.00 20.00     0.011 C 
HETATM    9  C6  UNL     1     -33.731  18.434  -2.153  1.00 20.00     0.011 C 
ENDBRANCH   6   7
ENDBRANCH   5   6
BRANCH   4  10
HETATM   10  C7  UNL     1     -33.548  16.220  -5.605  1.00 20.00     0.150 C 
HETATM   11 CL11 UNL     1     -33.605  17.983  -5.792  1.00 20.00    -0.128 Cl
ENDBRANCH   4  10
TORSDOF 3
ENDMDL
MODEL 3
REMARK VINA RESULT:      -4.1      2.492      4.623
REMARK  3 active torsions:
REMARK  status: ('A' for Active; 'I' for Inactive)
REMARK    1  A    between atoms: C4_4  and  C7_7 
REMARK    2  A    between atoms: C8_8  and  C9_9 
REMARK    3  A    between atoms: C8_8  and  N10_10 
ROOT
HETATM    1  C1  UNL     1     -33.321  13.594  -3.785  1.00 20.00     0.032 C 
HETATM    2  C2  UNL     1     -33.129  15.102  -3.684  1.00 20.00     0.038 C 
HETATM    3  C3  UNL     1     -34.584  13.399  -4.616  1.00 20.00     0.273 C 
HETATM    4  C4  UNL     1     -34.464  15.700  -4.123  1.00 20.00     0.236 C 
HETATM    5  N10 UNL     1     -34.880  14.730  -5.142  1.00 20.00     0.094 N 
ENDROOT
BRANCH   5   6
HETATM    6  C8  UNL     1     -36.247  14.864  -5.615  1.00 20.00     0.277 C 
BRANCH   6   7
HETATM    7  C9  UNL     1     -36.302  15.328  -7.075  1.00 20.00     0.006 C 
HETATM    8  C5  UNL     1     -35.177  14.726  -7.918  1.00 20.00     0.011 C 
HETATM    9  C6  UNL     1     -37.663  15.049  -7.715  1.00 20.00     0.011 C 
ENDBRANCH   6   7
ENDBRANCH   5   6
BRANCH   4  10
HETATM   10  C7  UNL     1     -35.416  15.879  -2.936  1.00 20.00     0.150 C 
HETATM   11 CL11 UNL     1     -34.498  16.253  -1.464  1.00 20.00    -0.128 Cl
ENDBRANCH   4  10
TORSDOF 3
ENDMDL
MODEL 4
REMARK VINA RESULT:      -4.0      1.644      2.237
REMARK  3 active torsions:
REMARK  status: ('A' for Active; 'I' for Inactive)
REMARK    1  A    between atoms: C4_4  and  C7_7 
REMARK    2  A    between atoms: C8_8  and  C9_9 
REMARK    3  A    between atoms: C8_8  and  N10_10 
ROOT
HETATM    1  C1  UNL     1     -33.377  16.796  -4.926  1.00 20.00     0.032 C 
HETATM    2  C2  UNL     1     -33.082  15.454  -4.267  1.00 20.00     0.038 C 
HETATM    3  C3  UNL     1     -34.160  17.595  -3.891  1.00 20.00     0.273 C 
HETATM    4  C4  UNL     1     -34.013  15.395  -3.058  1.00 20.00     0.236 C 
HETATM    5  N10 UNL     1     -34.045  16.808  -2.664  1.00 20.00     0.094 N 
ENDROOT
BRANCH   5   6
HETATM    6  C8  UNL     1     -35.042  17.160  -1.668  1.00 20.00     0.277 C 
BRANCH   6   7
HETATM    7  C9  UNL     1     -34.430  17.275  -0.267  1.00 20.00     0.006 C 
HETATM    8  C5  UNL     1     -33.207  18.192  -0.241  1.00 20.00     0.011 C 
HETATM    9  C6  UNL     1     -35.459  17.719   0.773  1.00 20.00     0.011 C 
ENDBRANCH   6   7
ENDBRANCH   5   6
BRANCH   4  10
HETATM   10  C7  UNL     1     -35.362  14.766  -3.420  1.00 20.00     0.150 C 
HETATM   11 CL11 UNL     1     -35.115  13.240  -4.288  1.00 20.00    -0.128 Cl
ENDBRANCH   4  10
TORSDOF 3
ENDMDL
MODEL 5
REMARK VINA RESULT:      -4.0      2.746      3.509
REMARK  3 active torsions:
REMARK  status: ('A' for Active; 'I' for Inactive)
REMARK    1  A    between atoms: C4_4  and  C7_7 
REMARK    2  A    between atoms: C8_8  and  C9_9 
REMARK    3  A    between atoms: C8_8  and  N10_10 
ROOT
HETATM    1  C1  UNL     1     -34.462  13.246  -4.865  1.00 20.00     0.032 C 
HETATM    2  C2  UNL     1     -33.533  13.766  -3.774  1.00 20.00     0.038 C 
HETATM    3  C3  UNL     1     -34.974  14.486  -5.588  1.00 20.00     0.273 C 
HETATM    4  C4  UNL     1     -33.839  15.259  -3.673  1.00 20.00     0.236 C 
HETATM    5  N10 UNL     1     -34.145  15.574  -5.073  1.00 20.00     0.094 N 
ENDROOT
BRANCH   5   6
HETATM    6  C8  UNL     1     -34.719  16.888  -5.309  1.00 20.00     0.277 C 
BRANCH   6   7
HETATM    7  C9  UNL     1     -33.638  17.969  -5.425  1.00 20.00     0.006 C 
HETATM    8  C5  UNL     1     -33.767  18.783  -6.713  1.00 20.00     0.011 C 
HETATM    9  C6  UNL     1     -33.617  18.891  -4.205  1.00 20.00     0.011 C 
ENDBRANCH   6   7
ENDBRANCH   5   6
BRANCH   4  10
HETATM   10  C7  UNL     1     -34.957  15.534  -2.661  1.00 20.00     0.150 C 
HETATM   11 CL11 UNL     1     -34.340  16.512  -1.316  1.00 20.00    -0.128 Cl
ENDBRANCH   4  10
TORSDOF 3
ENDMDL
MODEL 6
REMARK VINA RESULT:      -4.0      1.843      2.643
REMARK  3 active torsions:
REMARK  status: ('A' for Active; 'I' for Inactive)
REMARK    1  A    between atoms: C4_4  and  C7_7 
REMARK    2  A    between atoms: C8_8  and  C9_9 
REMARK    3  A    between atoms: C8_8  and  N10_10 
ROOT
HETATM    1  C1  UNL     1     -36.253  15.174  -6.618  1.00 20.00     0.032 C 
HETATM    2  C2  UNL     1     -34.729  15.140  -6.604  1.00 20.00     0.038 C 
HETATM    3  C3  UNL     1     -36.667  15.447  -5.177  1.00 20.00     0.273 C 
HETATM    4  C4  UNL     1     -34.351  15.017  -5.130  1.00 20.00     0.236 C 
HETATM    5  N10 UNL     1     -35.420  15.802  -4.502  1.00 20.00     0.094 N 
ENDROOT
BRANCH   5   6
HETATM    6  C8  UNL     1     -35.507  15.701  -3.056  1.00 20.00     0.277 C 
BRANCH   6   7
HETATM    7  C9  UNL     1     -34.367  16.456  -2.363  1.00 20.00     0.006 C 
HETATM    8  C5  UNL     1     -34.112  17.826  -2.992  1.00 20.00     0.011 C 
HETATM    9  C6  UNL     1     -34.600  16.590  -0.857  1.00 20.00     0.011 C 
ENDBRANCH   6   7
ENDBRANCH   5   6
BRANCH   4  10
HETATM   10  C7  UNL     1     -34.251  13.550  -4.698  1.00 20.00     0.150 C 
HETATM   11 CL11 UNL     1     -32.914  13.337  -3.552  1.00 20.00    -0.128 Cl
ENDBRANCH   4  10
TORSDOF 3
ENDMDL
MODEL 7
REMARK VINA RESULT:      -4.0     11.814     12.661
REMARK  3 active torsions:
REMARK  status: ('A' for Active; 'I' for Inactive)
REMARK    1  A    between atoms: C4_4  and  C7_7 
REMARK    2  A    between atoms: C8_8  and  C9_9 
REMARK    3  A    between atoms: C8_8  and  N10_10 
ROOT
HETATM    1  C1  UNL     1     -35.482   4.194   4.640  1.00 20.00     0.032 C 
HETATM    2  C2  UNL     1     -34.343   4.178   5.652  1.00 20.00     0.038 C 
HETATM    3  C3  UNL     1     -35.200   5.381   3.727  1.00 20.00     0.273 C 
HETATM    4  C4  UNL     1     -33.677   5.546   5.518  1.00 20.00     0.236 C 
HETATM    5  N10 UNL     1     -33.844   5.796   4.082  1.00 20.00     0.094 N 
ENDROOT
BRANCH   5   6
HETATM    6  C8  UNL     1     -33.526   7.142   3.638  1.00 20.00     0.277 C 
BRANCH   6   7
HETATM    7  C9  UNL     1     -32.116   7.228   3.044  1.00 20.00     0.006 C 
HETATM    8  C5  UNL     1     -32.064   8.109   1.795  1.00 20.00     0.011 C 
HETATM    9  C6  UNL     1     -31.087   7.695   4.074  1.00 20.00     0.011 C 
ENDBRANCH   6   7
ENDBRANCH   5   6
BRANCH   4  10
HETATM   10  C7  UNL     1     -34.316   6.574   6.458  1.00 20.00     0.150 C 
HETATM   11 CL11 UNL     1     -33.076   7.661   7.112  1.00 20.00    -0.128 Cl
ENDBRANCH   4  10
TORSDOF 3
ENDMDL
MODEL 8
REMARK VINA RESULT:      -3.8      2.298      4.273
REMARK  3 active torsions:
REMARK  status: ('A' for Active; 'I' for Inactive)
REMARK    1  A    between atoms: C4_4  and  C7_7 
REMARK    2  A    between atoms: C8_8  and  C9_9 
REMARK    3  A    between atoms: C8_8  and  N10_10 
ROOT
HETATM    1  C1  UNL     1     -34.096  17.419  -1.614  1.00 20.00     0.032 C 
HETATM    2  C2  UNL     1     -34.728  16.081  -1.980  1.00 20.00     0.038 C 
HETATM    3  C3  UNL     1     -33.645  18.031  -2.935  1.00 20.00     0.273 C 
HETATM    4  C4  UNL     1     -34.283  15.814  -3.416  1.00 20.00     0.236 C 
HETATM    5  N10 UNL     1     -34.253  17.178  -3.955  1.00 20.00     0.094 N 
ENDROOT
BRANCH   5   6
HETATM    6  C8  UNL     1     -33.633  17.324  -5.261  1.00 20.00     0.277 C 
BRANCH   6   7
HETATM    7  C9  UNL     1     -34.585  16.915  -6.391  1.00 20.00     0.006 C 
HETATM    8  C5  UNL     1     -34.642  17.959  -7.508  1.00 20.00     0.011 C 
HETATM    9  C6  UNL     1     -34.242  15.538  -6.959  1.00 20.00     0.011 C 
ENDBRANCH   6   7
ENDBRANCH   5   6
BRANCH   4  10
HETATM   10  C7  UNL     1     -32.959  15.044  -3.458  1.00 20.00     0.150 C 
HETATM   11 CL11 UNL     1     -33.251  13.342  -3.860  1.00 20.00    -0.128 Cl
ENDBRANCH   4  10
TORSDOF 3
ENDMDL
MODEL 9
REMARK VINA RESULT:      -3.8      2.503      4.289
REMARK  3 active torsions:
REMARK  status: ('A' for Active; 'I' for Inactive)
REMARK    1  A    between atoms: C4_4  and  C7_7 
REMARK    2  A    between atoms: C8_8  and  C9_9 
REMARK    3  A    between atoms: C8_8  and  N10_10 
ROOT
HETATM    1  C1  UNL     1     -33.604  13.768  -3.830  1.00 20.00     0.032 C 
HETATM    2  C2  UNL     1     -33.001  15.148  -3.591  1.00 20.00     0.038 C 
HETATM    3  C3  UNL     1     -35.084  14.012  -4.098  1.00 20.00     0.273 C 
HETATM    4  C4  UNL     1     -34.199  16.066  -3.359  1.00 20.00     0.236 C 
HETATM    5  N10 UNL     1     -35.190  15.461  -4.255  1.00 20.00     0.094 N 
ENDROOT
BRANCH   5   6
HETATM    6  C8  UNL     1     -36.550  15.951  -4.109  1.00 20.00     0.277 C 
BRANCH   6   7
HETATM    7  C9  UNL     1     -37.570  14.993  -4.736  1.00 20.00     0.006 C 
HETATM    8  C5  UNL     1     -38.825  14.837  -3.876  1.00 20.00     0.011 C 
HETATM    9  C6  UNL     1     -37.942  15.404  -6.161  1.00 20.00     0.011 C 
ENDBRANCH   6   7
ENDBRANCH   5   6
BRANCH   4  10
HETATM   10  C7  UNL     1     -34.580  16.126  -1.876  1.00 20.00     0.150 C 
HETATM   11 CL11 UNL     1     -33.594  17.339  -1.037  1.00 20.00    -0.128 Cl
ENDBRANCH   4  10
TORSDOF 3
ENDMDL
