MODEL 1
REMARK VINA RESULT:      -3.8      0.000      0.000
REMARK  3 active torsions:
REMARK  status: ('A' for Active; 'I' for Inactive)
REMARK    1  A    between atoms: C1_1  and  C4_4 
REMARK       I    between atoms: C1_1  and  N7_7 
REMARK    2  A    between atoms: C5_5  and  C6_6 
REMARK    3  A    between atoms: C5_5  and  N7_7 
ROOT
HETATM    1  C1  UNL     1     -33.743   6.204   4.802  1.00 20.00     0.219 C 
HETATM    2  C3  UNL     1     -32.573   5.434   2.727  1.00 20.00     0.152 C 
HETATM    3  N7  UNL     1     -32.879   6.448   3.729  1.00 20.00    -0.355 N 
HETATM    4  O8  UNL     1     -33.635   6.759   5.900  1.00 20.00    -0.273 OA
ENDROOT
BRANCH   3   5
HETATM    5  C5  UNL     1     -32.218   7.736   3.532  1.00 20.00     0.140 C 
BRANCH   5   6
HETATM    6  C6  UNL     1     -31.994   8.058   2.064  1.00 20.00     0.134 C 
HETATM    7 CL9  UNL     1     -32.520   9.714   1.676  1.00 20.00    -0.129 Cl
ENDBRANCH   5   6
ENDBRANCH   3   5
BRANCH   1   8
HETATM    8  C4  UNL     1     -34.854   5.194   4.554  1.00 20.00     0.098 C 
HETATM    9  C2  UNL     1     -35.020   4.211   5.702  1.00 20.00     0.014 C 
ENDBRANCH   1   8
TORSDOF 3
ENDMDL
MODEL 2
REMARK VINA RESULT:      -3.8     11.297     12.311
REMARK  3 active torsions:
REMARK  status: ('A' for Active; 'I' for Inactive)
REMARK    1  A    between atoms: C1_1  and  C4_4 
REMARK       I    between atoms: C1_1  and  N7_7 
REMARK    2  A    between atoms: C5_5  and  C6_6 
REMARK    3  A    between atoms: C5_5  and  N7_7 
ROOT
HETATM    1  C1  UNL     1     -34.552  13.970  -5.246  1.00 20.00     0.219 C 
HETATM    2  C3  UNL     1     -33.342  16.141  -4.944  1.00 20.00     0.152 C 
HETATM    3  N7  UNL     1     -34.109  15.014  -4.427  1.00 20.00    -0.355 N 
HETATM    4  O8  UNL     1     -34.704  12.812  -4.847  1.00 20.00    -0.273 OA
ENDROOT
BRANCH   3   5
HETATM    5  C5  UNL     1     -34.382  15.054  -2.992  1.00 20.00     0.140 C 
BRANCH   5   6
HETATM    6  C6  UNL     1     -33.937  16.356  -2.349  1.00 20.00     0.134 C 
HETATM    7 CL9  UNL     1     -34.644  16.554  -0.727  1.00 20.00    -0.129 Cl
ENDBRANCH   5   6
ENDBRANCH   3   5
BRANCH   1   8
HETATM    8  C4  UNL     1     -34.843  14.330  -6.696  1.00 20.00     0.098 C 
HETATM    9  C2  UNL     1     -36.256  14.854  -6.897  1.00 20.00     0.014 C 
ENDBRANCH   1   8
TORSDOF 3
ENDMDL
MODEL 3
REMARK VINA RESULT:      -3.7      1.591      1.966
REMARK  3 active torsions:
REMARK  status: ('A' for Active; 'I' for Inactive)
REMARK    1  A    between atoms: C1_1  and  C4_4 
REMARK       I    between atoms: C1_1  and  N7_7 
REMARK    2  A    between atoms: C5_5  and  C6_6 
REMARK    3  A    between atoms: C5_5  and  N7_7 
ROOT
HETATM    1  C1  UNL     1     -34.504   5.451   3.676  1.00 20.00     0.219 C 
HETATM    2  C3  UNL     1     -33.444   6.957   5.372  1.00 20.00     0.152 C 
HETATM    3  N7  UNL     1     -33.408   6.190   4.132  1.00 20.00    -0.355 N 
HETATM    4  O8  UNL     1     -34.736   5.247   2.480  1.00 20.00    -0.273 OA
ENDROOT
BRANCH   3   5
HETATM    5  C5  UNL     1     -32.144   6.250   3.401  1.00 20.00     0.140 C 
BRANCH   5   6
HETATM    6  C6  UNL     1     -31.612   7.667   3.270  1.00 20.00     0.134 C 
HETATM    7 CL9  UNL     1     -32.080   8.394   1.714  1.00 20.00    -0.129 Cl
ENDBRANCH   5   6
ENDBRANCH   3   5
BRANCH   1   8
HETATM    8  C4  UNL     1     -35.430   4.892   4.746  1.00 20.00     0.098 C 
HETATM    9  C2  UNL     1     -34.753   3.849   5.621  1.00 20.00     0.014 C 
ENDBRANCH   1   8
TORSDOF 3
ENDMDL
MODEL 4
REMARK VINA RESULT:      -3.7     11.093     11.638
REMARK  3 active torsions:
REMARK  status: ('A' for Active; 'I' for Inactive)
REMARK    1  A    between atoms: C1_1  and  C4_4 
REMARK       I    between atoms: C1_1  and  N7_7 
REMARK    2  A    between atoms: C5_5  and  C6_6 
REMARK    3  A    between atoms: C5_5  and  N7_7 
ROOT
HETATM    1  C1  UNL     1     -34.832  15.819  -2.643  1.00 20.00     0.219 C 
HETATM    2  C3  UNL     1     -32.716  15.004  -3.706  1.00 20.00     0.152 C 
HETATM    3  N7  UNL     1     -34.119  14.840  -3.344  1.00 20.00    -0.355 N 
HETATM    4  O8  UNL     1     -36.047  15.996  -2.770  1.00 20.00    -0.273 OA
ENDROOT
BRANCH   3   5
HETATM    5  C5  UNL     1     -34.726  13.580  -3.765  1.00 20.00     0.140 C 
BRANCH   5   6
HETATM    6  C6  UNL     1     -34.725  13.408  -5.275  1.00 20.00     0.134 C 
HETATM    7 CL9  UNL     1     -35.666  14.692  -6.073  1.00 20.00    -0.129 Cl
ENDBRANCH   5   6
ENDBRANCH   3   5
BRANCH   1   8
HETATM    8  C4  UNL     1     -34.022  16.686  -1.689  1.00 20.00     0.098 C 
HETATM    9  C2  UNL     1     -34.732  16.922  -0.366  1.00 20.00     0.014 C 
ENDBRANCH   1   8
TORSDOF 3
ENDMDL
MODEL 5
REMARK VINA RESULT:      -3.6     11.903     12.584
REMARK  3 active torsions:
REMARK  status: ('A' for Active; 'I' for Inactive)
REMARK    1  A    between atoms: C1_1  and  C4_4 
REMARK       I    between atoms: C1_1  and  N7_7 
REMARK    2  A    between atoms: C5_5  and  C6_6 
REMARK    3  A    between atoms: C5_5  and  N7_7 
ROOT
HETATM    1  C1  UNL     1     -33.907  16.921  -2.819  1.00 20.00     0.219 C 
HETATM    2  C3  UNL     1     -33.038  14.735  -3.678  1.00 20.00     0.152 C 
HETATM    3  N7  UNL     1     -33.430  16.128  -3.867  1.00 20.00    -0.355 N 
HETATM    4  O8  UNL     1     -33.747  18.144  -2.766  1.00 20.00    -0.273 OA
ENDROOT
BRANCH   3   5
HETATM    5  C5  UNL     1     -33.287  16.633  -5.231  1.00 20.00     0.140 C 
BRANCH   5   6
HETATM    6  C6  UNL     1     -34.524  16.387  -6.077  1.00 20.00     0.134 C 
HETATM    7 CL9  UNL     1     -34.305  14.984  -7.152  1.00 20.00    -0.129 Cl
ENDBRANCH   5   6
ENDBRANCH   3   5
BRANCH   1   8
HETATM    8  C4  UNL     1     -34.653  16.192  -1.710  1.00 20.00     0.098 C 
HETATM    9  C2  UNL     1     -34.644  16.957  -0.396  1.00 20.00     0.014 C 
ENDBRANCH   1   8
TORSDOF 3
ENDMDL
MODEL 6
REMARK VINA RESULT:      -3.5     11.103     12.253
REMARK  3 active torsions:
REMARK  status: ('A' for Active; 'I' for Inactive)
REMARK    1  A    between atoms: C1_1  and  C4_4 
REMARK       I    between atoms: C1_1  and  N7_7 
REMARK    2  A    between atoms: C5_5  and  C6_6 
REMARK    3  A    between atoms: C5_5  and  N7_7 
ROOT
HETATM    1  C1  UNL     1     -34.876  13.637  -4.272  1.00 20.00     0.219 C 
HETATM    2  C3  UNL     1     -36.244  15.503  -3.314  1.00 20.00     0.152 C 
HETATM    3  N7  UNL     1     -35.849  14.632  -4.415  1.00 20.00    -0.355 N 
HETATM    4  O8  UNL     1     -34.877  12.588  -4.922  1.00 20.00    -0.273 OA
ENDROOT
BRANCH   3   5
HETATM    5  C5  UNL     1     -36.545  14.872  -5.677  1.00 20.00     0.140 C 
BRANCH   5   6
HETATM    6  C6  UNL     1     -35.772  15.795  -6.604  1.00 20.00     0.134 C 
HETATM    7 CL9  UNL     1     -34.535  14.902  -7.523  1.00 20.00    -0.129 Cl
ENDBRANCH   5   6
ENDBRANCH   3   5
BRANCH   1   8
HETATM    8  C4  UNL     1     -33.782  13.910  -3.250  1.00 20.00     0.098 C 
HETATM    9  C2  UNL     1     -32.762  14.925  -3.738  1.00 20.00     0.014 C 
ENDBRANCH   1   8
TORSDOF 3
ENDMDL
MODEL 7
REMARK VINA RESULT:      -3.5     11.924     12.702
REMARK  3 active torsions:
REMARK  status: ('A' for Active; 'I' for Inactive)
REMARK    1  A    between atoms: C1_1  and  C4_4 
REMARK       I    between atoms: C1_1  and  N7_7 
REMARK    2  A    between atoms: C5_5  and  C6_6 
REMARK    3  A    between atoms: C5_5  and  N7_7 
ROOT
HETATM    1  C1  UNL     1     -33.696  15.483  -4.402  1.00 20.00     0.219 C 
HETATM    2  C3  UNL     1     -34.717  13.254  -4.915  1.00 20.00     0.152 C 
HETATM    3  N7  UNL     1     -34.255  14.579  -5.313  1.00 20.00    -0.355 N 
HETATM    4  O8  UNL     1     -32.847  16.323  -4.714  1.00 20.00    -0.273 OA
ENDROOT
BRANCH   3   5
HETATM    5  C5  UNL     1     -34.416  14.894  -6.730  1.00 20.00     0.140 C 
BRANCH   5   6
HETATM    6  C6  UNL     1     -35.836  14.664  -7.221  1.00 20.00     0.134 C 
HETATM    7 CL9  UNL     1     -37.003  15.659  -6.316  1.00 20.00    -0.129 Cl
ENDBRANCH   5   6
ENDBRANCH   3   5
BRANCH   1   8
HETATM    8  C4  UNL     1     -34.191  15.383  -2.967  1.00 20.00     0.098 C 
HETATM    9  C2  UNL     1     -33.833  16.605  -2.137  1.00 20.00     0.014 C 
ENDBRANCH   1   8
TORSDOF 3
ENDMDL
MODEL 8
REMARK VINA RESULT:      -3.5      2.984      4.605
REMARK  3 active torsions:
REMARK  status: ('A' for Active; 'I' for Inactive)
REMARK    1  A    between atoms: C1_1  and  C4_4 
REMARK       I    between atoms: C1_1  and  N7_7 
REMARK    2  A    between atoms: C5_5  and  C6_6 
REMARK    3  A    between atoms: C5_5  and  N7_7 
ROOT
HETATM    1  C1  UNL     1     -32.676   6.234   3.307  1.00 20.00     0.219 C 
HETATM    2  C3  UNL     1     -33.605   6.852   5.549  1.00 20.00     0.152 C 
HETATM    3  N7  UNL     1     -33.699   6.177   4.259  1.00 20.00    -0.355 N 
HETATM    4  O8  UNL     1     -32.447   5.327   2.502  1.00 20.00    -0.273 OA
ENDROOT
BRANCH   3   5
HETATM    5  C5  UNL     1     -34.938   5.436   4.035  1.00 20.00     0.140 C 
BRANCH   5   6
HETATM    6  C6  UNL     1     -34.946   4.086   4.731  1.00 20.00     0.134 C 
HETATM    7 CL9  UNL     1     -35.296   4.255   6.469  1.00 20.00    -0.129 Cl
ENDBRANCH   5   6
ENDBRANCH   3   5
BRANCH   1   8
HETATM    8  C4  UNL     1     -31.828   7.498   3.306  1.00 20.00     0.098 C 
HETATM    9  C2  UNL     1     -32.008   8.324   2.043  1.00 20.00     0.014 C 
ENDBRANCH   1   8
TORSDOF 3
ENDMDL
MODEL 9
REMARK VINA RESULT:      -3.4     11.369     12.428
REMARK  3 active torsions:
REMARK  status: ('A' for Active; 'I' for Inactive)
REMARK    1  A    between atoms: C1_1  and  C4_4 
REMARK       I    between atoms: C1_1  and  N7_7 
REMARK    2  A    between atoms: C5_5  and  C6_6 
REMARK    3  A    between atoms: C5_5  and  N7_7 
ROOT
HETATM    1  C1  UNL     1     -34.519  13.952  -5.242  1.00 20.00     0.219 C 
HETATM    2  C3  UNL     1     -33.320  16.122  -4.885  1.00 20.00     0.152 C 
HETATM    3  N7  UNL     1     -34.083  14.978  -4.397  1.00 20.00    -0.355 N 
HETATM    4  O8  UNL     1     -34.667  12.784  -4.872  1.00 20.00    -0.273 OA
ENDROOT
BRANCH   3   5
HETATM    5  C5  UNL     1     -34.357  14.982  -2.962  1.00 20.00     0.140 C 
BRANCH   5   6
HETATM    6  C6  UNL     1     -35.318  16.085  -2.555  1.00 20.00     0.134 C 
HETATM    7 CL9  UNL     1     -36.886  15.918  -3.383  1.00 20.00    -0.129 Cl
ENDBRANCH   5   6
ENDBRANCH   3   5
BRANCH   1   8
HETATM    8  C4  UNL     1     -34.810  14.347  -6.683  1.00 20.00     0.098 C 
HETATM    9  C2  UNL     1     -36.228  14.859  -6.876  1.00 20.00     0.014 C 
ENDBRANCH   1   8
TORSDOF 3
ENDMDL
