MODEL 1
REMARK VINA RESULT:      -4.6      0.000      0.000
REMARK  2 active torsions:
REMARK  status: ('A' for Active; 'I' for Inactive)
REMARK    1  A    between atoms: C3_3  and  C6_6 
REMARK    2  A    between atoms: C5_5  and  C6_6 
ROOT
HETATM    1  C6  UNL     1     -34.060   6.372   4.026  1.00 20.00     0.086 C 
HETATM    2 CL7  UNL     1     -35.501   5.439   3.522  1.00 20.00    -0.125 Cl
ENDROOT
BRANCH   1   3
HETATM    3  C3  UNL     1     -33.647   5.902   5.392  1.00 20.00     0.004 A 
HETATM    4  C1  UNL     1     -34.009   6.704   6.611  1.00 20.00     0.006 A 
HETATM    5  C2  UNL     1     -34.676   5.381   6.355  1.00 20.00     0.006 A 
ENDBRANCH   1   3
BRANCH   1   6
HETATM    6  C5  UNL     1     -32.921   6.220   3.012  1.00 20.00     0.016 C 
HETATM    7  C4  UNL     1     -31.898   7.346   3.076  1.00 20.00     0.006 C 
ENDBRANCH   1   6
TORSDOF 2
ENDMDL
MODEL 2
REMARK VINA RESULT:      -4.5      1.732      3.485
REMARK  2 active torsions:
REMARK  status: ('A' for Active; 'I' for Inactive)
REMARK    1  A    between atoms: C3_3  and  C6_6 
REMARK    2  A    between atoms: C5_5  and  C6_6 
ROOT
HETATM    1  C6  UNL     1     -34.163   6.294   4.434  1.00 20.00     0.086 C 
HETATM    2 CL7  UNL     1     -33.758   6.670   6.135  1.00 20.00    -0.125 Cl
ENDROOT
BRANCH   1   3
HETATM    3  C3  UNL     1     -32.883   6.206   3.652  1.00 20.00     0.004 A 
HETATM    4  C1  UNL     1     -32.581   7.212   2.576  1.00 20.00     0.006 A 
HETATM    5  C2  UNL     1     -31.799   7.226   3.860  1.00 20.00     0.006 A 
ENDBRANCH   1   3
BRANCH   1   6
HETATM    6  C5  UNL     1     -34.974   4.997   4.332  1.00 20.00     0.016 C 
HETATM    7  C4  UNL     1     -34.950   4.166   5.607  1.00 20.00     0.006 C 
ENDBRANCH   1   6
TORSDOF 2
ENDMDL
MODEL 3
REMARK VINA RESULT:      -4.4      1.154      3.117
REMARK  2 active torsions:
REMARK  status: ('A' for Active; 'I' for Inactive)
REMARK    1  A    between atoms: C3_3  and  C6_6 
REMARK    2  A    between atoms: C5_5  and  C6_6 
ROOT
HETATM    1  C6  UNL     1     -34.060   5.223   5.294  1.00 20.00     0.086 C 
HETATM    2 CL7  UNL     1     -35.169   3.834   5.087  1.00 20.00    -0.125 Cl
ENDROOT
BRANCH   1   3
HETATM    3  C3  UNL     1     -34.131   6.072   4.057  1.00 20.00     0.004 A 
HETATM    4  C1  UNL     1     -32.928   6.214   3.166  1.00 20.00     0.006 A 
HETATM    5  C2  UNL     1     -34.122   5.430   2.698  1.00 20.00     0.006 A 
ENDBRANCH   1   3
BRANCH   1   6
HETATM    6  C5  UNL     1     -34.412   6.029   6.549  1.00 20.00     0.016 C 
HETATM    7  C4  UNL     1     -33.536   7.258   6.746  1.00 20.00     0.006 C 
ENDBRANCH   1   6
TORSDOF 2
ENDMDL
MODEL 4
REMARK VINA RESULT:      -4.4      1.849      2.231
REMARK  2 active torsions:
REMARK  status: ('A' for Active; 'I' for Inactive)
REMARK    1  A    between atoms: C3_3  and  C6_6 
REMARK    2  A    between atoms: C5_5  and  C6_6 
ROOT
HETATM    1  C6  UNL     1     -33.660   6.011   5.118  1.00 20.00     0.086 C 
HETATM    2 CL7  UNL     1     -33.665   7.083   6.550  1.00 20.00    -0.125 Cl
ENDROOT
BRANCH   1   3
HETATM    3  C3  UNL     1     -34.919   5.192   5.136  1.00 20.00     0.004 A 
HETATM    4  C1  UNL     1     -34.849   3.694   5.036  1.00 20.00     0.006 A 
HETATM    5  C2  UNL     1     -35.251   4.344   6.331  1.00 20.00     0.006 A 
ENDBRANCH   1   3
BRANCH   1   6
HETATM    6  C5  UNL     1     -33.535   6.821   3.822  1.00 20.00     0.016 C 
HETATM    7  C4  UNL     1     -32.283   6.492   3.021  1.00 20.00     0.006 C 
ENDBRANCH   1   6
TORSDOF 2
ENDMDL
MODEL 5
REMARK VINA RESULT:      -3.7      1.813      2.399
REMARK  2 active torsions:
REMARK  status: ('A' for Active; 'I' for Inactive)
REMARK    1  A    between atoms: C3_3  and  C6_6 
REMARK    2  A    between atoms: C5_5  and  C6_6 
ROOT
HETATM    1  C6  UNL     1     -33.367   5.852   4.144  1.00 20.00     0.086 C 
HETATM    2 CL7  UNL     1     -32.121   7.021   3.614  1.00 20.00    -0.125 Cl
ENDROOT
BRANCH   1   3
HETATM    3  C3  UNL     1     -34.158   6.477   5.258  1.00 20.00     0.004 A 
HETATM    4  C1  UNL     1     -34.405   5.716   6.531  1.00 20.00     0.006 A 
HETATM    5  C2  UNL     1     -33.472   6.895   6.529  1.00 20.00     0.006 A 
ENDBRANCH   1   3
BRANCH   1   6
HETATM    6  C5  UNL     1     -34.271   5.441   2.976  1.00 20.00     0.016 C 
HETATM    7  C4  UNL     1     -35.751   5.685   3.239  1.00 20.00     0.006 C 
ENDBRANCH   1   6
TORSDOF 2
ENDMDL
MODEL 6
REMARK VINA RESULT:      -3.5     11.861     12.331
REMARK  2 active torsions:
REMARK  status: ('A' for Active; 'I' for Inactive)
REMARK    1  A    between atoms: C3_3  and  C6_6 
REMARK    2  A    between atoms: C5_5  and  C6_6 
ROOT
HETATM    1  C6  UNL     1     -33.426  15.244  -3.345  1.00 20.00     0.086 C 
HETATM    2 CL7  UNL     1     -33.190  16.354  -4.728  1.00 20.00    -0.125 Cl
ENDROOT
BRANCH   1   3
HETATM    3  C3  UNL     1     -34.669  15.661  -2.612  1.00 20.00     0.004 A 
HETATM    4  C1  UNL     1     -34.566  16.411  -1.312  1.00 20.00     0.006 A 
HETATM    5  C2  UNL     1     -35.058  17.112  -2.548  1.00 20.00     0.006 A 
ENDBRANCH   1   3
BRANCH   1   6
HETATM    6  C5  UNL     1     -33.513  13.788  -3.815  1.00 20.00     0.016 C 
HETATM    7  C4  UNL     1     -34.908  13.379  -4.268  1.00 20.00     0.006 C 
ENDBRANCH   1   6
TORSDOF 2
ENDMDL
MODEL 7
REMARK VINA RESULT:      -3.5     11.988     12.471
REMARK  2 active torsions:
REMARK  status: ('A' for Active; 'I' for Inactive)
REMARK    1  A    between atoms: C3_3  and  C6_6 
REMARK    2  A    between atoms: C5_5  and  C6_6 
ROOT
HETATM    1  C6  UNL     1     -34.239  15.935  -3.529  1.00 20.00     0.086 C 
HETATM    2 CL7  UNL     1     -33.119  16.249  -4.888  1.00 20.00    -0.125 Cl
ENDROOT
BRANCH   1   3
HETATM    3  C3  UNL     1     -34.404  14.449  -3.386  1.00 20.00     0.004 A 
HETATM    4  C1  UNL     1     -35.523  13.739  -4.097  1.00 20.00     0.006 A 
HETATM    5  C2  UNL     1     -34.102  13.540  -4.545  1.00 20.00     0.006 A 
ENDBRANCH   1   3
BRANCH   1   6
HETATM    6  C5  UNL     1     -33.725  16.569  -2.231  1.00 20.00     0.016 C 
HETATM    7  C4  UNL     1     -34.718  16.485  -1.080  1.00 20.00     0.006 C 
ENDBRANCH   1   6
TORSDOF 2
ENDMDL
MODEL 8
REMARK VINA RESULT:      -3.3      1.882      3.414
REMARK  2 active torsions:
REMARK  status: ('A' for Active; 'I' for Inactive)
REMARK    1  A    between atoms: C3_3  and  C6_6 
REMARK    2  A    between atoms: C5_5  and  C6_6 
ROOT
HETATM    1  C6  UNL     1     -33.796   6.666   4.589  1.00 20.00     0.086 C 
HETATM    2 CL7  UNL     1     -32.173   6.830   3.857  1.00 20.00    -0.125 Cl
ENDROOT
BRANCH   1   3
HETATM    3  C3  UNL     1     -34.478   5.482   3.965  1.00 20.00     0.004 A 
HETATM    4  C1  UNL     1     -35.739   5.668   3.165  1.00 20.00     0.006 A 
HETATM    5  C2  UNL     1     -34.456   5.297   2.473  1.00 20.00     0.006 A 
ENDBRANCH   1   3
BRANCH   1   6
HETATM    6  C5  UNL     1     -33.704   6.523   6.112  1.00 20.00     0.016 C 
HETATM    7  C4  UNL     1     -34.532   5.370   6.664  1.00 20.00     0.006 C 
ENDBRANCH   1   6
TORSDOF 2
ENDMDL
MODEL 9
REMARK VINA RESULT:      -3.3      2.329      3.175
REMARK  2 active torsions:
REMARK  status: ('A' for Active; 'I' for Inactive)
REMARK    1  A    between atoms: C3_3  and  C6_6 
REMARK    2  A    between atoms: C5_5  and  C6_6 
ROOT
HETATM    1  C6  UNL     1     -32.029   7.236   2.723  1.00 20.00     0.086 C 
HETATM    2 CL7  UNL     1     -31.134   7.847   4.146  1.00 20.00    -0.125 Cl
ENDROOT
BRANCH   1   3
HETATM    3  C3  UNL     1     -33.447   6.966   3.138  1.00 20.00     0.004 A 
HETATM    4  C1  UNL     1     -33.973   5.557   3.167  1.00 20.00     0.006 A 
HETATM    5  C2  UNL     1     -33.736   6.299   4.453  1.00 20.00     0.006 A 
ENDBRANCH   1   3
BRANCH   1   6
HETATM    6  C5  UNL     1     -31.964   8.232   1.560  1.00 20.00     0.016 C 
HETATM    7  C4  UNL     1     -32.607   9.575   1.875  1.00 20.00     0.006 C 
ENDBRANCH   1   6
TORSDOF 2
ENDMDL
