MODEL 1
REMARK VINA RESULT:      -4.9      0.000      0.000
REMARK  1 active torsions:
REMARK  status: ('A' for Active; 'I' for Inactive)
REMARK    1  A    between atoms: C1_1  and  C8_8 
REMARK       I    between atoms: C1_1  and  N10_10 
ROOT
HETATM    1  C1  UNL     1     -33.846  16.916  -3.243  1.00 20.00     0.224 C 
HETATM    2  C2  UNL     1     -34.736  13.505  -3.989  1.00 20.00     0.021 C 
HETATM    3  C5  UNL     1     -34.840  13.493  -5.513  1.00 20.00     0.023 C 
HETATM    4  C6  UNL     1     -33.648  14.463  -3.512  1.00 20.00     0.126 C 
HETATM    5  C7  UNL     1     -33.918  15.847  -5.550  1.00 20.00     0.145 C 
HETATM    6  C9  UNL     1     -35.019  14.912  -6.054  1.00 20.00     0.100 C 
HETATM    7  N10 UNL     1     -33.828  15.799  -4.085  1.00 20.00    -0.350 N 
HETATM    8  O11 UNL     1     -33.990  18.076  -3.622  1.00 20.00    -0.273 OA
HETATM    9 CL12 UNL     1     -35.020  14.884  -7.839  1.00 20.00    -0.123 Cl
ENDROOT
BRANCH   1  10
HETATM   10  C8  UNL     1     -33.674  16.676  -1.778  1.00 20.00     0.078 A 
HETATM   11  C3  UNL     1     -33.737  17.845  -0.854  1.00 20.00     0.015 A 
HETATM   12  C4  UNL     1     -34.857  16.848  -0.888  1.00 20.00     0.015 A 
ENDBRANCH   1  10
TORSDOF 1
ENDMDL
MODEL 2
REMARK VINA RESULT:      -4.8      1.265      1.286
REMARK  1 active torsions:
REMARK  status: ('A' for Active; 'I' for Inactive)
REMARK    1  A    between atoms: C1_1  and  C8_8 
REMARK       I    between atoms: C1_1  and  N10_10 
ROOT
HETATM    1  C1  UNL     1     -35.233  16.759  -2.461  1.00 20.00     0.224 C 
HETATM    2  C2  UNL     1     -34.248  13.626  -3.944  1.00 20.00     0.021 C 
HETATM    3  C5  UNL     1     -34.836  13.702  -5.352  1.00 20.00     0.023 C 
HETATM    4  C6  UNL     1     -33.801  14.999  -3.451  1.00 20.00     0.126 C 
HETATM    5  C7  UNL     1     -35.470  16.109  -4.910  1.00 20.00     0.145 C 
HETATM    6  C9  UNL     1     -35.949  14.749  -5.417  1.00 20.00     0.100 C 
HETATM    7  N10 UNL     1     -34.879  15.983  -3.571  1.00 20.00    -0.350 N 
HETATM    8  O11 UNL     1     -36.120  17.608  -2.456  1.00 20.00    -0.273 OA
HETATM    9 CL12 UNL     1     -36.538  14.901  -7.096  1.00 20.00    -0.123 Cl
ENDROOT
BRANCH   1  10
HETATM   10  C8  UNL     1     -34.473  16.534  -1.195  1.00 20.00     0.078 A 
HETATM   11  C3  UNL     1     -33.673  17.662  -0.636  1.00 20.00     0.015 A 
HETATM   12  C4  UNL     1     -34.937  17.224   0.042  1.00 20.00     0.015 A 
ENDBRANCH   1  10
TORSDOF 1
ENDMDL
MODEL 3
REMARK VINA RESULT:      -4.5      2.827      5.070
REMARK  1 active torsions:
REMARK  status: ('A' for Active; 'I' for Inactive)
REMARK    1  A    between atoms: C1_1  and  C8_8 
REMARK       I    between atoms: C1_1  and  N10_10 
ROOT
HETATM    1  C1  UNL     1     -34.672  14.756  -5.434  1.00 20.00     0.224 C 
HETATM    2  C2  UNL     1     -33.755  18.066  -4.343  1.00 20.00     0.021 C 
HETATM    3  C5  UNL     1     -33.810  17.962  -2.820  1.00 20.00     0.023 C 
HETATM    4  C6  UNL     1     -33.289  16.758  -4.975  1.00 20.00     0.126 C 
HETATM    5  C7  UNL     1     -34.162  15.470  -3.046  1.00 20.00     0.145 C 
HETATM    6  C9  UNL     1     -34.651  16.761  -2.389  1.00 20.00     0.100 C 
HETATM    7  N10 UNL     1     -34.090  15.625  -4.505  1.00 20.00    -0.350 N 
HETATM    8  O11 UNL     1     -35.360  13.780  -5.145  1.00 20.00    -0.273 OA
HETATM    9 CL12 UNL     1     -34.602  16.593  -0.612  1.00 20.00    -0.123 Cl
ENDROOT
BRANCH   1  10
HETATM   10  C8  UNL     1     -34.434  15.039  -6.882  1.00 20.00     0.078 A 
HETATM   11  C3  UNL     1     -35.377  14.463  -7.883  1.00 20.00     0.015 A 
HETATM   12  C4  UNL     1     -35.388  15.935  -7.595  1.00 20.00     0.015 A 
ENDBRANCH   1  10
TORSDOF 1
ENDMDL
MODEL 4
REMARK VINA RESULT:      -4.3      1.599      1.783
REMARK  1 active torsions:
REMARK  status: ('A' for Active; 'I' for Inactive)
REMARK    1  A    between atoms: C1_1  and  C8_8 
REMARK       I    between atoms: C1_1  and  N10_10 
ROOT
HETATM    1  C1  UNL     1     -35.599  16.509  -3.102  1.00 20.00     0.224 C 
HETATM    2  C2  UNL     1     -34.419  14.092  -5.500  1.00 20.00     0.021 C 
HETATM    3  C5  UNL     1     -35.259  14.388  -6.741  1.00 20.00     0.023 C 
HETATM    4  C6  UNL     1     -34.112  15.365  -4.718  1.00 20.00     0.126 C 
HETATM    5  C7  UNL     1     -36.174  16.438  -5.579  1.00 20.00     0.145 C 
HETATM    6  C9  UNL     1     -36.516  15.174  -6.368  1.00 20.00     0.100 C 
HETATM    7  N10 UNL     1     -35.335  16.113  -4.418  1.00 20.00    -0.350 N 
HETATM    8  O11 UNL     1     -36.593  17.137  -2.746  1.00 20.00    -0.273 OA
HETATM    9 CL12 UNL     1     -37.420  15.608  -7.846  1.00 20.00    -0.123 Cl
ENDROOT
BRANCH   1  10
HETATM   10  C8  UNL     1     -34.593  16.141  -2.059  1.00 20.00     0.078 A 
HETATM   11  C3  UNL     1     -33.695  17.207  -1.530  1.00 20.00     0.015 A 
HETATM   12  C4  UNL     1     -34.792  16.650  -0.673  1.00 20.00     0.015 A 
ENDBRANCH   1  10
TORSDOF 1
ENDMDL
MODEL 5
REMARK VINA RESULT:      -4.3      2.006      2.834
REMARK  1 active torsions:
REMARK  status: ('A' for Active; 'I' for Inactive)
REMARK    1  A    between atoms: C1_1  and  C8_8 
REMARK       I    between atoms: C1_1  and  N10_10 
ROOT
HETATM    1  C1  UNL     1     -34.375  17.208  -1.219  1.00 20.00     0.224 C 
HETATM    2  C2  UNL     1     -33.256  16.720  -4.609  1.00 20.00     0.021 C 
HETATM    3  C5  UNL     1     -33.957  15.430  -5.029  1.00 20.00     0.023 C 
HETATM    4  C6  UNL     1     -34.122  17.541  -3.659  1.00 20.00     0.126 C 
HETATM    5  C7  UNL     1     -35.269  15.491  -2.870  1.00 20.00     0.145 C 
HETATM    6  C9  UNL     1     -34.411  14.637  -3.803  1.00 20.00     0.100 C 
HETATM    7  N10 UNL     1     -34.573  16.736  -2.521  1.00 20.00    -0.350 N 
HETATM    8  O11 UNL     1     -34.715  16.611  -0.200  1.00 20.00    -0.273 OA
HETATM    9 CL12 UNL     1     -35.329  13.194  -4.321  1.00 20.00    -0.123 Cl
ENDROOT
BRANCH   1  10
HETATM   10  C8  UNL     1     -33.703  18.533  -1.062  1.00 20.00     0.078 A 
HETATM   11  C3  UNL     1     -33.854  19.258   0.232  1.00 20.00     0.015 A 
HETATM   12  C4  UNL     1     -32.541  18.633  -0.135  1.00 20.00     0.015 A 
ENDBRANCH   1  10
TORSDOF 1
ENDMDL
MODEL 6
REMARK VINA RESULT:      -4.2      2.959      4.942
REMARK  1 active torsions:
REMARK  status: ('A' for Active; 'I' for Inactive)
REMARK    1  A    between atoms: C1_1  and  C8_8 
REMARK       I    between atoms: C1_1  and  N10_10 
ROOT
HETATM    1  C1  UNL     1     -36.145  15.491  -5.419  1.00 20.00     0.224 C 
HETATM    2  C2  UNL     1     -33.873  15.735  -2.633  1.00 20.00     0.021 C 
HETATM    3  C5  UNL     1     -34.641  16.589  -1.626  1.00 20.00     0.023 C 
HETATM    4  C6  UNL     1     -34.813  14.841  -3.436  1.00 20.00     0.126 C 
HETATM    5  C7  UNL     1     -36.674  16.447  -3.121  1.00 20.00     0.145 C 
HETATM    6  C9  UNL     1     -35.757  17.371  -2.319  1.00 20.00     0.100 C 
HETATM    7  N10 UNL     1     -35.892  15.619  -4.049  1.00 20.00    -0.350 N 
HETATM    8  O11 UNL     1     -37.024  16.096  -6.027  1.00 20.00    -0.273 OA
HETATM    9 CL12 UNL     1     -36.712  18.269  -1.106  1.00 20.00    -0.123 Cl
ENDROOT
BRANCH   1  10
HETATM   10  C8  UNL     1     -35.283  14.546  -6.192  1.00 20.00     0.078 A 
HETATM   11  C3  UNL     1     -35.498  14.430  -7.663  1.00 20.00     0.015 A 
HETATM   12  C4  UNL     1     -34.275  15.115  -7.131  1.00 20.00     0.015 A 
ENDBRANCH   1  10
TORSDOF 1
ENDMDL
MODEL 7
REMARK VINA RESULT:      -4.1      1.778      2.084
REMARK  1 active torsions:
REMARK  status: ('A' for Active; 'I' for Inactive)
REMARK    1  A    between atoms: C1_1  and  C8_8 
REMARK       I    between atoms: C1_1  and  N10_10 
ROOT
HETATM    1  C1  UNL     1     -34.362  15.683  -2.937  1.00 20.00     0.224 C 
HETATM    2  C2  UNL     1     -37.544  15.901  -4.613  1.00 20.00     0.021 C 
HETATM    3  C5  UNL     1     -37.273  15.252  -5.970  1.00 20.00     0.023 C 
HETATM    4  C6  UNL     1     -36.730  15.239  -3.506  1.00 20.00     0.126 C 
HETATM    5  C7  UNL     1     -34.988  14.565  -5.136  1.00 20.00     0.145 C 
HETATM    6  C9  UNL     1     -35.773  15.228  -6.267  1.00 20.00     0.100 C 
HETATM    7  N10 UNL     1     -35.306  15.195  -3.847  1.00 20.00    -0.350 N 
HETATM    8  O11 UNL     1     -33.148  15.692  -3.126  1.00 20.00    -0.273 OA
HETATM    9 CL12 UNL     1     -35.475  14.362  -7.801  1.00 20.00    -0.123 Cl
ENDROOT
BRANCH   1  10
HETATM   10  C8  UNL     1     -34.872  16.229  -1.643  1.00 20.00     0.078 A 
HETATM   11  C3  UNL     1     -33.984  17.129  -0.852  1.00 20.00     0.015 A 
HETATM   12  C4  UNL     1     -35.182  17.685  -1.562  1.00 20.00     0.015 A 
ENDBRANCH   1  10
TORSDOF 1
ENDMDL
MODEL 8
REMARK VINA RESULT:      -4.1      2.228      2.536
REMARK  1 active torsions:
REMARK  status: ('A' for Active; 'I' for Inactive)
REMARK    1  A    between atoms: C1_1  and  C8_8 
REMARK       I    between atoms: C1_1  and  N10_10 
ROOT
HETATM    1  C1  UNL     1     -35.176  17.369  -1.562  1.00 20.00     0.224 C 
HETATM    2  C2  UNL     1     -34.515  14.325  -3.373  1.00 20.00     0.021 C 
HETATM    3  C5  UNL     1     -35.786  14.122  -4.196  1.00 20.00     0.023 C 
HETATM    4  C6  UNL     1     -34.189  15.806  -3.208  1.00 20.00     0.126 C 
HETATM    5  C7  UNL     1     -36.583  16.401  -3.449  1.00 20.00     0.145 C 
HETATM    6  C9  UNL     1     -36.946  14.925  -3.607  1.00 20.00     0.100 C 
HETATM    7  N10 UNL     1     -35.337  16.548  -2.684  1.00 20.00    -0.350 N 
HETATM    8  O11 UNL     1     -36.073  18.031  -1.046  1.00 20.00    -0.273 OA
HETATM    9 CL12 UNL     1     -38.386  14.764  -4.652  1.00 20.00    -0.123 Cl
ENDROOT
BRANCH   1  10
HETATM   10  C8  UNL     1     -33.813  17.443  -0.955  1.00 20.00     0.078 A 
HETATM   11  C3  UNL     1     -33.108  18.757  -0.950  1.00 20.00     0.015 A 
HETATM   12  C4  UNL     1     -33.648  18.186   0.327  1.00 20.00     0.015 A 
ENDBRANCH   1  10
TORSDOF 1
ENDMDL
MODEL 9
REMARK VINA RESULT:      -4.1      5.457      7.706
REMARK  1 active torsions:
REMARK  status: ('A' for Active; 'I' for Inactive)
REMARK    1  A    between atoms: C1_1  and  C8_8 
REMARK       I    between atoms: C1_1  and  N10_10 
ROOT
HETATM    1  C1  UNL     1     -33.157  18.495   0.260  1.00 20.00     0.224 C 
HETATM    2  C2  UNL     1     -35.100  17.813   3.217  1.00 20.00     0.021 C 
HETATM    3  C5  UNL     1     -34.199  18.297   4.351  1.00 20.00     0.023 C 
HETATM    4  C6  UNL     1     -34.939  18.675   1.968  1.00 20.00     0.126 C 
HETATM    5  C7  UNL     1     -32.623  19.263   2.626  1.00 20.00     0.145 C 
HETATM    6  C9  UNL     1     -32.747  18.399   3.881  1.00 20.00     0.100 C 
HETATM    7  N10 UNL     1     -33.532  18.785   1.576  1.00 20.00    -0.350 N 
HETATM    8  O11 UNL     1     -32.007  18.555  -0.169  1.00 20.00    -0.273 OA
HETATM    9 CL12 UNL     1     -31.735  19.078   5.187  1.00 20.00    -0.123 Cl
ENDROOT
BRANCH   1  10
HETATM   10  C8  UNL     1     -34.236  18.084  -0.688  1.00 20.00     0.078 A 
HETATM   11  C3  UNL     1     -33.851  17.358  -1.933  1.00 20.00     0.015 A 
HETATM   12  C4  UNL     1     -34.548  16.632  -0.821  1.00 20.00     0.015 A 
ENDBRANCH   1  10
TORSDOF 1
ENDMDL
