MODEL 1
REMARK VINA RESULT:      -4.5      0.000      0.000
REMARK  2 active torsions:
REMARK  status: ('A' for Active; 'I' for Inactive)
REMARK    1  A    between atoms: C6_6  and  C7_7 
REMARK    2  A    between atoms: C6_6  and  N8_8 
ROOT
HETATM    1  C1  UNL     1     -34.736  13.663  -4.902  1.00 20.00     0.050 C 
HETATM    2  C2  UNL     1     -34.344  16.020  -5.689  1.00 20.00     0.050 C 
HETATM    3  C3  UNL     1     -33.771  13.938  -3.744  1.00 20.00     0.274 C 
HETATM    4  C4  UNL     1     -33.395  16.212  -4.502  1.00 20.00     0.274 C 
HETATM    5  C5  UNL     1     -34.408  14.551  -6.102  1.00 20.00     0.085 C 
HETATM    6  N8  UNL     1     -33.691  15.351  -3.349  1.00 20.00     0.093 N 
HETATM    7 CL11 UNL     1     -35.623  14.322  -7.387  1.00 20.00    -0.125 Cl
ENDROOT
BRANCH   6   8
HETATM    8  C6  UNL     1     -34.879  15.791  -2.621  1.00 20.00     0.343 C 
BRANCH   8   9
HETATM    9  C7  UNL     1     -34.499  16.751  -1.514  1.00 20.00     0.381 C 
HETATM   10  F9  UNL     1     -33.150  16.899  -1.473  1.00 20.00    -0.213 F 
HETATM   11  F10 UNL     1     -34.864  16.220  -0.319  1.00 20.00    -0.213 F 
ENDBRANCH   8   9
ENDBRANCH   6   8
TORSDOF 2
ENDMDL
MODEL 2
REMARK VINA RESULT:      -4.3      1.055      1.724
REMARK  2 active torsions:
REMARK  status: ('A' for Active; 'I' for Inactive)
REMARK    1  A    between atoms: C6_6  and  C7_7 
REMARK    2  A    between atoms: C6_6  and  N8_8 
ROOT
HETATM    1  C1  UNL     1     -35.893  15.779  -5.228  1.00 20.00     0.050 C 
HETATM    2  C2  UNL     1     -34.222  13.910  -5.028  1.00 20.00     0.050 C 
HETATM    3  C3  UNL     1     -36.172  15.629  -3.729  1.00 20.00     0.274 C 
HETATM    4  C4  UNL     1     -34.559  13.827  -3.536  1.00 20.00     0.274 C 
HETATM    5  C5  UNL     1     -35.405  14.459  -5.823  1.00 20.00     0.085 C 
HETATM    6  N8  UNL     1     -35.045  15.087  -2.958  1.00 20.00     0.093 N 
HETATM    7 CL11 UNL     1     -34.950  14.685  -7.533  1.00 20.00    -0.125 Cl
ENDROOT
BRANCH   6   8
HETATM    8  C6  UNL     1     -33.973  16.064  -2.782  1.00 20.00     0.343 C 
BRANCH   8   9
HETATM    9  C7  UNL     1     -34.219  16.907  -1.548  1.00 20.00     0.381 C 
HETATM   10  F9  UNL     1     -33.038  17.345  -1.045  1.00 20.00    -0.213 F 
HETATM   11  F10 UNL     1     -34.784  16.133  -0.587  1.00 20.00    -0.213 F 
ENDBRANCH   8   9
ENDBRANCH   6   8
TORSDOF 2
ENDMDL
MODEL 3
REMARK VINA RESULT:      -4.2      3.441      4.392
REMARK  2 active torsions:
REMARK  status: ('A' for Active; 'I' for Inactive)
REMARK    1  A    between atoms: C6_6  and  C7_7 
REMARK    2  A    between atoms: C6_6  and  N8_8 
ROOT
HETATM    1  C1  UNL     1     -34.481  16.266  -1.555  1.00 20.00     0.050 C 
HETATM    2  C2  UNL     1     -33.741  18.090  -3.121  1.00 20.00     0.050 C 
HETATM    3  C3  UNL     1     -35.370  15.724  -2.678  1.00 20.00     0.274 C 
HETATM    4  C4  UNL     1     -34.655  17.482  -4.190  1.00 20.00     0.274 C 
HETATM    5  C5  UNL     1     -34.256  17.769  -1.719  1.00 20.00     0.085 C 
HETATM    6  N8  UNL     1     -34.891  16.040  -4.031  1.00 20.00     0.093 N 
HETATM    7 CL11 UNL     1     -33.107  18.358  -0.489  1.00 20.00    -0.125 Cl
ENDROOT
BRANCH   6   8
HETATM    8  C6  UNL     1     -33.725  15.244  -4.406  1.00 20.00     0.343 C 
BRANCH   8   9
HETATM    9  C7  UNL     1     -33.911  13.800  -3.991  1.00 20.00     0.381 C 
HETATM   10  F9  UNL     1     -32.725  13.279  -3.588  1.00 20.00    -0.213 F 
HETATM   11  F10 UNL     1     -34.304  13.074  -5.068  1.00 20.00    -0.213 F 
ENDBRANCH   8   9
ENDBRANCH   6   8
TORSDOF 2
ENDMDL
MODEL 4
REMARK VINA RESULT:      -4.2      3.742      4.674
REMARK  2 active torsions:
REMARK  status: ('A' for Active; 'I' for Inactive)
REMARK    1  A    between atoms: C6_6  and  C7_7 
REMARK    2  A    between atoms: C6_6  and  N8_8 
ROOT
HETATM    1  C1  UNL     1     -33.761  15.127  -3.274  1.00 20.00     0.050 C 
HETATM    2  C2  UNL     1     -35.949  16.280  -2.815  1.00 20.00     0.050 C 
HETATM    3  C3  UNL     1     -34.552  13.978  -3.909  1.00 20.00     0.274 C 
HETATM    4  C4  UNL     1     -36.662  15.091  -3.467  1.00 20.00     0.274 C 
HETATM    5  C5  UNL     1     -34.606  15.852  -2.227  1.00 20.00     0.085 C 
HETATM    6  N8  UNL     1     -35.852  14.377  -4.463  1.00 20.00     0.093 N 
HETATM    7 CL11 UNL     1     -33.726  17.271  -1.601  1.00 20.00    -0.125 Cl
ENDROOT
BRANCH   6   8
HETATM    8  C6  UNL     1     -35.717  15.130  -5.708  1.00 20.00     0.343 C 
BRANCH   8   9
HETATM    9  C7  UNL     1     -34.881  14.358  -6.708  1.00 20.00     0.381 C 
HETATM   10  F9  UNL     1     -33.873  15.140  -7.169  1.00 20.00    -0.213 F 
HETATM   11  F10 UNL     1     -35.649  14.046  -7.783  1.00 20.00    -0.213 F 
ENDBRANCH   8   9
ENDBRANCH   6   8
TORSDOF 2
ENDMDL
MODEL 5
REMARK VINA RESULT:      -4.1      3.677      4.714
REMARK  2 active torsions:
REMARK  status: ('A' for Active; 'I' for Inactive)
REMARK    1  A    between atoms: C6_6  and  C7_7 
REMARK    2  A    between atoms: C6_6  and  N8_8 
ROOT
HETATM    1  C1  UNL     1     -34.431  17.868  -3.137  1.00 20.00     0.050 C 
HETATM    2  C2  UNL     1     -33.650  15.490  -2.889  1.00 20.00     0.050 C 
HETATM    3  C3  UNL     1     -33.675  17.930  -4.468  1.00 20.00     0.274 C 
HETATM    4  C4  UNL     1     -32.923  15.635  -4.230  1.00 20.00     0.274 C 
HETATM    5  C5  UNL     1     -33.793  16.845  -2.199  1.00 20.00     0.085 C 
HETATM    6  N8  UNL     1     -33.520  16.629  -5.133  1.00 20.00     0.093 N 
HETATM    7 CL11 UNL     1     -34.764  16.681  -0.712  1.00 20.00    -0.125 Cl
ENDROOT
BRANCH   6   8
HETATM    8  C6  UNL     1     -34.769  16.157  -5.727  1.00 20.00     0.343 C 
BRANCH   8   9
HETATM    9  C7  UNL     1     -34.594  14.765  -6.296  1.00 20.00     0.381 C 
HETATM   10  F9  UNL     1     -33.977  14.833  -7.502  1.00 20.00    -0.213 F 
HETATM   11  F10 UNL     1     -35.817  14.219  -6.519  1.00 20.00    -0.213 F 
ENDBRANCH   8   9
ENDBRANCH   6   8
TORSDOF 2
ENDMDL
MODEL 6
REMARK VINA RESULT:      -4.1      3.880      4.899
REMARK  2 active torsions:
REMARK  status: ('A' for Active; 'I' for Inactive)
REMARK    1  A    between atoms: C6_6  and  C7_7 
REMARK    2  A    between atoms: C6_6  and  N8_8 
ROOT
HETATM    1  C1  UNL     1     -33.755  17.019  -3.663  1.00 20.00     0.050 C 
HETATM    2  C2  UNL     1     -34.639  14.709  -3.204  1.00 20.00     0.050 C 
HETATM    3  C3  UNL     1     -33.253  16.509  -5.017  1.00 20.00     0.274 C 
HETATM    4  C4  UNL     1     -34.107  14.281  -4.575  1.00 20.00     0.274 C 
HETATM    5  C5  UNL     1     -33.829  15.879  -2.648  1.00 20.00     0.085 C 
HETATM    6  N8  UNL     1     -34.016  15.374  -5.553  1.00 20.00     0.093 N 
HETATM    7 CL11 UNL     1     -34.548  16.458  -1.122  1.00 20.00    -0.125 Cl
ENDROOT
BRANCH   6   8
HETATM    8  C6  UNL     1     -35.328  15.776  -6.056  1.00 20.00     0.343 C 
BRANCH   8   9
HETATM    9  C7  UNL     1     -35.505  15.333  -7.494  1.00 20.00     0.381 C 
HETATM   10  F9  UNL     1     -36.529  14.448  -7.582  1.00 20.00    -0.213 F 
HETATM   11  F10 UNL     1     -34.389  14.673  -7.896  1.00 20.00    -0.213 F 
ENDBRANCH   8   9
ENDBRANCH   6   8
TORSDOF 2
ENDMDL
MODEL 7
REMARK VINA RESULT:      -4.1      3.702      4.670
REMARK  2 active torsions:
REMARK  status: ('A' for Active; 'I' for Inactive)
REMARK    1  A    between atoms: C6_6  and  C7_7 
REMARK    2  A    between atoms: C6_6  and  N8_8 
ROOT
HETATM    1  C1  UNL     1     -35.392  17.456  -3.150  1.00 20.00     0.050 C 
HETATM    2  C2  UNL     1     -33.568  15.726  -3.069  1.00 20.00     0.050 C 
HETATM    3  C3  UNL     1     -35.061  17.670  -4.631  1.00 20.00     0.274 C 
HETATM    4  C4  UNL     1     -33.303  15.999  -4.553  1.00 20.00     0.274 C 
HETATM    5  C5  UNL     1     -34.165  16.955  -2.388  1.00 20.00     0.085 C 
HETATM    6  N8  UNL     1     -34.472  16.497  -5.291  1.00 20.00     0.093 N 
HETATM    7 CL11 UNL     1     -34.601  16.577  -0.701  1.00 20.00    -0.125 Cl
ENDROOT
BRANCH   6   8
HETATM    8  C6  UNL     1     -35.457  15.447  -5.539  1.00 20.00     0.343 C 
BRANCH   8   9
HETATM    9  C7  UNL     1     -34.812  14.264  -6.229  1.00 20.00     0.381 C 
HETATM   10  F9  UNL     1     -35.460  13.997  -7.391  1.00 20.00    -0.213 F 
HETATM   11  F10 UNL     1     -34.951  13.163  -5.448  1.00 20.00    -0.213 F 
ENDBRANCH   8   9
ENDBRANCH   6   8
TORSDOF 2
ENDMDL
MODEL 8
REMARK VINA RESULT:      -4.1      1.770      2.403
REMARK  2 active torsions:
REMARK  status: ('A' for Active; 'I' for Inactive)
REMARK    1  A    between atoms: C6_6  and  C7_7 
REMARK    2  A    between atoms: C6_6  and  N8_8 
ROOT
HETATM    1  C1  UNL     1     -33.511  15.510  -3.864  1.00 20.00     0.050 C 
HETATM    2  C2  UNL     1     -35.928  14.944  -3.458  1.00 20.00     0.050 C 
HETATM    3  C3  UNL     1     -33.804  16.927  -3.358  1.00 20.00     0.274 C 
HETATM    4  C4  UNL     1     -36.136  16.379  -2.965  1.00 20.00     0.274 C 
HETATM    5  C5  UNL     1     -34.769  14.873  -4.452  1.00 20.00     0.085 C 
HETATM    6  N8  UNL     1     -34.927  17.007  -2.414  1.00 20.00     0.093 N 
HETATM    7 CL11 UNL     1     -34.448  13.179  -4.906  1.00 20.00    -0.125 Cl
ENDROOT
BRANCH   6   8
HETATM    8  C6  UNL     1     -34.581  16.478  -1.096  1.00 20.00     0.343 C 
BRANCH   8   9
HETATM    9  C7  UNL     1     -34.661  17.569  -0.048  1.00 20.00     0.381 C 
HETATM   10  F9  UNL     1     -33.412  17.928   0.341  1.00 20.00    -0.213 F 
HETATM   11  F10 UNL     1     -35.282  17.081   1.056  1.00 20.00    -0.213 F 
ENDBRANCH   8   9
ENDBRANCH   6   8
TORSDOF 2
ENDMDL
MODEL 9
REMARK VINA RESULT:      -3.8      3.745      4.653
REMARK  2 active torsions:
REMARK  status: ('A' for Active; 'I' for Inactive)
REMARK    1  A    between atoms: C6_6  and  C7_7 
REMARK    2  A    between atoms: C6_6  and  N8_8 
ROOT
HETATM    1  C1  UNL     1     -34.780  15.974  -1.984  1.00 20.00     0.050 C 
HETATM    2  C2  UNL     1     -34.032  17.927  -3.382  1.00 20.00     0.050 C 
HETATM    3  C3  UNL     1     -35.746  15.595  -3.112  1.00 20.00     0.274 C 
HETATM    4  C4  UNL     1     -35.022  17.478  -4.461  1.00 20.00     0.274 C 
HETATM    5  C5  UNL     1     -34.494  17.475  -1.998  1.00 20.00     0.085 C 
HETATM    6  N8  UNL     1     -35.317  16.039  -4.446  1.00 20.00     0.093 N 
HETATM    7 CL11 UNL     1     -33.263  17.878  -0.772  1.00 20.00    -0.125 Cl
ENDROOT
BRANCH   6   8
HETATM    8  C6  UNL     1     -34.208  15.242  -4.965  1.00 20.00     0.343 C 
BRANCH   8   9
HETATM    9  C7  UNL     1     -34.663  14.398  -6.137  1.00 20.00     0.381 C 
HETATM   10  F9  UNL     1     -34.011  14.782  -7.264  1.00 20.00    -0.213 F 
HETATM   11  F10 UNL     1     -35.983  14.622  -6.360  1.00 20.00    -0.213 F 
ENDBRANCH   8   9
ENDBRANCH   6   8
TORSDOF 2
ENDMDL
