MODEL 1
REMARK VINA RESULT:      -4.6      0.000      0.000
REMARK  3 active torsions:
REMARK  status: ('A' for Active; 'I' for Inactive)
REMARK    1  A    between atoms: C6_6  and  C7_7 
REMARK    2  A    between atoms: C7_7  and  C8_8 
REMARK    3  A    between atoms: C8_8  and  N9_9 
ROOT
HETATM    1  C1  UNL     1     -34.261   6.293   6.019  1.00 20.00     0.052 C 
HETATM    2  C2  UNL     1     -33.199   6.738   5.015  1.00 20.00     0.274 C 
HETATM    3  C3  UNL     1     -34.753   5.473   3.816  1.00 20.00     0.292 C 
HETATM    4  C4  UNL     1     -35.115   5.265   5.279  1.00 20.00     0.112 C 
HETATM    5  N9  UNL     1     -33.329   5.805   3.894  1.00 20.00     0.089 N 
HETATM    6 CL10 UNL     1     -34.696   3.605   5.801  1.00 20.00    -0.123 Cl
ENDROOT
BRANCH   5   7
HETATM    7  C8  UNL     1     -32.809   6.348   2.649  1.00 20.00     0.272 C 
BRANCH   7   8
HETATM    8  C7  UNL     1     -32.053   7.656   2.856  1.00 20.00     0.030 C 
BRANCH   8   9
HETATM    9  C6  UNL     1     -31.870   8.441   1.555  1.00 20.00    -0.003 C 
HETATM   10  C5  UNL     1     -32.549   9.799   1.626  1.00 20.00     0.005 C 
ENDBRANCH   8   9
ENDBRANCH   7   8
ENDBRANCH   5   7
TORSDOF 3
ENDMDL
MODEL 2
REMARK VINA RESULT:      -4.3     11.468     12.249
REMARK  3 active torsions:
REMARK  status: ('A' for Active; 'I' for Inactive)
REMARK    1  A    between atoms: C6_6  and  C7_7 
REMARK    2  A    between atoms: C7_7  and  C8_8 
REMARK    3  A    between atoms: C8_8  and  N9_9 
ROOT
HETATM    1  C1  UNL     1     -34.464  13.272  -4.890  1.00 20.00     0.052 C 
HETATM    2  C2  UNL     1     -33.706  13.950  -3.749  1.00 20.00     0.274 C 
HETATM    3  C3  UNL     1     -35.150  15.560  -4.629  1.00 20.00     0.292 C 
HETATM    4  C4  UNL     1     -35.204  14.398  -5.610  1.00 20.00     0.112 C 
HETATM    5  N9  UNL     1     -33.833  15.384  -4.014  1.00 20.00     0.089 N 
HETATM    6 CL10 UNL     1     -34.369  14.823  -7.135  1.00 20.00    -0.123 Cl
ENDROOT
BRANCH   5   7
HETATM    7  C8  UNL     1     -33.659  16.193  -2.818  1.00 20.00     0.272 C 
BRANCH   7   8
HETATM    8  C7  UNL     1     -34.794  16.004  -1.818  1.00 20.00     0.030 C 
BRANCH   8   9
HETATM    9  C6  UNL     1     -34.632  16.879  -0.572  1.00 20.00    -0.003 C 
HETATM   10  C5  UNL     1     -33.444  17.818  -0.705  1.00 20.00     0.005 C 
ENDBRANCH   8   9
ENDBRANCH   7   8
ENDBRANCH   5   7
TORSDOF 3
ENDMDL
MODEL 3
REMARK VINA RESULT:      -3.9     11.748     12.828
REMARK  3 active torsions:
REMARK  status: ('A' for Active; 'I' for Inactive)
REMARK    1  A    between atoms: C6_6  and  C7_7 
REMARK    2  A    between atoms: C7_7  and  C8_8 
REMARK    3  A    between atoms: C8_8  and  N9_9 
ROOT
HETATM    1  C1  UNL     1     -34.106  15.604  -6.762  1.00 20.00     0.052 C 
HETATM    2  C2  UNL     1     -33.900  15.951  -5.287  1.00 20.00     0.274 C 
HETATM    3  C3  UNL     1     -34.959  13.870  -5.335  1.00 20.00     0.292 C 
HETATM    4  C4  UNL     1     -35.020  14.380  -6.767  1.00 20.00     0.112 C 
HETATM    5  N9  UNL     1     -34.861  15.114  -4.568  1.00 20.00     0.089 N 
HETATM    6 CL10 UNL     1     -36.693  14.846  -7.198  1.00 20.00    -0.123 Cl
ENDROOT
BRANCH   5   7
HETATM    7  C8  UNL     1     -34.483  14.891  -3.181  1.00 20.00     0.272 C 
BRANCH   7   8
HETATM    8  C7  UNL     1     -33.935  16.149  -2.518  1.00 20.00     0.030 C 
BRANCH   8   9
HETATM    9  C6  UNL     1     -34.613  16.451  -1.179  1.00 20.00    -0.003 C 
HETATM   10  C5  UNL     1     -33.968  17.641  -0.487  1.00 20.00     0.005 C 
ENDBRANCH   8   9
ENDBRANCH   7   8
ENDBRANCH   5   7
TORSDOF 3
ENDMDL
MODEL 4
REMARK VINA RESULT:      -3.8     11.387     12.073
REMARK  3 active torsions:
REMARK  status: ('A' for Active; 'I' for Inactive)
REMARK    1  A    between atoms: C6_6  and  C7_7 
REMARK    2  A    between atoms: C7_7  and  C8_8 
REMARK    3  A    between atoms: C8_8  and  N9_9 
ROOT
HETATM    1  C1  UNL     1     -35.532  15.423  -4.316  1.00 20.00     0.052 C 
HETATM    2  C2  UNL     1     -35.898  15.939  -2.924  1.00 20.00     0.274 C 
HETATM    3  C3  UNL     1     -33.565  15.920  -3.030  1.00 20.00     0.292 C 
HETATM    4  C4  UNL     1     -34.026  15.175  -4.274  1.00 20.00     0.112 C 
HETATM    5  N9  UNL     1     -34.694  15.727  -2.118  1.00 20.00     0.089 N 
HETATM    6 CL10 UNL     1     -33.680  13.425  -4.123  1.00 20.00    -0.123 Cl
ENDROOT
BRANCH   5   7
HETATM    7  C8  UNL     1     -34.635  16.601  -0.957  1.00 20.00     0.272 C 
BRANCH   7   8
HETATM    8  C7  UNL     1     -33.552  17.666  -1.085  1.00 20.00     0.030 C 
BRANCH   8   9
HETATM    9  C6  UNL     1     -33.372  18.479   0.198  1.00 20.00    -0.003 C 
HETATM   10  C5  UNL     1     -31.939  18.963   0.353  1.00 20.00     0.005 C 
ENDBRANCH   8   9
ENDBRANCH   7   8
ENDBRANCH   5   7
TORSDOF 3
ENDMDL
MODEL 5
REMARK VINA RESULT:      -3.8      1.161      1.583
REMARK  3 active torsions:
REMARK  status: ('A' for Active; 'I' for Inactive)
REMARK    1  A    between atoms: C6_6  and  C7_7 
REMARK    2  A    between atoms: C7_7  and  C8_8 
REMARK    3  A    between atoms: C8_8  and  N9_9 
ROOT
HETATM    1  C1  UNL     1     -35.469   4.920   4.565  1.00 20.00     0.052 C 
HETATM    2  C2  UNL     1     -34.904   5.605   3.321  1.00 20.00     0.274 C 
HETATM    3  C3  UNL     1     -33.096   5.238   4.752  1.00 20.00     0.292 C 
HETATM    4  C4  UNL     1     -34.331   4.924   5.584  1.00 20.00     0.112 C 
HETATM    5  N9  UNL     1     -33.624   6.169   3.753  1.00 20.00     0.089 N 
HETATM    6 CL10 UNL     1     -34.596   6.193   6.819  1.00 20.00    -0.123 Cl
ENDROOT
BRANCH   5   7
HETATM    7  C8  UNL     1     -32.705   6.386   2.647  1.00 20.00     0.272 C 
BRANCH   7   8
HETATM    8  C7  UNL     1     -31.971   7.718   2.754  1.00 20.00     0.030 C 
BRANCH   8   9
HETATM    9  C6  UNL     1     -31.896   8.458   1.416  1.00 20.00    -0.003 C 
HETATM   10  C5  UNL     1     -32.530   9.837   1.508  1.00 20.00     0.005 C 
ENDBRANCH   8   9
ENDBRANCH   7   8
ENDBRANCH   5   7
TORSDOF 3
ENDMDL
MODEL 6
REMARK VINA RESULT:      -3.8     11.063     12.195
REMARK  3 active torsions:
REMARK  status: ('A' for Active; 'I' for Inactive)
REMARK    1  A    between atoms: C6_6  and  C7_7 
REMARK    2  A    between atoms: C7_7  and  C8_8 
REMARK    3  A    between atoms: C8_8  and  N9_9 
ROOT
HETATM    1  C1  UNL     1     -34.524  18.153  -2.894  1.00 20.00     0.052 C 
HETATM    2  C2  UNL     1     -33.688  17.222  -3.772  1.00 20.00     0.274 C 
HETATM    3  C3  UNL     1     -34.694  15.875  -2.152  1.00 20.00     0.292 C 
HETATM    4  C4  UNL     1     -34.959  17.304  -1.702  1.00 20.00     0.112 C 
HETATM    5  N9  UNL     1     -33.480  16.024  -2.956  1.00 20.00     0.089 N 
HETATM    6 CL10 UNL     1     -33.979  17.700  -0.257  1.00 20.00    -0.123 Cl
ENDROOT
BRANCH   5   7
HETATM    7  C8  UNL     1     -33.187  14.845  -3.756  1.00 20.00     0.272 C 
BRANCH   7   8
HETATM    8  C7  UNL     1     -34.253  13.765  -3.611  1.00 20.00     0.030 C 
BRANCH   8   9
HETATM    9  C6  UNL     1     -34.729  13.225  -4.962  1.00 20.00    -0.003 C 
HETATM   10  C5  UNL     1     -34.847  14.336  -5.993  1.00 20.00     0.005 C 
ENDBRANCH   8   9
ENDBRANCH   7   8
ENDBRANCH   5   7
TORSDOF 3
ENDMDL
MODEL 7
REMARK VINA RESULT:      -3.8     11.967     13.240
REMARK  3 active torsions:
REMARK  status: ('A' for Active; 'I' for Inactive)
REMARK    1  A    between atoms: C6_6  and  C7_7 
REMARK    2  A    between atoms: C7_7  and  C8_8 
REMARK    3  A    between atoms: C8_8  and  N9_9 
ROOT
HETATM    1  C1  UNL     1     -35.540  17.000  -5.742  1.00 20.00     0.052 C 
HETATM    2  C2  UNL     1     -35.417  16.712  -4.246  1.00 20.00     0.274 C 
HETATM    3  C3  UNL     1     -33.292  16.385  -5.159  1.00 20.00     0.292 C 
HETATM    4  C4  UNL     1     -34.220  16.535  -6.355  1.00 20.00     0.112 C 
HETATM    5  N9  UNL     1     -34.204  15.903  -4.119  1.00 20.00     0.089 N 
HETATM    6 CL10 UNL     1     -34.432  14.965  -7.187  1.00 20.00    -0.123 Cl
ENDROOT
BRANCH   5   7
HETATM    7  C8  UNL     1     -33.623  15.969  -2.788  1.00 20.00     0.272 C 
BRANCH   7   8
HETATM    8  C7  UNL     1     -34.658  16.290  -1.716  1.00 20.00     0.030 C 
BRANCH   8   9
HETATM    9  C6  UNL     1     -34.141  17.289  -0.679  1.00 20.00    -0.003 C 
HETATM   10  C5  UNL     1     -35.071  17.375   0.521  1.00 20.00     0.005 C 
ENDBRANCH   8   9
ENDBRANCH   7   8
ENDBRANCH   5   7
TORSDOF 3
ENDMDL
MODEL 8
REMARK VINA RESULT:      -3.8     11.423     12.198
REMARK  3 active torsions:
REMARK  status: ('A' for Active; 'I' for Inactive)
REMARK    1  A    between atoms: C6_6  and  C7_7 
REMARK    2  A    between atoms: C7_7  and  C8_8 
REMARK    3  A    between atoms: C8_8  and  N9_9 
ROOT
HETATM    1  C1  UNL     1     -35.719  15.470  -4.970  1.00 20.00     0.052 C 
HETATM    2  C2  UNL     1     -35.636  16.164  -3.611  1.00 20.00     0.274 C 
HETATM    3  C3  UNL     1     -33.460  15.513  -4.154  1.00 20.00     0.292 C 
HETATM    4  C4  UNL     1     -34.348  14.831  -5.184  1.00 20.00     0.112 C 
HETATM    5  N9  UNL     1     -34.378  15.696  -3.027  1.00 20.00     0.089 N 
HETATM    6 CL10 UNL     1     -34.422  13.068  -4.881  1.00 20.00    -0.123 Cl
ENDROOT
BRANCH   5   7
HETATM    7  C8  UNL     1     -33.855  16.604  -2.019  1.00 20.00     0.272 C 
BRANCH   7   8
HETATM    8  C7  UNL     1     -34.705  16.618  -0.752  1.00 20.00     0.030 C 
BRANCH   8   9
HETATM    9  C6  UNL     1     -34.343  17.771   0.186  1.00 20.00    -0.003 C 
HETATM   10  C5  UNL     1     -35.181  17.738   1.454  1.00 20.00     0.005 C 
ENDBRANCH   8   9
ENDBRANCH   7   8
ENDBRANCH   5   7
TORSDOF 3
ENDMDL
MODEL 9
REMARK VINA RESULT:      -3.7      9.834     11.154
REMARK  3 active torsions:
REMARK  status: ('A' for Active; 'I' for Inactive)
REMARK    1  A    between atoms: C6_6  and  C7_7 
REMARK    2  A    between atoms: C7_7  and  C8_8 
REMARK    3  A    between atoms: C8_8  and  N9_9 
ROOT
HETATM    1  C1  UNL     1     -42.251   5.234   0.502  1.00 20.00     0.052 C 
HETATM    2  C2  UNL     1     -43.083   4.334  -0.412  1.00 20.00     0.274 C 
HETATM    3  C3  UNL     1     -40.975   4.511  -1.400  1.00 20.00     0.292 C 
HETATM    4  C4  UNL     1     -40.978   5.544  -0.283  1.00 20.00     0.112 C 
HETATM    5  N9  UNL     1     -42.401   4.382  -1.706  1.00 20.00     0.089 N 
HETATM    6 CL10 UNL     1     -41.043   7.200  -0.959  1.00 20.00    -0.123 Cl
ENDROOT
BRANCH   5   7
HETATM    7  C8  UNL     1     -42.695   3.225  -2.538  1.00 20.00     0.272 C 
BRANCH   7   8
HETATM    8  C7  UNL     1     -41.434   2.579  -3.101  1.00 20.00     0.030 C 
BRANCH   8   9
HETATM    9  C6  UNL     1     -41.728   1.641  -4.275  1.00 20.00    -0.003 C 
HETATM   10  C5  UNL     1     -41.831   0.195  -3.817  1.00 20.00     0.005 C 
ENDBRANCH   8   9
ENDBRANCH   7   8
ENDBRANCH   5   7
TORSDOF 3
ENDMDL
