MODEL 1
REMARK VINA RESULT:      -4.6      0.000      0.000
REMARK  5 active torsions:
REMARK  status: ('A' for Active; 'I' for Inactive)
REMARK    1  A    between atoms: C2_2  and  C8_8 
REMARK    2  A    between atoms: C5_5  and  C9_9 
REMARK    3  A    between atoms: C7_7  and  C8_8 
REMARK    4  A    between atoms: C7_7  and  C9_9 
REMARK    5  A    between atoms: C9_9  and  O10_10 
ROOT
HETATM    1  C9  UNL     1     -33.605   6.241   5.357  1.00 20.00     0.122 C 
ENDROOT
BRANCH   1   2
HETATM    2  C5  UNL     1     -34.815   5.369   5.663  1.00 20.00     0.014 A 
HETATM    3  C3  UNL     1     -35.417   4.505   4.590  1.00 20.00     0.007 A 
HETATM    4  C4  UNL     1     -34.672   3.873   5.733  1.00 20.00     0.007 A 
ENDBRANCH   1   2
BRANCH   1   5
HETATM    5  C7  UNL     1     -33.803   7.150   4.135  1.00 20.00     0.040 C 
BRANCH   5   6
HETATM    6  C8  UNL     1     -32.920   6.825   2.916  1.00 20.00     0.005 C 
HETATM    7  C6  UNL     1     -32.087   5.571   3.197  1.00 20.00     0.014 C 
BRANCH   6   8
HETATM    8  C2  UNL     1     -31.999   7.970   2.572  1.00 20.00    -0.033 C 
HETATM    9  C1  UNL     1     -32.056   8.657   1.425  1.00 20.00     0.007 C 
ENDBRANCH   6   8
ENDBRANCH   5   6
ENDBRANCH   1   5
BRANCH   1  10
HETATM   10  O10 UNL     1     -33.375   7.064   6.501  1.00 20.00    -0.395 OA
HETATM   11  H26 UNL     1     -32.468   6.883   6.790  1.00 20.00     0.210 HD
ENDBRANCH   1  10
TORSDOF 5
ENDMDL
MODEL 2
REMARK VINA RESULT:      -4.5      1.700      1.974
REMARK  5 active torsions:
REMARK  status: ('A' for Active; 'I' for Inactive)
REMARK    1  A    between atoms: C2_2  and  C8_8 
REMARK    2  A    between atoms: C5_5  and  C9_9 
REMARK    3  A    between atoms: C7_7  and  C8_8 
REMARK    4  A    between atoms: C7_7  and  C9_9 
REMARK    5  A    between atoms: C9_9  and  O10_10 
ROOT
HETATM    1  C9  UNL     1     -34.418   5.969   3.707  1.00 20.00     0.122 C 
ENDROOT
BRANCH   1   2
HETATM    2  C5  UNL     1     -34.029   5.261   4.998  1.00 20.00     0.014 A 
HETATM    3  C3  UNL     1     -34.317   5.899   6.328  1.00 20.00     0.007 A 
HETATM    4  C4  UNL     1     -35.090   4.685   5.894  1.00 20.00     0.007 A 
ENDBRANCH   1   2
BRANCH   1   5
HETATM    5  C7  UNL     1     -33.695   7.309   3.506  1.00 20.00     0.040 C 
BRANCH   5   6
HETATM    6  C8  UNL     1     -32.267   7.214   2.938  1.00 20.00     0.005 C 
HETATM    7  C6  UNL     1     -31.253   7.621   4.011  1.00 20.00     0.014 C 
BRANCH   6   8
HETATM    8  C2  UNL     1     -32.089   8.092   1.724  1.00 20.00    -0.033 C 
HETATM    9  C1  UNL     1     -32.419   9.388   1.684  1.00 20.00     0.007 C 
ENDBRANCH   6   8
ENDBRANCH   5   6
ENDBRANCH   1   5
BRANCH   1  10
HETATM   10  O10 UNL     1     -34.072   5.102   2.626  1.00 20.00    -0.395 OA
HETATM   11  H26 UNL     1     -33.137   4.875   2.746  1.00 20.00     0.210 HD
ENDBRANCH   1  10
TORSDOF 5
ENDMDL
MODEL 3
REMARK VINA RESULT:      -4.4      1.619      4.818
REMARK  5 active torsions:
REMARK  status: ('A' for Active; 'I' for Inactive)
REMARK    1  A    between atoms: C2_2  and  C8_8 
REMARK    2  A    between atoms: C5_5  and  C9_9 
REMARK    3  A    between atoms: C7_7  and  C8_8 
REMARK    4  A    between atoms: C7_7  and  C9_9 
REMARK    5  A    between atoms: C9_9  and  O10_10 
ROOT
HETATM    1  C9  UNL     1     -32.283   7.211   3.195  1.00 20.00     0.122 C 
ENDROOT
BRANCH   1   2
HETATM    2  C5  UNL     1     -32.613   7.941   1.900  1.00 20.00     0.014 A 
HETATM    3  C3  UNL     1     -32.594   9.443   1.852  1.00 20.00     0.007 A 
HETATM    4  C4  UNL     1     -31.532   8.655   1.138  1.00 20.00     0.007 A 
ENDBRANCH   1   2
BRANCH   1   5
HETATM    5  C7  UNL     1     -33.473   7.117   4.162  1.00 20.00     0.040 C 
BRANCH   5   6
HETATM    6  C8  UNL     1     -34.047   5.703   4.371  1.00 20.00     0.005 C 
HETATM    7  C6  UNL     1     -35.313   5.526   3.529  1.00 20.00     0.014 C 
BRANCH   6   8
HETATM    8  C2  UNL     1     -34.371   5.440   5.821  1.00 20.00    -0.033 C 
HETATM    9  C1  UNL     1     -35.092   4.398   6.250  1.00 20.00     0.007 C 
ENDBRANCH   6   8
ENDBRANCH   5   6
ENDBRANCH   1   5
BRANCH   1  10
HETATM   10  O10 UNL     1     -31.878   5.886   2.845  1.00 20.00    -0.395 OA
HETATM   11  H26 UNL     1     -31.047   5.975   2.356  1.00 20.00     0.210 HD
ENDBRANCH   1  10
TORSDOF 5
ENDMDL
MODEL 4
REMARK VINA RESULT:      -4.3     11.668     12.671
REMARK  5 active torsions:
REMARK  status: ('A' for Active; 'I' for Inactive)
REMARK    1  A    between atoms: C2_2  and  C8_8 
REMARK    2  A    between atoms: C5_5  and  C9_9 
REMARK    3  A    between atoms: C7_7  and  C8_8 
REMARK    4  A    between atoms: C7_7  and  C9_9 
REMARK    5  A    between atoms: C9_9  and  O10_10 
ROOT
HETATM    1  C9  UNL     1     -34.788  13.853  -4.590  1.00 20.00     0.122 C 
ENDROOT
BRANCH   1   2
HETATM    2  C5  UNL     1     -35.215  14.089  -6.032  1.00 20.00     0.014 A 
HETATM    3  C3  UNL     1     -35.786  15.417  -6.446  1.00 20.00     0.007 A 
HETATM    4  C4  UNL     1     -34.418  15.007  -6.918  1.00 20.00     0.007 A 
ENDBRANCH   1   2
BRANCH   1   5
HETATM    5  C7  UNL     1     -35.446  14.820  -3.594  1.00 20.00     0.040 C 
BRANCH   5   6
HETATM    6  C8  UNL     1     -34.536  15.940  -3.057  1.00 20.00     0.005 C 
HETATM    7  C6  UNL     1     -33.072  15.610  -3.359  1.00 20.00     0.014 C 
BRANCH   6   8
HETATM    8  C2  UNL     1     -34.708  16.135  -1.571  1.00 20.00    -0.033 C 
HETATM    9  C1  UNL     1     -34.178  17.153  -0.883  1.00 20.00     0.007 C 
ENDBRANCH   6   8
ENDBRANCH   5   6
ENDBRANCH   1   5
BRANCH   1  10
HETATM   10  O10 UNL     1     -35.170  12.520  -4.246  1.00 20.00    -0.395 OA
HETATM   11  H26 UNL     1     -36.078  12.574  -3.913  1.00 20.00     0.210 HD
ENDBRANCH   1  10
TORSDOF 5
ENDMDL
MODEL 5
REMARK VINA RESULT:      -4.3      1.705      4.463
REMARK  5 active torsions:
REMARK  status: ('A' for Active; 'I' for Inactive)
REMARK    1  A    between atoms: C2_2  and  C8_8 
REMARK    2  A    between atoms: C5_5  and  C9_9 
REMARK    3  A    between atoms: C7_7  and  C8_8 
REMARK    4  A    between atoms: C7_7  and  C9_9 
REMARK    5  A    between atoms: C9_9  and  O10_10 
ROOT
HETATM    1  C9  UNL     1     -33.325   5.758   3.573  1.00 20.00     0.122 C 
ENDROOT
BRANCH   1   2
HETATM    2  C5  UNL     1     -32.150   6.456   2.901  1.00 20.00     0.014 A 
HETATM    3  C3  UNL     1     -32.272   7.889   2.461  1.00 20.00     0.007 A 
HETATM    4  C4  UNL     1     -31.393   7.533   3.628  1.00 20.00     0.007 A 
ENDBRANCH   1   2
BRANCH   1   5
HETATM    5  C7  UNL     1     -34.226   6.712   4.370  1.00 20.00     0.040 C 
BRANCH   5   6
HETATM    6  C8  UNL     1     -34.397   6.372   5.862  1.00 20.00     0.005 C 
HETATM    7  C6  UNL     1     -33.361   7.137   6.691  1.00 20.00     0.014 C 
BRANCH   6   8
HETATM    8  C2  UNL     1     -34.249   4.893   6.119  1.00 20.00    -0.033 C 
HETATM    9  C1  UNL     1     -35.169   3.981   5.785  1.00 20.00     0.007 C 
ENDBRANCH   6   8
ENDBRANCH   5   6
ENDBRANCH   1   5
BRANCH   1  10
HETATM   10  O10 UNL     1     -34.107   5.154   2.541  1.00 20.00    -0.395 OA
HETATM   11  H26 UNL     1     -33.514   4.552   2.066  1.00 20.00     0.210 HD
ENDBRANCH   1  10
TORSDOF 5
ENDMDL
MODEL 6
REMARK VINA RESULT:      -4.3     11.584     12.441
REMARK  5 active torsions:
REMARK  status: ('A' for Active; 'I' for Inactive)
REMARK    1  A    between atoms: C2_2  and  C8_8 
REMARK    2  A    between atoms: C5_5  and  C9_9 
REMARK    3  A    between atoms: C7_7  and  C8_8 
REMARK    4  A    between atoms: C7_7  and  C9_9 
REMARK    5  A    between atoms: C9_9  and  O10_10 
ROOT
HETATM    1  C9  UNL     1     -33.747  15.596  -4.197  1.00 20.00     0.122 C 
ENDROOT
BRANCH   1   2
HETATM    2  C5  UNL     1     -33.921  14.102  -4.435  1.00 20.00     0.014 A 
HETATM    3  C3  UNL     1     -35.229  13.431  -4.118  1.00 20.00     0.007 A 
HETATM    4  C4  UNL     1     -34.804  13.611  -5.549  1.00 20.00     0.007 A 
ENDBRANCH   1   2
BRANCH   1   5
HETATM    5  C7  UNL     1     -33.555  15.958  -2.717  1.00 20.00     0.040 C 
BRANCH   5   6
HETATM    6  C8  UNL     1     -34.851  16.116  -1.899  1.00 20.00     0.005 C 
HETATM    7  C6  UNL     1     -35.895  16.875  -2.721  1.00 20.00     0.014 C 
BRANCH   6   8
HETATM    8  C2  UNL     1     -34.608  16.847  -0.602  1.00 20.00    -0.033 C 
HETATM    9  C1  UNL     1     -33.713  17.831  -0.455  1.00 20.00     0.007 C 
ENDBRANCH   6   8
ENDBRANCH   5   6
ENDBRANCH   1   5
BRANCH   1  10
HETATM   10  O10 UNL     1     -32.585  16.009  -4.918  1.00 20.00    -0.395 OA
HETATM   11  H26 UNL     1     -32.898  16.571  -5.642  1.00 20.00     0.210 HD
ENDBRANCH   1  10
TORSDOF 5
ENDMDL
MODEL 7
REMARK VINA RESULT:      -4.2     11.321     13.045
REMARK  5 active torsions:
REMARK  status: ('A' for Active; 'I' for Inactive)
REMARK    1  A    between atoms: C2_2  and  C8_8 
REMARK    2  A    between atoms: C5_5  and  C9_9 
REMARK    3  A    between atoms: C7_7  and  C8_8 
REMARK    4  A    between atoms: C7_7  and  C9_9 
REMARK    5  A    between atoms: C9_9  and  O10_10 
ROOT
HETATM    1  C9  UNL     1     -35.191  13.910  -4.360  1.00 20.00     0.122 C 
ENDROOT
BRANCH   1   2
HETATM    2  C5  UNL     1     -34.232  14.437  -3.302  1.00 20.00     0.014 A 
HETATM    3  C3  UNL     1     -33.469  15.711  -3.538  1.00 20.00     0.007 A 
HETATM    4  C4  UNL     1     -34.574  15.676  -2.520  1.00 20.00     0.007 A 
ENDBRANCH   1   2
BRANCH   1   5
HETATM    5  C7  UNL     1     -34.668  14.081  -5.794  1.00 20.00     0.040 C 
BRANCH   5   6
HETATM    6  C8  UNL     1     -35.435  15.096  -6.663  1.00 20.00     0.005 C 
HETATM    7  C6  UNL     1     -34.479  16.188  -7.151  1.00 20.00     0.014 C 
BRANCH   6   8
HETATM    8  C2  UNL     1     -36.575  15.731  -5.906  1.00 20.00    -0.033 C 
HETATM    9  C1  UNL     1     -36.660  17.040  -5.642  1.00 20.00     0.007 C 
ENDBRANCH   6   8
ENDBRANCH   5   6
ENDBRANCH   1   5
BRANCH   1  10
HETATM   10  O10 UNL     1     -35.375  12.515  -4.110  1.00 20.00    -0.395 OA
HETATM   11  H26 UNL     1     -35.899  12.172  -4.849  1.00 20.00     0.210 HD
ENDBRANCH   1  10
TORSDOF 5
ENDMDL
MODEL 8
REMARK VINA RESULT:      -4.1     11.898     12.733
REMARK  5 active torsions:
REMARK  status: ('A' for Active; 'I' for Inactive)
REMARK    1  A    between atoms: C2_2  and  C8_8 
REMARK    2  A    between atoms: C5_5  and  C9_9 
REMARK    3  A    between atoms: C7_7  and  C8_8 
REMARK    4  A    between atoms: C7_7  and  C9_9 
REMARK    5  A    between atoms: C9_9  and  O10_10 
ROOT
HETATM    1  C9  UNL     1     -33.250  15.376  -3.509  1.00 20.00     0.122 C 
ENDROOT
BRANCH   1   2
HETATM    2  C5  UNL     1     -34.000  16.532  -2.860  1.00 20.00     0.014 A 
HETATM    3  C3  UNL     1     -34.803  16.306  -1.609  1.00 20.00     0.007 A 
HETATM    4  C4  UNL     1     -33.527  17.100  -1.550  1.00 20.00     0.007 A 
ENDBRANCH   1   2
BRANCH   1   5
HETATM    5  C7  UNL     1     -34.177  14.290  -4.074  1.00 20.00     0.040 C 
BRANCH   5   6
HETATM    6  C8  UNL     1     -35.392  14.802  -4.869  1.00 20.00     0.005 C 
HETATM    7  C6  UNL     1     -36.687  14.318  -4.209  1.00 20.00     0.014 C 
BRANCH   6   8
HETATM    8  C2  UNL     1     -35.358  14.335  -6.303  1.00 20.00    -0.033 C 
HETATM    9  C1  UNL     1     -34.555  14.855  -7.240  1.00 20.00     0.007 C 
ENDBRANCH   6   8
ENDBRANCH   5   6
ENDBRANCH   1   5
BRANCH   1  10
HETATM   10  O10 UNL     1     -32.482  15.919  -4.584  1.00 20.00    -0.395 OA
HETATM   11  H26 UNL     1     -33.089  16.015  -5.333  1.00 20.00     0.210 HD
ENDBRANCH   1  10
TORSDOF 5
ENDMDL
MODEL 9
REMARK VINA RESULT:      -4.1     11.271     12.556
REMARK  5 active torsions:
REMARK  status: ('A' for Active; 'I' for Inactive)
REMARK    1  A    between atoms: C2_2  and  C8_8 
REMARK    2  A    between atoms: C5_5  and  C9_9 
REMARK    3  A    between atoms: C7_7  and  C8_8 
REMARK    4  A    between atoms: C7_7  and  C9_9 
REMARK    5  A    between atoms: C9_9  and  O10_10 
ROOT
HETATM    1  C9  UNL     1     -35.221  14.058  -4.204  1.00 20.00     0.122 C 
ENDROOT
BRANCH   1   2
HETATM    2  C5  UNL     1     -36.696  14.431  -4.160  1.00 20.00     0.014 A 
HETATM    3  C3  UNL     1     -37.117  15.808  -3.729  1.00 20.00     0.007 A 
HETATM    4  C4  UNL     1     -37.265  15.392  -5.167  1.00 20.00     0.007 A 
ENDBRANCH   1   2
BRANCH   1   5
HETATM    5  C7  UNL     1     -34.424  14.583  -3.000  1.00 20.00     0.040 C 
BRANCH   5   6
HETATM    6  C8  UNL     1     -33.421  15.710  -3.309  1.00 20.00     0.005 C 
HETATM    7  C6  UNL     1     -33.789  16.965  -2.513  1.00 20.00     0.014 C 
BRANCH   6   8
HETATM    8  C2  UNL     1     -33.388  16.042  -4.780  1.00 20.00    -0.033 C 
HETATM    9  C1  UNL     1     -33.554  17.275  -5.272  1.00 20.00     0.007 C 
ENDBRANCH   6   8
ENDBRANCH   5   6
ENDBRANCH   1   5
BRANCH   1  10
HETATM   10  O10 UNL     1     -35.142  12.632  -4.211  1.00 20.00    -0.395 OA
HETATM   11  H26 UNL     1     -35.025  12.360  -3.288  1.00 20.00     0.210 HD
ENDBRANCH   1  10
TORSDOF 5
ENDMDL
