MODEL 1
REMARK VINA RESULT:      -4.4      0.000      0.000
REMARK  1 active torsions:
REMARK  status: ('A' for Active; 'I' for Inactive)
REMARK    1  A    between atoms: C6_6  and  N7_7 
ROOT
HETATM    1  C1  UNL     1     -32.210   7.636   2.569  1.00 20.00     0.158 C 
HETATM    2  N7  UNL     1     -32.216   6.783   3.372  1.00 20.00    -0.268 NA
HETATM    3  S9  UNL     1     -32.166   8.788   1.470  1.00 20.00    -0.055 SA
ENDROOT
BRANCH   2   4
HETATM    4  C6  UNL     1     -33.507   6.576   4.031  1.00 20.00     0.133 C 
HETATM    5  C3  UNL     1     -34.205   5.373   3.401  1.00 20.00     0.032 C 
HETATM    6  C2  UNL     1     -35.453   5.006   4.197  1.00 20.00     0.028 C 
HETATM    7  C4  UNL     1     -35.125   4.866   5.679  1.00 20.00     0.167 C 
HETATM    8  O8  UNL     1     -34.517   6.057   6.178  1.00 20.00    -0.389 OA
HETATM    9  C5  UNL     1     -33.283   6.347   5.522  1.00 20.00     0.195 C 
ENDBRANCH   2   4
TORSDOF 1
ENDMDL
MODEL 2
REMARK VINA RESULT:      -4.0     11.467     11.674
REMARK  1 active torsions:
REMARK  status: ('A' for Active; 'I' for Inactive)
REMARK    1  A    between atoms: C6_6  and  N7_7 
ROOT
HETATM    1  C1  UNL     1     -34.216  16.798  -1.397  1.00 20.00     0.158 C 
HETATM    2  N7  UNL     1     -33.775  16.422  -2.415  1.00 20.00    -0.268 NA
HETATM    3  S9  UNL     1     -34.797  17.340  -0.017  1.00 20.00    -0.055 SA
ENDROOT
BRANCH   2   4
HETATM    4  C6  UNL     1     -34.234  15.094  -2.825  1.00 20.00     0.133 C 
HETATM    5  C3  UNL     1     -35.532  15.234  -3.617  1.00 20.00     0.032 C 
HETATM    6  C2  UNL     1     -35.927  13.895  -4.232  1.00 20.00     0.028 C 
HETATM    7  C4  UNL     1     -34.758  13.290  -5.000  1.00 20.00     0.167 C 
HETATM    8  O8  UNL     1     -33.611  13.162  -4.159  1.00 20.00    -0.389 OA
HETATM    9  C5  UNL     1     -33.157  14.425  -3.672  1.00 20.00     0.195 C 
ENDBRANCH   2   4
TORSDOF 1
ENDMDL
MODEL 3
REMARK VINA RESULT:      -3.8     11.792     12.170
REMARK  1 active torsions:
REMARK  status: ('A' for Active; 'I' for Inactive)
REMARK    1  A    between atoms: C6_6  and  N7_7 
ROOT
HETATM    1  C1  UNL     1     -33.761  17.410  -3.861  1.00 20.00     0.158 C 
HETATM    2  N7  UNL     1     -33.846  16.828  -2.848  1.00 20.00    -0.268 NA
HETATM    3  S9  UNL     1     -33.638  18.233  -5.219  1.00 20.00    -0.055 SA
ENDROOT
BRANCH   2   4
HETATM    4  C6  UNL     1     -34.186  15.411  -2.987  1.00 20.00     0.133 C 
HETATM    5  C3  UNL     1     -35.489  15.281  -3.771  1.00 20.00     0.032 C 
HETATM    6  C2  UNL     1     -35.763  13.819  -4.110  1.00 20.00     0.028 C 
HETATM    7  C4  UNL     1     -34.544  13.181  -4.764  1.00 20.00     0.167 C 
HETATM    8  O8  UNL     1     -33.392  13.318  -3.931  1.00 20.00    -0.389 OA
HETATM    9  C5  UNL     1     -33.052  14.686  -3.705  1.00 20.00     0.195 C 
ENDBRANCH   2   4
TORSDOF 1
ENDMDL
MODEL 4
REMARK VINA RESULT:      -3.7     11.701     12.244
REMARK  1 active torsions:
REMARK  status: ('A' for Active; 'I' for Inactive)
REMARK    1  A    between atoms: C6_6  and  N7_7 
ROOT
HETATM    1  C1  UNL     1     -38.208  15.134  -3.616  1.00 20.00     0.158 C 
HETATM    2  N7  UNL     1     -37.476  14.227  -3.735  1.00 20.00    -0.268 NA
HETATM    3  S9  UNL     1     -39.230  16.343  -3.445  1.00 20.00    -0.055 SA
ENDROOT
BRANCH   2   4
HETATM    4  C6  UNL     1     -36.109  14.592  -4.109  1.00 20.00     0.133 C 
HETATM    5  C3  UNL     1     -35.454  15.341  -2.951  1.00 20.00     0.032 C 
HETATM    6  C2  UNL     1     -33.969  15.555  -3.228  1.00 20.00     0.028 C 
HETATM    7  C4  UNL     1     -33.300  14.242  -3.616  1.00 20.00     0.167 C 
HETATM    8  O8  UNL     1     -33.960  13.647  -4.733  1.00 20.00    -0.389 OA
HETATM    9  C5  UNL     1     -35.323  13.330  -4.447  1.00 20.00     0.195 C 
ENDBRANCH   2   4
TORSDOF 1
ENDMDL
MODEL 5
REMARK VINA RESULT:      -3.6     11.937     12.978
REMARK  1 active torsions:
REMARK  status: ('A' for Active; 'I' for Inactive)
REMARK    1  A    between atoms: C6_6  and  N7_7 
ROOT
HETATM    1  C1  UNL     1     -34.107  17.803  -3.969  1.00 20.00     0.158 C 
HETATM    2  N7  UNL     1     -33.206  17.429  -4.617  1.00 20.00    -0.268 NA
HETATM    3  S9  UNL     1     -35.319  18.345  -3.089  1.00 20.00    -0.055 SA
ENDROOT
BRANCH   2   4
HETATM    4  C6  UNL     1     -33.196  15.988  -4.873  1.00 20.00     0.133 C 
HETATM    5  C3  UNL     1     -33.203  15.241  -3.542  1.00 20.00     0.032 C 
HETATM    6  C2  UNL     1     -33.399  13.746  -3.773  1.00 20.00     0.028 C 
HETATM    7  C4  UNL     1     -34.607  13.494  -4.667  1.00 20.00     0.167 C 
HETATM    8  O8  UNL     1     -34.480  14.201  -5.901  1.00 20.00    -0.389 OA
HETATM    9  C5  UNL     1     -34.417  15.614  -5.707  1.00 20.00     0.195 C 
ENDBRANCH   2   4
TORSDOF 1
ENDMDL
MODEL 6
REMARK VINA RESULT:      -3.5      9.998     10.691
REMARK  1 active torsions:
REMARK  status: ('A' for Active; 'I' for Inactive)
REMARK    1  A    between atoms: C6_6  and  N7_7 
ROOT
HETATM    1  C1  UNL     1     -42.554   8.142  -4.078  1.00 20.00     0.158 C 
HETATM    2  N7  UNL     1     -42.940   7.352  -3.303  1.00 20.00    -0.268 NA
HETATM    3  S9  UNL     1     -42.064   9.224  -5.139  1.00 20.00    -0.055 SA
ENDROOT
BRANCH   2   4
HETATM    4  C6  UNL     1     -41.885   6.640  -2.582  1.00 20.00     0.133 C 
HETATM    5  C3  UNL     1     -41.717   7.258  -1.196  1.00 20.00     0.032 C 
HETATM    6  C2  UNL     1     -40.773   6.414  -0.347  1.00 20.00     0.028 C 
HETATM    7  C4  UNL     1     -41.201   4.951  -0.359  1.00 20.00     0.167 C 
HETATM    8  O8  UNL     1     -41.284   4.459  -1.697  1.00 20.00    -0.389 OA
HETATM    9  C5  UNL     1     -42.255   5.165  -2.471  1.00 20.00     0.195 C 
ENDBRANCH   2   4
TORSDOF 1
ENDMDL
MODEL 7
REMARK VINA RESULT:      -3.5     11.681     12.282
REMARK  1 active torsions:
REMARK  status: ('A' for Active; 'I' for Inactive)
REMARK    1  A    between atoms: C6_6  and  N7_7 
ROOT
HETATM    1  C1  UNL     1     -34.052  17.105  -2.232  1.00 20.00     0.158 C 
HETATM    2  N7  UNL     1     -33.720  17.193  -3.352  1.00 20.00    -0.268 NA
HETATM    3  S9  UNL     1     -34.490  17.020  -0.703  1.00 20.00    -0.055 SA
ENDROOT
BRANCH   2   4
HETATM    4  C6  UNL     1     -34.027  16.021  -4.172  1.00 20.00     0.133 C 
HETATM    5  C3  UNL     1     -33.385  14.786  -3.544  1.00 20.00     0.032 C 
HETATM    6  C2  UNL     1     -33.855  13.522  -4.257  1.00 20.00     0.028 C 
HETATM    7  C4  UNL     1     -35.375  13.489  -4.349  1.00 20.00     0.167 C 
HETATM    8  O8  UNL     1     -35.869  14.666  -4.990  1.00 20.00    -0.389 OA
HETATM    9  C5  UNL     1     -35.539  15.852  -4.267  1.00 20.00     0.195 C 
ENDBRANCH   2   4
TORSDOF 1
ENDMDL
MODEL 8
REMARK VINA RESULT:      -3.5     11.910     12.760
REMARK  1 active torsions:
REMARK  status: ('A' for Active; 'I' for Inactive)
REMARK    1  A    between atoms: C6_6  and  N7_7 
ROOT
HETATM    1  C1  UNL     1     -37.974  14.738  -3.804  1.00 20.00     0.158 C 
HETATM    2  N7  UNL     1     -36.962  14.156  -3.906  1.00 20.00    -0.268 NA
HETATM    3  S9  UNL     1     -39.367  15.499  -3.675  1.00 20.00    -0.055 SA
ENDROOT
BRANCH   2   4
HETATM    4  C6  UNL     1     -35.770  14.946  -3.593  1.00 20.00     0.133 C 
HETATM    5  C3  UNL     1     -34.532  14.064  -3.730  1.00 20.00     0.032 C 
HETATM    6  C2  UNL     1     -33.265  14.905  -3.611  1.00 20.00     0.028 C 
HETATM    7  C4  UNL     1     -33.320  16.098  -4.556  1.00 20.00     0.167 C 
HETATM    8  O8  UNL     1     -34.491  16.880  -4.317  1.00 20.00    -0.389 OA
HETATM    9  C5  UNL     1     -35.689  16.137  -4.542  1.00 20.00     0.195 C 
ENDBRANCH   2   4
TORSDOF 1
ENDMDL
MODEL 9
REMARK VINA RESULT:      -3.5     11.714     12.462
REMARK  1 active torsions:
REMARK  status: ('A' for Active; 'I' for Inactive)
REMARK    1  A    between atoms: C6_6  and  N7_7 
ROOT
HETATM    1  C1  UNL     1     -34.144  16.817  -1.478  1.00 20.00     0.158 C 
HETATM    2  N7  UNL     1     -34.703  15.897  -1.941  1.00 20.00    -0.268 NA
HETATM    3  S9  UNL     1     -33.409  18.068  -0.821  1.00 20.00    -0.055 SA
ENDROOT
BRANCH   2   4
HETATM    4  C6  UNL     1     -34.102  15.375  -3.169  1.00 20.00     0.133 C 
HETATM    5  C3  UNL     1     -34.842  14.108  -3.592  1.00 20.00     0.032 C 
HETATM    6  C2  UNL     1     -34.376  13.656  -4.972  1.00 20.00     0.028 C 
HETATM    7  C4  UNL     1     -34.440  14.809  -5.966  1.00 20.00     0.167 C 
HETATM    8  O8  UNL     1     -33.681  15.924  -5.498  1.00 20.00    -0.389 OA
HETATM    9  C5  UNL     1     -34.183  16.435  -4.262  1.00 20.00     0.195 C 
ENDBRANCH   2   4
TORSDOF 1
ENDMDL
