MODEL 1
REMARK VINA RESULT:      -4.1      0.000      0.000
REMARK  1 active torsions:
REMARK  status: ('A' for Active; 'I' for Inactive)
REMARK    1  A    between atoms: C3_3  and  N9_9 
ROOT
HETATM    1  C4  UNL     1     -34.454  13.275  -4.726  1.00 20.00     0.041 C 
HETATM    2  C5  UNL     1     -33.700  14.186  -3.758  1.00 20.00     0.126 C 
HETATM    3  C6  UNL     1     -35.691  15.315  -4.552  1.00 20.00     0.145 C 
HETATM    4  C7  UNL     1     -35.292  14.236  -5.560  1.00 20.00     0.102 C 
HETATM    5  N9  UNL     1     -34.582  15.338  -3.596  1.00 20.00    -0.358 N 
HETATM    6 CL11 UNL     1     -34.314  14.941  -6.880  1.00 20.00    -0.123 Cl
ENDROOT
BRANCH   5   7
HETATM    7  C3  UNL     1     -34.406  16.315  -2.639  1.00 20.00     0.168 A 
HETATM    8  N8  UNL     1     -34.621  16.140  -1.354  1.00 20.00    -0.236 NA
HETATM    9  C1  UNL     1     -34.348  17.321  -0.691  1.00 20.00     0.126 A 
HETATM   10  C2  UNL     1     -33.931  18.373  -1.480  1.00 20.00     0.072 A 
HETATM   11  S10 UNL     1     -33.874  17.875  -3.120  1.00 20.00    -0.063 SA
ENDBRANCH   5   7
TORSDOF 1
ENDMDL
MODEL 2
REMARK VINA RESULT:      -3.9      3.082      4.328
REMARK  1 active torsions:
REMARK  status: ('A' for Active; 'I' for Inactive)
REMARK    1  A    between atoms: C3_3  and  N9_9 
ROOT
HETATM    1  C4  UNL     1     -33.626  14.161  -4.027  1.00 20.00     0.041 C 
HETATM    2  C5  UNL     1     -35.092  13.769  -3.842  1.00 20.00     0.126 C 
HETATM    3  C6  UNL     1     -34.957  16.034  -4.690  1.00 20.00     0.145 C 
HETATM    4  C7  UNL     1     -33.643  15.683  -3.989  1.00 20.00     0.102 C 
HETATM    5  N9  UNL     1     -35.833  14.898  -4.397  1.00 20.00    -0.358 N 
HETATM    6 CL11 UNL     1     -33.657  16.271  -2.300  1.00 20.00    -0.123 Cl
ENDROOT
BRANCH   5   7
HETATM    7  C3  UNL     1     -37.189  14.885  -4.641  1.00 20.00     0.168 A 
HETATM    8  N8  UNL     1     -38.086  14.394  -3.814  1.00 20.00    -0.236 NA
HETATM    9  C1  UNL     1     -39.340  14.542  -4.374  1.00 20.00     0.126 A 
HETATM   10  C2  UNL     1     -39.378  15.142  -5.616  1.00 20.00     0.072 A 
HETATM   11  S10 UNL     1     -37.785  15.542  -6.111  1.00 20.00    -0.063 SA
ENDBRANCH   5   7
TORSDOF 1
ENDMDL
MODEL 3
REMARK VINA RESULT:      -3.9      2.875      4.402
REMARK  1 active torsions:
REMARK  status: ('A' for Active; 'I' for Inactive)
REMARK    1  A    between atoms: C3_3  and  N9_9 
ROOT
HETATM    1  C4  UNL     1     -34.474  15.921  -2.193  1.00 20.00     0.041 C 
HETATM    2  C5  UNL     1     -35.823  16.343  -2.774  1.00 20.00     0.126 C 
HETATM    3  C6  UNL     1     -35.073  14.308  -3.854  1.00 20.00     0.145 C 
HETATM    4  C7  UNL     1     -33.862  15.044  -3.278  1.00 20.00     0.102 C 
HETATM    5  N9  UNL     1     -36.182  15.245  -3.667  1.00 20.00    -0.358 N 
HETATM    6 CL11 UNL     1     -33.081  16.049  -4.534  1.00 20.00    -0.123 Cl
ENDROOT
BRANCH   5   7
HETATM    7  C3  UNL     1     -37.427  15.094  -4.241  1.00 20.00     0.168 A 
HETATM    8  N8  UNL     1     -38.416  14.420  -3.698  1.00 20.00    -0.236 NA
HETATM    9  C1  UNL     1     -39.510  14.474  -4.541  1.00 20.00     0.126 A 
HETATM   10  C2  UNL     1     -39.335  15.186  -5.709  1.00 20.00     0.072 A 
HETATM   11  S10 UNL     1     -37.742  15.820  -5.765  1.00 20.00    -0.063 SA
ENDBRANCH   5   7
TORSDOF 1
ENDMDL
MODEL 4
REMARK VINA RESULT:      -3.8      2.401      4.508
REMARK  1 active torsions:
REMARK  status: ('A' for Active; 'I' for Inactive)
REMARK    1  A    between atoms: C3_3  and  N9_9 
ROOT
HETATM    1  C4  UNL     1     -34.068  17.393  -0.872  1.00 20.00     0.041 C 
HETATM    2  C5  UNL     1     -34.717  16.167  -1.513  1.00 20.00     0.126 C 
HETATM    3  C6  UNL     1     -33.717  17.549  -3.233  1.00 20.00     0.145 C 
HETATM    4  C7  UNL     1     -34.007  18.412  -2.003  1.00 20.00     0.102 C 
HETATM    5  N9  UNL     1     -34.339  16.261  -2.920  1.00 20.00    -0.358 N 
HETATM    6 CL11 UNL     1     -35.575  19.251  -2.181  1.00 20.00    -0.123 Cl
ENDROOT
BRANCH   5   7
HETATM    7  C3  UNL     1     -34.522  15.248  -3.837  1.00 20.00     0.168 A 
HETATM    8  N8  UNL     1     -34.534  13.969  -3.534  1.00 20.00    -0.236 NA
HETATM    9  C1  UNL     1     -34.738  13.237  -4.688  1.00 20.00     0.126 A 
HETATM   10  C2  UNL     1     -34.878  13.970  -5.848  1.00 20.00     0.072 A 
HETATM   11  S10 UNL     1     -34.753  15.643  -5.491  1.00 20.00    -0.063 SA
ENDBRANCH   5   7
TORSDOF 1
ENDMDL
MODEL 5
REMARK VINA RESULT:      -3.8      3.234      4.648
REMARK  1 active torsions:
REMARK  status: ('A' for Active; 'I' for Inactive)
REMARK    1  A    between atoms: C3_3  and  N9_9 
ROOT
HETATM    1  C4  UNL     1     -33.435  13.821  -3.834  1.00 20.00     0.041 C 
HETATM    2  C5  UNL     1     -34.869  13.677  -4.343  1.00 20.00     0.126 C 
HETATM    3  C6  UNL     1     -33.978  15.826  -5.018  1.00 20.00     0.145 C 
HETATM    4  C7  UNL     1     -33.206  15.327  -3.795  1.00 20.00     0.102 C 
HETATM    5  N9  UNL     1     -35.072  14.865  -5.167  1.00 20.00    -0.358 N 
HETATM    6 CL11 UNL     1     -33.881  16.028  -2.296  1.00 20.00    -0.123 Cl
ENDROOT
BRANCH   5   7
HETATM    7  C3  UNL     1     -36.152  15.046  -6.006  1.00 20.00     0.168 A 
HETATM    8  N8  UNL     1     -37.347  15.417  -5.604  1.00 20.00    -0.236 NA
HETATM    9  C1  UNL     1     -38.182  15.497  -6.702  1.00 20.00     0.126 A 
HETATM   10  C2  UNL     1     -37.611  15.185  -7.918  1.00 20.00     0.072 A 
HETATM   11  S10 UNL     1     -35.960  14.776  -7.690  1.00 20.00    -0.063 SA
ENDBRANCH   5   7
TORSDOF 1
ENDMDL
MODEL 6
REMARK VINA RESULT:      -3.8      2.756      4.810
REMARK  1 active torsions:
REMARK  status: ('A' for Active; 'I' for Inactive)
REMARK    1  A    between atoms: C3_3  and  N9_9 
ROOT
HETATM    1  C4  UNL     1     -35.001  18.790  -1.755  1.00 20.00     0.041 C 
HETATM    2  C5  UNL     1     -34.664  17.885  -2.940  1.00 20.00     0.126 C 
HETATM    3  C6  UNL     1     -34.720  16.572  -0.905  1.00 20.00     0.145 C 
HETATM    4  C7  UNL     1     -34.457  18.036  -0.549  1.00 20.00     0.102 C 
HETATM    5  N9  UNL     1     -34.650  16.542  -2.367  1.00 20.00    -0.358 N 
HETATM    6 CL11 UNL     1     -32.703  18.331  -0.361  1.00 20.00    -0.123 Cl
ENDROOT
BRANCH   5   7
HETATM    7  C3  UNL     1     -34.604  15.385  -3.116  1.00 20.00     0.168 A 
HETATM    8  N8  UNL     1     -33.501  14.726  -3.393  1.00 20.00    -0.236 NA
HETATM    9  C1  UNL     1     -33.821  13.622  -4.160  1.00 20.00     0.126 A 
HETATM   10  C2  UNL     1     -35.159  13.460  -4.453  1.00 20.00     0.072 A 
HETATM   11  S10 UNL     1     -36.062  14.734  -3.744  1.00 20.00    -0.063 SA
ENDBRANCH   5   7
TORSDOF 1
ENDMDL
MODEL 7
REMARK VINA RESULT:      -3.8      2.705      3.940
REMARK  1 active torsions:
REMARK  status: ('A' for Active; 'I' for Inactive)
REMARK    1  A    between atoms: C3_3  and  N9_9 
ROOT
HETATM    1  C4  UNL     1     -33.398  16.141  -4.689  1.00 20.00     0.041 C 
HETATM    2  C5  UNL     1     -34.798  15.848  -5.228  1.00 20.00     0.126 C 
HETATM    3  C6  UNL     1     -34.769  15.532  -2.826  1.00 20.00     0.145 C 
HETATM    4  C7  UNL     1     -33.345  15.386  -3.367  1.00 20.00     0.102 C 
HETATM    5  N9  UNL     1     -35.599  15.627  -4.028  1.00 20.00    -0.358 N 
HETATM    6 CL11 UNL     1     -32.952  13.664  -3.641  1.00 20.00    -0.123 Cl
ENDROOT
BRANCH   5   7
HETATM    7  C3  UNL     1     -36.976  15.545  -4.025  1.00 20.00     0.168 A 
HETATM    8  N8  UNL     1     -37.651  14.431  -3.844  1.00 20.00    -0.236 NA
HETATM    9  C1  UNL     1     -39.002  14.714  -3.904  1.00 20.00     0.126 A 
HETATM   10  C2  UNL     1     -39.333  16.034  -4.128  1.00 20.00     0.072 A 
HETATM   11  S10 UNL     1     -37.902  16.969  -4.271  1.00 20.00    -0.063 SA
ENDBRANCH   5   7
TORSDOF 1
ENDMDL
MODEL 8
REMARK VINA RESULT:      -3.8     13.339     14.701
REMARK  1 active torsions:
REMARK  status: ('A' for Active; 'I' for Inactive)
REMARK    1  A    between atoms: C3_3  and  N9_9 
ROOT
HETATM    1  C4  UNL     1     -40.818   6.046  -0.617  1.00 20.00     0.041 C 
HETATM    2  C5  UNL     1     -40.686   4.608  -1.116  1.00 20.00     0.126 C 
HETATM    3  C6  UNL     1     -42.742   5.576  -1.957  1.00 20.00     0.145 C 
HETATM    4  C7  UNL     1     -42.312   6.330  -0.697  1.00 20.00     0.102 C 
HETATM    5  N9  UNL     1     -41.812   4.448  -2.032  1.00 20.00    -0.358 N 
HETATM    6 CL11 UNL     1     -43.155   5.683   0.740  1.00 20.00    -0.123 Cl
ENDROOT
BRANCH   5   7
HETATM    7  C3  UNL     1     -41.965   3.375  -2.885  1.00 20.00     0.168 A 
HETATM    8  N8  UNL     1     -41.061   2.437  -3.065  1.00 20.00    -0.236 NA
HETATM    9  C1  UNL     1     -41.542   1.524  -3.983  1.00 20.00     0.126 A 
HETATM   10  C2  UNL     1     -42.800   1.780  -4.487  1.00 20.00     0.072 A 
HETATM   11  S10 UNL     1     -43.417   3.220  -3.787  1.00 20.00    -0.063 SA
ENDBRANCH   5   7
TORSDOF 1
ENDMDL
MODEL 9
REMARK VINA RESULT:      -3.7      1.642      2.023
REMARK  1 active torsions:
REMARK  status: ('A' for Active; 'I' for Inactive)
REMARK    1  A    between atoms: C3_3  and  N9_9 
ROOT
HETATM    1  C4  UNL     1     -33.295  16.283  -5.217  1.00 20.00     0.041 C 
HETATM    2  C5  UNL     1     -33.684  17.341  -4.184  1.00 20.00     0.126 C 
HETATM    3  C6  UNL     1     -33.984  15.131  -3.237  1.00 20.00     0.145 C 
HETATM    4  C7  UNL     1     -34.038  15.033  -4.763  1.00 20.00     0.102 C 
HETATM    5  N9  UNL     1     -33.951  16.570  -2.973  1.00 20.00    -0.358 N 
HETATM    6 CL11 UNL     1     -35.731  15.065  -5.334  1.00 20.00    -0.123 Cl
ENDROOT
BRANCH   5   7
HETATM    7  C3  UNL     1     -34.125  17.132  -1.725  1.00 20.00     0.168 A 
HETATM    8  N8  UNL     1     -34.749  16.544  -0.729  1.00 20.00    -0.236 NA
HETATM    9  C1  UNL     1     -34.738  17.388   0.365  1.00 20.00     0.126 A 
HETATM   10  C2  UNL     1     -34.108  18.601   0.184  1.00 20.00     0.072 A 
HETATM   11  S10 UNL     1     -33.498  18.700  -1.416  1.00 20.00    -0.063 SA
ENDBRANCH   5   7
TORSDOF 1
ENDMDL
