MODEL 1
REMARK VINA RESULT:      -4.3      0.000      0.000
REMARK  3 active torsions:
REMARK  status: ('A' for Active; 'I' for Inactive)
REMARK    1  A    between atoms: C7_7  and  C9_9 
REMARK    2  A    between atoms: C8_8  and  C9_9 
REMARK    3  A    between atoms: C8_8  and  N10_10 
ROOT
HETATM    1  C1  UNL     1     -34.252  13.484  -4.870  1.00 20.00     0.052 C 
HETATM    2  C2  UNL     1     -34.541  13.930  -3.447  1.00 20.00     0.274 C 
HETATM    3  C3  UNL     1     -35.613  15.498  -4.816  1.00 20.00     0.292 C 
HETATM    4  C4  UNL     1     -35.226  14.312  -5.702  1.00 20.00     0.112 C 
HETATM    5  N10 UNL     1     -34.757  15.364  -3.631  1.00 20.00     0.090 N 
HETATM    6 CL11 UNL     1     -34.498  14.821  -7.239  1.00 20.00    -0.123 Cl
ENDROOT
BRANCH   5   7
HETATM    7  C8  UNL     1     -35.327  16.001  -2.453  1.00 20.00     0.276 C 
BRANCH   7   8
HETATM    8  C9  UNL     1     -34.278  16.665  -1.548  1.00 20.00     0.009 C 
HETATM    9  C6  UNL     1     -33.697  17.918  -2.213  1.00 20.00     0.011 C 
BRANCH   8  10
HETATM   10  C7  UNL     1     -34.797  17.014  -0.141  1.00 20.00     0.001 C 
HETATM   11  C5  UNL     1     -34.021  18.137   0.534  1.00 20.00     0.005 C 
ENDBRANCH   8  10
ENDBRANCH   7   8
ENDBRANCH   5   7
TORSDOF 3
ENDMDL
MODEL 2
REMARK VINA RESULT:      -4.0      1.874      2.292
REMARK  3 active torsions:
REMARK  status: ('A' for Active; 'I' for Inactive)
REMARK    1  A    between atoms: C7_7  and  C9_9 
REMARK    2  A    between atoms: C8_8  and  C9_9 
REMARK    3  A    between atoms: C8_8  and  N10_10 
ROOT
HETATM    1  C1  UNL     1     -33.339  16.145  -4.855  1.00 20.00     0.052 C 
HETATM    2  C2  UNL     1     -33.649  17.375  -4.020  1.00 20.00     0.274 C 
HETATM    3  C3  UNL     1     -34.158  15.551  -2.645  1.00 20.00     0.292 C 
HETATM    4  C4  UNL     1     -33.357  15.013  -3.832  1.00 20.00     0.112 C 
HETATM    5  N10 UNL     1     -34.658  16.853  -3.098  1.00 20.00     0.090 N 
HETATM    6 CL11 UNL     1     -34.064  13.533  -4.514  1.00 20.00    -0.123 Cl
ENDROOT
BRANCH   5   7
HETATM    7  C8  UNL     1     -34.935  17.763  -1.997  1.00 20.00     0.276 C 
BRANCH   7   8
HETATM    8  C9  UNL     1     -34.184  17.407  -0.705  1.00 20.00     0.009 C 
HETATM    9  C6  UNL     1     -33.011  18.365  -0.472  1.00 20.00     0.011 C 
BRANCH   8  10
HETATM   10  C7  UNL     1     -35.080  17.366   0.547  1.00 20.00     0.001 C 
HETATM   11  C5  UNL     1     -34.521  18.156   1.723  1.00 20.00     0.005 C 
ENDBRANCH   8  10
ENDBRANCH   7   8
ENDBRANCH   5   7
TORSDOF 3
ENDMDL
MODEL 3
REMARK VINA RESULT:      -4.0      2.750      4.966
REMARK  3 active torsions:
REMARK  status: ('A' for Active; 'I' for Inactive)
REMARK    1  A    between atoms: C7_7  and  C9_9 
REMARK    2  A    between atoms: C8_8  and  C9_9 
REMARK    3  A    between atoms: C8_8  and  N10_10 
ROOT
HETATM    1  C1  UNL     1     -35.702  17.608  -2.350  1.00 20.00     0.052 C 
HETATM    2  C2  UNL     1     -35.364  17.180  -3.767  1.00 20.00     0.274 C 
HETATM    3  C3  UNL     1     -33.735  16.180  -2.416  1.00 20.00     0.292 C 
HETATM    4  C4  UNL     1     -34.845  16.683  -1.491  1.00 20.00     0.112 C 
HETATM    5  N10 UNL     1     -33.927  16.932  -3.661  1.00 20.00     0.090 N 
HETATM    6 CL11 UNL     1     -34.209  17.526  -0.063  1.00 20.00    -0.123 Cl
ENDROOT
BRANCH   5   7
HETATM    7  C8  UNL     1     -33.391  16.241  -4.824  1.00 20.00     0.276 C 
BRANCH   7   8
HETATM    8  C9  UNL     1     -34.439  15.410  -5.580  1.00 20.00     0.009 C 
HETATM    9  C6  UNL     1     -34.329  15.639  -7.092  1.00 20.00     0.011 C 
BRANCH   8  10
HETATM   10  C7  UNL     1     -34.380  13.902  -5.275  1.00 20.00     0.001 C 
HETATM   11  C5  UNL     1     -35.378  13.454  -4.216  1.00 20.00     0.005 C 
ENDBRANCH   8  10
ENDBRANCH   7   8
ENDBRANCH   5   7
TORSDOF 3
ENDMDL
MODEL 4
REMARK VINA RESULT:      -3.9     12.934     14.753
REMARK  3 active torsions:
REMARK  status: ('A' for Active; 'I' for Inactive)
REMARK    1  A    between atoms: C7_7  and  C9_9 
REMARK    2  A    between atoms: C8_8  and  C9_9 
REMARK    3  A    between atoms: C8_8  and  N10_10 
ROOT
HETATM    1  C1  UNL     1     -40.930   5.660  -0.805  1.00 20.00     0.052 C 
HETATM    2  C2  UNL     1     -41.152   4.363  -1.562  1.00 20.00     0.274 C 
HETATM    3  C3  UNL     1     -42.370   5.980  -2.737  1.00 20.00     0.292 C 
HETATM    4  C4  UNL     1     -41.445   6.723  -1.770  1.00 20.00     0.112 C 
HETATM    5  N10 UNL     1     -42.444   4.617  -2.200  1.00 20.00     0.090 N 
HETATM    6 CL11 UNL     1     -42.276   8.035  -0.909  1.00 20.00    -0.123 Cl
ENDROOT
BRANCH   5   7
HETATM    7  C8  UNL     1     -42.770   3.630  -3.217  1.00 20.00     0.276 C 
BRANCH   7   8
HETATM    8  C9  UNL     1     -42.239   2.224  -2.899  1.00 20.00     0.009 C 
HETATM    9  C6  UNL     1     -43.372   1.304  -2.434  1.00 20.00     0.011 C 
BRANCH   8  10
HETATM   10  C7  UNL     1     -41.478   1.564  -4.065  1.00 20.00     0.001 C 
HETATM   11  C5  UNL     1     -41.607   0.047  -4.097  1.00 20.00     0.005 C 
ENDBRANCH   8  10
ENDBRANCH   7   8
ENDBRANCH   5   7
TORSDOF 3
ENDMDL
MODEL 5
REMARK VINA RESULT:      -3.8      2.028      3.074
REMARK  3 active torsions:
REMARK  status: ('A' for Active; 'I' for Inactive)
REMARK    1  A    between atoms: C7_7  and  C9_9 
REMARK    2  A    between atoms: C8_8  and  C9_9 
REMARK    3  A    between atoms: C8_8  and  N10_10 
ROOT
HETATM    1  C1  UNL     1     -35.735  14.858  -7.813  1.00 20.00     0.052 C 
HETATM    2  C2  UNL     1     -34.399  14.901  -7.092  1.00 20.00     0.274 C 
HETATM    3  C3  UNL     1     -35.942  15.812  -5.586  1.00 20.00     0.292 C 
HETATM    4  C4  UNL     1     -36.742  15.135  -6.701  1.00 20.00     0.112 C 
HETATM    5  N10 UNL     1     -34.607  16.009  -6.161  1.00 20.00     0.090 N 
HETATM    6 CL11 UNL     1     -38.087  16.141  -7.279  1.00 20.00    -0.123 Cl
ENDROOT
BRANCH   5   7
HETATM    7  C8  UNL     1     -33.566  16.092  -5.147  1.00 20.00     0.276 C 
BRANCH   7   8
HETATM    8  C9  UNL     1     -33.948  15.418  -3.821  1.00 20.00     0.009 C 
HETATM    9  C6  UNL     1     -33.282  14.043  -3.696  1.00 20.00     0.011 C 
BRANCH   8  10
HETATM   10  C7  UNL     1     -33.631  16.265  -2.574  1.00 20.00     0.001 C 
HETATM   11  C5  UNL     1     -34.755  16.283  -1.547  1.00 20.00     0.005 C 
ENDBRANCH   8  10
ENDBRANCH   7   8
ENDBRANCH   5   7
TORSDOF 3
ENDMDL
MODEL 6
REMARK VINA RESULT:      -3.8      1.478      2.046
REMARK  3 active torsions:
REMARK  status: ('A' for Active; 'I' for Inactive)
REMARK    1  A    between atoms: C7_7  and  C9_9 
REMARK    2  A    between atoms: C8_8  and  C9_9 
REMARK    3  A    between atoms: C8_8  and  N10_10 
ROOT
HETATM    1  C1  UNL     1     -33.929  16.342  -6.075  1.00 20.00     0.052 C 
HETATM    2  C2  UNL     1     -33.311  16.784  -4.760  1.00 20.00     0.274 C 
HETATM    3  C3  UNL     1     -34.556  14.869  -4.245  1.00 20.00     0.292 C 
HETATM    4  C4  UNL     1     -34.438  14.936  -5.769  1.00 20.00     0.112 C 
HETATM    5  N10 UNL     1     -34.261  16.234  -3.794  1.00 20.00     0.090 N 
HETATM    6 CL11 UNL     1     -35.982  14.612  -6.585  1.00 20.00    -0.123 Cl
ENDROOT
BRANCH   5   7
HETATM    7  C8  UNL     1     -33.761  16.278  -2.428  1.00 20.00     0.276 C 
BRANCH   7   8
HETATM    8  C9  UNL     1     -34.317  17.452  -1.609  1.00 20.00     0.009 C 
HETATM    9  C6  UNL     1     -34.757  16.987  -0.217  1.00 20.00     0.011 C 
BRANCH   8  10
HETATM   10  C7  UNL     1     -33.345  18.640  -1.479  1.00 20.00     0.001 C 
HETATM   11  C5  UNL     1     -32.626  18.696  -0.138  1.00 20.00     0.005 C 
ENDBRANCH   8  10
ENDBRANCH   7   8
ENDBRANCH   5   7
TORSDOF 3
ENDMDL
MODEL 7
REMARK VINA RESULT:      -3.8      1.406      1.817
REMARK  3 active torsions:
REMARK  status: ('A' for Active; 'I' for Inactive)
REMARK    1  A    between atoms: C7_7  and  C9_9 
REMARK    2  A    between atoms: C8_8  and  C9_9 
REMARK    3  A    between atoms: C8_8  and  N10_10 
ROOT
HETATM    1  C1  UNL     1     -34.038  16.241  -6.616  1.00 20.00     0.052 C 
HETATM    2  C2  UNL     1     -33.602  16.510  -5.187  1.00 20.00     0.274 C 
HETATM    3  C3  UNL     1     -34.771  14.484  -5.104  1.00 20.00     0.292 C 
HETATM    4  C4  UNL     1     -34.487  14.783  -6.578  1.00 20.00     0.112 C 
HETATM    5  N10 UNL     1     -34.617  15.778  -4.430  1.00 20.00     0.090 N 
HETATM    6 CL11 UNL     1     -35.906  14.513  -7.611  1.00 20.00    -0.123 Cl
ENDROOT
BRANCH   5   7
HETATM    7  C8  UNL     1     -34.276  15.640  -3.022  1.00 20.00     0.276 C 
BRANCH   7   8
HETATM    8  C9  UNL     1     -34.644  16.871  -2.180  1.00 20.00     0.009 C 
HETATM    9  C6  UNL     1     -36.015  17.421  -2.587  1.00 20.00     0.011 C 
BRANCH   8  10
HETATM   10  C7  UNL     1     -34.612  16.622  -0.661  1.00 20.00     0.001 C 
HETATM   11  C5  UNL     1     -34.326  17.874   0.157  1.00 20.00     0.005 C 
ENDBRANCH   8  10
ENDBRANCH   7   8
ENDBRANCH   5   7
TORSDOF 3
ENDMDL
MODEL 8
REMARK VINA RESULT:      -3.8      2.411      3.370
REMARK  3 active torsions:
REMARK  status: ('A' for Active; 'I' for Inactive)
REMARK    1  A    between atoms: C7_7  and  C9_9 
REMARK    2  A    between atoms: C8_8  and  C9_9 
REMARK    3  A    between atoms: C8_8  and  N10_10 
ROOT
HETATM    1  C1  UNL     1     -38.627  14.671  -4.218  1.00 20.00     0.052 C 
HETATM    2  C2  UNL     1     -37.212  14.878  -3.707  1.00 20.00     0.274 C 
HETATM    3  C3  UNL     1     -37.216  15.741  -5.883  1.00 20.00     0.292 C 
HETATM    4  C4  UNL     1     -38.676  15.532  -5.477  1.00 20.00     0.112 C 
HETATM    5  N10 UNL     1     -36.452  14.898  -4.957  1.00 20.00     0.090 N 
HETATM    6 CL11 UNL     1     -39.633  14.759  -6.757  1.00 20.00    -0.123 Cl
ENDROOT
BRANCH   5   7
HETATM    7  C8  UNL     1     -35.085  15.360  -4.774  1.00 20.00     0.276 C 
BRANCH   7   8
HETATM    8  C9  UNL     1     -34.450  14.888  -3.457  1.00 20.00     0.009 C 
HETATM    9  C6  UNL     1     -33.406  13.797  -3.714  1.00 20.00     0.011 C 
BRANCH   8  10
HETATM   10  C7  UNL     1     -33.824  16.022  -2.623  1.00 20.00     0.001 C 
HETATM   11  C5  UNL     1     -34.626  16.379  -1.378  1.00 20.00     0.005 C 
ENDBRANCH   8  10
ENDBRANCH   7   8
ENDBRANCH   5   7
TORSDOF 3
ENDMDL
MODEL 9
REMARK VINA RESULT:      -3.8      3.076      5.385
REMARK  3 active torsions:
REMARK  status: ('A' for Active; 'I' for Inactive)
REMARK    1  A    between atoms: C7_7  and  C9_9 
REMARK    2  A    between atoms: C8_8  and  C9_9 
REMARK    3  A    between atoms: C8_8  and  N10_10 
ROOT
HETATM    1  C1  UNL     1     -35.925  18.592  -0.712  1.00 20.00     0.052 C 
HETATM    2  C2  UNL     1     -36.070  18.009  -2.106  1.00 20.00     0.274 C 
HETATM    3  C3  UNL     1     -34.484  16.661  -1.035  1.00 20.00     0.292 C 
HETATM    4  C4  UNL     1     -35.160  17.510   0.044  1.00 20.00     0.112 C 
HETATM    5  N10 UNL     1     -34.769  17.367  -2.289  1.00 20.00     0.090 N 
HETATM    6 CL11 UNL     1     -33.994  18.214   1.183  1.00 20.00    -0.123 Cl
ENDROOT
BRANCH   5   7
HETATM    7  C8  UNL     1     -34.736  16.487  -3.448  1.00 20.00     0.276 C 
BRANCH   7   8
HETATM    8  C9  UNL     1     -35.174  15.048  -3.137  1.00 20.00     0.009 C 
HETATM    9  C6  UNL     1     -36.564  14.764  -3.717  1.00 20.00     0.011 C 
BRANCH   8  10
HETATM   10  C7  UNL     1     -34.180  13.974  -3.617  1.00 20.00     0.001 C 
HETATM   11  C5  UNL     1     -34.666  13.191  -4.829  1.00 20.00     0.005 C 
ENDBRANCH   8  10
ENDBRANCH   7   8
ENDBRANCH   5   7
TORSDOF 3
ENDMDL
