MODEL 1
REMARK VINA RESULT:      -4.5      0.000      0.000
REMARK  3 active torsions:
REMARK  status: ('A' for Active; 'I' for Inactive)
REMARK    1  A    between atoms: C6_6  and  C7_7 
REMARK    2  A    between atoms: C7_7  and  C8_8 
REMARK    3  A    between atoms: C8_8  and  N9_9 
ROOT
HETATM    1  C1  UNL     1     -35.452   4.995   4.029  1.00 20.00     0.052 C 
HETATM    2  C2  UNL     1     -34.425   5.379   2.964  1.00 20.00     0.274 C 
HETATM    3  C3  UNL     1     -33.457   5.912   5.016  1.00 20.00     0.292 C 
HETATM    4  C4  UNL     1     -34.910   5.591   5.326  1.00 20.00     0.112 C 
HETATM    5  N9  UNL     1     -33.560   6.359   3.626  1.00 20.00     0.089 N 
HETATM    6 CL10 UNL     1     -35.074   4.491   6.704  1.00 20.00    -0.123 Cl
ENDROOT
BRANCH   5   7
HETATM    7  C8  UNL     1     -32.262   6.481   2.981  1.00 20.00     0.272 C 
BRANCH   7   8
HETATM    8  C7  UNL     1     -31.814   7.932   2.843  1.00 20.00     0.030 C 
BRANCH   8   9
HETATM    9  C6  UNL     1     -31.881   8.433   1.398  1.00 20.00    -0.003 C 
HETATM   10  C5  UNL     1     -32.456   9.839   1.324  1.00 20.00     0.005 C 
ENDBRANCH   8   9
ENDBRANCH   7   8
ENDBRANCH   5   7
TORSDOF 3
ENDMDL
MODEL 2
REMARK VINA RESULT:      -4.3     11.276     12.165
REMARK  3 active torsions:
REMARK  status: ('A' for Active; 'I' for Inactive)
REMARK    1  A    between atoms: C6_6  and  C7_7 
REMARK    2  A    between atoms: C7_7  and  C8_8 
REMARK    3  A    between atoms: C8_8  and  N9_9 
ROOT
HETATM    1  C1  UNL     1     -34.754  13.336  -4.901  1.00 20.00     0.052 C 
HETATM    2  C2  UNL     1     -34.370  13.993  -3.575  1.00 20.00     0.274 C 
HETATM    3  C3  UNL     1     -34.386  15.700  -5.164  1.00 20.00     0.292 C 
HETATM    4  C4  UNL     1     -34.500  14.409  -5.957  1.00 20.00     0.112 C 
HETATM    5  N9  UNL     1     -33.687  15.230  -3.965  1.00 20.00     0.089 N 
HETATM    6 CL10 UNL     1     -35.783  14.483  -7.175  1.00 20.00    -0.123 Cl
ENDROOT
BRANCH   5   7
HETATM    7  C8  UNL     1     -33.679  16.221  -2.900  1.00 20.00     0.272 C 
BRANCH   7   8
HETATM    8  C7  UNL     1     -34.805  16.004  -1.894  1.00 20.00     0.030 C 
BRANCH   8   9
HETATM    9  C6  UNL     1     -34.606  16.808  -0.607  1.00 20.00    -0.003 C 
HETATM   10  C5  UNL     1     -33.460  17.798  -0.742  1.00 20.00     0.005 C 
ENDBRANCH   8   9
ENDBRANCH   7   8
ENDBRANCH   5   7
TORSDOF 3
ENDMDL
MODEL 3
REMARK VINA RESULT:      -4.0     11.774     12.897
REMARK  3 active torsions:
REMARK  status: ('A' for Active; 'I' for Inactive)
REMARK    1  A    between atoms: C6_6  and  C7_7 
REMARK    2  A    between atoms: C7_7  and  C8_8 
REMARK    3  A    between atoms: C8_8  and  N9_9 
ROOT
HETATM    1  C1  UNL     1     -35.175  14.408  -6.932  1.00 20.00     0.052 C 
HETATM    2  C2  UNL     1     -35.163  13.848  -5.509  1.00 20.00     0.274 C 
HETATM    3  C3  UNL     1     -33.987  15.859  -5.424  1.00 20.00     0.292 C 
HETATM    4  C4  UNL     1     -34.187  15.571  -6.902  1.00 20.00     0.112 C 
HETATM    5  N9  UNL     1     -34.020  14.505  -4.868  1.00 20.00     0.089 N 
HETATM    6 CL10 UNL     1     -34.775  16.988  -7.787  1.00 20.00    -0.123 Cl
ENDROOT
BRANCH   5   7
HETATM    7  C8  UNL     1     -34.118  14.499  -3.417  1.00 20.00     0.272 C 
BRANCH   7   8
HETATM    8  C7  UNL     1     -33.773  15.853  -2.804  1.00 20.00     0.030 C 
BRANCH   8   9
HETATM    9  C6  UNL     1     -34.720  16.240  -1.666  1.00 20.00    -0.003 C 
HETATM   10  C5  UNL     1     -34.085  17.265  -0.740  1.00 20.00     0.005 C 
ENDBRANCH   8   9
ENDBRANCH   7   8
ENDBRANCH   5   7
TORSDOF 3
ENDMDL
MODEL 4
REMARK VINA RESULT:      -3.8     11.436     12.186
REMARK  3 active torsions:
REMARK  status: ('A' for Active; 'I' for Inactive)
REMARK    1  A    between atoms: C6_6  and  C7_7 
REMARK    2  A    between atoms: C7_7  and  C8_8 
REMARK    3  A    between atoms: C8_8  and  N9_9 
ROOT
HETATM    1  C1  UNL     1     -33.666  16.274  -2.547  1.00 20.00     0.052 C 
HETATM    2  C2  UNL     1     -33.239  15.240  -3.588  1.00 20.00     0.274 C 
HETATM    3  C3  UNL     1     -35.562  15.103  -3.457  1.00 20.00     0.292 C 
HETATM    4  C4  UNL     1     -35.143  15.982  -2.291  1.00 20.00     0.112 C 
HETATM    5  N9  UNL     1     -34.357  14.294  -3.645  1.00 20.00     0.089 N 
HETATM    6 CL10 UNL     1     -36.119  17.455  -2.177  1.00 20.00    -0.123 Cl
ENDROOT
BRANCH   5   7
HETATM    7  C8  UNL     1     -34.381  13.535  -4.886  1.00 20.00     0.272 C 
BRANCH   7   8
HETATM    8  C7  UNL     1     -35.255  14.189  -5.951  1.00 20.00     0.030 C 
BRANCH   8   9
HETATM    9  C6  UNL     1     -34.433  14.863  -7.052  1.00 20.00    -0.003 C 
HETATM   10  C5  UNL     1     -34.469  16.378  -6.924  1.00 20.00     0.005 C 
ENDBRANCH   8   9
ENDBRANCH   7   8
ENDBRANCH   5   7
TORSDOF 3
ENDMDL
MODEL 5
REMARK VINA RESULT:      -3.8     11.558     12.393
REMARK  3 active torsions:
REMARK  status: ('A' for Active; 'I' for Inactive)
REMARK    1  A    between atoms: C6_6  and  C7_7 
REMARK    2  A    between atoms: C7_7  and  C8_8 
REMARK    3  A    between atoms: C8_8  and  N9_9 
ROOT
HETATM    1  C1  UNL     1     -33.864  15.777  -5.539  1.00 20.00     0.052 C 
HETATM    2  C2  UNL     1     -33.527  16.877  -4.532  1.00 20.00     0.274 C 
HETATM    3  C3  UNL     1     -34.840  15.331  -3.384  1.00 20.00     0.292 C 
HETATM    4  C4  UNL     1     -34.928  14.928  -4.847  1.00 20.00     0.112 C 
HETATM    5  N9  UNL     1     -34.565  16.764  -3.505  1.00 20.00     0.089 N 
HETATM    6 CL10 UNL     1     -34.672  13.192  -5.080  1.00 20.00    -0.123 Cl
ENDROOT
BRANCH   5   7
HETATM    7  C8  UNL     1     -34.166  17.365  -2.241  1.00 20.00     0.272 C 
BRANCH   7   8
HETATM    8  C7  UNL     1     -34.573  16.518  -1.040  1.00 20.00     0.030 C 
BRANCH   8   9
HETATM    9  C6  UNL     1     -34.941  17.368   0.180  1.00 20.00    -0.003 C 
HETATM   10  C5  UNL     1     -33.786  18.261   0.603  1.00 20.00     0.005 C 
ENDBRANCH   8   9
ENDBRANCH   7   8
ENDBRANCH   5   7
TORSDOF 3
ENDMDL
MODEL 6
REMARK VINA RESULT:      -3.8     11.965     13.093
REMARK  3 active torsions:
REMARK  status: ('A' for Active; 'I' for Inactive)
REMARK    1  A    between atoms: C6_6  and  C7_7 
REMARK    2  A    between atoms: C7_7  and  C8_8 
REMARK    3  A    between atoms: C8_8  and  N9_9 
ROOT
HETATM    1  C1  UNL     1     -33.526  16.716  -5.582  1.00 20.00     0.052 C 
HETATM    2  C2  UNL     1     -33.799  16.820  -4.082  1.00 20.00     0.274 C 
HETATM    3  C3  UNL     1     -35.539  15.547  -4.969  1.00 20.00     0.292 C 
HETATM    4  C4  UNL     1     -34.801  16.114  -6.170  1.00 20.00     0.112 C 
HETATM    5  N9  UNL     1     -35.235  16.556  -3.952  1.00 20.00     0.089 N 
HETATM    6 CL10 UNL     1     -34.470  14.881  -7.397  1.00 20.00    -0.123 Cl
ENDROOT
BRANCH   5   7
HETATM    7  C8  UNL     1     -35.603  16.126  -2.612  1.00 20.00     0.272 C 
BRANCH   7   8
HETATM    8  C7  UNL     1     -34.447  16.244  -1.625  1.00 20.00     0.030 C 
BRANCH   8   9
HETATM    9  C6  UNL     1     -34.814  17.067  -0.387  1.00 20.00    -0.003 C 
HETATM   10  C5  UNL     1     -33.713  18.054  -0.030  1.00 20.00     0.005 C 
ENDBRANCH   8   9
ENDBRANCH   7   8
ENDBRANCH   5   7
TORSDOF 3
ENDMDL
MODEL 7
REMARK VINA RESULT:      -3.7     11.009     12.048
REMARK  3 active torsions:
REMARK  status: ('A' for Active; 'I' for Inactive)
REMARK    1  A    between atoms: C6_6  and  C7_7 
REMARK    2  A    between atoms: C7_7  and  C8_8 
REMARK    3  A    between atoms: C8_8  and  N9_9 
ROOT
HETATM    1  C1  UNL     1     -33.933  18.418  -1.724  1.00 20.00     0.052 C 
HETATM    2  C2  UNL     1     -33.868  17.796  -3.119  1.00 20.00     0.274 C 
HETATM    3  C3  UNL     1     -34.510  16.082  -1.676  1.00 20.00     0.292 C 
HETATM    4  C4  UNL     1     -34.093  17.232  -0.775  1.00 20.00     0.112 C 
HETATM    5  N9  UNL     1     -33.713  16.360  -2.872  1.00 20.00     0.089 N 
HETATM    6 CL10 UNL     1     -35.273  17.541   0.508  1.00 20.00    -0.123 Cl
ENDROOT
BRANCH   5   7
HETATM    7  C8  UNL     1     -34.118  15.553  -4.013  1.00 20.00     0.272 C 
BRANCH   7   8
HETATM    8  C7  UNL     1     -34.385  14.100  -3.633  1.00 20.00     0.030 C 
BRANCH   8   9
HETATM    9  C6  UNL     1     -34.749  13.234  -4.842  1.00 20.00    -0.003 C 
HETATM   10  C5  UNL     1     -35.011  14.083  -6.075  1.00 20.00     0.005 C 
ENDBRANCH   8   9
ENDBRANCH   7   8
ENDBRANCH   5   7
TORSDOF 3
ENDMDL
MODEL 8
REMARK VINA RESULT:      -3.7     11.275     12.721
REMARK  3 active torsions:
REMARK  status: ('A' for Active; 'I' for Inactive)
REMARK    1  A    between atoms: C6_6  and  C7_7 
REMARK    2  A    between atoms: C7_7  and  C8_8 
REMARK    3  A    between atoms: C8_8  and  N9_9 
ROOT
HETATM    1  C1  UNL     1     -33.653  16.959  -3.707  1.00 20.00     0.052 C 
HETATM    2  C2  UNL     1     -33.954  16.303  -5.055  1.00 20.00     0.274 C 
HETATM    3  C3  UNL     1     -34.601  14.764  -3.427  1.00 20.00     0.292 C 
HETATM    4  C4  UNL     1     -33.834  15.844  -2.680  1.00 20.00     0.112 C 
HETATM    5  N9  UNL     1     -34.003  14.868  -4.760  1.00 20.00     0.089 N 
HETATM    6 CL10 UNL     1     -34.687  16.387  -1.227  1.00 20.00    -0.123 Cl
ENDROOT
BRANCH   5   7
HETATM    7  C8  UNL     1     -34.743  14.119  -5.764  1.00 20.00     0.272 C 
BRANCH   7   8
HETATM    8  C7  UNL     1     -34.667  14.763  -7.144  1.00 20.00     0.030 C 
BRANCH   8   9
HETATM    9  C6  UNL     1     -36.005  14.719  -7.887  1.00 20.00    -0.003 C 
HETATM   10  C5  UNL     1     -37.134  15.271  -7.031  1.00 20.00     0.005 C 
ENDBRANCH   8   9
ENDBRANCH   7   8
ENDBRANCH   5   7
TORSDOF 3
ENDMDL
MODEL 9
REMARK VINA RESULT:      -3.7     11.215     12.316
REMARK  3 active torsions:
REMARK  status: ('A' for Active; 'I' for Inactive)
REMARK    1  A    between atoms: C6_6  and  C7_7 
REMARK    2  A    between atoms: C7_7  and  C8_8 
REMARK    3  A    between atoms: C8_8  and  N9_9 
ROOT
HETATM    1  C1  UNL     1     -34.424  17.264  -0.455  1.00 20.00     0.052 C 
HETATM    2  C2  UNL     1     -34.811  16.204  -1.486  1.00 20.00     0.274 C 
HETATM    3  C3  UNL     1     -33.779  17.920  -2.679  1.00 20.00     0.292 C 
HETATM    4  C4  UNL     1     -33.998  18.475  -1.281  1.00 20.00     0.112 C 
HETATM    5  N9  UNL     1     -34.855  16.930  -2.759  1.00 20.00     0.089 N 
HETATM    6 CL10 UNL     1     -32.549  19.263  -0.639  1.00 20.00    -0.123 Cl
ENDROOT
BRANCH   5   7
HETATM    7  C8  UNL     1     -34.718  16.048  -3.908  1.00 20.00     0.272 C 
BRANCH   7   8
HETATM    8  C7  UNL     1     -35.689  14.873  -3.859  1.00 20.00     0.030 C 
BRANCH   8   9
HETATM    9  C6  UNL     1     -34.994  13.527  -4.077  1.00 20.00    -0.003 C 
HETATM   10  C5  UNL     1     -33.491  13.639  -3.875  1.00 20.00     0.005 C 
ENDBRANCH   8   9
ENDBRANCH   7   8
ENDBRANCH   5   7
TORSDOF 3
ENDMDL
