MODEL 1
REMARK VINA RESULT:      -4.4      0.000      0.000
REMARK  5 active torsions:
REMARK  status: ('A' for Active; 'I' for Inactive)
REMARK    1  A    between atoms: C5_5  and  C9_9 
REMARK    2  A    between atoms: C6_6  and  C7_7 
REMARK    3  A    between atoms: C6_6  and  C8_8 
REMARK    4  A    between atoms: C7_7  and  C9_9 
REMARK    5  A    between atoms: C8_8  and  C10_10 
ROOT
HETATM    1  C6  UNL     1     -33.957  16.918  -1.657  1.00 20.00     0.002 C 
ENDROOT
BRANCH   1   2
HETATM    2  C7  UNL     1     -34.425  15.851  -2.657  1.00 20.00     0.020 C 
BRANCH   2   3
HETATM    3  C9  UNL     1     -33.284  15.288  -3.518  1.00 20.00     0.082 C 
HETATM    4 CL11 UNL     1     -33.074  16.270  -5.003  1.00 20.00    -0.125 Cl
BRANCH   3   5
HETATM    5  C5  UNL     1     -33.480  13.807  -3.881  1.00 20.00     0.016 C 
HETATM    6  C1  UNL     1     -34.915  13.390  -4.183  1.00 20.00     0.006 C 
ENDBRANCH   3   5
ENDBRANCH   2   3
ENDBRANCH   1   2
BRANCH   1   7
HETATM    7  C8  UNL     1     -34.732  16.809  -0.337  1.00 20.00     0.008 C 
BRANCH   7   8
HETATM    8  C10 UNL     1     -34.707  18.071   0.566  1.00 20.00    -0.051 C 
HETATM    9  C2  UNL     1     -35.223  17.755   1.980  1.00 20.00     0.014 C 
HETATM   10  C3  UNL     1     -33.249  18.555   0.675  1.00 20.00     0.014 C 
HETATM   11  C4  UNL     1     -35.552  19.205  -0.039  1.00 20.00     0.014 C 
ENDBRANCH   7   8
ENDBRANCH   1   7
TORSDOF 5
ENDMDL
MODEL 2
REMARK VINA RESULT:      -4.4      0.114      1.317
REMARK  5 active torsions:
REMARK  status: ('A' for Active; 'I' for Inactive)
REMARK    1  A    between atoms: C5_5  and  C9_9 
REMARK    2  A    between atoms: C6_6  and  C7_7 
REMARK    3  A    between atoms: C6_6  and  C8_8 
REMARK    4  A    between atoms: C7_7  and  C9_9 
REMARK    5  A    between atoms: C8_8  and  C10_10 
ROOT
HETATM    1  C6  UNL     1     -33.932  16.856  -1.702  1.00 20.00     0.002 C 
ENDROOT
BRANCH   1   2
HETATM    2  C7  UNL     1     -34.412  15.730  -2.630  1.00 20.00     0.020 C 
BRANCH   2   3
HETATM    3  C9  UNL     1     -33.305  15.191  -3.549  1.00 20.00     0.082 C 
HETATM    4 CL11 UNL     1     -33.111  16.246  -4.984  1.00 20.00    -0.125 Cl
BRANCH   3   5
HETATM    5  C5  UNL     1     -33.541  13.736  -3.983  1.00 20.00     0.016 C 
HETATM    6  C1  UNL     1     -34.995  13.356  -4.240  1.00 20.00     0.006 C 
ENDBRANCH   3   5
ENDBRANCH   2   3
ENDBRANCH   1   2
BRANCH   1   7
HETATM    7  C8  UNL     1     -34.702  16.836  -0.374  1.00 20.00     0.008 C 
BRANCH   7   8
HETATM    8  C10 UNL     1     -34.619  18.134   0.473  1.00 20.00    -0.051 C 
HETATM    9  C2  UNL     1     -35.463  19.259  -0.148  1.00 20.00     0.014 C 
HETATM   10  C3  UNL     1     -35.172  17.827   1.877  1.00 20.00     0.014 C 
HETATM   11  C4  UNL     1     -33.165  18.613   0.616  1.00 20.00     0.014 C 
ENDBRANCH   7   8
ENDBRANCH   1   7
TORSDOF 5
ENDMDL
MODEL 3
REMARK VINA RESULT:      -4.3      1.203      1.893
REMARK  5 active torsions:
REMARK  status: ('A' for Active; 'I' for Inactive)
REMARK    1  A    between atoms: C5_5  and  C9_9 
REMARK    2  A    between atoms: C6_6  and  C7_7 
REMARK    3  A    between atoms: C6_6  and  C8_8 
REMARK    4  A    between atoms: C7_7  and  C9_9 
REMARK    5  A    between atoms: C8_8  and  C10_10 
ROOT
HETATM    1  C6  UNL     1     -34.360  16.337  -2.423  1.00 20.00     0.002 C 
ENDROOT
BRANCH   1   2
HETATM    2  C7  UNL     1     -35.082  15.144  -3.066  1.00 20.00     0.020 C 
BRANCH   2   3
HETATM    3  C9  UNL     1     -34.130  14.009  -3.473  1.00 20.00     0.082 C 
HETATM    4 CL11 UNL     1     -32.445  14.609  -3.576  1.00 20.00    -0.125 Cl
BRANCH   3   5
HETATM    5  C5  UNL     1     -34.536  13.327  -4.788  1.00 20.00     0.016 C 
HETATM    6  C1  UNL     1     -34.806  14.266  -5.958  1.00 20.00     0.006 C 
ENDBRANCH   3   5
ENDBRANCH   2   3
ENDBRANCH   1   2
BRANCH   1   7
HETATM    7  C8  UNL     1     -34.710  16.452  -0.933  1.00 20.00     0.008 C 
BRANCH   7   8
HETATM    8  C10 UNL     1     -34.477  17.845  -0.291  1.00 20.00    -0.051 C 
HETATM    9  C2  UNL     1     -33.009  18.282  -0.424  1.00 20.00     0.014 C 
HETATM   10  C3  UNL     1     -35.361  18.868  -1.030  1.00 20.00     0.014 C 
HETATM   11  C4  UNL     1     -34.872  17.846   1.195  1.00 20.00     0.014 C 
ENDBRANCH   7   8
ENDBRANCH   1   7
TORSDOF 5
ENDMDL
MODEL 4
REMARK VINA RESULT:      -4.3      2.265      5.647
REMARK  5 active torsions:
REMARK  status: ('A' for Active; 'I' for Inactive)
REMARK    1  A    between atoms: C5_5  and  C9_9 
REMARK    2  A    between atoms: C6_6  and  C7_7 
REMARK    3  A    between atoms: C6_6  and  C8_8 
REMARK    4  A    between atoms: C7_7  and  C9_9 
REMARK    5  A    between atoms: C8_8  and  C10_10 
ROOT
HETATM    1  C6  UNL     1     -33.982  16.520  -2.050  1.00 20.00     0.002 C 
ENDROOT
BRANCH   1   2
HETATM    2  C7  UNL     1     -34.667  16.656  -0.682  1.00 20.00     0.020 C 
BRANCH   2   3
HETATM    3  C9  UNL     1     -34.160  17.856   0.132  1.00 20.00     0.082 C 
HETATM    4 CL11 UNL     1     -35.490  19.018   0.434  1.00 20.00    -0.125 Cl
BRANCH   3   5
HETATM    5  C5  UNL     1     -32.968  18.567  -0.526  1.00 20.00     0.016 C 
HETATM    6  C1  UNL     1     -31.865  19.018   0.425  1.00 20.00     0.006 C 
ENDBRANCH   3   5
ENDBRANCH   2   3
ENDBRANCH   1   2
BRANCH   1   7
HETATM    7  C8  UNL     1     -34.882  15.770  -3.042  1.00 20.00     0.008 C 
BRANCH   7   8
HETATM    8  C10 UNL     1     -34.149  14.850  -4.054  1.00 20.00    -0.051 C 
HETATM    9  C2  UNL     1     -34.192  15.438  -5.474  1.00 20.00     0.014 C 
HETATM   10  C3  UNL     1     -32.676  14.734  -3.618  1.00 20.00     0.014 C 
HETATM   11  C4  UNL     1     -34.764  13.441  -4.071  1.00 20.00     0.014 C 
ENDBRANCH   7   8
ENDBRANCH   1   7
TORSDOF 5
ENDMDL
MODEL 5
REMARK VINA RESULT:      -4.3      1.683      5.543
REMARK  5 active torsions:
REMARK  status: ('A' for Active; 'I' for Inactive)
REMARK    1  A    between atoms: C5_5  and  C9_9 
REMARK    2  A    between atoms: C6_6  and  C7_7 
REMARK    3  A    between atoms: C6_6  and  C8_8 
REMARK    4  A    between atoms: C7_7  and  C9_9 
REMARK    5  A    between atoms: C8_8  and  C10_10 
ROOT
HETATM    1  C6  UNL     1     -33.947  16.327  -2.144  1.00 20.00     0.002 C 
ENDROOT
BRANCH   1   2
HETATM    2  C7  UNL     1     -34.555  16.860  -0.838  1.00 20.00     0.020 C 
BRANCH   2   3
HETATM    3  C9  UNL     1     -34.197  18.328  -0.559  1.00 20.00     0.082 C 
HETATM    4 CL11 UNL     1     -33.408  19.064  -1.990  1.00 20.00    -0.125 Cl
BRANCH   3   5
HETATM    5  C5  UNL     1     -33.315  18.504   0.687  1.00 20.00     0.016 C 
HETATM    6  C1  UNL     1     -31.886  18.961   0.419  1.00 20.00     0.006 C 
ENDBRANCH   3   5
ENDBRANCH   2   3
ENDBRANCH   1   2
BRANCH   1   7
HETATM    7  C8  UNL     1     -34.937  15.409  -2.874  1.00 20.00     0.008 C 
BRANCH   7   8
HETATM    8  C10 UNL     1     -34.339  14.545  -4.016  1.00 20.00    -0.051 C 
HETATM    9  C2  UNL     1     -32.989  13.935  -3.604  1.00 20.00     0.014 C 
HETATM   10  C3  UNL     1     -35.323  13.398  -4.316  1.00 20.00     0.014 C 
HETATM   11  C4  UNL     1     -34.150  15.371  -5.299  1.00 20.00     0.014 C 
ENDBRANCH   7   8
ENDBRANCH   1   7
TORSDOF 5
ENDMDL
MODEL 6
REMARK VINA RESULT:      -4.3      1.839      5.530
REMARK  5 active torsions:
REMARK  status: ('A' for Active; 'I' for Inactive)
REMARK    1  A    between atoms: C5_5  and  C9_9 
REMARK    2  A    between atoms: C6_6  and  C7_7 
REMARK    3  A    between atoms: C6_6  and  C8_8 
REMARK    4  A    between atoms: C7_7  and  C9_9 
REMARK    5  A    between atoms: C8_8  and  C10_10 
ROOT
HETATM    1  C6  UNL     1     -33.995  16.669  -1.748  1.00 20.00     0.002 C 
ENDROOT
BRANCH   1   2
HETATM    2  C7  UNL     1     -34.647  16.993  -0.397  1.00 20.00     0.020 C 
BRANCH   2   3
HETATM    3  C9  UNL     1     -34.132  18.300   0.225  1.00 20.00     0.082 C 
HETATM    4 CL11 UNL     1     -32.416  18.572  -0.217  1.00 20.00    -0.125 Cl
BRANCH   3   5
HETATM    5  C5  UNL     1     -34.304  18.348   1.751  1.00 20.00     0.016 C 
HETATM    6  C1  UNL     1     -35.470  17.536   2.305  1.00 20.00     0.006 C 
ENDBRANCH   3   5
ENDBRANCH   2   3
ENDBRANCH   1   2
BRANCH   1   7
HETATM    7  C8  UNL     1     -34.762  15.555  -2.474  1.00 20.00     0.008 C 
BRANCH   7   8
HETATM    8  C10 UNL     1     -34.231  15.178  -3.883  1.00 20.00    -0.051 C 
HETATM    9  C2  UNL     1     -33.184  16.191  -4.373  1.00 20.00     0.014 C 
HETATM   10  C3  UNL     1     -33.564  13.792  -3.789  1.00 20.00     0.014 C 
HETATM   11  C4  UNL     1     -35.376  15.098  -4.906  1.00 20.00     0.014 C 
ENDBRANCH   7   8
ENDBRANCH   1   7
TORSDOF 5
ENDMDL
MODEL 7
REMARK VINA RESULT:      -4.2      2.277      3.634
REMARK  5 active torsions:
REMARK  status: ('A' for Active; 'I' for Inactive)
REMARK    1  A    between atoms: C5_5  and  C9_9 
REMARK    2  A    between atoms: C6_6  and  C7_7 
REMARK    3  A    between atoms: C6_6  and  C8_8 
REMARK    4  A    between atoms: C7_7  and  C9_9 
REMARK    5  A    between atoms: C8_8  and  C10_10 
ROOT
HETATM    1  C6  UNL     1     -36.136  14.998  -3.627  1.00 20.00     0.002 C 
ENDROOT
BRANCH   1   2
HETATM    2  C7  UNL     1     -36.360  15.161  -5.137  1.00 20.00     0.020 C 
BRANCH   2   3
HETATM    3  C9  UNL     1     -35.381  14.336  -5.986  1.00 20.00     0.082 C 
HETATM    4 CL11 UNL     1     -34.624  13.048  -4.996  1.00 20.00    -0.125 Cl
BRANCH   3   5
HETATM    5  C5  UNL     1     -34.301  15.194  -6.663  1.00 20.00     0.016 C 
HETATM    6  C1  UNL     1     -34.456  16.700  -6.489  1.00 20.00     0.006 C 
ENDBRANCH   3   5
ENDBRANCH   2   3
ENDBRANCH   1   2
BRANCH   1   7
HETATM    7  C8  UNL     1     -35.992  16.365  -2.943  1.00 20.00     0.008 C 
BRANCH   7   8
HETATM    8  C10 UNL     1     -34.586  16.690  -2.373  1.00 20.00    -0.051 C 
HETATM    9  C2  UNL     1     -33.528  15.711  -2.910  1.00 20.00     0.014 C 
HETATM   10  C3  UNL     1     -34.205  18.114  -2.820  1.00 20.00     0.014 C 
HETATM   11  C4  UNL     1     -34.584  16.645  -0.837  1.00 20.00     0.014 C 
ENDBRANCH   7   8
ENDBRANCH   1   7
TORSDOF 5
ENDMDL
MODEL 8
REMARK VINA RESULT:      -4.2      2.170      3.769
REMARK  5 active torsions:
REMARK  status: ('A' for Active; 'I' for Inactive)
REMARK    1  A    between atoms: C5_5  and  C9_9 
REMARK    2  A    between atoms: C6_6  and  C7_7 
REMARK    3  A    between atoms: C6_6  and  C8_8 
REMARK    4  A    between atoms: C7_7  and  C9_9 
REMARK    5  A    between atoms: C8_8  and  C10_10 
ROOT
HETATM    1  C6  UNL     1     -35.470  14.066  -3.967  1.00 20.00     0.002 C 
ENDROOT
BRANCH   1   2
HETATM    2  C7  UNL     1     -34.843  13.551  -5.271  1.00 20.00     0.020 C 
BRANCH   2   3
HETATM    3  C9  UNL     1     -35.212  14.401  -6.496  1.00 20.00     0.082 C 
HETATM    4 CL11 UNL     1     -33.969  15.661  -6.782  1.00 20.00    -0.125 Cl
BRANCH   3   5
HETATM    5  C5  UNL     1     -36.605  15.040  -6.387  1.00 20.00     0.016 C 
HETATM    6  C1  UNL     1     -36.669  16.530  -6.699  1.00 20.00     0.006 C 
ENDBRANCH   3   5
ENDBRANCH   2   3
ENDBRANCH   1   2
BRANCH   1   7
HETATM    7  C8  UNL     1     -34.429  14.803  -3.113  1.00 20.00     0.008 C 
BRANCH   7   8
HETATM    8  C10 UNL     1     -34.805  16.248  -2.689  1.00 20.00    -0.051 C 
HETATM    9  C2  UNL     1     -34.565  16.468  -1.186  1.00 20.00     0.014 C 
HETATM   10  C3  UNL     1     -33.910  17.226  -3.474  1.00 20.00     0.014 C 
HETATM   11  C4  UNL     1     -36.274  16.560  -3.019  1.00 20.00     0.014 C 
ENDBRANCH   7   8
ENDBRANCH   1   7
TORSDOF 5
ENDMDL
MODEL 9
REMARK VINA RESULT:      -4.1      2.028      5.790
REMARK  5 active torsions:
REMARK  status: ('A' for Active; 'I' for Inactive)
REMARK    1  A    between atoms: C5_5  and  C9_9 
REMARK    2  A    between atoms: C6_6  and  C7_7 
REMARK    3  A    between atoms: C6_6  and  C8_8 
REMARK    4  A    between atoms: C7_7  and  C9_9 
REMARK    5  A    between atoms: C8_8  and  C10_10 
ROOT
HETATM    1  C6  UNL     1     -33.468  15.300  -3.451  1.00 20.00     0.002 C 
ENDROOT
BRANCH   1   2
HETATM    2  C7  UNL     1     -33.616  16.471  -2.469  1.00 20.00     0.020 C 
BRANCH   2   3
HETATM    3  C9  UNL     1     -34.904  16.402  -1.635  1.00 20.00     0.082 C 
HETATM    4 CL11 UNL     1     -36.254  17.207  -2.497  1.00 20.00    -0.125 Cl
BRANCH   3   5
HETATM    5  C5  UNL     1     -34.740  16.995  -0.227  1.00 20.00     0.016 C 
HETATM    6  C1  UNL     1     -33.665  18.067  -0.087  1.00 20.00     0.006 C 
ENDBRANCH   3   5
ENDBRANCH   2   3
ENDBRANCH   1   2
BRANCH   1   7
HETATM    7  C8  UNL     1     -33.868  15.723  -4.872  1.00 20.00     0.008 C 
BRANCH   7   8
HETATM    8  C10 UNL     1     -34.841  14.766  -5.611  1.00 20.00    -0.051 C 
HETATM    9  C2  UNL     1     -36.300  15.222  -5.451  1.00 20.00     0.014 C 
HETATM   10  C3  UNL     1     -34.485  14.784  -7.110  1.00 20.00     0.014 C 
HETATM   11  C4  UNL     1     -34.702  13.323  -5.096  1.00 20.00     0.014 C 
ENDBRANCH   7   8
ENDBRANCH   1   7
TORSDOF 5
ENDMDL
