MODEL 1
REMARK VINA RESULT:      -4.3      0.000      0.000
REMARK  1 active torsions:
REMARK  status: ('A' for Active; 'I' for Inactive)
REMARK    1  A    between atoms: C4_4  and  C9_9 
ROOT
HETATM    1  C1  UNL     1     -34.643   5.469   6.748  1.00 20.00    -0.003 A 
HETATM    2  C2  UNL     1     -33.947   6.246   5.756  1.00 20.00     0.004 A 
HETATM    3  C3  UNL     1     -35.199   4.395   6.170  1.00 20.00    -0.022 A 
HETATM    4  C4  UNL     1     -34.070   5.656   4.557  1.00 20.00    -0.069 A 
HETATM    5  C5  UNL     1     -34.890   4.402   4.700  1.00 20.00     0.062 A 
ENDROOT
BRANCH   4   6
HETATM    6  C9  UNL     1     -33.511   6.106   3.235  1.00 20.00    -0.028 C 
HETATM    7  C6  UNL     1     -34.196   5.322   2.107  1.00 20.00     0.019 C 
HETATM    8  C7  UNL     1     -31.998   5.844   3.200  1.00 20.00     0.019 C 
HETATM    9  C8  UNL     1     -33.770   7.608   3.051  1.00 20.00     0.019 C 
ENDBRANCH   4   6
TORSDOF 1
ENDMDL
MODEL 2
REMARK VINA RESULT:      -4.3      0.026      1.443
REMARK  1 active torsions:
REMARK  status: ('A' for Active; 'I' for Inactive)
REMARK    1  A    between atoms: C4_4  and  C9_9 
ROOT
HETATM    1  C1  UNL     1     -34.633   5.496   6.765  1.00 20.00    -0.003 A 
HETATM    2  C2  UNL     1     -33.943   6.267   5.764  1.00 20.00     0.004 A 
HETATM    3  C3  UNL     1     -35.193   4.419   6.197  1.00 20.00    -0.022 A 
HETATM    4  C4  UNL     1     -34.074   5.669   4.569  1.00 20.00    -0.069 A 
HETATM    5  C5  UNL     1     -34.893   4.416   4.725  1.00 20.00     0.062 A 
ENDROOT
BRANCH   4   6
HETATM    6  C9  UNL     1     -33.523   6.111   3.241  1.00 20.00    -0.028 C 
HETATM    7  C6  UNL     1     -33.806   7.608   3.053  1.00 20.00     0.019 C 
HETATM    8  C7  UNL     1     -34.196   5.313   2.114  1.00 20.00     0.019 C 
HETATM    9  C8  UNL     1     -32.008   5.863   3.203  1.00 20.00     0.019 C 
ENDBRANCH   4   6
TORSDOF 1
ENDMDL
MODEL 3
REMARK VINA RESULT:      -4.2     11.768     12.752
REMARK  1 active torsions:
REMARK  status: ('A' for Active; 'I' for Inactive)
REMARK    1  A    between atoms: C4_4  and  C9_9 
ROOT
HETATM    1  C1  UNL     1     -33.781  13.633  -4.090  1.00 20.00    -0.003 A 
HETATM    2  C2  UNL     1     -33.498  14.860  -3.393  1.00 20.00     0.004 A 
HETATM    3  C3  UNL     1     -35.107  13.488  -4.226  1.00 20.00    -0.022 A 
HETATM    4  C4  UNL     1     -34.650  15.481  -3.093  1.00 20.00    -0.069 A 
HETATM    5  C5  UNL     1     -35.806  14.661  -3.598  1.00 20.00     0.062 A 
ENDROOT
BRANCH   4   6
HETATM    6  C9  UNL     1     -34.844  16.787  -2.371  1.00 20.00    -0.028 C 
HETATM    7  C6  UNL     1     -33.832  17.811  -2.904  1.00 20.00     0.019 C 
HETATM    8  C7  UNL     1     -34.623  16.579  -0.865  1.00 20.00     0.019 C 
HETATM    9  C8  UNL     1     -36.271  17.299  -2.609  1.00 20.00     0.019 C 
ENDBRANCH   4   6
TORSDOF 1
ENDMDL
MODEL 4
REMARK VINA RESULT:      -4.1     11.761     12.782
REMARK  1 active torsions:
REMARK  status: ('A' for Active; 'I' for Inactive)
REMARK    1  A    between atoms: C4_4  and  C9_9 
ROOT
HETATM    1  C1  UNL     1     -35.032  13.588  -4.076  1.00 20.00    -0.003 A 
HETATM    2  C2  UNL     1     -35.636  14.722  -3.428  1.00 20.00     0.004 A 
HETATM    3  C3  UNL     1     -33.698  13.713  -4.049  1.00 20.00    -0.022 A 
HETATM    4  C4  UNL     1     -34.677  15.556  -2.996  1.00 20.00    -0.069 A 
HETATM    5  C5  UNL     1     -33.328  14.992  -3.353  1.00 20.00     0.062 A 
ENDROOT
BRANCH   4   6
HETATM    6  C9  UNL     1     -34.836  16.862  -2.267  1.00 20.00    -0.028 C 
HETATM    7  C6  UNL     1     -36.251  17.404  -2.510  1.00 20.00     0.019 C 
HETATM    8  C7  UNL     1     -33.801  17.871  -2.786  1.00 20.00     0.019 C 
HETATM    9  C8  UNL     1     -34.619  16.641  -0.763  1.00 20.00     0.019 C 
ENDBRANCH   4   6
TORSDOF 1
ENDMDL
MODEL 5
REMARK VINA RESULT:      -4.0     11.660     12.879
REMARK  1 active torsions:
REMARK  status: ('A' for Active; 'I' for Inactive)
REMARK    1  A    between atoms: C4_4  and  C9_9 
ROOT
HETATM    1  C1  UNL     1     -34.393  17.122  -1.128  1.00 20.00    -0.003 A 
HETATM    2  C2  UNL     1     -34.735  15.877  -1.763  1.00 20.00     0.004 A 
HETATM    3  C3  UNL     1     -33.791  17.929  -2.013  1.00 20.00    -0.022 A 
HETATM    4  C4  UNL     1     -34.345  15.907  -3.047  1.00 20.00    -0.069 A 
HETATM    5  C5  UNL     1     -33.696  17.233  -3.342  1.00 20.00     0.062 A 
ENDROOT
BRANCH   4   6
HETATM    6  C9  UNL     1     -34.494  14.835  -4.092  1.00 20.00    -0.028 C 
HETATM    7  C6  UNL     1     -35.926  14.284  -4.046  1.00 20.00     0.019 C 
HETATM    8  C7  UNL     1     -33.496  13.702  -3.812  1.00 20.00     0.019 C 
HETATM    9  C8  UNL     1     -34.214  15.426  -5.481  1.00 20.00     0.019 C 
ENDBRANCH   4   6
TORSDOF 1
ENDMDL
MODEL 6
REMARK VINA RESULT:      -4.0     11.657     12.917
REMARK  1 active torsions:
REMARK  status: ('A' for Active; 'I' for Inactive)
REMARK    1  A    between atoms: C4_4  and  C9_9 
ROOT
HETATM    1  C1  UNL     1     -34.380  17.115  -1.132  1.00 20.00    -0.003 A 
HETATM    2  C2  UNL     1     -34.730  15.871  -1.766  1.00 20.00     0.004 A 
HETATM    3  C3  UNL     1     -33.780  17.920  -2.020  1.00 20.00    -0.022 A 
HETATM    4  C4  UNL     1     -34.347  15.901  -3.052  1.00 20.00    -0.069 A 
HETATM    5  C5  UNL     1     -33.695  17.225  -3.349  1.00 20.00     0.062 A 
ENDROOT
BRANCH   4   6
HETATM    6  C9  UNL     1     -34.505  14.830  -4.097  1.00 20.00    -0.028 C 
HETATM    7  C6  UNL     1     -33.507  13.699  -3.811  1.00 20.00     0.019 C 
HETATM    8  C7  UNL     1     -34.230  15.422  -5.487  1.00 20.00     0.019 C 
HETATM    9  C8  UNL     1     -35.937  14.277  -4.055  1.00 20.00     0.019 C 
ENDBRANCH   4   6
TORSDOF 1
ENDMDL
MODEL 7
REMARK VINA RESULT:      -4.0     11.665     12.946
REMARK  1 active torsions:
REMARK  status: ('A' for Active; 'I' for Inactive)
REMARK    1  A    between atoms: C4_4  and  C9_9 
ROOT
HETATM    1  C1  UNL     1     -34.386  17.123  -1.123  1.00 20.00    -0.003 A 
HETATM    2  C2  UNL     1     -34.726  15.878  -1.760  1.00 20.00     0.004 A 
HETATM    3  C3  UNL     1     -33.790  17.934  -2.009  1.00 20.00    -0.022 A 
HETATM    4  C4  UNL     1     -34.342  15.912  -3.045  1.00 20.00    -0.069 A 
HETATM    5  C5  UNL     1     -33.699  17.241  -3.339  1.00 20.00     0.062 A 
ENDROOT
BRANCH   4   6
HETATM    6  C9  UNL     1     -34.491  14.841  -4.092  1.00 20.00    -0.028 C 
HETATM    7  C6  UNL     1     -34.211  15.447  -5.474  1.00 20.00     0.019 C 
HETATM    8  C7  UNL     1     -35.921  14.282  -4.054  1.00 20.00     0.019 C 
HETATM    9  C8  UNL     1     -33.495  13.707  -3.813  1.00 20.00     0.019 C 
ENDBRANCH   4   6
TORSDOF 1
ENDMDL
MODEL 8
REMARK VINA RESULT:      -3.9      1.141      3.683
REMARK  1 active torsions:
REMARK  status: ('A' for Active; 'I' for Inactive)
REMARK    1  A    between atoms: C4_4  and  C9_9 
ROOT
HETATM    1  C1  UNL     1     -32.154   6.675   2.572  1.00 20.00    -0.003 A 
HETATM    2  C2  UNL     1     -33.229   5.768   2.882  1.00 20.00     0.004 A 
HETATM    3  C3  UNL     1     -31.838   7.387   3.663  1.00 20.00    -0.022 A 
HETATM    4  C4  UNL     1     -33.583   5.916   4.168  1.00 20.00    -0.069 A 
HETATM    5  C5  UNL     1     -32.724   6.975   4.804  1.00 20.00     0.062 A 
ENDROOT
BRANCH   4   6
HETATM    6  C9  UNL     1     -34.654   5.183   4.930  1.00 20.00    -0.028 C 
HETATM    7  C6  UNL     1     -36.002   5.388   4.225  1.00 20.00     0.019 C 
HETATM    8  C7  UNL     1     -34.731   5.730   6.362  1.00 20.00     0.019 C 
HETATM    9  C8  UNL     1     -34.319   3.685   4.976  1.00 20.00     0.019 C 
ENDBRANCH   4   6
TORSDOF 1
ENDMDL
MODEL 9
REMARK VINA RESULT:      -3.9      1.144      3.663
REMARK  1 active torsions:
REMARK  status: ('A' for Active; 'I' for Inactive)
REMARK    1  A    between atoms: C4_4  and  C9_9 
ROOT
HETATM    1  C1  UNL     1     -32.139   6.673   2.572  1.00 20.00    -0.003 A 
HETATM    2  C2  UNL     1     -33.207   5.760   2.887  1.00 20.00     0.004 A 
HETATM    3  C3  UNL     1     -31.836   7.402   3.656  1.00 20.00    -0.022 A 
HETATM    4  C4  UNL     1     -33.570   5.921   4.169  1.00 20.00    -0.069 A 
HETATM    5  C5  UNL     1     -32.725   6.996   4.797  1.00 20.00     0.062 A 
ENDROOT
BRANCH   4   6
HETATM    6  C9  UNL     1     -34.638   5.187   4.934  1.00 20.00    -0.028 C 
HETATM    7  C6  UNL     1     -34.722   5.761   6.356  1.00 20.00     0.019 C 
HETATM    8  C7  UNL     1     -34.290   3.693   5.000  1.00 20.00     0.019 C 
HETATM    9  C8  UNL     1     -35.990   5.362   4.227  1.00 20.00     0.019 C 
ENDBRANCH   4   6
TORSDOF 1
ENDMDL
