MODEL 1
REMARK VINA RESULT:      -4.5      0.000      0.000
REMARK  2 active torsions:
REMARK  status: ('A' for Active; 'I' for Inactive)
REMARK    1  A    between atoms: C3_3  and  C10_10 
REMARK    2  A    between atoms: C4_4  and  C10_10 
ROOT
HETATM    1  C5  UNL     1     -34.631  13.344  -4.582  1.00 20.00     0.000 C 
HETATM    2  C6  UNL     1     -33.422  13.662  -3.710  1.00 20.00     0.001 C 
HETATM    3  C7  UNL     1     -35.836  14.192  -4.195  1.00 20.00     0.001 C 
HETATM    4  C8  UNL     1     -33.077  15.151  -3.745  1.00 20.00     0.017 C 
HETATM    5  C9  UNL     1     -35.513  15.686  -4.230  1.00 20.00     0.017 C 
HETATM    6  C10 UNL     1     -34.274  16.053  -3.396  1.00 20.00    -0.006 C 
ENDROOT
BRANCH   6   7
HETATM    7  C3  UNL     1     -34.590  15.935  -1.925  1.00 20.00    -0.023 C 
HETATM    8  C1  UNL     1     -34.375  16.907  -1.033  1.00 20.00     0.008 C 
ENDBRANCH   6   7
BRANCH   6   9
HETATM    9  C4  UNL     1     -33.916  17.479  -3.723  1.00 20.00    -0.023 C 
HETATM   10  C2  UNL     1     -33.540  17.898  -4.936  1.00 20.00     0.008 C 
ENDBRANCH   6   9
TORSDOF 2
ENDMDL
MODEL 2
REMARK VINA RESULT:      -4.4      0.783      2.669
REMARK  2 active torsions:
REMARK  status: ('A' for Active; 'I' for Inactive)
REMARK    1  A    between atoms: C3_3  and  C10_10 
REMARK    2  A    between atoms: C4_4  and  C10_10 
ROOT
HETATM    1  C5  UNL     1     -35.304  13.351  -4.174  1.00 20.00     0.000 C 
HETATM    2  C6  UNL     1     -36.219  14.569  -4.113  1.00 20.00     0.001 C 
HETATM    3  C7  UNL     1     -33.849  13.756  -4.374  1.00 20.00     0.001 C 
HETATM    4  C8  UNL     1     -35.773  15.556  -3.035  1.00 20.00     0.017 C 
HETATM    5  C9  UNL     1     -33.382  14.740  -3.301  1.00 20.00     0.017 C 
HETATM    6  C10 UNL     1     -34.297  15.969  -3.173  1.00 20.00    -0.006 C 
ENDROOT
BRANCH   6   7
HETATM    7  C3  UNL     1     -34.128  16.865  -4.375  1.00 20.00    -0.023 C 
HETATM    8  C1  UNL     1     -33.726  18.138  -4.309  1.00 20.00     0.008 C 
ENDBRANCH   6   7
BRANCH   6   9
HETATM    9  C4  UNL     1     -33.885  16.711  -1.927  1.00 20.00    -0.023 C 
HETATM   10  C2  UNL     1     -34.572  16.689  -0.781  1.00 20.00     0.008 C 
ENDBRANCH   6   9
TORSDOF 2
ENDMDL
MODEL 3
REMARK VINA RESULT:      -4.2      1.756      3.845
REMARK  2 active torsions:
REMARK  status: ('A' for Active; 'I' for Inactive)
REMARK    1  A    between atoms: C3_3  and  C10_10 
REMARK    2  A    between atoms: C4_4  and  C10_10 
ROOT
HETATM    1  C5  UNL     1     -32.897  15.107  -3.602  1.00 20.00     0.000 C 
HETATM    2  C6  UNL     1     -33.495  13.723  -3.826  1.00 20.00     0.001 C 
HETATM    3  C7  UNL     1     -33.262  16.062  -4.732  1.00 20.00     0.001 C 
HETATM    4  C8  UNL     1     -35.010  13.787  -4.018  1.00 20.00     0.017 C 
HETATM    5  C9  UNL     1     -34.775  16.145  -4.937  1.00 20.00     0.017 C 
HETATM    6  C10 UNL     1     -35.433  14.768  -5.126  1.00 20.00    -0.006 C 
ENDROOT
BRANCH   6   7
HETATM    7  C3  UNL     1     -35.064  14.203  -6.476  1.00 20.00    -0.023 C 
HETATM    8  C1  UNL     1     -35.289  14.827  -7.636  1.00 20.00     0.008 C 
ENDBRANCH   6   7
BRANCH   6   9
HETATM    9  C4  UNL     1     -36.925  14.966  -5.052  1.00 20.00    -0.023 C 
HETATM   10  C2  UNL     1     -37.651  14.783  -3.944  1.00 20.00     0.008 C 
ENDBRANCH   6   9
TORSDOF 2
ENDMDL
MODEL 4
REMARK VINA RESULT:      -4.2     11.637     13.791
REMARK  2 active torsions:
REMARK  status: ('A' for Active; 'I' for Inactive)
REMARK    1  A    between atoms: C3_3  and  C10_10 
REMARK    2  A    between atoms: C4_4  and  C10_10 
ROOT
HETATM    1  C5  UNL     1     -40.992   7.234  -0.945  1.00 20.00     0.000 C 
HETATM    2  C6  UNL     1     -42.264   7.134  -1.779  1.00 20.00     0.001 C 
HETATM    3  C7  UNL     1     -40.819   6.018  -0.044  1.00 20.00     0.001 C 
HETATM    4  C8  UNL     1     -42.305   5.840  -2.593  1.00 20.00     0.017 C 
HETATM    5  C9  UNL     1     -40.850   4.713  -0.841  1.00 20.00     0.017 C 
HETATM    6  C10 UNL     1     -42.097   4.582  -1.731  1.00 20.00    -0.006 C 
ENDROOT
BRANCH   6   7
HETATM    7  C3  UNL     1     -43.317   4.342  -0.876  1.00 20.00    -0.023 C 
HETATM    8  C1  UNL     1     -43.362   3.469   0.135  1.00 20.00     0.008 C 
ENDBRANCH   6   7
BRANCH   6   9
HETATM    9  C4  UNL     1     -41.878   3.403  -2.643  1.00 20.00    -0.023 C 
HETATM   10  C2  UNL     1     -42.793   2.941  -3.503  1.00 20.00     0.008 C 
ENDBRANCH   6   9
TORSDOF 2
ENDMDL
MODEL 5
REMARK VINA RESULT:      -4.1      1.764      3.299
REMARK  2 active torsions:
REMARK  status: ('A' for Active; 'I' for Inactive)
REMARK    1  A    between atoms: C3_3  and  C10_10 
REMARK    2  A    between atoms: C4_4  and  C10_10 
ROOT
HETATM    1  C5  UNL     1     -32.641  14.772  -3.700  1.00 20.00     0.000 C 
HETATM    2  C6  UNL     1     -33.198  16.096  -4.212  1.00 20.00     0.001 C 
HETATM    3  C7  UNL     1     -33.743  13.733  -3.531  1.00 20.00     0.001 C 
HETATM    4  C8  UNL     1     -33.981  15.914  -5.512  1.00 20.00     0.017 C 
HETATM    5  C9  UNL     1     -34.535  13.531  -4.823  1.00 20.00     0.017 C 
HETATM    6  C10 UNL     1     -35.083  14.846  -5.403  1.00 20.00    -0.006 C 
ENDROOT
BRANCH   6   7
HETATM    7  C3  UNL     1     -36.208  15.360  -4.539  1.00 20.00    -0.023 C 
HETATM    8  C1  UNL     1     -37.256  14.622  -4.157  1.00 20.00     0.008 C 
ENDBRANCH   6   7
BRANCH   6   9
HETATM    9  C4  UNL     1     -35.604  14.547  -6.785  1.00 20.00    -0.023 C 
HETATM   10  C2  UNL     1     -34.933  14.809  -7.912  1.00 20.00     0.008 C 
ENDBRANCH   6   9
TORSDOF 2
ENDMDL
MODEL 6
REMARK VINA RESULT:      -4.1      1.070      3.334
REMARK  2 active torsions:
REMARK  status: ('A' for Active; 'I' for Inactive)
REMARK    1  A    between atoms: C3_3  and  C10_10 
REMARK    2  A    between atoms: C4_4  and  C10_10 
ROOT
HETATM    1  C5  UNL     1     -34.880  17.938  -5.655  1.00 20.00     0.000 C 
HETATM    2  C6  UNL     1     -35.863  17.562  -4.553  1.00 20.00     0.001 C 
HETATM    3  C7  UNL     1     -33.439  17.689  -5.225  1.00 20.00     0.001 C 
HETATM    4  C8  UNL     1     -35.672  16.116  -4.094  1.00 20.00     0.017 C 
HETATM    5  C9  UNL     1     -33.225  16.245  -4.768  1.00 20.00     0.017 C 
HETATM    6  C10 UNL     1     -34.222  15.804  -3.684  1.00 20.00    -0.006 C 
ENDROOT
BRANCH   6   7
HETATM    7  C3  UNL     1     -33.902  16.493  -2.380  1.00 20.00    -0.023 C 
HETATM    8  C1  UNL     1     -34.640  16.378  -1.271  1.00 20.00     0.008 C 
ENDBRANCH   6   7
BRANCH   6   9
HETATM    9  C4  UNL     1     -34.077  14.314  -3.517  1.00 20.00    -0.023 C 
HETATM   10  C2  UNL     1     -34.893  13.415  -4.077  1.00 20.00     0.008 C 
ENDBRANCH   6   9
TORSDOF 2
ENDMDL
MODEL 7
REMARK VINA RESULT:      -4.1      0.874      3.053
REMARK  2 active torsions:
REMARK  status: ('A' for Active; 'I' for Inactive)
REMARK    1  A    between atoms: C3_3  and  C10_10 
REMARK    2  A    between atoms: C4_4  and  C10_10 
ROOT
HETATM    1  C5  UNL     1     -34.715  17.103  -6.244  1.00 20.00     0.000 C 
HETATM    2  C6  UNL     1     -33.532  17.514  -5.374  1.00 20.00     0.001 C 
HETATM    3  C7  UNL     1     -35.149  15.672  -5.955  1.00 20.00     0.001 C 
HETATM    4  C8  UNL     1     -33.834  17.325  -3.887  1.00 20.00     0.017 C 
HETATM    5  C9  UNL     1     -35.461  15.463  -4.472  1.00 20.00     0.017 C 
HETATM    6  C10 UNL     1     -34.312  15.902  -3.549  1.00 20.00    -0.006 C 
ENDROOT
BRANCH   6   7
HETATM    7  C3  UNL     1     -33.160  14.935  -3.665  1.00 20.00    -0.023 C 
HETATM    8  C1  UNL     1     -33.298  13.605  -3.682  1.00 20.00     0.008 C 
ENDBRANCH   6   7
BRANCH   6   9
HETATM    9  C4  UNL     1     -34.840  15.893  -2.137  1.00 20.00    -0.023 C 
HETATM   10  C2  UNL     1     -34.379  16.680  -1.160  1.00 20.00     0.008 C 
ENDBRANCH   6   9
TORSDOF 2
ENDMDL
MODEL 8
REMARK VINA RESULT:      -3.9      0.991      3.656
REMARK  2 active torsions:
REMARK  status: ('A' for Active; 'I' for Inactive)
REMARK    1  A    between atoms: C3_3  and  C10_10 
REMARK    2  A    between atoms: C4_4  and  C10_10 
ROOT
HETATM    1  C5  UNL     1     -33.759  18.458  -2.379  1.00 20.00     0.000 C 
HETATM    2  C6  UNL     1     -33.629  17.272  -1.430  1.00 20.00     0.001 C 
HETATM    3  C7  UNL     1     -33.748  18.009  -3.836  1.00 20.00     0.001 C 
HETATM    4  C8  UNL     1     -34.711  16.222  -1.687  1.00 20.00     0.017 C 
HETATM    5  C9  UNL     1     -34.827  16.962  -4.115  1.00 20.00     0.017 C 
HETATM    6  C10 UNL     1     -34.764  15.763  -3.155  1.00 20.00    -0.006 C 
ENDROOT
BRANCH   6   7
HETATM    7  C3  UNL     1     -33.555  14.916  -3.468  1.00 20.00    -0.023 C 
HETATM    8  C1  UNL     1     -33.619  13.650  -3.895  1.00 20.00     0.008 C 
ENDBRANCH   6   7
BRANCH   6   9
HETATM    9  C4  UNL     1     -36.017  14.952  -3.362  1.00 20.00    -0.023 C 
HETATM   10  C2  UNL     1     -36.988  15.281  -4.221  1.00 20.00     0.008 C 
ENDBRANCH   6   9
TORSDOF 2
ENDMDL
MODEL 9
REMARK VINA RESULT:      -3.9      1.357      3.445
REMARK  2 active torsions:
REMARK  status: ('A' for Active; 'I' for Inactive)
REMARK    1  A    between atoms: C3_3  and  C10_10 
REMARK    2  A    between atoms: C4_4  and  C10_10 
ROOT
HETATM    1  C5  UNL     1     -35.790  17.729  -1.163  1.00 20.00     0.000 C 
HETATM    2  C6  UNL     1     -36.495  17.418  -2.478  1.00 20.00     0.001 C 
HETATM    3  C7  UNL     1     -34.708  16.701  -0.854  1.00 20.00     0.001 C 
HETATM    4  C8  UNL     1     -35.503  17.303  -3.637  1.00 20.00     0.017 C 
HETATM    5  C9  UNL     1     -33.702  16.575  -1.999  1.00 20.00     0.017 C 
HETATM    6  C10 UNL     1     -34.368  16.302  -3.357  1.00 20.00    -0.006 C 
ENDROOT
BRANCH   6   7
HETATM    7  C3  UNL     1     -34.910  14.894  -3.391  1.00 20.00    -0.023 C 
HETATM    8  C1  UNL     1     -34.162  13.810  -3.618  1.00 20.00     0.008 C 
ENDBRANCH   6   7
BRANCH   6   9
HETATM    9  C4  UNL     1     -33.311  16.463  -4.419  1.00 20.00    -0.023 C 
HETATM   10  C2  UNL     1     -33.547  16.944  -5.644  1.00 20.00     0.008 C 
ENDBRANCH   6   9
TORSDOF 2
ENDMDL
