MODEL 1
REMARK VINA RESULT:      -5.4      0.000      0.000
REMARK  0 active torsions:
REMARK  status: ('A' for Active; 'I' for Inactive)
ROOT
HETATM    1  C1  UNL     1     -34.587   4.905   3.299  1.00 20.00     0.009 A 
HETATM    2  C2  UNL     1     -33.777   5.786   2.579  1.00 20.00     0.019 A 
HETATM    3  C3  UNL     1     -33.134   6.947   4.624  1.00 20.00     0.026 A 
HETATM    4  C4  UNL     1     -34.644   5.075   4.662  1.00 20.00    -0.051 A 
HETATM    5  C5  UNL     1     -33.939   6.066   5.305  1.00 20.00    -0.050 A 
HETATM    6  C6  UNL     1     -33.055   6.801   3.237  1.00 20.00     0.011 A 
HETATM    7  C7  UNL     1     -35.246   4.549   5.931  1.00 20.00     0.043 A 
HETATM    8  C8  UNL     1     -34.445   5.677   6.662  1.00 20.00     0.043 A 
HETATM    9 BR9  UNL     1     -31.967   7.975   2.229  1.00 20.00    -0.051 Br
ENDROOT
TORSDOF 0
ENDMDL
MODEL 2
REMARK VINA RESULT:      -5.1      0.778      2.008
REMARK  0 active torsions:
REMARK  status: ('A' for Active; 'I' for Inactive)
ROOT
HETATM    1  C1  UNL     1     -33.613   6.657   6.198  1.00 20.00     0.009 A 
HETATM    2  C2  UNL     1     -32.943   7.316   5.165  1.00 20.00     0.019 A 
HETATM    3  C3  UNL     1     -33.788   5.718   3.529  1.00 20.00     0.026 A 
HETATM    4  C4  UNL     1     -34.349   5.546   5.862  1.00 20.00    -0.051 A 
HETATM    5  C5  UNL     1     -34.434   5.091   4.567  1.00 20.00    -0.050 A 
HETATM    6  C6  UNL     1     -33.030   6.850   3.839  1.00 20.00     0.011 A 
HETATM    7  C7  UNL     1     -35.233   4.461   6.402  1.00 20.00     0.043 A 
HETATM    8  C8  UNL     1     -35.328   3.942   4.929  1.00 20.00     0.043 A 
HETATM    9 BR9  UNL     1     -32.111   7.769   2.464  1.00 20.00    -0.051 Br
ENDROOT
TORSDOF 0
ENDMDL
MODEL 3
REMARK VINA RESULT:      -4.4      2.311      3.592
REMARK  0 active torsions:
REMARK  status: ('A' for Active; 'I' for Inactive)
ROOT
HETATM    1  C1  UNL     1     -34.175   5.579   2.665  1.00 20.00     0.009 A 
HETATM    2  C2  UNL     1     -34.792   5.022   3.788  1.00 20.00     0.019 A 
HETATM    3  C3  UNL     1     -33.325   6.277   5.277  1.00 20.00     0.026 A 
HETATM    4  C4  UNL     1     -33.151   6.469   2.886  1.00 20.00    -0.051 A 
HETATM    5  C5  UNL     1     -32.739   6.807   4.153  1.00 20.00    -0.050 A 
HETATM    6  C6  UNL     1     -34.369   5.369   5.086  1.00 20.00     0.011 A 
HETATM    7  C7  UNL     1     -32.145   7.359   2.218  1.00 20.00     0.043 A 
HETATM    8  C8  UNL     1     -31.675   7.743   3.661  1.00 20.00     0.043 A 
HETATM    9 BR9  UNL     1     -35.227   4.596   6.584  1.00 20.00    -0.051 Br
ENDROOT
TORSDOF 0
ENDMDL
MODEL 4
REMARK VINA RESULT:      -4.4      9.494     10.521
REMARK  0 active torsions:
REMARK  status: ('A' for Active; 'I' for Inactive)
ROOT
HETATM    1  C1  UNL     1     -42.814   6.055  -2.770  1.00 20.00     0.009 A 
HETATM    2  C2  UNL     1     -42.859   4.735  -3.226  1.00 20.00     0.019 A 
HETATM    3  C3  UNL     1     -41.155   4.068  -1.615  1.00 20.00     0.026 A 
HETATM    4  C4  UNL     1     -41.938   6.338  -1.750  1.00 20.00    -0.051 A 
HETATM    5  C5  UNL     1     -41.134   5.374  -1.189  1.00 20.00    -0.050 A 
HETATM    6  C6  UNL     1     -42.034   3.747  -2.652  1.00 20.00     0.011 A 
HETATM    7  C7  UNL     1     -41.418   7.426  -0.858  1.00 20.00     0.043 A 
HETATM    8  C8  UNL     1     -40.501   6.330  -0.221  1.00 20.00     0.043 A 
HETATM    9 BR9  UNL     1     -42.122   1.970  -3.293  1.00 20.00    -0.051 Br
ENDROOT
TORSDOF 0
ENDMDL
MODEL 5
REMARK VINA RESULT:      -4.3     12.130     12.959
REMARK  0 active torsions:
REMARK  status: ('A' for Active; 'I' for Inactive)
ROOT
HETATM    1  C1  UNL     1     -32.774  18.556  -0.202  1.00 20.00     0.009 A 
HETATM    2  C2  UNL     1     -33.205  18.884   1.085  1.00 20.00     0.019 A 
HETATM    3  C3  UNL     1     -35.109  17.374   0.888  1.00 20.00     0.026 A 
HETATM    4  C4  UNL     1     -33.528  17.646  -0.905  1.00 20.00    -0.051 A 
HETATM    5  C5  UNL     1     -34.660  17.072  -0.376  1.00 20.00    -0.050 A 
HETATM    6  C6  UNL     1     -34.365  18.297   1.627  1.00 20.00     0.011 A 
HETATM    7  C7  UNL     1     -33.644  16.905  -2.204  1.00 20.00     0.043 A 
HETATM    8  C8  UNL     1     -34.934  16.254  -1.603  1.00 20.00     0.043 A 
HETATM    9 BR9  UNL     1     -34.918  18.763   3.375  1.00 20.00    -0.051 Br
ENDROOT
TORSDOF 0
ENDMDL
MODEL 6
REMARK VINA RESULT:      -4.3      9.494     10.603
REMARK  0 active torsions:
REMARK  status: ('A' for Active; 'I' for Inactive)
ROOT
HETATM    1  C1  UNL     1     -40.687   5.443  -0.731  1.00 20.00     0.009 A 
HETATM    2  C2  UNL     1     -40.842   4.201  -1.351  1.00 20.00     0.019 A 
HETATM    3  C3  UNL     1     -42.571   5.093  -2.821  1.00 20.00     0.026 A 
HETATM    4  C4  UNL     1     -41.482   6.472  -1.178  1.00 20.00    -0.051 A 
HETATM    5  C5  UNL     1     -42.395   6.302  -2.191  1.00 20.00    -0.050 A 
HETATM    6  C6  UNL     1     -41.778   4.026  -2.389  1.00 20.00     0.011 A 
HETATM    7  C7  UNL     1     -41.816   7.922  -0.991  1.00 20.00     0.043 A 
HETATM    8  C8  UNL     1     -42.857   7.728  -2.144  1.00 20.00     0.043 A 
HETATM    9 BR9  UNL     1     -41.960   2.330  -3.206  1.00 20.00    -0.051 Br
ENDROOT
TORSDOF 0
ENDMDL
MODEL 7
REMARK VINA RESULT:      -4.2     11.918     13.539
REMARK  0 active torsions:
REMARK  status: ('A' for Active; 'I' for Inactive)
ROOT
HETATM    1  C1  UNL     1     -34.470  13.808  -4.740  1.00 20.00     0.009 A 
HETATM    2  C2  UNL     1     -34.496  14.343  -3.450  1.00 20.00     0.019 A 
HETATM    3  C3  UNL     1     -34.539  16.613  -4.337  1.00 20.00     0.026 A 
HETATM    4  C4  UNL     1     -34.478  14.697  -5.789  1.00 20.00    -0.051 A 
HETATM    5  C5  UNL     1     -34.511  16.057  -5.593  1.00 20.00    -0.050 A 
HETATM    6  C6  UNL     1     -34.530  15.737  -3.249  1.00 20.00     0.011 A 
HETATM    7  C7  UNL     1     -34.464  14.816  -7.284  1.00 20.00     0.043 A 
HETATM    8  C8  UNL     1     -34.501  16.364  -7.061  1.00 20.00     0.043 A 
HETATM    9 BR9  UNL     1     -34.567  16.426  -1.488  1.00 20.00    -0.051 Br
ENDROOT
TORSDOF 0
ENDMDL
MODEL 8
REMARK VINA RESULT:      -4.2     11.838     12.893
REMARK  0 active torsions:
REMARK  status: ('A' for Active; 'I' for Inactive)
ROOT
HETATM    1  C1  UNL     1     -33.607  17.405  -3.938  1.00 20.00     0.009 A 
HETATM    2  C2  UNL     1     -33.904  16.315  -4.760  1.00 20.00     0.019 A 
HETATM    3  C3  UNL     1     -34.816  15.073  -2.871  1.00 20.00     0.026 A 
HETATM    4  C4  UNL     1     -33.926  17.292  -2.605  1.00 20.00    -0.051 A 
HETATM    5  C5  UNL     1     -34.512  16.161  -2.088  1.00 20.00    -0.050 A 
HETATM    6  C6  UNL     1     -34.504  15.156  -4.230  1.00 20.00     0.011 A 
HETATM    7  C7  UNL     1     -33.896  17.997  -1.282  1.00 20.00     0.043 A 
HETATM    8  C8  UNL     1     -34.562  16.710  -0.693  1.00 20.00     0.043 A 
HETATM    9 BR9  UNL     1     -34.892  13.700  -5.373  1.00 20.00    -0.051 Br
ENDROOT
TORSDOF 0
ENDMDL
MODEL 9
REMARK VINA RESULT:      -4.2     11.697     12.884
REMARK  0 active torsions:
REMARK  status: ('A' for Active; 'I' for Inactive)
ROOT
HETATM    1  C1  UNL     1     -33.737  16.410  -5.068  1.00 20.00     0.009 A 
HETATM    2  C2  UNL     1     -33.570  17.171  -3.909  1.00 20.00     0.019 A 
HETATM    3  C3  UNL     1     -34.542  15.398  -2.546  1.00 20.00     0.026 A 
HETATM    4  C4  UNL     1     -34.303  15.166  -4.928  1.00 20.00    -0.051 A 
HETATM    5  C5  UNL     1     -34.694  14.675  -3.705  1.00 20.00    -0.050 A 
HETATM    6  C6  UNL     1     -33.970  16.668  -2.655  1.00 20.00     0.011 A 
HETATM    7  C7  UNL     1     -34.736  13.934  -5.667  1.00 20.00     0.043 A 
HETATM    8  C8  UNL     1     -35.182  13.376  -4.275  1.00 20.00     0.043 A 
HETATM    9 BR9  UNL     1     -33.728  17.725  -1.105  1.00 20.00    -0.051 Br
ENDROOT
TORSDOF 0
ENDMDL
