MODEL 1
REMARK VINA RESULT:      -3.8      0.000      0.000
REMARK  0 active torsions:
REMARK  status: ('A' for Active; 'I' for Inactive)
ROOT
HETATM    1  C1  UNL     1     -34.538  13.668  -4.482  1.00 20.00     0.119 C 
HETATM    2  C2  UNL     1     -34.298  15.369  -2.689  1.00 20.00     0.063 A 
HETATM    3  C3  UNL     1     -33.545  17.002  -3.962  1.00 20.00     0.137 A 
HETATM    4  C4  UNL     1     -34.199  14.971  -4.003  1.00 20.00     0.137 A 
HETATM    5  C5  UNL     1     -33.874  16.688  -2.662  1.00 20.00     0.031 A 
HETATM    6  N6  UNL     1     -34.814  12.610  -4.871  1.00 20.00    -0.190 NA
HETATM    7  N7  UNL     1     -33.741  15.961  -4.777  1.00 20.00    -0.249 NA
HETATM    8 BR8  UNL     1     -33.769  17.810  -1.163  1.00 20.00    -0.050 Br
ENDROOT
TORSDOF 0
ENDMDL
MODEL 2
REMARK VINA RESULT:      -3.7     11.454     12.291
REMARK  0 active torsions:
REMARK  status: ('A' for Active; 'I' for Inactive)
ROOT
HETATM    1  C1  UNL     1     -32.412   7.453   2.598  1.00 20.00     0.119 C 
HETATM    2  C2  UNL     1     -33.390   6.431   4.639  1.00 20.00     0.063 A 
HETATM    3  C3  UNL     1     -34.686   4.971   3.618  1.00 20.00     0.137 A 
HETATM    4  C4  UNL     1     -33.267   6.527   3.271  1.00 20.00     0.137 A 
HETATM    5  C5  UNL     1     -34.311   5.421   4.865  1.00 20.00     0.031 A 
HETATM    6  N6  UNL     1     -31.717   8.205   2.051  1.00 20.00    -0.190 NA
HETATM    7  N7  UNL     1     -34.053   5.641   2.650  1.00 20.00    -0.249 NA
HETATM    8 BR8  UNL     1     -34.921   4.799   6.526  1.00 20.00    -0.050 Br
ENDROOT
TORSDOF 0
ENDMDL
MODEL 3
REMARK VINA RESULT:      -3.5      2.959      3.332
REMARK  0 active torsions:
REMARK  status: ('A' for Active; 'I' for Inactive)
ROOT
HETATM    1  C1  UNL     1     -35.465  13.526  -4.306  1.00 20.00     0.119 C 
HETATM    2  C2  UNL     1     -36.177  15.830  -3.713  1.00 20.00     0.063 A 
HETATM    3  C3  UNL     1     -38.330  15.405  -3.513  1.00 20.00     0.137 A 
HETATM    4  C4  UNL     1     -36.448  14.503  -3.961  1.00 20.00     0.137 A 
HETATM    5  C5  UNL     1     -37.398  16.416  -3.422  1.00 20.00     0.031 A 
HETATM    6  N6  UNL     1     -34.665  12.732  -4.586  1.00 20.00    -0.190 NA
HETATM    7  N7  UNL     1     -37.755  14.244  -3.841  1.00 20.00    -0.249 NA
HETATM    8 BR8  UNL     1     -37.715  18.214  -2.994  1.00 20.00    -0.050 Br
ENDROOT
TORSDOF 0
ENDMDL
MODEL 4
REMARK VINA RESULT:      -3.5      2.987      3.945
REMARK  0 active torsions:
REMARK  status: ('A' for Active; 'I' for Inactive)
ROOT
HETATM    1  C1  UNL     1     -34.603  15.860  -2.106  1.00 20.00     0.119 C 
HETATM    2  C2  UNL     1     -34.759  15.733  -4.581  1.00 20.00     0.063 A 
HETATM    3  C3  UNL     1     -34.373  13.572  -4.767  1.00 20.00     0.137 A 
HETATM    4  C4  UNL     1     -34.563  15.154  -3.347  1.00 20.00     0.137 A 
HETATM    5  C5  UNL     1     -34.636  14.707  -5.503  1.00 20.00     0.031 A 
HETATM    6  N6  UNL     1     -34.635  16.434  -1.097  1.00 20.00    -0.190 NA
HETATM    7  N7  UNL     1     -34.328  13.842  -3.459  1.00 20.00    -0.249 NA
HETATM    8 BR8  UNL     1     -34.794  14.838  -7.367  1.00 20.00    -0.050 Br
ENDROOT
TORSDOF 0
ENDMDL
MODEL 5
REMARK VINA RESULT:      -3.5      1.883      2.508
REMARK  0 active torsions:
REMARK  status: ('A' for Active; 'I' for Inactive)
ROOT
HETATM    1  C1  UNL     1     -35.259  14.392  -6.795  1.00 20.00     0.119 C 
HETATM    2  C2  UNL     1     -35.058  15.549  -4.607  1.00 20.00     0.063 A 
HETATM    3  C3  UNL     1     -34.174  13.868  -3.491  1.00 20.00     0.137 A 
HETATM    4  C4  UNL     1     -34.898  14.445  -5.414  1.00 20.00     0.137 A 
HETATM    5  C5  UNL     1     -34.588  15.175  -3.359  1.00 20.00     0.031 A 
HETATM    6  N6  UNL     1     -35.552  14.349  -7.918  1.00 20.00    -0.190 NA
HETATM    7  N7  UNL     1     -34.361  13.423  -4.738  1.00 20.00    -0.249 NA
HETATM    8 BR8  UNL     1     -34.530  16.232  -1.811  1.00 20.00    -0.050 Br
ENDROOT
TORSDOF 0
ENDMDL
MODEL 6
REMARK VINA RESULT:      -3.5      2.762      3.071
REMARK  0 active torsions:
REMARK  status: ('A' for Active; 'I' for Inactive)
ROOT
HETATM    1  C1  UNL     1     -34.573  13.740  -4.855  1.00 20.00     0.119 C 
HETATM    2  C2  UNL     1     -34.745  15.678  -6.397  1.00 20.00     0.063 A 
HETATM    3  C3  UNL     1     -33.420  17.036  -5.277  1.00 20.00     0.137 A 
HETATM    4  C4  UNL     1     -34.259  15.073  -5.260  1.00 20.00     0.137 A 
HETATM    5  C5  UNL     1     -34.201  16.952  -6.409  1.00 20.00     0.031 A 
HETATM    6  N6  UNL     1     -34.827  12.656  -4.526  1.00 20.00    -0.190 NA
HETATM    7  N7  UNL     1     -33.455  15.897  -4.578  1.00 20.00    -0.249 NA
HETATM    8 BR8  UNL     1     -34.472  18.285  -7.700  1.00 20.00    -0.050 Br
ENDROOT
TORSDOF 0
ENDMDL
MODEL 7
REMARK VINA RESULT:      -3.4     12.617     13.366
REMARK  0 active torsions:
REMARK  status: ('A' for Active; 'I' for Inactive)
ROOT
HETATM    1  C1  UNL     1     -41.557   2.809  -2.914  1.00 20.00     0.119 C 
HETATM    2  C2  UNL     1     -42.283   5.104  -2.308  1.00 20.00     0.063 A 
HETATM    3  C3  UNL     1     -40.779   5.459  -0.737  1.00 20.00     0.137 A 
HETATM    4  C4  UNL     1     -41.455   4.015  -2.156  1.00 20.00     0.137 A 
HETATM    5  C5  UNL     1     -41.845   6.042  -1.388  1.00 20.00     0.031 A 
HETATM    6  N6  UNL     1     -41.638   1.828  -3.531  1.00 20.00    -0.190 NA
HETATM    7  N7  UNL     1     -40.542   4.228  -1.202  1.00 20.00    -0.249 NA
HETATM    8 BR8  UNL     1     -42.557   7.751  -1.090  1.00 20.00    -0.050 Br
ENDROOT
TORSDOF 0
ENDMDL
MODEL 8
REMARK VINA RESULT:      -3.4     13.024     13.941
REMARK  0 active torsions:
REMARK  status: ('A' for Active; 'I' for Inactive)
ROOT
HETATM    1  C1  UNL     1     -42.232   2.209  -3.153  1.00 20.00     0.119 C 
HETATM    2  C2  UNL     1     -41.517   4.254  -1.941  1.00 20.00     0.063 A 
HETATM    3  C3  UNL     1     -42.902   5.654  -2.929  1.00 20.00     0.137 A 
HETATM    4  C4  UNL     1     -42.304   3.607  -2.867  1.00 20.00     0.137 A 
HETATM    5  C5  UNL     1     -41.905   5.584  -1.980  1.00 20.00     0.031 A 
HETATM    6  N6  UNL     1     -42.174   1.073  -3.386  1.00 20.00    -0.190 NA
HETATM    7  N7  UNL     1     -43.144   4.455  -3.468  1.00 20.00    -0.249 NA
HETATM    8 BR8  UNL     1     -41.215   6.994  -0.955  1.00 20.00    -0.050 Br
ENDROOT
TORSDOF 0
ENDMDL
MODEL 9
REMARK VINA RESULT:      -3.4      1.682      1.943
REMARK  0 active torsions:
REMARK  status: ('A' for Active; 'I' for Inactive)
ROOT
HETATM    1  C1  UNL     1     -34.540  13.786  -4.402  1.00 20.00     0.119 C 
HETATM    2  C2  UNL     1     -34.124  16.157  -5.010  1.00 20.00     0.063 A 
HETATM    3  C3  UNL     1     -33.838  16.916  -2.962  1.00 20.00     0.137 A 
HETATM    4  C4  UNL     1     -34.254  15.148  -4.082  1.00 20.00     0.137 A 
HETATM    5  C5  UNL     1     -33.853  17.305  -4.283  1.00 20.00     0.031 A 
HETATM    6  N6  UNL     1     -34.772  12.678  -4.662  1.00 20.00    -0.190 NA
HETATM    7  N7  UNL     1     -34.082  15.608  -2.838  1.00 20.00    -0.249 NA
HETATM    8 BR8  UNL     1     -33.568  19.030  -4.961  1.00 20.00    -0.050 Br
ENDROOT
TORSDOF 0
ENDMDL
