MODEL 1
REMARK VINA RESULT:      -4.9      0.000      0.000
REMARK  0 active torsions:
REMARK  status: ('A' for Active; 'I' for Inactive)
ROOT
HETATM    1  C1  UNL     1     -34.233  17.383  -4.575  1.00 20.00     0.017 A 
HETATM    2  C2  UNL     1     -33.964  17.955  -3.331  1.00 20.00     0.025 A 
HETATM    3  C3  UNL     1     -34.536  13.799  -3.681  1.00 20.00     0.031 A 
HETATM    4  C4  UNL     1     -34.071  15.771  -2.301  1.00 20.00     0.036 A 
HETATM    5  C5  UNL     1     -34.801  13.291  -4.944  1.00 20.00     0.119 A 
HETATM    6  C6  UNL     1     -34.423  15.996  -4.691  1.00 20.00     0.010 A 
HETATM    7  C7  UNL     1     -34.343  15.179  -3.545  1.00 20.00    -0.020 A 
HETATM    8  C8  UNL     1     -33.884  17.151  -2.196  1.00 20.00     0.034 A 
HETATM    9  C9  UNL     1     -34.695  15.372  -5.910  1.00 20.00     0.113 A 
HETATM   10  N10 UNL     1     -34.884  14.042  -6.062  1.00 20.00    -0.253 NA
HETATM   11 CL11 UNL     1     -33.552  17.860  -0.664  1.00 20.00    -0.084 Cl
HETATM   12 BR12 UNL     1     -34.836  16.342  -7.556  1.00 20.00    -0.028 Br
ENDROOT
TORSDOF 0
ENDMDL
MODEL 2
REMARK VINA RESULT:      -4.8      1.813      2.852
REMARK  0 active torsions:
REMARK  status: ('A' for Active; 'I' for Inactive)
ROOT
HETATM    1  C1  UNL     1     -34.689  15.809  -1.949  1.00 20.00     0.017 A 
HETATM    2  C2  UNL     1     -34.550  16.663  -0.855  1.00 20.00     0.025 A 
HETATM    3  C3  UNL     1     -33.522  17.976  -4.720  1.00 20.00     0.031 A 
HETATM    4  C4  UNL     1     -33.725  18.404  -2.315  1.00 20.00     0.036 A 
HETATM    5  C5  UNL     1     -33.682  17.080  -5.767  1.00 20.00     0.119 A 
HETATM    6  C6  UNL     1     -34.346  16.248  -3.238  1.00 20.00     0.010 A 
HETATM    7  C7  UNL     1     -33.859  17.558  -3.427  1.00 20.00    -0.020 A 
HETATM    8  C8  UNL     1     -34.068  17.958  -1.037  1.00 20.00     0.034 A 
HETATM    9  C9  UNL     1     -34.465  15.436  -4.368  1.00 20.00     0.113 A 
HETATM   10  N10 UNL     1     -34.146  15.821  -5.624  1.00 20.00    -0.253 NA
HETATM   11 CL11 UNL     1     -33.898  19.009   0.315  1.00 20.00    -0.084 Cl
HETATM   12 BR12 UNL     1     -35.111  13.634  -4.278  1.00 20.00    -0.028 Br
ENDROOT
TORSDOF 0
ENDMDL
MODEL 3
REMARK VINA RESULT:      -4.8      2.149      2.295
REMARK  0 active torsions:
REMARK  status: ('A' for Active; 'I' for Inactive)
ROOT
HETATM    1  C1  UNL     1     -36.394  16.868  -2.600  1.00 20.00     0.017 A 
HETATM    2  C2  UNL     1     -35.555  17.782  -1.961  1.00 20.00     0.025 A 
HETATM    3  C3  UNL     1     -33.989  14.218  -3.562  1.00 20.00     0.031 A 
HETATM    4  C4  UNL     1     -33.661  16.340  -2.378  1.00 20.00     0.036 A 
HETATM    5  C5  UNL     1     -34.873  13.350  -4.185  1.00 20.00     0.119 A 
HETATM    6  C6  UNL     1     -35.870  15.679  -3.134  1.00 20.00     0.010 A 
HETATM    7  C7  UNL     1     -34.491  15.409  -3.024  1.00 20.00    -0.020 A 
HETATM    8  C8  UNL     1     -34.192  17.518  -1.850  1.00 20.00     0.034 A 
HETATM    9  C9  UNL     1     -36.664  14.731  -3.782  1.00 20.00     0.113 A 
HETATM   10  N10 UNL     1     -36.198  13.576  -4.309  1.00 20.00    -0.253 NA
HETATM   11 CL11 UNL     1     -33.160  18.648  -1.062  1.00 20.00    -0.084 Cl
HETATM   12 BR12 UNL     1     -38.553  14.950  -4.013  1.00 20.00    -0.028 Br
ENDROOT
TORSDOF 0
ENDMDL
MODEL 4
REMARK VINA RESULT:      -4.6      1.579      2.094
REMARK  0 active torsions:
REMARK  status: ('A' for Active; 'I' for Inactive)
ROOT
HETATM    1  C1  UNL     1     -33.710  18.713  -2.728  1.00 20.00     0.017 A 
HETATM    2  C2  UNL     1     -33.686  18.958  -1.355  1.00 20.00     0.025 A 
HETATM    3  C3  UNL     1     -34.729  15.151  -2.818  1.00 20.00     0.031 A 
HETATM    4  C4  UNL     1     -34.354  16.673  -0.933  1.00 20.00     0.036 A 
HETATM    5  C5  UNL     1     -34.736  14.970  -4.193  1.00 20.00     0.119 A 
HETATM    6  C6  UNL     1     -34.058  17.443  -3.215  1.00 20.00     0.010 A 
HETATM    7  C7  UNL     1     -34.384  16.410  -2.312  1.00 20.00    -0.020 A 
HETATM    8  C8  UNL     1     -34.008  17.940  -0.459  1.00 20.00     0.034 A 
HETATM    9  C9  UNL     1     -34.099  17.144  -4.579  1.00 20.00     0.113 A 
HETATM   10  N10 UNL     1     -34.429  15.935  -5.087  1.00 20.00    -0.253 NA
HETATM   11 CL11 UNL     1     -33.977  18.245   1.234  1.00 20.00    -0.084 Cl
HETATM   12 BR12 UNL     1     -33.684  18.436  -5.931  1.00 20.00    -0.028 Br
ENDROOT
TORSDOF 0
ENDMDL
MODEL 5
REMARK VINA RESULT:      -4.5      1.436      1.437
REMARK  0 active torsions:
REMARK  status: ('A' for Active; 'I' for Inactive)
ROOT
HETATM    1  C1  UNL     1     -36.311  16.895  -3.910  1.00 20.00     0.017 A 
HETATM    2  C2  UNL     1     -36.103  17.528  -2.684  1.00 20.00     0.025 A 
HETATM    3  C3  UNL     1     -34.119  13.926  -3.581  1.00 20.00     0.031 A 
HETATM    4  C4  UNL     1     -34.570  15.775  -2.036  1.00 20.00     0.036 A 
HETATM    5  C5  UNL     1     -34.368  13.344  -4.815  1.00 20.00     0.119 A 
HETATM    6  C6  UNL     1     -35.649  15.693  -4.208  1.00 20.00     0.010 A 
HETATM    7  C7  UNL     1     -34.769  15.124  -3.265  1.00 20.00    -0.020 A 
HETATM    8  C8  UNL     1     -35.234  16.969  -1.749  1.00 20.00     0.034 A 
HETATM    9  C9  UNL     1     -35.821  15.018  -5.418  1.00 20.00     0.113 A 
HETATM   10  N10 UNL     1     -35.202  13.860  -5.742  1.00 20.00    -0.253 NA
HETATM   11 CL11 UNL     1     -34.979  17.753  -0.238  1.00 20.00    -0.084 Cl
HETATM   12 BR12 UNL     1     -36.981  15.660  -6.801  1.00 20.00    -0.028 Br
ENDROOT
TORSDOF 0
ENDMDL
MODEL 6
REMARK VINA RESULT:      -4.4      6.949      8.220
REMARK  0 active torsions:
REMARK  status: ('A' for Active; 'I' for Inactive)
ROOT
HETATM    1  C1  UNL     1     -31.563  19.160   1.724  1.00 20.00     0.017 A 
HETATM    2  C2  UNL     1     -31.768  19.152   0.343  1.00 20.00     0.025 A 
HETATM    3  C3  UNL     1     -34.907  18.153   2.964  1.00 20.00     0.031 A 
HETATM    4  C4  UNL     1     -34.064  18.479   0.685  1.00 20.00     0.036 A 
HETATM    5  C5  UNL     1     -34.641  18.179   4.325  1.00 20.00     0.119 A 
HETATM    6  C6  UNL     1     -32.612  18.827   2.597  1.00 20.00     0.010 A 
HETATM    7  C7  UNL     1     -33.876  18.482   2.077  1.00 20.00    -0.020 A 
HETATM    8  C8  UNL     1     -33.016  18.811  -0.175  1.00 20.00     0.034 A 
HETATM    9  C9  UNL     1     -32.462  18.819   3.985  1.00 20.00     0.113 A 
HETATM   10  N10 UNL     1     -33.445  18.505   4.859  1.00 20.00    -0.253 NA
HETATM   11 CL11 UNL     1     -33.265  18.802  -1.878  1.00 20.00    -0.084 Cl
HETATM   12 BR12 UNL     1     -30.809  19.263   4.847  1.00 20.00    -0.028 Br
ENDROOT
TORSDOF 0
ENDMDL
MODEL 7
REMARK VINA RESULT:      -4.4     12.488     13.916
REMARK  0 active torsions:
REMARK  status: ('A' for Active; 'I' for Inactive)
ROOT
HETATM    1  C1  UNL     1     -43.160   5.113  -3.307  1.00 20.00     0.017 A 
HETATM    2  C2  UNL     1     -43.141   3.745  -3.583  1.00 20.00     0.025 A 
HETATM    3  C3  UNL     1     -40.604   5.356  -0.636  1.00 20.00     0.031 A 
HETATM    4  C4  UNL     1     -41.434   3.427  -1.902  1.00 20.00     0.036 A 
HETATM    5  C5  UNL     1     -40.669   6.722  -0.408  1.00 20.00     0.119 A 
HETATM    6  C6  UNL     1     -42.313   5.649  -2.324  1.00 20.00     0.010 A 
HETATM    7  C7  UNL     1     -41.440   4.802  -1.612  1.00 20.00    -0.020 A 
HETATM    8  C8  UNL     1     -42.279   2.904  -2.882  1.00 20.00     0.034 A 
HETATM    9  C9  UNL     1     -42.292   7.009  -2.008  1.00 20.00     0.113 A 
HETATM   10  N10 UNL     1     -41.492   7.563  -1.069  1.00 20.00    -0.253 NA
HETATM   11 CL11 UNL     1     -42.258   1.218  -3.225  1.00 20.00    -0.084 Cl
HETATM   12 BR12 UNL     1     -43.416   8.289  -2.883  1.00 20.00    -0.028 Br
ENDROOT
TORSDOF 0
ENDMDL
MODEL 8
REMARK VINA RESULT:      -4.3      6.095      7.583
REMARK  0 active torsions:
REMARK  status: ('A' for Active; 'I' for Inactive)
ROOT
HETATM    1  C1  UNL     1     -33.843  18.563   3.474  1.00 20.00     0.017 A 
HETATM    2  C2  UNL     1     -32.946  18.721   4.531  1.00 20.00     0.025 A 
HETATM    3  C3  UNL     1     -31.627  19.083   0.550  1.00 20.00     0.031 A 
HETATM    4  C4  UNL     1     -31.157  19.122   2.956  1.00 20.00     0.036 A 
HETATM    5  C5  UNL     1     -32.567  18.915  -0.456  1.00 20.00     0.119 A 
HETATM    6  C6  UNL     1     -33.402  18.685   2.147  1.00 20.00     0.010 A 
HETATM    7  C7  UNL     1     -32.047  18.967   1.880  1.00 20.00    -0.020 A 
HETATM    8  C8  UNL     1     -31.605  18.999   4.272  1.00 20.00     0.034 A 
HETATM    9  C9  UNL     1     -34.257  18.536   1.052  1.00 20.00     0.113 A 
HETATM   10  N10 UNL     1     -33.872  18.645  -0.239  1.00 20.00    -0.253 NA
HETATM   11 CL11 UNL     1     -30.501  19.193   5.578  1.00 20.00    -0.084 Cl
HETATM   12 BR12 UNL     1     -36.124  18.152   1.246  1.00 20.00    -0.028 Br
ENDROOT
TORSDOF 0
ENDMDL
MODEL 9
REMARK VINA RESULT:      -4.3      5.658      7.228
REMARK  0 active torsions:
REMARK  status: ('A' for Active; 'I' for Inactive)
ROOT
HETATM    1  C1  UNL     1     -35.200  17.682   0.712  1.00 20.00     0.017 A 
HETATM    2  C2  UNL     1     -35.154  17.436  -0.660  1.00 20.00     0.025 A 
HETATM    3  C3  UNL     1     -31.807  19.041   1.325  1.00 20.00     0.031 A 
HETATM    4  C4  UNL     1     -32.881  18.254  -0.734  1.00 20.00     0.036 A 
HETATM    5  C5  UNL     1     -31.914  19.263   2.689  1.00 20.00     0.119 A 
HETATM    6  C6  UNL     1     -34.082  18.217   1.373  1.00 20.00     0.010 A 
HETATM    7  C7  UNL     1     -32.909  18.507   0.647  1.00 20.00    -0.020 A 
HETATM    8  C8  UNL     1     -33.997  17.722  -1.382  1.00 20.00     0.034 A 
HETATM    9  C9  UNL     1     -34.074  18.482   2.744  1.00 20.00     0.113 A 
HETATM   10  N10 UNL     1     -33.020  18.997   3.417  1.00 20.00    -0.253 NA
HETATM   11 CL11 UNL     1     -33.944  17.418  -3.075  1.00 20.00    -0.084 Cl
HETATM   12 BR12 UNL     1     -35.587  18.144   3.870  1.00 20.00    -0.028 Br
ENDROOT
TORSDOF 0
ENDMDL
