MODEL 1
REMARK VINA RESULT:      -4.3      0.000      0.000
REMARK  1 active torsions:
REMARK  status: ('A' for Active; 'I' for Inactive)
REMARK    1  A    between atoms: C6_6  and  C7_7 
ROOT
HETATM    1  C3  UNL     1     -35.047   4.190   4.525  1.00 20.00     0.296 C 
HETATM    2  C4  UNL     1     -35.106   4.238   6.045  1.00 20.00     0.197 C 
HETATM    3  C5  UNL     1     -34.172   6.398   6.072  1.00 20.00     0.203 C 
HETATM    4  C7  UNL     1     -34.135   6.446   4.541  1.00 20.00     0.248 C 
HETATM    5  N8  UNL     1     -35.130   5.537   3.951  1.00 20.00     0.092 N 
HETATM    6  O9  UNL     1     -34.053   5.057   6.551  1.00 20.00    -0.387 OA
HETATM    7  H22 UNL     1     -34.962   5.469   2.941  1.00 20.00     0.316 HD
ENDROOT
BRANCH   4   8
HETATM    8  C6  UNL     1     -32.754   6.178   3.998  1.00 20.00     0.021 A 
HETATM    9  C1  UNL     1     -32.529   6.084   2.514  1.00 20.00     0.007 A 
HETATM   10  C2  UNL     1     -31.999   7.263   3.282  1.00 20.00     0.007 A 
ENDBRANCH   4   8
TORSDOF 1
ENDMDL
MODEL 2
REMARK VINA RESULT:      -4.0     12.344     12.998
REMARK  1 active torsions:
REMARK  status: ('A' for Active; 'I' for Inactive)
REMARK    1  A    between atoms: C6_6  and  C7_7 
ROOT
HETATM    1  C3  UNL     1     -35.141  13.395  -4.524  1.00 20.00     0.296 C 
HETATM    2  C4  UNL     1     -34.768  14.130  -5.804  1.00 20.00     0.197 C 
HETATM    3  C5  UNL     1     -33.535  15.730  -4.596  1.00 20.00     0.203 C 
HETATM    4  C7  UNL     1     -33.820  15.010  -3.273  1.00 20.00     0.248 C 
HETATM    5  N8  UNL     1     -34.120  13.586  -3.490  1.00 20.00     0.092 N 
HETATM    6  O9  UNL     1     -34.590  15.520  -5.537  1.00 20.00    -0.387 OA
HETATM    7  H22 UNL     1     -34.468  13.182  -2.613  1.00 20.00     0.316 HD
ENDROOT
BRANCH   4   8
HETATM    8  C6  UNL     1     -34.910  15.688  -2.481  1.00 20.00     0.021 A 
HETATM    9  C1  UNL     1     -34.577  16.436  -1.221  1.00 20.00     0.007 A 
HETATM   10  C2  UNL     1     -35.002  17.188  -2.452  1.00 20.00     0.007 A 
ENDBRANCH   4   8
TORSDOF 1
ENDMDL
MODEL 3
REMARK VINA RESULT:      -4.0     12.077     12.786
REMARK  1 active torsions:
REMARK  status: ('A' for Active; 'I' for Inactive)
REMARK    1  A    between atoms: C6_6  and  C7_7 
ROOT
HETATM    1  C3  UNL     1     -33.597  13.696  -3.979  1.00 20.00     0.296 C 
HETATM    2  C4  UNL     1     -35.071  13.499  -4.306  1.00 20.00     0.197 C 
HETATM    3  C5  UNL     1     -35.514  15.785  -3.961  1.00 20.00     0.203 C 
HETATM    4  C7  UNL     1     -34.035  16.071  -3.679  1.00 20.00     0.248 C 
HETATM    5  N8  UNL     1     -33.164  15.060  -4.300  1.00 20.00     0.092 N 
HETATM    6  O9  UNL     1     -35.862  14.449  -3.593  1.00 20.00    -0.387 OA
HETATM    7  H22 UNL     1     -32.207  15.185  -3.951  1.00 20.00     0.316 HD
ENDROOT
BRANCH   4   8
HETATM    8  C6  UNL     1     -33.754  16.207  -2.203  1.00 20.00     0.021 A 
HETATM    9  C1  UNL     1     -33.734  17.565  -1.559  1.00 20.00     0.007 A 
HETATM   10  C2  UNL     1     -34.853  16.607  -1.259  1.00 20.00     0.007 A 
ENDBRANCH   4   8
TORSDOF 1
ENDMDL
MODEL 4
REMARK VINA RESULT:      -3.8     12.651     13.481
REMARK  1 active torsions:
REMARK  status: ('A' for Active; 'I' for Inactive)
REMARK    1  A    between atoms: C6_6  and  C7_7 
ROOT
HETATM    1  C3  UNL     1     -35.279  16.042  -5.123  1.00 20.00     0.296 C 
HETATM    2  C4  UNL     1     -33.868  15.959  -5.688  1.00 20.00     0.197 C 
HETATM    3  C5  UNL     1     -32.992  15.407  -3.575  1.00 20.00     0.203 C 
HETATM    4  C7  UNL     1     -34.390  15.414  -2.947  1.00 20.00     0.248 C 
HETATM    5  N8  UNL     1     -35.432  15.169  -3.956  1.00 20.00     0.092 N 
HETATM    6  O9  UNL     1     -32.917  16.306  -4.683  1.00 20.00    -0.387 OA
HETATM    7  H22 UNL     1     -36.351  15.348  -3.536  1.00 20.00     0.316 HD
ENDROOT
BRANCH   4   8
HETATM    8  C6  UNL     1     -34.659  16.681  -2.175  1.00 20.00     0.021 A 
HETATM    9  C1  UNL     1     -34.724  16.653  -0.673  1.00 20.00     0.007 A 
HETATM   10  C2  UNL     1     -33.566  17.319  -1.364  1.00 20.00     0.007 A 
ENDBRANCH   4   8
TORSDOF 1
ENDMDL
MODEL 5
REMARK VINA RESULT:      -3.8     12.577     13.188
REMARK  1 active torsions:
REMARK  status: ('A' for Active; 'I' for Inactive)
REMARK    1  A    between atoms: C6_6  and  C7_7 
ROOT
HETATM    1  C3  UNL     1     -34.106  15.515  -5.395  1.00 20.00     0.296 C 
HETATM    2  C4  UNL     1     -34.855  14.221  -5.683  1.00 20.00     0.197 C 
HETATM    3  C5  UNL     1     -36.231  14.531  -3.799  1.00 20.00     0.203 C 
HETATM    4  C7  UNL     1     -35.563  15.872  -3.479  1.00 20.00     0.248 C 
HETATM    5  N8  UNL     1     -34.958  16.470  -4.681  1.00 20.00     0.092 N 
HETATM    6  O9  UNL     1     -35.327  13.647  -4.465  1.00 20.00    -0.387 OA
HETATM    7  H22 UNL     1     -34.381  17.271  -4.400  1.00 20.00     0.316 HD
ENDROOT
BRANCH   4   8
HETATM    8  C6  UNL     1     -34.560  15.755  -2.359  1.00 20.00     0.021 A 
HETATM    9  C1  UNL     1     -33.673  16.918  -2.012  1.00 20.00     0.007 A 
HETATM   10  C2  UNL     1     -34.773  16.505  -1.073  1.00 20.00     0.007 A 
ENDBRANCH   4   8
TORSDOF 1
ENDMDL
MODEL 6
REMARK VINA RESULT:      -3.7     12.483     13.848
REMARK  1 active torsions:
REMARK  status: ('A' for Active; 'I' for Inactive)
REMARK    1  A    between atoms: C6_6  and  C7_7 
ROOT
HETATM    1  C3  UNL     1     -33.546  17.358  -5.323  1.00 20.00     0.296 C 
HETATM    2  C4  UNL     1     -33.688  18.200  -4.063  1.00 20.00     0.197 C 
HETATM    3  C5  UNL     1     -33.769  16.274  -2.713  1.00 20.00     0.203 C 
HETATM    4  C7  UNL     1     -33.570  15.363  -3.929  1.00 20.00     0.248 C 
HETATM    5  N8  UNL     1     -32.900  16.075  -5.029  1.00 20.00     0.092 N 
HETATM    6  O9  UNL     1     -34.432  17.487  -3.077  1.00 20.00    -0.387 OA
HETATM    7  H22 UNL     1     -32.938  15.493  -5.874  1.00 20.00     0.316 HD
ENDROOT
BRANCH   4   8
HETATM    8  C6  UNL     1     -34.863  14.736  -4.386  1.00 20.00     0.021 A 
HETATM    9  C1  UNL     1     -34.900  13.901  -5.636  1.00 20.00     0.007 A 
HETATM   10  C2  UNL     1     -35.057  13.248  -4.291  1.00 20.00     0.007 A 
ENDBRANCH   4   8
TORSDOF 1
ENDMDL
MODEL 7
REMARK VINA RESULT:      -3.7     11.888     13.118
REMARK  1 active torsions:
REMARK  status: ('A' for Active; 'I' for Inactive)
REMARK    1  A    between atoms: C6_6  and  C7_7 
ROOT
HETATM    1  C3  UNL     1     -33.036  15.289  -3.915  1.00 20.00     0.296 C 
HETATM    2  C4  UNL     1     -32.904  13.830  -3.501  1.00 20.00     0.197 C 
HETATM    3  C5  UNL     1     -34.760  13.228  -4.816  1.00 20.00     0.203 C 
HETATM    4  C7  UNL     1     -34.919  14.666  -5.323  1.00 20.00     0.248 C 
HETATM    5  N8  UNL     1     -33.651  15.408  -5.240  1.00 20.00     0.092 N 
HETATM    6  O9  UNL     1     -34.184  13.201  -3.509  1.00 20.00    -0.387 OA
HETATM    7  H22 UNL     1     -33.834  16.401  -5.424  1.00 20.00     0.316 HD
ENDROOT
BRANCH   4   8
HETATM    8  C6  UNL     1     -36.033  15.397  -4.616  1.00 20.00     0.021 A 
HETATM    9  C1  UNL     1     -37.376  15.551  -5.274  1.00 20.00     0.007 A 
HETATM   10  C2  UNL     1     -37.219  14.640  -4.088  1.00 20.00     0.007 A 
ENDBRANCH   4   8
TORSDOF 1
ENDMDL
MODEL 8
REMARK VINA RESULT:      -3.6     12.388     13.481
REMARK  1 active torsions:
REMARK  status: ('A' for Active; 'I' for Inactive)
REMARK    1  A    between atoms: C6_6  and  C7_7 
ROOT
HETATM    1  C3  UNL     1     -33.524  15.932  -3.449  1.00 20.00     0.296 C 
HETATM    2  C4  UNL     1     -34.675  15.546  -2.529  1.00 20.00     0.197 C 
HETATM    3  C5  UNL     1     -35.502  14.012  -4.111  1.00 20.00     0.203 C 
HETATM    4  C7  UNL     1     -34.339  14.305  -5.065  1.00 20.00     0.248 C 
HETATM    5  N8  UNL     1     -33.168  14.824  -4.340  1.00 20.00     0.092 N 
HETATM    6  O9  UNL     1     -35.807  15.150  -3.302  1.00 20.00    -0.387 OA
HETATM    7  H22 UNL     1     -32.479  15.165  -5.020  1.00 20.00     0.316 HD
ENDROOT
BRANCH   4   8
HETATM    8  C6  UNL     1     -34.743  15.227  -6.188  1.00 20.00     0.021 A 
HETATM    9  C1  UNL     1     -34.799  14.719  -7.602  1.00 20.00     0.007 A 
HETATM   10  C2  UNL     1     -36.071  15.050  -6.870  1.00 20.00     0.007 A 
ENDBRANCH   4   8
TORSDOF 1
ENDMDL
MODEL 9
REMARK VINA RESULT:      -3.6     12.368     13.190
REMARK  1 active torsions:
REMARK  status: ('A' for Active; 'I' for Inactive)
REMARK    1  A    between atoms: C6_6  and  C7_7 
ROOT
HETATM    1  C3  UNL     1     -36.342  15.255  -5.894  1.00 20.00     0.296 C 
HETATM    2  C4  UNL     1     -35.334  14.230  -6.394  1.00 20.00     0.197 C 
HETATM    3  C5  UNL     1     -34.694  13.699  -4.192  1.00 20.00     0.203 C 
HETATM    4  C7  UNL     1     -35.729  14.670  -3.613  1.00 20.00     0.248 C 
HETATM    5  N8  UNL     1     -36.832  14.904  -4.558  1.00 20.00     0.092 N 
HETATM    6  O9  UNL     1     -34.244  14.128  -5.479  1.00 20.00    -0.387 OA
HETATM    7  H22 UNL     1     -37.409  15.679  -4.211  1.00 20.00     0.316 HD
ENDROOT
BRANCH   4   8
HETATM    8  C6  UNL     1     -35.103  15.967  -3.166  1.00 20.00     0.021 A 
HETATM    9  C1  UNL     1     -34.779  16.191  -1.715  1.00 20.00     0.007 A 
HETATM   10  C2  UNL     1     -33.670  15.998  -2.712  1.00 20.00     0.007 A 
ENDBRANCH   4   8
TORSDOF 1
ENDMDL
