MODEL 1
REMARK VINA RESULT:      -4.3      0.000      0.000
REMARK  0 active torsions:
REMARK  status: ('A' for Active; 'I' for Inactive)
ROOT
HETATM    1  C1  UNL     1     -35.300   4.719   4.154  1.00 20.00     0.036 A 
HETATM    2  C2  UNL     1     -34.669   5.590   3.362  1.00 20.00     0.007 A 
HETATM    3  C3  UNL     1     -34.974   4.925   5.571  1.00 20.00     0.086 A 
HETATM    4  C4  UNL     1     -33.774   6.601   3.996  1.00 20.00     0.172 A 
HETATM    5  N5  UNL     1     -35.419   4.239   6.564  1.00 20.00    -0.293 NA
HETATM    6  S6  UNL     1     -33.866   6.263   5.778  1.00 20.00    -0.086 SA
HETATM    7 CL7  UNL     1     -32.115   6.425   3.398  1.00 20.00    -0.109 Cl
HETATM    8  H11 UNL     1     -35.028   4.609   7.438  1.00 20.00     0.187 HD
ENDROOT
TORSDOF 0
ENDMDL
MODEL 2
REMARK VINA RESULT:      -4.2     12.144     12.470
REMARK  0 active torsions:
REMARK  status: ('A' for Active; 'I' for Inactive)
ROOT
HETATM    1  C1  UNL     1     -33.324  13.942  -3.815  1.00 20.00     0.036 A 
HETATM    2  C2  UNL     1     -33.023  15.182  -3.421  1.00 20.00     0.007 A 
HETATM    3  C3  UNL     1     -34.774  13.723  -3.889  1.00 20.00     0.086 A 
HETATM    4  C4  UNL     1     -34.144  16.123  -3.132  1.00 20.00     0.172 A 
HETATM    5  N5  UNL     1     -35.364  12.632  -4.228  1.00 20.00    -0.293 NA
HETATM    6  S6  UNL     1     -35.656  15.168  -3.448  1.00 20.00    -0.086 SA
HETATM    7 CL7  UNL     1     -34.076  16.673  -1.448  1.00 20.00    -0.109 Cl
HETATM    8  H11 UNL     1     -36.381  12.768  -4.196  1.00 20.00     0.187 HD
ENDROOT
TORSDOF 0
ENDMDL
MODEL 3
REMARK VINA RESULT:      -3.8      2.998      3.557
REMARK  0 active torsions:
REMARK  status: ('A' for Active; 'I' for Inactive)
ROOT
HETATM    1  C1  UNL     1     -33.212   6.856   5.231  1.00 20.00     0.036 A 
HETATM    2  C2  UNL     1     -34.150   6.203   5.923  1.00 20.00     0.007 A 
HETATM    3  C3  UNL     1     -33.257   6.534   3.799  1.00 20.00     0.086 A 
HETATM    4  C4  UNL     1     -35.067   5.290   5.181  1.00 20.00     0.172 A 
HETATM    5  N5  UNL     1     -32.479   7.000   2.888  1.00 20.00    -0.293 NA
HETATM    6  S6  UNL     1     -34.541   5.400   3.445  1.00 20.00    -0.086 SA
HETATM    7 CL7  UNL     1     -34.920   3.632   5.789  1.00 20.00    -0.109 Cl
HETATM    8  H11 UNL     1     -32.744   6.607   1.977  1.00 20.00     0.187 HD
ENDROOT
TORSDOF 0
ENDMDL
MODEL 4
REMARK VINA RESULT:      -3.6     12.953     13.451
REMARK  0 active torsions:
REMARK  status: ('A' for Active; 'I' for Inactive)
ROOT
HETATM    1  C1  UNL     1     -33.722  14.404  -3.532  1.00 20.00     0.036 A 
HETATM    2  C2  UNL     1     -33.236  15.540  -4.040  1.00 20.00     0.007 A 
HETATM    3  C3  UNL     1     -34.654  13.741  -4.454  1.00 20.00     0.086 A 
HETATM    4  C4  UNL     1     -33.680  15.951  -5.403  1.00 20.00     0.172 A 
HETATM    5  N5  UNL     1     -35.283  12.640  -4.241  1.00 20.00    -0.293 NA
HETATM    6  S6  UNL     1     -34.824  14.646  -5.941  1.00 20.00    -0.086 SA
HETATM    7 CL7  UNL     1     -34.490  17.526  -5.345  1.00 20.00    -0.109 Cl
HETATM    8  H11 UNL     1     -35.860  12.412  -5.059  1.00 20.00     0.187 HD
ENDROOT
TORSDOF 0
ENDMDL
MODEL 5
REMARK VINA RESULT:      -3.5     12.897     13.356
REMARK  0 active torsions:
REMARK  status: ('A' for Active; 'I' for Inactive)
ROOT
HETATM    1  C1  UNL     1     -34.540  13.316  -4.792  1.00 20.00     0.036 A 
HETATM    2  C2  UNL     1     -33.869  13.744  -3.719  1.00 20.00     0.007 A 
HETATM    3  C3  UNL     1     -34.712  14.376  -5.794  1.00 20.00     0.086 A 
HETATM    4  C4  UNL     1     -33.407  15.163  -3.694  1.00 20.00     0.172 A 
HETATM    5  N5  UNL     1     -35.320  14.267  -6.922  1.00 20.00    -0.293 NA
HETATM    6  S6  UNL     1     -33.967  15.870  -5.271  1.00 20.00    -0.086 SA
HETATM    7 CL7  UNL     1     -34.119  16.024  -2.319  1.00 20.00    -0.109 Cl
HETATM    8  H11 UNL     1     -35.280  15.164  -7.420  1.00 20.00     0.187 HD
ENDROOT
TORSDOF 0
ENDMDL
MODEL 6
REMARK VINA RESULT:      -3.5     12.718     12.855
REMARK  0 active torsions:
REMARK  status: ('A' for Active; 'I' for Inactive)
ROOT
HETATM    1  C1  UNL     1     -34.057  13.450  -4.378  1.00 20.00     0.036 A 
HETATM    2  C2  UNL     1     -35.382  13.587  -4.280  1.00 20.00     0.007 A 
HETATM    3  C3  UNL     1     -33.338  14.574  -3.765  1.00 20.00     0.086 A 
HETATM    4  C4  UNL     1     -35.918  14.798  -3.592  1.00 20.00     0.172 A 
HETATM    5  N5  UNL     1     -32.063  14.725  -3.711  1.00 20.00    -0.293 NA
HETATM    6  S6  UNL     1     -34.450  15.740  -3.083  1.00 20.00    -0.086 SA
HETATM    7 CL7  UNL     1     -36.932  15.743  -4.695  1.00 20.00    -0.109 Cl
HETATM    8  H11 UNL     1     -31.842  15.599  -3.220  1.00 20.00     0.187 HD
ENDROOT
TORSDOF 0
ENDMDL
MODEL 7
REMARK VINA RESULT:      -3.5      9.764     10.068
REMARK  0 active torsions:
REMARK  status: ('A' for Active; 'I' for Inactive)
ROOT
HETATM    1  C1  UNL     1     -40.745   4.863  -0.845  1.00 20.00     0.036 A 
HETATM    2  C2  UNL     1     -40.848   6.190  -0.733  1.00 20.00     0.007 A 
HETATM    3  C3  UNL     1     -41.633   4.325  -1.883  1.00 20.00     0.086 A 
HETATM    4  C4  UNL     1     -41.798   6.903  -1.636  1.00 20.00     0.172 A 
HETATM    5  N5  UNL     1     -41.759   3.089  -2.214  1.00 20.00    -0.293 NA
HETATM    6  S6  UNL     1     -42.543   5.601  -2.661  1.00 20.00    -0.086 SA
HETATM    7 CL7  UNL     1     -43.031   7.756  -0.693  1.00 20.00    -0.109 Cl
HETATM    8  H11 UNL     1     -42.446   3.005  -2.973  1.00 20.00     0.187 HD
ENDROOT
TORSDOF 0
ENDMDL
MODEL 8
REMARK VINA RESULT:      -3.5     13.113     13.616
REMARK  0 active torsions:
REMARK  status: ('A' for Active; 'I' for Inactive)
ROOT
HETATM    1  C1  UNL     1     -34.833  14.052  -6.109  1.00 20.00     0.036 A 
HETATM    2  C2  UNL     1     -34.680  15.352  -6.372  1.00 20.00     0.007 A 
HETATM    3  C3  UNL     1     -35.123  13.805  -4.691  1.00 20.00     0.086 A 
HETATM    4  C4  UNL     1     -34.825  16.322  -5.248  1.00 20.00     0.172 A 
HETATM    5  N5  UNL     1     -35.311  12.660  -4.139  1.00 20.00    -0.293 NA
HETATM    6  S6  UNL     1     -35.192  15.303  -3.789  1.00 20.00    -0.086 SA
HETATM    7 CL7  UNL     1     -33.326  17.241  -5.023  1.00 20.00    -0.109 Cl
HETATM    8  H11 UNL     1     -35.500  12.788  -3.137  1.00 20.00     0.187 HD
ENDROOT
TORSDOF 0
ENDMDL
MODEL 9
REMARK VINA RESULT:      -3.4      9.484      9.866
REMARK  0 active torsions:
REMARK  status: ('A' for Active; 'I' for Inactive)
ROOT
HETATM    1  C1  UNL     1     -40.850   5.777  -0.129  1.00 20.00     0.036 A 
HETATM    2  C2  UNL     1     -41.311   4.550  -0.387  1.00 20.00     0.007 A 
HETATM    3  C3  UNL     1     -41.296   6.757  -1.128  1.00 20.00     0.086 A 
HETATM    4  C4  UNL     1     -42.176   4.359  -1.588  1.00 20.00     0.172 A 
HETATM    5  N5  UNL     1     -41.008   8.009  -1.149  1.00 20.00    -0.293 NA
HETATM    6  S6  UNL     1     -42.310   6.007  -2.341  1.00 20.00    -0.086 SA
HETATM    7 CL7  UNL     1     -41.436   3.204  -2.710  1.00 20.00    -0.109 Cl
HETATM    8  H11 UNL     1     -41.462   8.452  -1.957  1.00 20.00     0.187 HD
ENDROOT
TORSDOF 0
ENDMDL
