MODEL 1
REMARK VINA RESULT:      -4.6      0.000      0.000
REMARK  1 active torsions:
REMARK  status: ('A' for Active; 'I' for Inactive)
REMARK    1  A    between atoms: C1_1  and  C4_4 
ROOT
HETATM    1  C2  UNL     1     -33.692   6.756   5.913  1.00 20.00     0.013 C 
HETATM    2  C3  UNL     1     -34.750   5.756   6.414  1.00 20.00     0.010 C 
HETATM    3  C4  UNL     1     -33.281   5.716   4.842  1.00 20.00     0.062 C 
HETATM    4  C5  UNL     1     -34.708   5.084   5.013  1.00 20.00    -0.037 C 
HETATM    5  C7  UNL     1     -34.702   3.557   5.060  1.00 20.00     0.015 C 
HETATM    6  C8  UNL     1     -35.792   5.600   4.063  1.00 20.00     0.015 C 
ENDROOT
BRANCH   3   7
HETATM    7  C1  UNL     1     -32.865   6.228   3.460  1.00 20.00     0.128 C 
HETATM    8  C6  UNL     1     -31.897   7.380   3.429  1.00 20.00     0.091 C 
HETATM    9  O9  UNL     1     -33.301   5.724   2.427  1.00 20.00    -0.298 OA
ENDBRANCH   3   7
TORSDOF 1
ENDMDL
MODEL 2
REMARK VINA RESULT:      -4.6     11.955     13.031
REMARK  1 active torsions:
REMARK  status: ('A' for Active; 'I' for Inactive)
REMARK    1  A    between atoms: C1_1  and  C4_4 
ROOT
HETATM    1  C2  UNL     1     -35.284  15.167  -2.623  1.00 20.00     0.013 C 
HETATM    2  C3  UNL     1     -34.251  16.300  -2.481  1.00 20.00     0.010 C 
HETATM    3  C4  UNL     1     -35.048  15.204  -4.153  1.00 20.00     0.062 C 
HETATM    4  C5  UNL     1     -33.655  15.863  -3.849  1.00 20.00    -0.037 C 
HETATM    5  C7  UNL     1     -33.312  17.029  -4.774  1.00 20.00     0.015 C 
HETATM    6  C8  UNL     1     -32.470  14.903  -3.712  1.00 20.00     0.015 C 
ENDROOT
BRANCH   3   7
HETATM    7  C1  UNL     1     -35.082  13.880  -4.921  1.00 20.00     0.128 C 
HETATM    8  C6  UNL     1     -35.109  13.970  -6.423  1.00 20.00     0.091 C 
HETATM    9  O9  UNL     1     -35.085  12.797  -4.340  1.00 20.00    -0.298 OA
ENDBRANCH   3   7
TORSDOF 1
ENDMDL
MODEL 3
REMARK VINA RESULT:      -4.4     12.155     12.849
REMARK  1 active torsions:
REMARK  status: ('A' for Active; 'I' for Inactive)
REMARK    1  A    between atoms: C1_1  and  C4_4 
ROOT
HETATM    1  C2  UNL     1     -35.712  14.164  -4.173  1.00 20.00     0.013 C 
HETATM    2  C3  UNL     1     -34.410  13.733  -4.872  1.00 20.00     0.010 C 
HETATM    3  C4  UNL     1     -34.850  14.809  -3.060  1.00 20.00     0.062 C 
HETATM    4  C5  UNL     1     -33.678  14.872  -4.105  1.00 20.00    -0.037 C 
HETATM    5  C7  UNL     1     -32.323  14.460  -3.534  1.00 20.00     0.015 C 
HETATM    6  C8  UNL     1     -33.564  16.167  -4.912  1.00 20.00     0.015 C 
ENDROOT
BRANCH   3   7
HETATM    7  C1  UNL     1     -35.342  16.114  -2.429  1.00 20.00     0.128 C 
HETATM    8  C6  UNL     1     -34.648  16.562  -1.171  1.00 20.00     0.091 C 
HETATM    9  O9  UNL     1     -36.260  16.765  -2.926  1.00 20.00    -0.298 OA
ENDBRANCH   3   7
TORSDOF 1
ENDMDL
MODEL 4
REMARK VINA RESULT:      -4.4     12.124     13.937
REMARK  1 active torsions:
REMARK  status: ('A' for Active; 'I' for Inactive)
REMARK    1  A    between atoms: C1_1  and  C4_4 
ROOT
HETATM    1  C2  UNL     1     -35.491  14.374  -6.989  1.00 20.00     0.013 C 
HETATM    2  C3  UNL     1     -35.403  15.899  -7.184  1.00 20.00     0.010 C 
HETATM    3  C4  UNL     1     -34.409  14.498  -5.887  1.00 20.00     0.062 C 
HETATM    4  C5  UNL     1     -34.834  16.003  -5.740  1.00 20.00    -0.037 C 
HETATM    5  C7  UNL     1     -33.654  16.964  -5.609  1.00 20.00     0.015 C 
HETATM    6  C8  UNL     1     -35.907  16.301  -4.689  1.00 20.00     0.015 C 
ENDROOT
BRANCH   3   7
HETATM    7  C1  UNL     1     -34.516  13.582  -4.665  1.00 20.00     0.128 C 
HETATM    8  C6  UNL     1     -33.375  13.627  -3.684  1.00 20.00     0.091 C 
HETATM    9  O9  UNL     1     -35.486  12.847  -4.492  1.00 20.00    -0.298 OA
ENDBRANCH   3   7
TORSDOF 1
ENDMDL
MODEL 5
REMARK VINA RESULT:      -4.4     12.017     13.194
REMARK  1 active torsions:
REMARK  status: ('A' for Active; 'I' for Inactive)
REMARK    1  A    between atoms: C1_1  and  C4_4 
ROOT
HETATM    1  C2  UNL     1     -35.335  16.008  -2.275  1.00 20.00     0.013 C 
HETATM    2  C3  UNL     1     -33.821  16.230  -2.448  1.00 20.00     0.010 C 
HETATM    3  C4  UNL     1     -35.457  15.951  -3.818  1.00 20.00     0.062 C 
HETATM    4  C5  UNL     1     -33.933  15.572  -3.853  1.00 20.00    -0.037 C 
HETATM    5  C7  UNL     1     -33.145  16.299  -4.940  1.00 20.00     0.015 C 
HETATM    6  C8  UNL     1     -33.610  14.075  -3.846  1.00 20.00     0.015 C 
ENDROOT
BRANCH   3   7
HETATM    7  C1  UNL     1     -36.470  14.977  -4.426  1.00 20.00     0.128 C 
HETATM    8  C6  UNL     1     -36.738  15.113  -5.901  1.00 20.00     0.091 C 
HETATM    9  O9  UNL     1     -37.036  14.124  -3.744  1.00 20.00    -0.298 OA
ENDBRANCH   3   7
TORSDOF 1
ENDMDL
MODEL 6
REMARK VINA RESULT:      -4.4     11.916     13.300
REMARK  1 active torsions:
REMARK  status: ('A' for Active; 'I' for Inactive)
REMARK    1  A    between atoms: C1_1  and  C4_4 
ROOT
HETATM    1  C2  UNL     1     -34.100  13.739  -3.595  1.00 20.00     0.013 C 
HETATM    2  C3  UNL     1     -34.707  13.236  -4.917  1.00 20.00     0.010 C 
HETATM    3  C4  UNL     1     -33.712  15.050  -4.323  1.00 20.00     0.062 C 
HETATM    4  C5  UNL     1     -34.840  14.720  -5.365  1.00 20.00    -0.037 C 
HETATM    5  C7  UNL     1     -34.428  14.967  -6.815  1.00 20.00     0.015 C 
HETATM    6  C8  UNL     1     -36.220  15.316  -5.075  1.00 20.00     0.015 C 
ENDROOT
BRANCH   3   7
HETATM    7  C1  UNL     1     -33.796  16.363  -3.540  1.00 20.00     0.128 C 
HETATM    8  C6  UNL     1     -34.218  16.265  -2.099  1.00 20.00     0.091 C 
HETATM    9  O9  UNL     1     -33.532  17.444  -4.063  1.00 20.00    -0.298 OA
ENDBRANCH   3   7
TORSDOF 1
ENDMDL
MODEL 7
REMARK VINA RESULT:      -4.3     11.917     12.962
REMARK  1 active torsions:
REMARK  status: ('A' for Active; 'I' for Inactive)
REMARK    1  A    between atoms: C1_1  and  C4_4 
ROOT
HETATM    1  C2  UNL     1     -33.369  16.481  -4.690  1.00 20.00     0.013 C 
HETATM    2  C3  UNL     1     -33.860  17.511  -3.657  1.00 20.00     0.010 C 
HETATM    3  C4  UNL     1     -33.576  15.378  -3.622  1.00 20.00     0.062 C 
HETATM    4  C5  UNL     1     -34.587  16.352  -2.917  1.00 20.00    -0.037 C 
HETATM    5  C7  UNL     1     -34.436  16.398  -1.398  1.00 20.00     0.015 C 
HETATM    6  C8  UNL     1     -36.056  16.206  -3.320  1.00 20.00     0.015 C 
ENDROOT
BRANCH   3   7
HETATM    7  C1  UNL     1     -34.079  14.009  -4.087  1.00 20.00     0.128 C 
HETATM    8  C6  UNL     1     -34.565  13.913  -5.508  1.00 20.00     0.091 C 
HETATM    9  O9  UNL     1     -34.084  13.034  -3.336  1.00 20.00    -0.298 OA
ENDBRANCH   3   7
TORSDOF 1
ENDMDL
MODEL 8
REMARK VINA RESULT:      -4.3     12.091     12.959
REMARK  1 active torsions:
REMARK  status: ('A' for Active; 'I' for Inactive)
REMARK    1  A    between atoms: C1_1  and  C4_4 
ROOT
HETATM    1  C2  UNL     1     -33.680  13.651  -4.163  1.00 20.00     0.013 C 
HETATM    2  C3  UNL     1     -32.697  14.603  -3.457  1.00 20.00     0.010 C 
HETATM    3  C4  UNL     1     -34.843  14.469  -3.549  1.00 20.00     0.062 C 
HETATM    4  C5  UNL     1     -33.833  15.664  -3.410  1.00 20.00    -0.037 C 
HETATM    5  C7  UNL     1     -33.936  16.401  -2.076  1.00 20.00     0.015 C 
HETATM    6  C8  UNL     1     -33.789  16.649  -4.581  1.00 20.00     0.015 C 
ENDROOT
BRANCH   3   7
HETATM    7  C1  UNL     1     -36.106  14.669  -4.391  1.00 20.00     0.128 C 
HETATM    8  C6  UNL     1     -37.357  15.061  -3.650  1.00 20.00     0.091 C 
HETATM    9  O9  UNL     1     -36.100  14.518  -5.611  1.00 20.00    -0.298 OA
ENDBRANCH   3   7
TORSDOF 1
ENDMDL
MODEL 9
REMARK VINA RESULT:      -4.3     11.873     13.217
REMARK  1 active torsions:
REMARK  status: ('A' for Active; 'I' for Inactive)
REMARK    1  A    between atoms: C1_1  and  C4_4 
ROOT
HETATM    1  C2  UNL     1     -34.179  15.486  -6.089  1.00 20.00     0.013 C 
HETATM    2  C3  UNL     1     -35.522  14.765  -6.310  1.00 20.00     0.010 C 
HETATM    3  C4  UNL     1     -34.618  15.762  -4.630  1.00 20.00     0.062 C 
HETATM    4  C5  UNL     1     -35.601  14.545  -4.772  1.00 20.00    -0.037 C 
HETATM    5  C7  UNL     1     -36.986  14.803  -4.183  1.00 20.00     0.015 C 
HETATM    6  C8  UNL     1     -35.059  13.184  -4.328  1.00 20.00     0.015 C 
ENDROOT
BRANCH   3   7
HETATM    7  C1  UNL     1     -33.549  15.717  -3.535  1.00 20.00     0.128 C 
HETATM    8  C6  UNL     1     -33.877  16.413  -2.241  1.00 20.00     0.091 C 
HETATM    9  O9  UNL     1     -32.476  15.141  -3.703  1.00 20.00    -0.298 OA
ENDBRANCH   3   7
TORSDOF 1
ENDMDL
