MODEL 1
REMARK VINA RESULT:      -4.8      0.000      0.000
REMARK  1 active torsions:
REMARK  status: ('A' for Active; 'I' for Inactive)
REMARK    1  A    between atoms: C1_1  and  C2_2 
ROOT
HETATM    1  C2  UNL     1     -35.001   4.968   4.572  1.00 20.00     0.357 C 
HETATM    2  F5  UNL     1     -34.916   3.643   4.296  1.00 20.00    -0.187 F 
HETATM    3  F6  UNL     1     -36.212   5.388   4.131  1.00 20.00    -0.187 F 
HETATM    4 BR7  UNL     1     -33.595   5.932   3.647  1.00 20.00    -0.005 Br
ENDROOT
BRANCH   1   5
HETATM    5  C1  UNL     1     -34.904   5.186   6.059  1.00 20.00     0.436 C 
HETATM    6  F3  UNL     1     -34.365   6.402   6.322  1.00 20.00    -0.207 F 
HETATM    7  F4  UNL     1     -34.058   4.266   6.588  1.00 20.00    -0.207 F 
ENDBRANCH   1   5
TORSDOF 1
ENDMDL
MODEL 2
REMARK VINA RESULT:      -4.6      0.635      1.230
REMARK  1 active torsions:
REMARK  status: ('A' for Active; 'I' for Inactive)
REMARK    1  A    between atoms: C1_1  and  C2_2 
ROOT
HETATM    1  C2  UNL     1     -34.836   4.983   4.539  1.00 20.00     0.357 C 
HETATM    2  F5  UNL     1     -34.800   3.707   4.083  1.00 20.00    -0.187 F 
HETATM    3  F6  UNL     1     -36.073   5.467   4.266  1.00 20.00    -0.187 F 
HETATM    4 BR7  UNL     1     -33.497   6.053   3.632  1.00 20.00    -0.005 Br
ENDROOT
BRANCH   1   5
HETATM    5  C1  UNL     1     -34.608   4.999   6.028  1.00 20.00     0.436 C 
HETATM    6  F3  UNL     1     -35.613   4.349   6.665  1.00 20.00    -0.207 F 
HETATM    7  F4  UNL     1     -34.640   6.283   6.467  1.00 20.00    -0.207 F 
ENDBRANCH   1   5
TORSDOF 1
ENDMDL
MODEL 3
REMARK VINA RESULT:      -4.5      1.911      2.736
REMARK  1 active torsions:
REMARK  status: ('A' for Active; 'I' for Inactive)
REMARK    1  A    between atoms: C1_1  and  C2_2 
ROOT
HETATM    1  C2  UNL     1     -34.968   4.946   4.467  1.00 20.00     0.357 C 
HETATM    2  F5  UNL     1     -36.187   5.393   4.079  1.00 20.00    -0.187 F 
HETATM    3  F6  UNL     1     -34.988   3.595   4.360  1.00 20.00    -0.187 F 
HETATM    4 BR7  UNL     1     -34.628   5.453   6.308  1.00 20.00    -0.005 Br
ENDROOT
BRANCH   1   5
HETATM    5  C1  UNL     1     -33.906   5.506   3.558  1.00 20.00     0.436 C 
HETATM    6  F3  UNL     1     -33.884   6.859   3.639  1.00 20.00    -0.207 F 
HETATM    7  F4  UNL     1     -34.217   5.201   2.273  1.00 20.00    -0.207 F 
ENDBRANCH   1   5
TORSDOF 1
ENDMDL
MODEL 4
REMARK VINA RESULT:      -4.5      1.958      2.479
REMARK  1 active torsions:
REMARK  status: ('A' for Active; 'I' for Inactive)
REMARK    1  A    between atoms: C1_1  and  C2_2 
ROOT
HETATM    1  C2  UNL     1     -34.838   5.339   3.905  1.00 20.00     0.357 C 
HETATM    2  F5  UNL     1     -36.074   5.763   3.544  1.00 20.00    -0.187 F 
HETATM    3  F6  UNL     1     -34.320   4.677   2.842  1.00 20.00    -0.187 F 
HETATM    4 BR7  UNL     1     -34.962   4.143   5.427  1.00 20.00    -0.005 Br
ENDROOT
BRANCH   1   5
HETATM    5  C1  UNL     1     -33.967   6.524   4.232  1.00 20.00     0.436 C 
HETATM    6  F3  UNL     1     -32.724   6.349   3.722  1.00 20.00    -0.207 F 
HETATM    7  F4  UNL     1     -33.823   6.610   5.579  1.00 20.00    -0.207 F 
ENDBRANCH   1   5
TORSDOF 1
ENDMDL
MODEL 5
REMARK VINA RESULT:      -4.4      1.629      2.699
REMARK  1 active torsions:
REMARK  status: ('A' for Active; 'I' for Inactive)
REMARK    1  A    between atoms: C1_1  and  C2_2 
ROOT
HETATM    1  C2  UNL     1     -34.631   4.768   5.739  1.00 20.00     0.357 C 
HETATM    2  F5  UNL     1     -35.744   4.468   6.454  1.00 20.00    -0.187 F 
HETATM    3  F6  UNL     1     -33.715   3.807   6.011  1.00 20.00    -0.187 F 
HETATM    4 BR7  UNL     1     -33.944   6.500   6.273  1.00 20.00    -0.005 Br
ENDROOT
BRANCH   1   5
HETATM    5  C1  UNL     1     -34.952   4.754   4.268  1.00 20.00     0.436 C 
HETATM    6  F3  UNL     1     -34.027   5.467   3.579  1.00 20.00    -0.207 F 
HETATM    7  F4  UNL     1     -36.143   5.374   4.068  1.00 20.00    -0.207 F 
ENDBRANCH   1   5
TORSDOF 1
ENDMDL
MODEL 6
REMARK VINA RESULT:      -4.4      1.965      2.566
REMARK  1 active torsions:
REMARK  status: ('A' for Active; 'I' for Inactive)
REMARK    1  A    between atoms: C1_1  and  C2_2 
ROOT
HETATM    1  C2  UNL     1     -34.016   6.083   4.347  1.00 20.00     0.357 C 
HETATM    2  F5  UNL     1     -32.771   5.732   3.943  1.00 20.00    -0.187 F 
HETATM    3  F6  UNL     1     -34.306   7.268   3.756  1.00 20.00    -0.187 F 
HETATM    4 BR7  UNL     1     -34.059   6.282   6.275  1.00 20.00    -0.005 Br
ENDROOT
BRANCH   1   5
HETATM    5  C1  UNL     1     -35.009   5.042   3.899  1.00 20.00     0.436 C 
HETATM    6  F3  UNL     1     -36.201   5.621   3.615  1.00 20.00    -0.207 F 
HETATM    7  F4  UNL     1     -35.234   4.177   4.920  1.00 20.00    -0.207 F 
ENDBRANCH   1   5
TORSDOF 1
ENDMDL
MODEL 7
REMARK VINA RESULT:      -4.4      1.588      2.050
REMARK  1 active torsions:
REMARK  status: ('A' for Active; 'I' for Inactive)
REMARK    1  A    between atoms: C1_1  and  C2_2 
ROOT
HETATM    1  C2  UNL     1     -34.564   5.102   5.857  1.00 20.00     0.357 C 
HETATM    2  F5  UNL     1     -33.955   3.908   6.060  1.00 20.00    -0.187 F 
HETATM    3  F6  UNL     1     -35.622   5.156   6.702  1.00 20.00    -0.187 F 
HETATM    4 BR7  UNL     1     -35.179   5.233   4.023  1.00 20.00    -0.005 Br
ENDROOT
BRANCH   1   5
HETATM    5  C1  UNL     1     -33.609   6.222   6.177  1.00 20.00     0.436 C 
HETATM    6  F3  UNL     1     -34.244   7.199   6.869  1.00 20.00    -0.207 F 
HETATM    7  F4  UNL     1     -33.183   6.786   5.018  1.00 20.00    -0.207 F 
ENDBRANCH   1   5
TORSDOF 1
ENDMDL
MODEL 8
REMARK VINA RESULT:      -4.3      1.533      2.828
REMARK  1 active torsions:
REMARK  status: ('A' for Active; 'I' for Inactive)
REMARK    1  A    between atoms: C1_1  and  C2_2 
ROOT
HETATM    1  C2  UNL     1     -34.706   5.012   6.054  1.00 20.00     0.357 C 
HETATM    2  F5  UNL     1     -35.760   4.905   6.899  1.00 20.00    -0.187 F 
HETATM    3  F6  UNL     1     -33.855   3.999   6.351  1.00 20.00    -0.187 F 
HETATM    4 BR7  UNL     1     -33.814   6.714   6.312  1.00 20.00    -0.005 Br
ENDROOT
BRANCH   1   5
HETATM    5  C1  UNL     1     -35.178   4.871   4.630  1.00 20.00     0.436 C 
HETATM    6  F3  UNL     1     -35.194   3.565   4.268  1.00 20.00    -0.207 F 
HETATM    7  F4  UNL     1     -34.293   5.489   3.807  1.00 20.00    -0.207 F 
ENDBRANCH   1   5
TORSDOF 1
ENDMDL
MODEL 9
REMARK VINA RESULT:      -4.2      0.970      1.991
REMARK  1 active torsions:
REMARK  status: ('A' for Active; 'I' for Inactive)
REMARK    1  A    between atoms: C1_1  and  C2_2 
ROOT
HETATM    1  C2  UNL     1     -34.370   5.851   4.450  1.00 20.00     0.357 C 
HETATM    2  F5  UNL     1     -35.493   5.898   3.693  1.00 20.00    -0.187 F 
HETATM    3  F6  UNL     1     -34.412   6.917   5.287  1.00 20.00    -0.187 F 
HETATM    4 BR7  UNL     1     -32.799   5.966   3.320  1.00 20.00    -0.005 Br
ENDROOT
BRANCH   1   5
HETATM    5  C1  UNL     1     -34.351   4.579   5.257  1.00 20.00     0.436 C 
HETATM    6  F3  UNL     1     -35.164   3.653   4.693  1.00 20.00    -0.207 F 
HETATM    7  F4  UNL     1     -34.853   4.832   6.493  1.00 20.00    -0.207 F 
ENDBRANCH   1   5
TORSDOF 1
ENDMDL
