MODEL 1
REMARK VINA RESULT:      -5.0      0.000      0.000
REMARK  0 active torsions:
REMARK  status: ('A' for Active; 'I' for Inactive)
ROOT
HETATM    1  C1  UNL     1     -34.104   5.406   2.856  1.00 20.00     0.105 C 
HETATM    2  C2  UNL     1     -34.220   6.332   4.777  1.00 20.00     0.260 C 
HETATM    3  C3  UNL     1     -33.048   5.961   3.835  1.00 20.00     0.128 C 
HETATM    4  C4  UNL     1     -35.031   5.208   4.077  1.00 20.00     0.276 C 
HETATM    5  F5  UNL     1     -33.994   6.158   6.098  1.00 20.00    -0.241 F 
HETATM    6  F6  UNL     1     -34.961   3.992   4.667  1.00 20.00    -0.203 F 
HETATM    7  F7  UNL     1     -36.340   5.469   3.871  1.00 20.00    -0.203 F 
HETATM    8 CL8  UNL     1     -31.958   7.256   3.271  1.00 20.00    -0.122 Cl
ENDROOT
TORSDOF 0
ENDMDL
MODEL 2
REMARK VINA RESULT:      -4.9      1.890      2.519
REMARK  0 active torsions:
REMARK  status: ('A' for Active; 'I' for Inactive)
ROOT
HETATM    1  C1  UNL     1     -35.021   5.150   6.225  1.00 20.00     0.105 C 
HETATM    2  C2  UNL     1     -33.859   5.713   4.525  1.00 20.00     0.260 C 
HETATM    3  C3  UNL     1     -34.339   6.464   5.792  1.00 20.00     0.128 C 
HETATM    4  C4  UNL     1     -35.069   4.761   4.730  1.00 20.00     0.276 C 
HETATM    5  F5  UNL     1     -33.861   6.429   3.379  1.00 20.00    -0.241 F 
HETATM    6  F6  UNL     1     -36.198   5.115   4.075  1.00 20.00    -0.203 F 
HETATM    7  F7  UNL     1     -34.844   3.459   4.452  1.00 20.00    -0.203 F 
HETATM    8 CL8  UNL     1     -33.119   7.190   6.873  1.00 20.00    -0.122 Cl
ENDROOT
TORSDOF 0
ENDMDL
MODEL 3
REMARK VINA RESULT:      -4.8      1.117      2.201
REMARK  0 active torsions:
REMARK  status: ('A' for Active; 'I' for Inactive)
ROOT
HETATM    1  C1  UNL     1     -34.136   6.007   5.094  1.00 20.00     0.105 C 
HETATM    2  C2  UNL     1     -33.964   5.142   3.149  1.00 20.00     0.260 C 
HETATM    3  C3  UNL     1     -33.608   6.529   3.740  1.00 20.00     0.128 C 
HETATM    4  C4  UNL     1     -35.006   5.012   4.293  1.00 20.00     0.276 C 
HETATM    5  F5  UNL     1     -34.465   5.147   1.894  1.00 20.00    -0.241 F 
HETATM    6  F6  UNL     1     -36.252   5.445   3.990  1.00 20.00    -0.203 F 
HETATM    7  F7  UNL     1     -35.137   3.780   4.829  1.00 20.00    -0.203 F 
HETATM    8 CL8  UNL     1     -31.919   7.094   3.643  1.00 20.00    -0.122 Cl
ENDROOT
TORSDOF 0
ENDMDL
MODEL 4
REMARK VINA RESULT:      -4.6      1.829      1.977
REMARK  0 active torsions:
REMARK  status: ('A' for Active; 'I' for Inactive)
ROOT
HETATM    1  C1  UNL     1     -34.145   6.604   4.128  1.00 20.00     0.105 C 
HETATM    2  C2  UNL     1     -35.083   5.282   5.518  1.00 20.00     0.260 C 
HETATM    3  C3  UNL     1     -33.725   6.028   5.497  1.00 20.00     0.128 C 
HETATM    4  C4  UNL     1     -35.064   5.372   3.968  1.00 20.00     0.276 C 
HETATM    5  F5  UNL     1     -35.063   4.034   6.036  1.00 20.00    -0.241 F 
HETATM    6  F6  UNL     1     -34.509   4.312   3.336  1.00 20.00    -0.203 F 
HETATM    7  F7  UNL     1     -36.258   5.599   3.379  1.00 20.00    -0.203 F 
HETATM    8 CL8  UNL     1     -33.350   7.162   6.822  1.00 20.00    -0.122 Cl
ENDROOT
TORSDOF 0
ENDMDL
MODEL 5
REMARK VINA RESULT:      -4.6      1.703      1.854
REMARK  0 active torsions:
REMARK  status: ('A' for Active; 'I' for Inactive)
ROOT
HETATM    1  C1  UNL     1     -34.583   4.904   4.545  1.00 20.00     0.105 C 
HETATM    2  C2  UNL     1     -34.047   6.496   5.865  1.00 20.00     0.260 C 
HETATM    3  C3  UNL     1     -33.478   5.982   4.518  1.00 20.00     0.128 C 
HETATM    4  C4  UNL     1     -34.604   5.063   6.083  1.00 20.00     0.276 C 
HETATM    5  F5  UNL     1     -33.134   6.916   6.768  1.00 20.00    -0.241 F 
HETATM    6  F6  UNL     1     -33.789   4.224   6.764  1.00 20.00    -0.203 F 
HETATM    7  F7  UNL     1     -35.820   4.989   6.666  1.00 20.00    -0.203 F 
HETATM    8 CL8  UNL     1     -33.413   7.102   3.132  1.00 20.00    -0.122 Cl
ENDROOT
TORSDOF 0
ENDMDL
MODEL 6
REMARK VINA RESULT:      -4.5      1.118      2.187
REMARK  0 active torsions:
REMARK  status: ('A' for Active; 'I' for Inactive)
ROOT
HETATM    1  C1  UNL     1     -33.417   5.386   5.329  1.00 20.00     0.105 C 
HETATM    2  C2  UNL     1     -34.962   5.253   3.860  1.00 20.00     0.260 C 
HETATM    3  C3  UNL     1     -33.954   6.360   4.258  1.00 20.00     0.128 C 
HETATM    4  C4  UNL     1     -34.804   4.703   5.304  1.00 20.00     0.276 C 
HETATM    5  F5  UNL     1     -36.201   5.676   3.524  1.00 20.00    -0.241 F 
HETATM    6  F6  UNL     1     -35.699   5.175   6.202  1.00 20.00    -0.203 F 
HETATM    7  F7  UNL     1     -34.800   3.358   5.423  1.00 20.00    -0.203 F 
HETATM    8 CL8  UNL     1     -32.825   6.976   3.022  1.00 20.00    -0.122 Cl
ENDROOT
TORSDOF 0
ENDMDL
MODEL 7
REMARK VINA RESULT:      -4.3      2.669      3.044
REMARK  0 active torsions:
REMARK  status: ('A' for Active; 'I' for Inactive)
ROOT
HETATM    1  C1  UNL     1     -34.458   5.235   3.460  1.00 20.00     0.105 C 
HETATM    2  C2  UNL     1     -33.414   5.988   5.164  1.00 20.00     0.260 C 
HETATM    3  C3  UNL     1     -34.828   5.391   4.950  1.00 20.00     0.128 C 
HETATM    4  C4  UNL     1     -33.443   6.383   3.662  1.00 20.00     0.276 C 
HETATM    5  F5  UNL     1     -33.333   7.014   6.040  1.00 20.00    -0.241 F 
HETATM    6  F6  UNL     1     -33.912   7.625   3.401  1.00 20.00    -0.203 F 
HETATM    7  F7  UNL     1     -32.272   6.258   3.001  1.00 20.00    -0.203 F 
HETATM    8 CL8  UNL     1     -35.292   3.936   5.872  1.00 20.00    -0.122 Cl
ENDROOT
TORSDOF 0
ENDMDL
MODEL 8
REMARK VINA RESULT:      -4.2      2.767      3.355
REMARK  0 active torsions:
REMARK  status: ('A' for Active; 'I' for Inactive)
ROOT
HETATM    1  C1  UNL     1     -33.179   6.541   4.995  1.00 20.00     0.105 C 
HETATM    2  C2  UNL     1     -34.322   5.708   3.395  1.00 20.00     0.260 C 
HETATM    3  C3  UNL     1     -33.982   5.234   4.831  1.00 20.00     0.128 C 
HETATM    4  C4  UNL     1     -33.024   6.559   3.457  1.00 20.00     0.276 C 
HETATM    5  F5  UNL     1     -34.349   4.745   2.448  1.00 20.00    -0.241 F 
HETATM    6  F6  UNL     1     -31.913   5.953   2.979  1.00 20.00    -0.203 F 
HETATM    7  F7  UNL     1     -33.092   7.774   2.872  1.00 20.00    -0.203 F 
HETATM    8 CL8  UNL     1     -35.321   4.907   5.965  1.00 20.00    -0.122 Cl
ENDROOT
TORSDOF 0
ENDMDL
MODEL 9
REMARK VINA RESULT:      -3.8      8.505      9.156
REMARK  0 active torsions:
REMARK  status: ('A' for Active; 'I' for Inactive)
ROOT
HETATM    1  C1  UNL     1     -42.449   5.890   0.321  1.00 20.00     0.105 C 
HETATM    2  C2  UNL     1     -41.209   4.791  -1.026  1.00 20.00     0.260 C 
HETATM    3  C3  UNL     1     -42.095   4.395   0.182  1.00 20.00     0.128 C 
HETATM    4  C4  UNL     1     -41.110   6.202  -0.386  1.00 20.00     0.276 C 
HETATM    5  F5  UNL     1     -40.044   4.118  -1.149  1.00 20.00    -0.241 F 
HETATM    6  F6  UNL     1     -40.051   6.391   0.434  1.00 20.00    -0.203 F 
HETATM    7  F7  UNL     1     -41.128   7.240  -1.250  1.00 20.00    -0.203 F 
HETATM    8 CL8  UNL     1     -43.417   3.225  -0.072  1.00 20.00    -0.122 Cl
ENDROOT
TORSDOF 0
ENDMDL
