MODEL 1
REMARK VINA RESULT:      -5.1      0.000      0.000
REMARK  0 active torsions:
REMARK  status: ('A' for Active; 'I' for Inactive)
ROOT
HETATM    1  C1  UNL     1     -35.926  13.913  -3.999  1.00 20.00     0.009 C 
HETATM    2  C2  UNL     1     -34.542  14.457  -6.019  1.00 20.00     0.012 C 
HETATM    3  C3  UNL     1     -33.424  13.786  -3.870  1.00 20.00     0.012 C 
HETATM    4  C4  UNL     1     -35.766  16.282  -4.810  1.00 20.00     0.012 C 
HETATM    5  C5  UNL     1     -34.651  15.613  -2.666  1.00 20.00     0.012 C 
HETATM    6  C6  UNL     1     -34.648  13.553  -4.776  1.00 20.00    -0.013 C 
HETATM    7  C7  UNL     1     -35.882  15.388  -3.562  1.00 20.00    -0.013 C 
HETATM    8  C8  UNL     1     -34.487  15.934  -5.592  1.00 20.00     0.021 C 
HETATM    9  C9  UNL     1     -33.365  15.261  -3.436  1.00 20.00     0.021 C 
HETATM   10  C10 UNL     1     -33.262  16.142  -4.690  1.00 20.00     0.178 C 
HETATM   11  F11 UNL     1     -33.197  17.449  -4.316  1.00 20.00    -0.249 F 
ENDROOT
TORSDOF 0
ENDMDL
MODEL 2
REMARK VINA RESULT:      -5.1      1.413      2.669
REMARK  0 active torsions:
REMARK  status: ('A' for Active; 'I' for Inactive)
ROOT
HETATM    1  C1  UNL     1     -34.613  15.618  -2.645  1.00 20.00     0.009 C 
HETATM    2  C2  UNL     1     -33.426  13.762  -3.844  1.00 20.00     0.012 C 
HETATM    3  C3  UNL     1     -33.208  16.129  -4.660  1.00 20.00     0.012 C 
HETATM    4  C4  UNL     1     -35.924  13.948  -3.982  1.00 20.00     0.012 C 
HETATM    5  C5  UNL     1     -35.706  16.310  -4.795  1.00 20.00     0.012 C 
HETATM    6  C6  UNL     1     -33.333  15.237  -3.410  1.00 20.00    -0.013 C 
HETATM    7  C7  UNL     1     -35.846  15.422  -3.546  1.00 20.00    -0.013 C 
HETATM    8  C8  UNL     1     -34.651  13.557  -4.754  1.00 20.00     0.021 C 
HETATM    9  C9  UNL     1     -34.431  15.933  -5.572  1.00 20.00     0.021 C 
HETATM   10  C10 UNL     1     -34.504  14.457  -5.989  1.00 20.00     0.178 C 
HETATM   11  F11 UNL     1     -35.577  14.275  -6.807  1.00 20.00    -0.249 F 
ENDROOT
TORSDOF 0
ENDMDL
MODEL 3
REMARK VINA RESULT:      -5.1      1.367      2.740
REMARK  0 active torsions:
REMARK  status: ('A' for Active; 'I' for Inactive)
ROOT
HETATM    1  C1  UNL     1     -35.629  16.553  -5.040  1.00 20.00     0.009 C 
HETATM    2  C2  UNL     1     -36.388  14.360  -4.091  1.00 20.00     0.012 C 
HETATM    3  C3  UNL     1     -35.057  15.951  -2.673  1.00 20.00     0.012 C 
HETATM    4  C4  UNL     1     -34.589  14.414  -5.837  1.00 20.00     0.012 C 
HETATM    5  C5  UNL     1     -33.260  16.002  -4.422  1.00 20.00     0.012 C 
HETATM    6  C6  UNL     1     -36.132  15.845  -3.770  1.00 20.00    -0.013 C 
HETATM    7  C7  UNL     1     -34.324  15.899  -5.529  1.00 20.00    -0.013 C 
HETATM    8  C8  UNL     1     -35.088  13.693  -4.572  1.00 20.00     0.021 C 
HETATM    9  C9  UNL     1     -33.751  15.290  -3.148  1.00 20.00     0.021 C 
HETATM   10  C10 UNL     1     -34.032  13.813  -3.464  1.00 20.00     0.178 C 
HETATM   11  F11 UNL     1     -32.880  13.216  -3.875  1.00 20.00    -0.249 F 
ENDROOT
TORSDOF 0
ENDMDL
MODEL 4
REMARK VINA RESULT:      -5.1      1.218      2.572
REMARK  0 active torsions:
REMARK  status: ('A' for Active; 'I' for Inactive)
ROOT
HETATM    1  C1  UNL     1     -33.401  13.792  -3.865  1.00 20.00     0.009 C 
HETATM    2  C2  UNL     1     -33.224  16.162  -4.666  1.00 20.00     0.012 C 
HETATM    3  C3  UNL     1     -34.605  15.619  -2.637  1.00 20.00     0.012 C 
HETATM    4  C4  UNL     1     -34.526  14.482  -5.998  1.00 20.00     0.012 C 
HETATM    5  C5  UNL     1     -35.903  13.940  -3.974  1.00 20.00     0.012 C 
HETATM    6  C6  UNL     1     -33.327  15.263  -3.419  1.00 20.00    -0.013 C 
HETATM    7  C7  UNL     1     -34.633  13.572  -4.761  1.00 20.00    -0.013 C 
HETATM    8  C8  UNL     1     -34.456  15.957  -5.565  1.00 20.00     0.021 C 
HETATM    9  C9  UNL     1     -35.842  15.413  -3.529  1.00 20.00     0.021 C 
HETATM   10  C10 UNL     1     -35.716  16.316  -4.765  1.00 20.00     0.178 C 
HETATM   11  F11 UNL     1     -36.812  16.150  -5.555  1.00 20.00    -0.249 F 
ENDROOT
TORSDOF 0
ENDMDL
MODEL 5
REMARK VINA RESULT:      -5.0      1.131      2.402
REMARK  0 active torsions:
REMARK  status: ('A' for Active; 'I' for Inactive)
ROOT
HETATM    1  C1  UNL     1     -34.610  14.411  -5.953  1.00 20.00     0.009 C 
HETATM    2  C2  UNL     1     -35.651  16.522  -5.089  1.00 20.00     0.012 C 
HETATM    3  C3  UNL     1     -33.160  16.211  -4.977  1.00 20.00     0.012 C 
HETATM    4  C4  UNL     1     -35.974  14.367  -3.848  1.00 20.00     0.012 C 
HETATM    5  C5  UNL     1     -33.488  14.056  -3.737  1.00 20.00     0.012 C 
HETATM    6  C6  UNL     1     -34.425  15.932  -5.810  1.00 20.00    -0.013 C 
HETATM    7  C7  UNL     1     -34.753  13.763  -4.564  1.00 20.00    -0.013 C 
HETATM    8  C8  UNL     1     -35.798  15.888  -3.695  1.00 20.00     0.021 C 
HETATM    9  C9  UNL     1     -33.297  15.576  -3.582  1.00 20.00     0.021 C 
HETATM   10  C10 UNL     1     -34.526  16.177  -2.884  1.00 20.00     0.178 C 
HETATM   11  F11 UNL     1     -34.650  15.630  -1.644  1.00 20.00    -0.249 F 
ENDROOT
TORSDOF 0
ENDMDL
MODEL 6
REMARK VINA RESULT:      -5.0      0.723      2.376
REMARK  0 active torsions:
REMARK  status: ('A' for Active; 'I' for Inactive)
ROOT
HETATM    1  C1  UNL     1     -33.457  13.747  -3.879  1.00 20.00     0.009 C 
HETATM    2  C2  UNL     1     -35.948  14.008  -4.003  1.00 20.00     0.012 C 
HETATM    3  C3  UNL     1     -34.527  14.524  -6.011  1.00 20.00     0.012 C 
HETATM    4  C4  UNL     1     -34.587  15.606  -2.631  1.00 20.00     0.012 C 
HETATM    5  C5  UNL     1     -33.168  16.121  -4.635  1.00 20.00     0.012 C 
HETATM    6  C6  UNL     1     -34.688  13.599  -4.790  1.00 20.00    -0.013 C 
HETATM    7  C7  UNL     1     -33.319  15.205  -3.408  1.00 20.00    -0.013 C 
HETATM    8  C8  UNL     1     -35.825  15.469  -3.535  1.00 20.00     0.021 C 
HETATM    9  C9  UNL     1     -34.399  15.987  -5.550  1.00 20.00     0.021 C 
HETATM   10  C10 UNL     1     -35.664  16.370  -4.767  1.00 20.00     0.178 C 
HETATM   11  F11 UNL     1     -35.566  17.667  -4.364  1.00 20.00    -0.249 F 
ENDROOT
TORSDOF 0
ENDMDL
MODEL 7
REMARK VINA RESULT:      -4.9      0.772      2.415
REMARK  0 active torsions:
REMARK  status: ('A' for Active; 'I' for Inactive)
ROOT
HETATM    1  C1  UNL     1     -34.525  14.533  -6.010  1.00 20.00     0.009 C 
HETATM    2  C2  UNL     1     -33.470  13.742  -3.877  1.00 20.00     0.012 C 
HETATM    3  C3  UNL     1     -35.963  14.029  -4.017  1.00 20.00     0.012 C 
HETATM    4  C4  UNL     1     -33.157  16.115  -4.626  1.00 20.00     0.012 C 
HETATM    5  C5  UNL     1     -35.645  16.401  -4.766  1.00 20.00     0.012 C 
HETATM    6  C6  UNL     1     -34.701  13.608  -4.793  1.00 20.00    -0.013 C 
HETATM    7  C7  UNL     1     -34.384  15.994  -5.548  1.00 20.00    -0.013 C 
HETATM    8  C8  UNL     1     -33.325  15.198  -3.401  1.00 20.00     0.021 C 
HETATM    9  C9  UNL     1     -35.827  15.486  -3.541  1.00 20.00     0.021 C 
HETATM   10  C10 UNL     1     -34.593  15.596  -2.633  1.00 20.00     0.178 C 
HETATM   11  F11 UNL     1     -34.470  16.879  -2.197  1.00 20.00    -0.249 F 
ENDROOT
TORSDOF 0
ENDMDL
MODEL 8
REMARK VINA RESULT:      -4.9      1.554      3.039
REMARK  0 active torsions:
REMARK  status: ('A' for Active; 'I' for Inactive)
ROOT
HETATM    1  C1  UNL     1     -33.035  16.070  -4.691  1.00 20.00     0.009 C 
HETATM    2  C2  UNL     1     -34.390  15.771  -2.602  1.00 20.00     0.012 C 
HETATM    3  C3  UNL     1     -33.553  13.761  -3.857  1.00 20.00     0.012 C 
HETATM    4  C4  UNL     1     -35.483  16.619  -4.694  1.00 20.00     0.012 C 
HETATM    5  C5  UNL     1     -34.647  14.614  -5.947  1.00 20.00     0.012 C 
HETATM    6  C6  UNL     1     -33.223  15.204  -3.433  1.00 20.00    -0.013 C 
HETATM    7  C7  UNL     1     -34.322  16.061  -5.536  1.00 20.00    -0.013 C 
HETATM    8  C8  UNL     1     -35.684  15.757  -3.435  1.00 20.00     0.021 C 
HETATM    9  C9  UNL     1     -34.844  13.740  -4.694  1.00 20.00     0.021 C 
HETATM   10  C10 UNL     1     -35.991  14.311  -3.847  1.00 20.00     0.178 C 
HETATM   11  F11 UNL     1     -37.141  14.286  -4.575  1.00 20.00    -0.249 F 
ENDROOT
TORSDOF 0
ENDMDL
MODEL 9
REMARK VINA RESULT:      -4.9      1.275      2.709
REMARK  0 active torsions:
REMARK  status: ('A' for Active; 'I' for Inactive)
ROOT
HETATM    1  C1  UNL     1     -34.431  15.719  -2.518  1.00 20.00     0.009 C 
HETATM    2  C2  UNL     1     -35.670  16.825  -4.397  1.00 20.00     0.012 C 
HETATM    3  C3  UNL     1     -36.169  14.436  -3.795  1.00 20.00     0.012 C 
HETATM    4  C4  UNL     1     -33.244  16.249  -4.663  1.00 20.00     0.012 C 
HETATM    5  C5  UNL     1     -33.741  13.866  -4.062  1.00 20.00     0.012 C 
HETATM    6  C6  UNL     1     -35.788  15.820  -3.235  1.00 20.00    -0.013 C 
HETATM    7  C7  UNL     1     -33.347  15.244  -3.502  1.00 20.00    -0.013 C 
HETATM    8  C8  UNL     1     -34.595  16.354  -5.393  1.00 20.00     0.021 C 
HETATM    9  C9  UNL     1     -35.096  13.957  -4.788  1.00 20.00     0.021 C 
HETATM   10  C10 UNL     1     -34.994  14.974  -5.934  1.00 20.00     0.178 C 
HETATM   11  F11 UNL     1     -34.055  14.553  -6.825  1.00 20.00    -0.249 F 
ENDROOT
TORSDOF 0
ENDMDL
