MODEL 1
REMARK VINA RESULT:      -3.7      0.000      0.000
REMARK  1 active torsions:
REMARK  status: ('A' for Active; 'I' for Inactive)
REMARK    1  A    between atoms: C2_2  and  C3_3 
ROOT
HETATM    1  C1  UNL     1     -34.737  13.282  -4.236  1.00 20.00     0.058 C 
HETATM    2  C2  UNL     1     -34.503  14.746  -4.607  1.00 20.00     0.189 C 
HETATM    3 CL6  UNL     1     -34.334  14.882  -6.391  1.00 20.00    -0.094 Cl
HETATM    4 CL7  UNL     1     -35.974  15.680  -4.140  1.00 20.00    -0.094 Cl
ENDROOT
BRANCH   2   5
HETATM    5  C3  UNL     1     -33.288  15.364  -3.901  1.00 20.00     0.354 C 
HETATM    6  F4  UNL     1     -32.654  16.217  -4.750  1.00 20.00    -0.184 F 
HETATM    7  F5  UNL     1     -32.386  14.395  -3.594  1.00 20.00    -0.184 F 
HETATM    8 CL8  UNL     1     -33.690  16.254  -2.414  1.00 20.00    -0.045 Cl
ENDBRANCH   2   5
TORSDOF 1
ENDMDL
MODEL 2
REMARK VINA RESULT:      -3.6     11.790     12.757
REMARK  1 active torsions:
REMARK  status: ('A' for Active; 'I' for Inactive)
REMARK    1  A    between atoms: C2_2  and  C3_3 
ROOT
HETATM    1  C1  UNL     1     -32.471   6.205   3.617  1.00 20.00     0.058 C 
HETATM    2  C2  UNL     1     -33.892   6.384   4.151  1.00 20.00     0.189 C 
HETATM    3 CL6  UNL     1     -33.836   6.502   5.944  1.00 20.00    -0.094 Cl
HETATM    4 CL7  UNL     1     -34.525   7.956   3.535  1.00 20.00    -0.094 Cl
ENDROOT
BRANCH   2   5
HETATM    5  C3  UNL     1     -34.849   5.267   3.714  1.00 20.00     0.354 C 
HETATM    6  F4  UNL     1     -34.395   4.706   2.559  1.00 20.00    -0.184 F 
HETATM    7  F5  UNL     1     -36.071   5.786   3.427  1.00 20.00    -0.184 F 
HETATM    8 CL8  UNL     1     -35.051   3.974   4.919  1.00 20.00    -0.045 Cl
ENDBRANCH   2   5
TORSDOF 1
ENDMDL
MODEL 3
REMARK VINA RESULT:      -3.6      1.114      1.756
REMARK  1 active torsions:
REMARK  status: ('A' for Active; 'I' for Inactive)
REMARK    1  A    between atoms: C2_2  and  C3_3 
ROOT
HETATM    1  C1  UNL     1     -35.836  15.822  -4.461  1.00 20.00     0.058 C 
HETATM    2  C2  UNL     1     -34.636  14.905  -4.696  1.00 20.00     0.189 C 
HETATM    3 CL6  UNL     1     -35.083  13.224  -4.242  1.00 20.00    -0.094 Cl
HETATM    4 CL7  UNL     1     -34.277  14.901  -6.464  1.00 20.00    -0.094 Cl
ENDROOT
BRANCH   2   5
HETATM    5  C3  UNL     1     -33.376  15.351  -3.943  1.00 20.00     0.354 C 
HETATM    6  F4  UNL     1     -32.631  16.162  -4.743  1.00 20.00    -0.184 F 
HETATM    7  F5  UNL     1     -32.595  14.274  -3.663  1.00 20.00    -0.184 F 
HETATM    8 CL8  UNL     1     -33.708  16.218  -2.425  1.00 20.00    -0.045 Cl
ENDBRANCH   2   5
TORSDOF 1
ENDMDL
MODEL 4
REMARK VINA RESULT:      -3.6     12.689     13.544
REMARK  1 active torsions:
REMARK  status: ('A' for Active; 'I' for Inactive)
REMARK    1  A    between atoms: C2_2  and  C3_3 
ROOT
HETATM    1  C1  UNL     1     -43.417   3.542  -1.160  1.00 20.00     0.058 C 
HETATM    2  C2  UNL     1     -42.194   4.110  -1.879  1.00 20.00     0.189 C 
HETATM    3 CL6  UNL     1     -41.490   2.839  -2.938  1.00 20.00    -0.094 Cl
HETATM    4 CL7  UNL     1     -42.752   5.448  -2.953  1.00 20.00    -0.094 Cl
ENDROOT
BRANCH   2   5
HETATM    5  C3  UNL     1     -41.131   4.664  -0.921  1.00 20.00     0.354 C 
HETATM    6  F4  UNL     1     -39.941   4.047  -1.155  1.00 20.00    -0.184 F 
HETATM    7  F5  UNL     1     -41.463   4.370   0.364  1.00 20.00    -0.184 F 
HETATM    8 CL8  UNL     1     -40.883   6.421  -1.053  1.00 20.00    -0.045 Cl
ENDBRANCH   2   5
TORSDOF 1
ENDMDL
MODEL 5
REMARK VINA RESULT:      -3.6      1.173      1.676
REMARK  1 active torsions:
REMARK  status: ('A' for Active; 'I' for Inactive)
REMARK    1  A    between atoms: C2_2  and  C3_3 
ROOT
HETATM    1  C1  UNL     1     -34.440  14.931  -6.214  1.00 20.00     0.058 C 
HETATM    2  C2  UNL     1     -34.623  14.895  -4.698  1.00 20.00     0.189 C 
HETATM    3 CL6  UNL     1     -36.037  15.912  -4.251  1.00 20.00    -0.094 Cl
HETATM    4 CL7  UNL     1     -35.018  13.199  -4.225  1.00 20.00    -0.094 Cl
ENDROOT
BRANCH   2   5
HETATM    5  C3  UNL     1     -33.373  15.339  -3.926  1.00 20.00     0.354 C 
HETATM    6  F4  UNL     1     -32.615  16.148  -4.714  1.00 20.00    -0.184 F 
HETATM    7  F5  UNL     1     -32.599  14.261  -3.634  1.00 20.00    -0.184 F 
HETATM    8 CL8  UNL     1     -33.727  16.207  -2.413  1.00 20.00    -0.045 Cl
ENDBRANCH   2   5
TORSDOF 1
ENDMDL
MODEL 6
REMARK VINA RESULT:      -3.6     11.925     12.798
REMARK  1 active torsions:
REMARK  status: ('A' for Active; 'I' for Inactive)
REMARK    1  A    between atoms: C2_2  and  C3_3 
ROOT
HETATM    1  C1  UNL     1     -43.417   5.341  -1.547  1.00 20.00     0.058 C 
HETATM    2  C2  UNL     1     -42.636   6.140  -0.505  1.00 20.00     0.189 C 
HETATM    3 CL6  UNL     1     -43.127   7.867  -0.598  1.00 20.00    -0.094 Cl
HETATM    4 CL7  UNL     1     -43.112   5.540   1.129  1.00 20.00    -0.094 Cl
ENDROOT
BRANCH   2   5
HETATM    5  C3  UNL     1     -41.115   6.003  -0.651  1.00 20.00     0.354 C 
HETATM    6  F4  UNL     1     -40.518   6.256   0.545  1.00 20.00    -0.184 F 
HETATM    7  F5  UNL     1     -40.644   6.942  -1.515  1.00 20.00    -0.184 F 
HETATM    8 CL8  UNL     1     -40.583   4.401  -1.212  1.00 20.00    -0.045 Cl
ENDBRANCH   2   5
TORSDOF 1
ENDMDL
MODEL 7
REMARK VINA RESULT:      -3.6      2.413      2.746
REMARK  1 active torsions:
REMARK  status: ('A' for Active; 'I' for Inactive)
REMARK    1  A    between atoms: C2_2  and  C3_3 
ROOT
HETATM    1  C1  UNL     1     -35.852  16.063  -5.248  1.00 20.00     0.058 C 
HETATM    2  C2  UNL     1     -34.585  15.225  -5.414  1.00 20.00     0.189 C 
HETATM    3 CL6  UNL     1     -34.349  14.853  -7.157  1.00 20.00    -0.094 Cl
HETATM    4 CL7  UNL     1     -33.181  16.230  -4.891  1.00 20.00    -0.094 Cl
ENDROOT
BRANCH   2   5
HETATM    5  C3  UNL     1     -34.598  13.935  -4.584  1.00 20.00     0.354 C 
HETATM    6  F4  UNL     1     -34.836  12.872  -5.400  1.00 20.00    -0.184 F 
HETATM    7  F5  UNL     1     -35.624  13.965  -3.693  1.00 20.00    -0.184 F 
HETATM    8 CL8  UNL     1     -33.086  13.629  -3.697  1.00 20.00    -0.045 Cl
ENDBRANCH   2   5
TORSDOF 1
ENDMDL
MODEL 8
REMARK VINA RESULT:      -3.6      2.132      3.095
REMARK  1 active torsions:
REMARK  status: ('A' for Active; 'I' for Inactive)
REMARK    1  A    between atoms: C2_2  and  C3_3 
ROOT
HETATM    1  C1  UNL     1     -34.646  15.549  -2.821  1.00 20.00     0.058 C 
HETATM    2  C2  UNL     1     -33.813  15.188  -4.051  1.00 20.00     0.189 C 
HETATM    3 CL6  UNL     1     -33.343  16.698  -4.907  1.00 20.00    -0.094 Cl
HETATM    4 CL7  UNL     1     -32.291  14.404  -3.482  1.00 20.00    -0.094 Cl
ENDROOT
BRANCH   2   5
HETATM    5  C3  UNL     1     -34.530  14.226  -5.007  1.00 20.00     0.354 C 
HETATM    6  F4  UNL     1     -35.838  14.117  -4.646  1.00 20.00    -0.184 F 
HETATM    7  F5  UNL     1     -34.001  12.979  -4.897  1.00 20.00    -0.184 F 
HETATM    8 CL8  UNL     1     -34.463  14.720  -6.715  1.00 20.00    -0.045 Cl
ENDBRANCH   2   5
TORSDOF 1
ENDMDL
MODEL 9
REMARK VINA RESULT:      -3.5      1.536      1.971
REMARK  1 active torsions:
REMARK  status: ('A' for Active; 'I' for Inactive)
REMARK    1  A    between atoms: C2_2  and  C3_3 
ROOT
HETATM    1  C1  UNL     1     -35.865  16.260  -4.571  1.00 20.00     0.058 C 
HETATM    2  C2  UNL     1     -34.499  15.582  -4.672  1.00 20.00     0.189 C 
HETATM    3 CL6  UNL     1     -34.588  14.256  -5.882  1.00 20.00    -0.094 Cl
HETATM    4 CL7  UNL     1     -33.321  16.796  -5.299  1.00 20.00    -0.094 Cl
ENDROOT
BRANCH   2   5
HETATM    5  C3  UNL     1     -33.985  15.052  -3.327  1.00 20.00     0.354 C 
HETATM    6  F4  UNL     1     -32.624  15.075  -3.319  1.00 20.00    -0.184 F 
HETATM    7  F5  UNL     1     -34.342  13.750  -3.172  1.00 20.00    -0.184 F 
HETATM    8 CL8  UNL     1     -34.565  15.970  -1.917  1.00 20.00    -0.045 Cl
ENDBRANCH   2   5
TORSDOF 1
ENDMDL
