MODEL 1
REMARK VINA RESULT:      -3.6      0.000      0.000
REMARK  0 active torsions:
REMARK  status: ('A' for Active; 'I' for Inactive)
ROOT
HETATM    1  C1  UNL     1     -33.716  17.401  -3.847  1.00 20.00     0.123 C 
HETATM    2  C2  UNL     1     -34.024  14.037  -3.479  1.00 20.00     0.123 C 
HETATM    3  C3  UNL     1     -34.295  15.442  -6.564  1.00 20.00     0.123 C 
HETATM    4  C4  UNL     1     -34.957  17.125  -4.699  1.00 20.00     0.296 C 
HETATM    5  C5  UNL     1     -34.953  15.216  -3.185  1.00 20.00     0.296 C 
HETATM    6  C6  UNL     1     -35.313  14.878  -5.571  1.00 20.00     0.296 C 
HETATM    7  N7  UNL     1     -35.492  15.783  -4.428  1.00 20.00     0.133 N 
HETATM    8  S8  UNL     1     -34.055  16.523  -2.310  1.00 20.00    -0.130 SA
HETATM    9  S9  UNL     1     -34.755  13.274  -4.939  1.00 20.00    -0.130 SA
HETATM   10  S10 UNL     1     -34.545  17.224  -6.460  1.00 20.00    -0.130 SA
ENDROOT
TORSDOF 0
ENDMDL
MODEL 2
REMARK VINA RESULT:      -3.6      0.067      3.284
REMARK  0 active torsions:
REMARK  status: ('A' for Active; 'I' for Inactive)
ROOT
HETATM    1  C1  UNL     1     -34.059  14.040  -3.478  1.00 20.00     0.123 C 
HETATM    2  C2  UNL     1     -34.259  15.512  -6.535  1.00 20.00     0.123 C 
HETATM    3  C3  UNL     1     -33.751  17.413  -3.762  1.00 20.00     0.123 C 
HETATM    4  C4  UNL     1     -34.998  15.210  -3.180  1.00 20.00     0.296 C 
HETATM    5  C5  UNL     1     -35.301  14.925  -5.581  1.00 20.00     0.296 C 
HETATM    6  C6  UNL     1     -34.968  17.153  -4.651  1.00 20.00     0.296 C 
HETATM    7  N7  UNL     1     -35.508  15.805  -4.423  1.00 20.00     0.133 N 
HETATM    8  S8  UNL     1     -34.758  13.309  -4.970  1.00 20.00    -0.130 SA
HETATM    9  S9  UNL     1     -34.513  17.291  -6.400  1.00 20.00    -0.130 SA
HETATM   10  S10 UNL     1     -34.123  16.499  -2.254  1.00 20.00    -0.130 SA
ENDROOT
TORSDOF 0
ENDMDL
MODEL 3
REMARK VINA RESULT:      -3.5      0.039      3.275
REMARK  0 active torsions:
REMARK  status: ('A' for Active; 'I' for Inactive)
ROOT
HETATM    1  C1  UNL     1     -34.300  15.401  -6.585  1.00 20.00     0.123 C 
HETATM    2  C2  UNL     1     -33.715  17.400  -3.899  1.00 20.00     0.123 C 
HETATM    3  C3  UNL     1     -34.027  14.040  -3.481  1.00 20.00     0.123 C 
HETATM    4  C4  UNL     1     -35.319  14.853  -5.583  1.00 20.00     0.296 C 
HETATM    5  C5  UNL     1     -34.957  17.112  -4.745  1.00 20.00     0.296 C 
HETATM    6  C6  UNL     1     -34.953  15.225  -3.203  1.00 20.00     0.296 C 
HETATM    7  N7  UNL     1     -35.494  15.776  -4.453  1.00 20.00     0.133 N 
HETATM    8  S8  UNL     1     -34.550  17.184  -6.508  1.00 20.00    -0.130 SA
HETATM    9  S9  UNL     1     -34.049  16.543  -2.349  1.00 20.00    -0.130 SA
HETATM   10  S10 UNL     1     -34.763  13.258  -4.929  1.00 20.00    -0.130 SA
ENDROOT
TORSDOF 0
ENDMDL
MODEL 4
REMARK VINA RESULT:      -3.5      1.380      2.937
REMARK  0 active torsions:
REMARK  status: ('A' for Active; 'I' for Inactive)
ROOT
HETATM    1  C1  UNL     1     -34.065  16.248  -2.578  1.00 20.00     0.123 C 
HETATM    2  C2  UNL     1     -35.066  17.839  -5.409  1.00 20.00     0.123 C 
HETATM    3  C3  UNL     1     -34.802  14.449  -5.366  1.00 20.00     0.123 C 
HETATM    4  C4  UNL     1     -33.208  15.541  -3.630  1.00 20.00     0.296 C 
HETATM    5  C5  UNL     1     -33.708  17.658  -4.730  1.00 20.00     0.296 C 
HETATM    6  C6  UNL     1     -33.937  15.564  -5.956  1.00 20.00     0.296 C 
HETATM    7  N7  UNL     1     -33.214  16.285  -4.898  1.00 20.00     0.133 N 
HETATM    8  S8  UNL     1     -33.840  17.996  -2.955  1.00 20.00    -0.130 SA
HETATM    9  S9  UNL     1     -34.969  16.757  -6.848  1.00 20.00    -0.130 SA
HETATM   10  S10 UNL     1     -33.848  13.876  -3.949  1.00 20.00    -0.130 SA
ENDROOT
TORSDOF 0
ENDMDL
MODEL 5
REMARK VINA RESULT:      -3.5      0.947      2.891
REMARK  0 active torsions:
REMARK  status: ('A' for Active; 'I' for Inactive)
ROOT
HETATM    1  C1  UNL     1     -34.951  17.779  -5.210  1.00 20.00     0.123 C 
HETATM    2  C2  UNL     1     -35.121  14.463  -5.935  1.00 20.00     0.123 C 
HETATM    3  C3  UNL     1     -34.511  15.478  -2.747  1.00 20.00     0.123 C 
HETATM    4  C4  UNL     1     -33.720  17.253  -4.471  1.00 20.00     0.296 C 
HETATM    5  C5  UNL     1     -34.056  15.536  -6.166  1.00 20.00     0.296 C 
HETATM    6  C6  UNL     1     -33.628  14.897  -3.854  1.00 20.00     0.296 C 
HETATM    7  N7  UNL     1     -33.385  15.891  -4.909  1.00 20.00     0.133 N 
HETATM    8  S8  UNL     1     -34.810  17.036  -6.846  1.00 20.00    -0.130 SA
HETATM    9  S9  UNL     1     -34.430  13.457  -4.608  1.00 20.00    -0.130 SA
HETATM   10  S10 UNL     1     -34.027  17.213  -2.685  1.00 20.00    -0.130 SA
ENDROOT
TORSDOF 0
ENDMDL
MODEL 6
REMARK VINA RESULT:      -3.5      0.948      2.889
REMARK  0 active torsions:
REMARK  status: ('A' for Active; 'I' for Inactive)
ROOT
HETATM    1  C1  UNL     1     -35.107  14.462  -5.865  1.00 20.00     0.123 C 
HETATM    2  C2  UNL     1     -34.520  15.513  -2.687  1.00 20.00     0.123 C 
HETATM    3  C3  UNL     1     -34.949  17.788  -5.178  1.00 20.00     0.123 C 
HETATM    4  C4  UNL     1     -34.043  15.535  -6.102  1.00 20.00     0.296 C 
HETATM    5  C5  UNL     1     -33.628  14.923  -3.781  1.00 20.00     0.296 C 
HETATM    6  C6  UNL     1     -33.722  17.272  -4.424  1.00 20.00     0.296 C 
HETATM    7  N7  UNL     1     -33.380  15.906  -4.844  1.00 20.00     0.133 N 
HETATM    8  S8  UNL     1     -34.417  13.473  -4.525  1.00 20.00    -0.130 SA
HETATM    9  S9  UNL     1     -34.042  17.250  -2.640  1.00 20.00    -0.130 SA
HETATM   10  S10 UNL     1     -34.797  17.025  -6.804  1.00 20.00    -0.130 SA
ENDROOT
TORSDOF 0
ENDMDL
MODEL 7
REMARK VINA RESULT:      -3.4      1.622      3.463
REMARK  0 active torsions:
REMARK  status: ('A' for Active; 'I' for Inactive)
ROOT
HETATM    1  C1  UNL     1     -36.535  15.096  -5.567  1.00 20.00     0.123 C 
HETATM    2  C2  UNL     1     -35.271  17.615  -3.668  1.00 20.00     0.123 C 
HETATM    3  C3  UNL     1     -33.598  14.665  -3.911  1.00 20.00     0.123 C 
HETATM    4  C4  UNL     1     -36.146  14.339  -4.296  1.00 20.00     0.296 C 
HETATM    5  C5  UNL     1     -36.409  16.614  -3.463  1.00 20.00     0.296 C 
HETATM    6  C6  UNL     1     -34.462  15.298  -2.818  1.00 20.00     0.296 C 
HETATM    7  N7  UNL     1     -35.884  15.270  -3.190  1.00 20.00     0.133 N 
HETATM    8  S8  UNL     1     -37.444  16.524  -4.947  1.00 20.00    -0.130 SA
HETATM    9  S9  UNL     1     -33.981  17.025  -2.556  1.00 20.00    -0.130 SA
HETATM   10  S10 UNL     1     -34.648  13.361  -4.579  1.00 20.00    -0.130 SA
ENDROOT
TORSDOF 0
ENDMDL
MODEL 8
REMARK VINA RESULT:      -3.4      1.661      2.841
REMARK  0 active torsions:
REMARK  status: ('A' for Active; 'I' for Inactive)
ROOT
HETATM    1  C1  UNL     1     -36.877  15.271  -5.788  1.00 20.00     0.123 C 
HETATM    2  C2  UNL     1     -35.624  16.261  -2.789  1.00 20.00     0.123 C 
HETATM    3  C3  UNL     1     -33.656  16.333  -5.561  1.00 20.00     0.123 C 
HETATM    4  C4  UNL     1     -35.529  14.547  -5.780  1.00 20.00     0.296 C 
HETATM    5  C5  UNL     1     -35.927  14.892  -3.401  1.00 20.00     0.296 C 
HETATM    6  C6  UNL     1     -33.742  15.394  -4.356  1.00 20.00     0.296 C 
HETATM    7  N7  UNL     1     -34.941  14.548  -4.433  1.00 20.00     0.133 N 
HETATM    8  S8  UNL     1     -37.568  14.894  -4.167  1.00 20.00    -0.130 SA
HETATM    9  S9  UNL     1     -33.824  16.349  -2.818  1.00 20.00    -0.130 SA
HETATM   10  S10 UNL     1     -34.368  15.365  -6.904  1.00 20.00    -0.130 SA
ENDROOT
TORSDOF 0
ENDMDL
MODEL 9
REMARK VINA RESULT:      -3.4      1.679      2.552
REMARK  0 active torsions:
REMARK  status: ('A' for Active; 'I' for Inactive)
ROOT
HETATM    1  C1  UNL     1     -35.576  16.162  -2.787  1.00 20.00     0.123 C 
HETATM    2  C2  UNL     1     -33.647  16.323  -5.581  1.00 20.00     0.123 C 
HETATM    3  C3  UNL     1     -36.888  15.317  -5.808  1.00 20.00     0.123 C 
HETATM    4  C4  UNL     1     -35.909  14.825  -3.452  1.00 20.00     0.296 C 
HETATM    5  C5  UNL     1     -33.730  15.334  -4.417  1.00 20.00     0.296 C 
HETATM    6  C6  UNL     1     -35.550  14.575  -5.849  1.00 20.00     0.296 C 
HETATM    7  N7  UNL     1     -34.943  14.509  -4.513  1.00 20.00     0.133 N 
HETATM    8  S8  UNL     1     -33.775  16.221  -2.838  1.00 20.00    -0.130 SA
HETATM    9  S9  UNL     1     -34.393  15.425  -6.955  1.00 20.00    -0.130 SA
HETATM   10  S10 UNL     1     -37.562  14.885  -4.193  1.00 20.00    -0.130 SA
ENDROOT
TORSDOF 0
ENDMDL
