MODEL 1
REMARK VINA RESULT:      -4.4      0.000      0.000
REMARK  0 active torsions:
REMARK  status: ('A' for Active; 'I' for Inactive)
ROOT
HETATM    1  C1  UNL     1     -35.164   4.177   4.464  1.00 20.00     0.004 C 
HETATM    2  C2  UNL     1     -35.047   4.345   5.977  1.00 20.00     0.005 C 
HETATM    3  C3  UNL     1     -35.133   5.529   3.748  1.00 20.00     0.042 C 
HETATM    4  C4  UNL     1     -34.276   6.750   6.518  1.00 20.00     0.013 A 
HETATM    5  C5  UNL     1     -33.949   5.283   6.381  1.00 20.00    -0.007 A 
HETATM    6  C6  UNL     1     -33.368   6.286   5.409  1.00 20.00     0.029 A 
HETATM    7  C7  UNL     1     -33.802   6.263   3.970  1.00 20.00     0.117 C 
HETATM    8 CL8  UNL     1     -33.935   7.950   3.384  1.00 20.00    -0.101 Cl
HETATM    9 CL9  UNL     1     -32.500   5.454   3.023  1.00 20.00    -0.101 Cl
ENDROOT
TORSDOF 0
ENDMDL
MODEL 2
REMARK VINA RESULT:      -4.2     12.486     13.430
REMARK  0 active torsions:
REMARK  status: ('A' for Active; 'I' for Inactive)
ROOT
HETATM    1  C1  UNL     1     -34.440  13.332  -4.832  1.00 20.00     0.004 C 
HETATM    2  C2  UNL     1     -33.469  13.584  -3.681  1.00 20.00     0.005 C 
HETATM    3  C3  UNL     1     -35.451  14.472  -4.970  1.00 20.00     0.042 C 
HETATM    4  C4  UNL     1     -33.648  16.049  -2.931  1.00 20.00     0.013 A 
HETATM    5  C5  UNL     1     -32.904  14.973  -3.683  1.00 20.00    -0.007 A 
HETATM    6  C6  UNL     1     -33.577  16.100  -4.434  1.00 20.00     0.029 A 
HETATM    7  C7  UNL     1     -34.766  15.805  -5.306  1.00 20.00     0.117 C 
HETATM    8 CL8  UNL     1     -35.941  17.148  -5.146  1.00 20.00    -0.101 Cl
HETATM    9 CL9  UNL     1     -34.194  15.777  -7.014  1.00 20.00    -0.101 Cl
ENDROOT
TORSDOF 0
ENDMDL
MODEL 3
REMARK VINA RESULT:      -4.2     12.136     13.282
REMARK  0 active torsions:
REMARK  status: ('A' for Active; 'I' for Inactive)
ROOT
HETATM    1  C1  UNL     1     -33.909  15.743  -6.107  1.00 20.00     0.004 C 
HETATM    2  C2  UNL     1     -35.006  14.720  -6.392  1.00 20.00     0.005 C 
HETATM    3  C3  UNL     1     -34.054  16.340  -4.705  1.00 20.00     0.042 C 
HETATM    4  C4  UNL     1     -36.189  14.088  -4.185  1.00 20.00     0.013 A 
HETATM    5  C5  UNL     1     -35.202  13.741  -5.273  1.00 20.00    -0.007 A 
HETATM    6  C6  UNL     1     -34.716  14.035  -3.871  1.00 20.00     0.029 A 
HETATM    7  C7  UNL     1     -33.904  15.273  -3.611  1.00 20.00     0.117 C 
HETATM    8 CL8  UNL     1     -34.389  15.955  -2.028  1.00 20.00    -0.101 Cl
HETATM    9 CL9  UNL     1     -32.177  14.774  -3.487  1.00 20.00    -0.101 Cl
ENDROOT
TORSDOF 0
ENDMDL
MODEL 4
REMARK VINA RESULT:      -4.1     12.061     13.041
REMARK  0 active torsions:
REMARK  status: ('A' for Active; 'I' for Inactive)
ROOT
HETATM    1  C1  UNL     1     -33.324  14.020  -3.702  1.00 20.00     0.004 C 
HETATM    2  C2  UNL     1     -34.469  13.320  -4.431  1.00 20.00     0.005 C 
HETATM    3  C3  UNL     1     -33.381  15.536  -3.899  1.00 20.00     0.042 C 
HETATM    4  C4  UNL     1     -36.238  15.067  -5.131  1.00 20.00     0.013 A 
HETATM    5  C5  UNL     1     -35.800  13.969  -4.194  1.00 20.00    -0.007 A 
HETATM    6  C6  UNL     1     -35.908  15.394  -3.698  1.00 20.00     0.029 A 
HETATM    7  C7  UNL     1     -34.663  16.141  -3.309  1.00 20.00     0.117 C 
HETATM    8 CL8  UNL     1     -34.828  17.845  -3.836  1.00 20.00    -0.101 Cl
HETATM    9 CL9  UNL     1     -34.564  16.131  -1.510  1.00 20.00    -0.101 Cl
ENDROOT
TORSDOF 0
ENDMDL
MODEL 5
REMARK VINA RESULT:      -4.1     12.701     13.891
REMARK  0 active torsions:
REMARK  status: ('A' for Active; 'I' for Inactive)
ROOT
HETATM    1  C1  UNL     1     -33.643  17.044  -3.835  1.00 20.00     0.004 C 
HETATM    2  C2  UNL     1     -33.624  15.876  -2.852  1.00 20.00     0.005 C 
HETATM    3  C3  UNL     1     -33.508  16.559  -5.280  1.00 20.00     0.042 C 
HETATM    4  C4  UNL     1     -33.960  13.662  -4.139  1.00 20.00     0.013 A 
HETATM    5  C5  UNL     1     -34.526  14.750  -3.259  1.00 20.00    -0.007 A 
HETATM    6  C6  UNL     1     -35.007  14.598  -4.685  1.00 20.00     0.029 A 
HETATM    7  C7  UNL     1     -34.684  15.664  -5.695  1.00 20.00     0.117 C 
HETATM    8 CL8  UNL     1     -34.325  14.878  -7.264  1.00 20.00    -0.101 Cl
HETATM    9 CL9  UNL     1     -36.162  16.671  -5.912  1.00 20.00    -0.101 Cl
ENDROOT
TORSDOF 0
ENDMDL
MODEL 6
REMARK VINA RESULT:      -4.1     11.966     13.031
REMARK  0 active torsions:
REMARK  status: ('A' for Active; 'I' for Inactive)
ROOT
HETATM    1  C1  UNL     1     -35.837  16.202  -2.923  1.00 20.00     0.004 C 
HETATM    2  C2  UNL     1     -36.651  15.063  -3.533  1.00 20.00     0.005 C 
HETATM    3  C3  UNL     1     -34.396  15.770  -2.641  1.00 20.00     0.042 C 
HETATM    4  C4  UNL     1     -35.055  13.189  -4.314  1.00 20.00     0.013 A 
HETATM    5  C5  UNL     1     -35.937  14.364  -4.652  1.00 20.00    -0.007 A 
HETATM    6  C6  UNL     1     -34.438  14.467  -4.819  1.00 20.00     0.029 A 
HETATM    7  C7  UNL     1     -33.652  15.387  -3.928  1.00 20.00     0.117 C 
HETATM    8 CL8  UNL     1     -32.096  14.600  -3.517  1.00 20.00    -0.101 Cl
HETATM    9 CL9  UNL     1     -33.280  16.874  -4.876  1.00 20.00    -0.101 Cl
ENDROOT
TORSDOF 0
ENDMDL
MODEL 7
REMARK VINA RESULT:      -4.0     12.126     13.508
REMARK  0 active torsions:
REMARK  status: ('A' for Active; 'I' for Inactive)
ROOT
HETATM    1  C1  UNL     1     -33.775  16.578  -2.256  1.00 20.00     0.004 C 
HETATM    2  C2  UNL     1     -33.764  17.633  -3.360  1.00 20.00     0.005 C 
HETATM    3  C3  UNL     1     -34.728  15.429  -2.591  1.00 20.00     0.042 C 
HETATM    4  C4  UNL     1     -34.896  16.676  -5.475  1.00 20.00     0.013 A 
HETATM    5  C5  UNL     1     -33.635  17.045  -4.733  1.00 20.00    -0.007 A 
HETATM    6  C6  UNL     1     -33.959  15.593  -5.006  1.00 20.00     0.029 A 
HETATM    7  C7  UNL     1     -34.296  14.680  -3.860  1.00 20.00     0.117 C 
HETATM    8 CL8  UNL     1     -35.597  13.564  -4.379  1.00 20.00    -0.101 Cl
HETATM    9 CL9  UNL     1     -32.832  13.689  -3.508  1.00 20.00    -0.101 Cl
ENDROOT
TORSDOF 0
ENDMDL
MODEL 8
REMARK VINA RESULT:      -4.0     12.098     13.472
REMARK  0 active torsions:
REMARK  status: ('A' for Active; 'I' for Inactive)
ROOT
HETATM    1  C1  UNL     1     -36.386  14.323  -4.156  1.00 20.00     0.004 C 
HETATM    2  C2  UNL     1     -36.455  15.097  -5.470  1.00 20.00     0.005 C 
HETATM    3  C3  UNL     1     -34.949  13.918  -3.821  1.00 20.00     0.042 C 
HETATM    4  C4  UNL     1     -34.078  15.834  -6.160  1.00 20.00     0.013 A 
HETATM    5  C5  UNL     1     -35.423  16.180  -5.569  1.00 20.00    -0.007 A 
HETATM    6  C6  UNL     1     -34.187  16.176  -4.697  1.00 20.00     0.029 A 
HETATM    7  C7  UNL     1     -34.044  15.142  -3.616  1.00 20.00     0.117 C 
HETATM    8 CL8  UNL     1     -32.331  14.623  -3.541  1.00 20.00    -0.101 Cl
HETATM    9 CL9  UNL     1     -34.446  15.934  -2.049  1.00 20.00    -0.101 Cl
ENDROOT
TORSDOF 0
ENDMDL
MODEL 9
REMARK VINA RESULT:      -3.9     12.549     13.328
REMARK  0 active torsions:
REMARK  status: ('A' for Active; 'I' for Inactive)
ROOT
HETATM    1  C1  UNL     1     -36.235  15.174  -3.280  1.00 20.00     0.004 C 
HETATM    2  C2  UNL     1     -35.309  16.136  -2.539  1.00 20.00     0.005 C 
HETATM    3  C3  UNL     1     -35.998  15.224  -4.791  1.00 20.00     0.042 C 
HETATM    4  C4  UNL     1     -33.432  16.919  -4.131  1.00 20.00     0.013 A 
HETATM    5  C5  UNL     1     -33.882  16.041  -2.989  1.00 20.00    -0.007 A 
HETATM    6  C6  UNL     1     -33.512  15.427  -4.321  1.00 20.00     0.029 A 
HETATM    7  C7  UNL     1     -34.576  14.779  -5.162  1.00 20.00     0.117 C 
HETATM    8 CL8  UNL     1     -34.253  15.152  -6.884  1.00 20.00    -0.101 Cl
HETATM    9 CL9  UNL     1     -34.426  12.996  -4.949  1.00 20.00    -0.101 Cl
ENDROOT
TORSDOF 0
ENDMDL
