MODEL 1
REMARK VINA RESULT:      -4.7      0.000      0.000
REMARK  0 active torsions:
REMARK  status: ('A' for Active; 'I' for Inactive)
ROOT
HETATM    1  C1  UNL     1     -36.007  15.053  -6.002  1.00 20.00    -0.021 C 
HETATM    2  C2  UNL     1     -34.438  13.281  -4.802  1.00 20.00    -0.021 C 
HETATM    3  C3  UNL     1     -36.281  16.022  -5.093  1.00 20.00    -0.023 C 
HETATM    4  C4  UNL     1     -33.763  13.626  -3.676  1.00 20.00    -0.023 C 
HETATM    5  C5  UNL     1     -34.631  14.421  -5.790  1.00 20.00     0.035 C 
HETATM    6  C6  UNL     1     -35.358  15.786  -3.992  1.00 20.00     0.033 C 
HETATM    7  C7  UNL     1     -33.367  15.084  -3.677  1.00 20.00     0.033 C 
HETATM    8  C8  UNL     1     -34.053  15.533  -4.955  1.00 20.00     0.015 C 
HETATM    9  C9  UNL     1     -34.267  16.284  -3.070  1.00 20.00     0.098 C 
HETATM   10 CL10 UNL     1     -34.574  16.285  -1.301  1.00 20.00    -0.124 Cl
ENDROOT
TORSDOF 0
ENDMDL
MODEL 2
REMARK VINA RESULT:      -4.6      1.056      2.257
REMARK  0 active torsions:
REMARK  status: ('A' for Active; 'I' for Inactive)
ROOT
HETATM    1  C1  UNL     1     -34.386  13.819  -5.134  1.00 20.00    -0.021 C 
HETATM    2  C2  UNL     1     -33.383  16.268  -5.322  1.00 20.00    -0.021 C 
HETATM    3  C3  UNL     1     -34.715  13.622  -3.833  1.00 20.00    -0.023 C 
HETATM    4  C4  UNL     1     -33.629  17.179  -4.345  1.00 20.00    -0.023 C 
HETATM    5  C5  UNL     1     -34.516  15.282  -5.559  1.00 20.00     0.035 C 
HETATM    6  C6  UNL     1     -34.635  14.937  -3.214  1.00 20.00     0.033 C 
HETATM    7  C7  UNL     1     -34.989  16.982  -3.717  1.00 20.00     0.033 C 
HETATM    8  C8  UNL     1     -35.418  15.712  -4.431  1.00 20.00     0.015 C 
HETATM    9  C9  UNL     1     -35.281  16.053  -2.425  1.00 20.00     0.098 C 
HETATM   10 CL10 UNL     1     -34.541  16.539  -0.863  1.00 20.00    -0.124 Cl
ENDROOT
TORSDOF 0
ENDMDL
MODEL 3
REMARK VINA RESULT:      -4.5      1.073      1.786
REMARK  0 active torsions:
REMARK  status: ('A' for Active; 'I' for Inactive)
ROOT
HETATM    1  C1  UNL     1     -33.874  16.127  -6.269  1.00 20.00    -0.021 C 
HETATM    2  C2  UNL     1     -35.926  14.697  -5.383  1.00 20.00    -0.021 C 
HETATM    3  C3  UNL     1     -33.383  16.817  -5.209  1.00 20.00    -0.023 C 
HETATM    4  C4  UNL     1     -36.058  14.450  -4.054  1.00 20.00    -0.023 C 
HETATM    5  C5  UNL     1     -34.487  14.786  -5.864  1.00 20.00     0.035 C 
HETATM    6  C6  UNL     1     -34.022  16.230  -4.040  1.00 20.00     0.033 C 
HETATM    7  C7  UNL     1     -34.719  14.328  -3.366  1.00 20.00     0.033 C 
HETATM    8  C8  UNL     1     -33.803  14.676  -4.526  1.00 20.00     0.015 C 
HETATM    9  C9  UNL     1     -33.914  15.557  -2.690  1.00 20.00     0.098 C 
HETATM   10 CL10 UNL     1     -34.661  16.362  -1.269  1.00 20.00    -0.124 Cl
ENDROOT
TORSDOF 0
ENDMDL
MODEL 4
REMARK VINA RESULT:      -4.5      1.920      3.124
REMARK  0 active torsions:
REMARK  status: ('A' for Active; 'I' for Inactive)
ROOT
HETATM    1  C1  UNL     1     -33.668  16.319  -2.292  1.00 20.00    -0.021 C 
HETATM    2  C2  UNL     1     -33.465  15.973  -4.914  1.00 20.00    -0.021 C 
HETATM    3  C3  UNL     1     -34.967  16.111  -1.961  1.00 20.00    -0.023 C 
HETATM    4  C4  UNL     1     -34.430  15.291  -5.585  1.00 20.00    -0.023 C 
HETATM    5  C5  UNL     1     -33.226  15.485  -3.495  1.00 20.00     0.035 C 
HETATM    6  C6  UNL     1     -35.572  15.516  -3.144  1.00 20.00     0.033 C 
HETATM    7  C7  UNL     1     -35.043  14.200  -4.740  1.00 20.00     0.033 C 
HETATM    8  C8  UNL     1     -34.337  14.470  -3.423  1.00 20.00     0.015 C 
HETATM    9  C9  UNL     1     -36.342  14.388  -3.793  1.00 20.00     0.098 C 
HETATM   10 CL10 UNL     1     -37.907  14.763  -4.588  1.00 20.00    -0.124 Cl
ENDROOT
TORSDOF 0
ENDMDL
MODEL 5
REMARK VINA RESULT:      -4.5     12.016     13.563
REMARK  0 active torsions:
REMARK  status: ('A' for Active; 'I' for Inactive)
ROOT
HETATM    1  C1  UNL     1     -34.414   6.083   7.017  1.00 20.00    -0.021 C 
HETATM    2  C2  UNL     1     -34.791   3.872   5.599  1.00 20.00    -0.021 C 
HETATM    3  C3  UNL     1     -33.555   6.864   6.315  1.00 20.00    -0.023 C 
HETATM    4  C4  UNL     1     -34.494   3.856   4.274  1.00 20.00    -0.023 C 
HETATM    5  C5  UNL     1     -35.289   5.213   6.114  1.00 20.00     0.035 C 
HETATM    6  C6  UNL     1     -33.476   6.256   4.994  1.00 20.00     0.033 C 
HETATM    7  C7  UNL     1     -34.729   5.200   3.626  1.00 20.00     0.033 C 
HETATM    8  C8  UNL     1     -35.094   6.015   4.854  1.00 20.00     0.015 C 
HETATM    9  C9  UNL     1     -33.615   6.366   3.493  1.00 20.00     0.098 C 
HETATM   10 CL10 UNL     1     -32.177   6.035   2.471  1.00 20.00    -0.124 Cl
ENDROOT
TORSDOF 0
ENDMDL
MODEL 6
REMARK VINA RESULT:      -4.5      1.906      2.703
REMARK  0 active torsions:
REMARK  status: ('A' for Active; 'I' for Inactive)
ROOT
HETATM    1  C1  UNL     1     -35.034  13.422  -4.688  1.00 20.00    -0.021 C 
HETATM    2  C2  UNL     1     -35.272  15.190  -2.724  1.00 20.00    -0.021 C 
HETATM    3  C3  UNL     1     -34.644  14.106  -5.793  1.00 20.00    -0.023 C 
HETATM    4  C4  UNL     1     -34.664  16.400  -2.822  1.00 20.00    -0.023 C 
HETATM    5  C5  UNL     1     -34.518  14.053  -3.394  1.00 20.00     0.035 C 
HETATM    6  C6  UNL     1     -34.261  15.425  -5.312  1.00 20.00     0.033 C 
HETATM    7  C7  UNL     1     -33.367  16.320  -3.592  1.00 20.00     0.033 C 
HETATM    8  C8  UNL     1     -33.415  14.864  -4.022  1.00 20.00     0.015 C 
HETATM    9  C9  UNL     1     -33.231  16.526  -5.191  1.00 20.00     0.098 C 
HETATM   10 CL10 UNL     1     -33.623  18.145  -5.861  1.00 20.00    -0.124 Cl
ENDROOT
TORSDOF 0
ENDMDL
MODEL 7
REMARK VINA RESULT:      -4.5     11.556     12.496
REMARK  0 active torsions:
REMARK  status: ('A' for Active; 'I' for Inactive)
ROOT
HETATM    1  C1  UNL     1     -42.629   7.806  -2.429  1.00 20.00    -0.021 C 
HETATM    2  C2  UNL     1     -40.854   6.925  -0.664  1.00 20.00    -0.021 C 
HETATM    3  C3  UNL     1     -42.884   6.782  -3.282  1.00 20.00    -0.023 C 
HETATM    4  C4  UNL     1     -40.673   5.591  -0.492  1.00 20.00    -0.023 C 
HETATM    5  C5  UNL     1     -42.277   7.324  -1.021  1.00 20.00     0.035 C 
HETATM    6  C6  UNL     1     -42.291   5.607  -2.659  1.00 20.00     0.033 C 
HETATM    7  C7  UNL     1     -41.951   4.814  -0.706  1.00 20.00     0.033 C 
HETATM    8  C8  UNL     1     -42.863   5.942  -1.156  1.00 20.00     0.015 C 
HETATM    9  C9  UNL     1     -42.429   4.200  -2.124  1.00 20.00     0.098 C 
HETATM   10 CL10 UNL     1     -41.424   2.903  -2.853  1.00 20.00    -0.124 Cl
ENDROOT
TORSDOF 0
ENDMDL
MODEL 8
REMARK VINA RESULT:      -4.5      2.308      3.288
REMARK  0 active torsions:
REMARK  status: ('A' for Active; 'I' for Inactive)
ROOT
HETATM    1  C1  UNL     1     -33.416  16.251  -3.272  1.00 20.00    -0.021 C 
HETATM    2  C2  UNL     1     -34.136  13.707  -3.492  1.00 20.00    -0.021 C 
HETATM    3  C3  UNL     1     -33.445  16.782  -4.520  1.00 20.00    -0.023 C 
HETATM    4  C4  UNL     1     -34.801  13.282  -4.597  1.00 20.00    -0.023 C 
HETATM    5  C5  UNL     1     -34.447  15.137  -3.083  1.00 20.00     0.035 C 
HETATM    6  C6  UNL     1     -34.132  15.795  -5.341  1.00 20.00     0.033 C 
HETATM    7  C7  UNL     1     -35.700  14.357  -5.163  1.00 20.00     0.033 C 
HETATM    8  C8  UNL     1     -35.325  15.510  -4.249  1.00 20.00     0.015 C 
HETATM    9  C9  UNL     1     -35.255  15.432  -6.287  1.00 20.00     0.098 C 
HETATM   10 CL10 UNL     1     -34.835  14.810  -7.918  1.00 20.00    -0.124 Cl
ENDROOT
TORSDOF 0
ENDMDL
MODEL 9
REMARK VINA RESULT:      -4.5      1.857      3.187
REMARK  0 active torsions:
REMARK  status: ('A' for Active; 'I' for Inactive)
ROOT
HETATM    1  C1  UNL     1     -33.505  13.805  -3.825  1.00 20.00    -0.021 C 
HETATM    2  C2  UNL     1     -34.282  15.830  -2.296  1.00 20.00    -0.021 C 
HETATM    3  C3  UNL     1     -34.627  13.234  -4.330  1.00 20.00    -0.023 C 
HETATM    4  C4  UNL     1     -35.527  16.351  -2.442  1.00 20.00    -0.023 C 
HETATM    5  C5  UNL     1     -33.667  15.307  -3.584  1.00 20.00     0.035 C 
HETATM    6  C6  UNL     1     -35.701  14.171  -4.032  1.00 20.00     0.033 C 
HETATM    7  C7  UNL     1     -36.008  16.277  -3.872  1.00 20.00     0.033 C 
HETATM    8  C8  UNL     1     -34.856  15.503  -4.488  1.00 20.00     0.015 C 
HETATM    9  C9  UNL     1     -36.843  15.043  -4.501  1.00 20.00     0.098 C 
HETATM   10 CL10 UNL     1     -38.486  14.729  -3.848  1.00 20.00    -0.124 Cl
ENDROOT
TORSDOF 0
ENDMDL
