MODEL 1
REMARK VINA RESULT:      -4.6      0.000      0.000
REMARK  1 active torsions:
REMARK  status: ('A' for Active; 'I' for Inactive)
REMARK    1  A    between atoms: C7_7  and  C8_8 
ROOT
HETATM    1  C1  UNL     1     -35.147   4.472   4.956  1.00 20.00    -0.026 C 
HETATM    2  C2  UNL     1     -34.171   5.043   5.677  1.00 20.00    -0.025 C 
HETATM    3  C3  UNL     1     -35.106   6.710   4.383  1.00 20.00     0.017 C 
HETATM    4  C4  UNL     1     -34.156   5.208   2.810  1.00 20.00     0.014 C 
HETATM    5  C5  UNL     1     -35.377   5.345   3.746  1.00 20.00     0.009 C 
HETATM    6  C6  UNL     1     -33.739   6.290   4.938  1.00 20.00     0.013 C 
HETATM    7  C7  UNL     1     -32.997   5.826   3.657  1.00 20.00     0.007 C 
ENDROOT
BRANCH   7   8
HETATM    8  C8  UNL     1     -32.292   6.964   2.930  1.00 20.00     0.119 C 
HETATM    9 CL9  UNL     1     -31.217   7.830   4.044  1.00 20.00    -0.130 Cl
ENDBRANCH   7   8
TORSDOF 1
ENDMDL
MODEL 2
REMARK VINA RESULT:      -4.3     11.291     12.439
REMARK  1 active torsions:
REMARK  status: ('A' for Active; 'I' for Inactive)
REMARK    1  A    between atoms: C7_7  and  C8_8 
ROOT
HETATM    1  C1  UNL     1     -34.406  13.892  -5.161  1.00 20.00    -0.026 C 
HETATM    2  C2  UNL     1     -34.737  13.616  -3.891  1.00 20.00    -0.025 C 
HETATM    3  C3  UNL     1     -35.649  15.678  -4.385  1.00 20.00     0.017 C 
HETATM    4  C4  UNL     1     -33.305  16.020  -4.537  1.00 20.00     0.014 C 
HETATM    5  C5  UNL     1     -34.476  15.391  -5.325  1.00 20.00     0.009 C 
HETATM    6  C6  UNL     1     -35.013  14.935  -3.204  1.00 20.00     0.013 C 
HETATM    7  C7  UNL     1     -33.651  15.664  -3.056  1.00 20.00     0.007 C 
ENDROOT
BRANCH   7   8
HETATM    8  C8  UNL     1     -33.729  16.898  -2.166  1.00 20.00     0.119 C 
HETATM    9 CL9  UNL     1     -34.683  16.547  -0.713  1.00 20.00    -0.130 Cl
ENDBRANCH   7   8
TORSDOF 1
ENDMDL
MODEL 3
REMARK VINA RESULT:      -4.2      9.023     10.222
REMARK  1 active torsions:
REMARK  status: ('A' for Active; 'I' for Inactive)
REMARK    1  A    between atoms: C7_7  and  C8_8 
ROOT
HETATM    1  C1  UNL     1     -40.954   7.131  -0.758  1.00 20.00    -0.026 C 
HETATM    2  C2  UNL     1     -41.977   7.172  -1.626  1.00 20.00    -0.025 C 
HETATM    3  C3  UNL     1     -42.554   5.655   0.016  1.00 20.00     0.017 C 
HETATM    4  C4  UNL     1     -40.659   4.689  -1.037  1.00 20.00     0.014 C 
HETATM    5  C5  UNL     1     -41.032   5.806  -0.038  1.00 20.00     0.009 C 
HETATM    6  C6  UNL     1     -42.728   5.865  -1.493  1.00 20.00     0.013 C 
HETATM    7  C7  UNL     1     -41.818   4.756  -2.083  1.00 20.00     0.007 C 
ENDROOT
BRANCH   7   8
HETATM    8  C8  UNL     1     -42.532   3.420  -2.243  1.00 20.00     0.119 C 
HETATM    9 CL9  UNL     1     -41.558   2.318  -3.234  1.00 20.00    -0.130 Cl
ENDBRANCH   7   8
TORSDOF 1
ENDMDL
MODEL 4
REMARK VINA RESULT:      -4.2     11.874     12.902
REMARK  1 active torsions:
REMARK  status: ('A' for Active; 'I' for Inactive)
REMARK    1  A    between atoms: C7_7  and  C8_8 
ROOT
HETATM    1  C1  UNL     1     -33.669  16.102  -2.677  1.00 20.00    -0.026 C 
HETATM    2  C2  UNL     1     -34.868  15.512  -2.552  1.00 20.00    -0.025 C 
HETATM    3  C3  UNL     1     -33.532  14.060  -3.750  1.00 20.00     0.017 C 
HETATM    4  C4  UNL     1     -33.728  15.969  -5.148  1.00 20.00     0.014 C 
HETATM    5  C5  UNL     1     -32.993  15.487  -3.878  1.00 20.00     0.009 C 
HETATM    6  C6  UNL     1     -34.995  14.514  -3.682  1.00 20.00     0.013 C 
HETATM    7  C7  UNL     1     -35.145  15.329  -4.994  1.00 20.00     0.007 C 
ENDROOT
BRANCH   7   8
HETATM    8  C8  UNL     1     -35.525  14.467  -6.191  1.00 20.00     0.119 C 
HETATM    9 CL9  UNL     1     -34.419  14.775  -7.543  1.00 20.00    -0.130 Cl
ENDBRANCH   7   8
TORSDOF 1
ENDMDL
MODEL 5
REMARK VINA RESULT:      -4.2     11.464     12.566
REMARK  1 active torsions:
REMARK  status: ('A' for Active; 'I' for Inactive)
REMARK    1  A    between atoms: C7_7  and  C8_8 
ROOT
HETATM    1  C1  UNL     1     -34.551  14.320  -5.167  1.00 20.00    -0.026 C 
HETATM    2  C2  UNL     1     -33.939  15.462  -5.515  1.00 20.00    -0.025 C 
HETATM    3  C3  UNL     1     -32.863  14.675  -3.630  1.00 20.00     0.017 C 
HETATM    4  C4  UNL     1     -35.068  15.150  -2.893  1.00 20.00     0.014 C 
HETATM    5  C5  UNL     1     -34.278  14.096  -3.699  1.00 20.00     0.009 C 
HETATM    6  C6  UNL     1     -33.270  16.007  -4.273  1.00 20.00     0.013 C 
HETATM    7  C7  UNL     1     -34.398  16.494  -3.325  1.00 20.00     0.007 C 
ENDROOT
BRANCH   7   8
HETATM    8  C8  UNL     1     -33.876  17.290  -2.135  1.00 20.00     0.119 C 
HETATM    9 CL9  UNL     1     -34.551  16.648  -0.626  1.00 20.00    -0.130 Cl
ENDBRANCH   7   8
TORSDOF 1
ENDMDL
MODEL 6
REMARK VINA RESULT:      -4.0     12.046     12.900
REMARK  1 active torsions:
REMARK  status: ('A' for Active; 'I' for Inactive)
REMARK    1  A    between atoms: C7_7  and  C8_8 
ROOT
HETATM    1  C1  UNL     1     -34.605  16.460  -1.033  1.00 20.00    -0.026 C 
HETATM    2  C2  UNL     1     -33.694  17.360  -1.436  1.00 20.00    -0.025 C 
HETATM    3  C3  UNL     1     -35.378  17.361  -3.015  1.00 20.00     0.017 C 
HETATM    4  C4  UNL     1     -34.451  15.180  -3.146  1.00 20.00     0.014 C 
HETATM    5  C5  UNL     1     -35.381  16.032  -2.255  1.00 20.00     0.009 C 
HETATM    6  C6  UNL     1     -33.854  17.519  -2.932  1.00 20.00     0.013 C 
HETATM    7  C7  UNL     1     -33.355  16.203  -3.585  1.00 20.00     0.007 C 
ENDROOT
BRANCH   7   8
HETATM    8  C8  UNL     1     -33.227  16.301  -5.100  1.00 20.00     0.119 C 
HETATM    9 CL9  UNL     1     -34.292  15.117  -5.882  1.00 20.00    -0.130 Cl
ENDBRANCH   7   8
TORSDOF 1
ENDMDL
MODEL 7
REMARK VINA RESULT:      -3.9     11.667     12.880
REMARK  1 active torsions:
REMARK  status: ('A' for Active; 'I' for Inactive)
REMARK    1  A    between atoms: C7_7  and  C8_8 
ROOT
HETATM    1  C1  UNL     1     -33.306  13.702  -3.666  1.00 20.00    -0.026 C 
HETATM    2  C2  UNL     1     -33.014  15.009  -3.738  1.00 20.00    -0.025 C 
HETATM    3  C3  UNL     1     -35.304  14.849  -3.494  1.00 20.00     0.017 C 
HETATM    4  C4  UNL     1     -34.863  13.821  -5.587  1.00 20.00     0.014 C 
HETATM    5  C5  UNL     1     -34.752  13.544  -4.072  1.00 20.00     0.009 C 
HETATM    6  C6  UNL     1     -34.263  15.721  -4.208  1.00 20.00     0.013 C 
HETATM    7  C7  UNL     1     -34.477  15.331  -5.694  1.00 20.00     0.007 C 
ENDROOT
BRANCH   7   8
HETATM    8  C8  UNL     1     -35.559  16.158  -6.378  1.00 20.00     0.119 C 
HETATM    9 CL9  UNL     1     -36.930  15.124  -6.823  1.00 20.00    -0.130 Cl
ENDBRANCH   7   8
TORSDOF 1
ENDMDL
MODEL 8
REMARK VINA RESULT:      -3.9     11.670     12.928
REMARK  1 active torsions:
REMARK  status: ('A' for Active; 'I' for Inactive)
REMARK    1  A    between atoms: C7_7  and  C8_8 
ROOT
HETATM    1  C1  UNL     1     -34.414  13.209  -4.765  1.00 20.00    -0.026 C 
HETATM    2  C2  UNL     1     -33.691  13.614  -3.710  1.00 20.00    -0.025 C 
HETATM    3  C3  UNL     1     -35.544  14.987  -3.815  1.00 20.00     0.017 C 
HETATM    4  C4  UNL     1     -34.356  15.449  -5.817  1.00 20.00     0.014 C 
HETATM    5  C5  UNL     1     -35.273  14.375  -5.191  1.00 20.00     0.009 C 
HETATM    6  C6  UNL     1     -34.057  15.058  -3.444  1.00 20.00     0.013 C 
HETATM    7  C7  UNL     1     -33.471  15.897  -4.609  1.00 20.00     0.007 C 
ENDROOT
BRANCH   7   8
HETATM    8  C8  UNL     1     -33.548  17.399  -4.361  1.00 20.00     0.119 C 
HETATM    9 CL9  UNL     1     -33.590  18.273  -5.903  1.00 20.00    -0.130 Cl
ENDBRANCH   7   8
TORSDOF 1
ENDMDL
MODEL 9
REMARK VINA RESULT:      -3.9     11.541     12.579
REMARK  1 active torsions:
REMARK  status: ('A' for Active; 'I' for Inactive)
REMARK    1  A    between atoms: C7_7  and  C8_8 
ROOT
HETATM    1  C1  UNL     1     -33.413  13.723  -3.737  1.00 20.00    -0.026 C 
HETATM    2  C2  UNL     1     -34.689  13.470  -4.065  1.00 20.00    -0.025 C 
HETATM    3  C3  UNL     1     -34.164  15.526  -4.971  1.00 20.00     0.017 C 
HETATM    4  C4  UNL     1     -33.997  15.857  -2.627  1.00 20.00     0.014 C 
HETATM    5  C5  UNL     1     -33.224  15.220  -3.803  1.00 20.00     0.009 C 
HETATM    6  C6  UNL     1     -35.355  14.801  -4.333  1.00 20.00     0.013 C 
HETATM    7  C7  UNL     1     -35.485  15.527  -2.969  1.00 20.00     0.007 C 
ENDROOT
BRANCH   7   8
HETATM    8  C8  UNL     1     -36.354  16.777  -3.038  1.00 20.00     0.119 C 
HETATM    9 CL9  UNL     1     -35.364  18.227  -2.787  1.00 20.00    -0.130 Cl
ENDBRANCH   7   8
TORSDOF 1
ENDMDL
