MODEL 1
REMARK VINA RESULT:      -5.2      0.000      0.000
REMARK  0 active torsions:
REMARK  status: ('A' for Active; 'I' for Inactive)
ROOT
HETATM    1  C1  UNL     1     -34.097  16.323  -2.885  1.00 20.00    -0.080 C 
HETATM    2  C2  UNL     1     -34.473  16.260  -1.603  1.00 20.00     0.015 C 
HETATM    3  C3  UNL     1     -33.973  17.599  -3.671  1.00 20.00     0.043 C 
HETATM    4  C4  UNL     1     -34.848  13.526  -5.250  1.00 20.00     0.002 C 
HETATM    5  C5  UNL     1     -34.582  14.752  -6.118  1.00 20.00     0.006 C 
HETATM    6  C6  UNL     1     -34.923  14.068  -3.830  1.00 20.00     0.014 C 
HETATM    7  C7  UNL     1     -33.844  15.756  -5.220  1.00 20.00     0.006 C 
HETATM    8  C8  UNL     1     -33.828  15.143  -3.791  1.00 20.00    -0.017 C 
HETATM    9  C9  UNL     1     -34.454  17.183  -5.076  1.00 20.00    -0.040 C 
HETATM   10  C10 UNL     1     -32.456  14.528  -3.472  1.00 20.00     0.020 C 
HETATM   11  C11 UNL     1     -33.888  18.128  -6.146  1.00 20.00     0.015 C 
HETATM   12  C12 UNL     1     -35.993  17.256  -5.138  1.00 20.00     0.015 C 
ENDROOT
TORSDOF 0
ENDMDL
MODEL 2
REMARK VINA RESULT:      -5.0      1.530      3.535
REMARK  0 active torsions:
REMARK  status: ('A' for Active; 'I' for Inactive)
ROOT
HETATM    1  C1  UNL     1     -34.927  14.968  -5.648  1.00 20.00    -0.080 C 
HETATM    2  C2  UNL     1     -34.245  15.147  -6.785  1.00 20.00     0.015 C 
HETATM    3  C3  UNL     1     -36.423  14.830  -5.568  1.00 20.00     0.043 C 
HETATM    4  C4  UNL     1     -33.678  16.371  -2.415  1.00 20.00     0.002 C 
HETATM    5  C5  UNL     1     -35.168  16.111  -2.214  1.00 20.00     0.006 C 
HETATM    6  C6  UNL     1     -33.449  16.168  -3.906  1.00 20.00     0.014 C 
HETATM    7  C7  UNL     1     -35.583  15.140  -3.330  1.00 20.00     0.006 C 
HETATM    8  C8  UNL     1     -34.344  14.971  -4.253  1.00 20.00    -0.017 C 
HETATM    9  C9  UNL     1     -36.764  15.563  -4.255  1.00 20.00    -0.040 C 
HETATM   10  C10 UNL     1     -33.627  13.640  -3.973  1.00 20.00     0.020 C 
HETATM   11  C11 UNL     1     -38.103  15.070  -3.689  1.00 20.00     0.015 C 
HETATM   12  C12 UNL     1     -36.885  17.076  -4.524  1.00 20.00     0.015 C 
ENDROOT
TORSDOF 0
ENDMDL
MODEL 3
REMARK VINA RESULT:      -4.9      1.524      2.013
REMARK  0 active torsions:
REMARK  status: ('A' for Active; 'I' for Inactive)
ROOT
HETATM    1  C1  UNL     1     -35.035  16.258  -2.726  1.00 20.00    -0.080 C 
HETATM    2  C2  UNL     1     -34.670  16.285  -1.439  1.00 20.00     0.015 C 
HETATM    3  C3  UNL     1     -36.211  17.006  -3.291  1.00 20.00     0.043 C 
HETATM    4  C4  UNL     1     -34.404  13.240  -4.841  1.00 20.00     0.002 C 
HETATM    5  C5  UNL     1     -35.499  14.031  -5.550  1.00 20.00     0.006 C 
HETATM    6  C6  UNL     1     -34.252  13.920  -3.487  1.00 20.00     0.014 C 
HETATM    7  C7  UNL     1     -35.445  15.450  -4.965  1.00 20.00     0.006 C 
HETATM    8  C8  UNL     1     -34.405  15.412  -3.809  1.00 20.00    -0.017 C 
HETATM    9  C9  UNL     1     -36.756  16.031  -4.355  1.00 20.00    -0.040 C 
HETATM   10  C10 UNL     1     -33.067  16.026  -4.254  1.00 20.00     0.020 C 
HETATM   11  C11 UNL     1     -37.564  16.786  -5.419  1.00 20.00     0.015 C 
HETATM   12  C12 UNL     1     -37.689  15.003  -3.685  1.00 20.00     0.015 C 
ENDROOT
TORSDOF 0
ENDMDL
MODEL 4
REMARK VINA RESULT:      -4.9      1.031      3.415
REMARK  0 active torsions:
REMARK  status: ('A' for Active; 'I' for Inactive)
ROOT
HETATM    1  C1  UNL     1     -34.808  16.235  -2.257  1.00 20.00    -0.080 C 
HETATM    2  C2  UNL     1     -34.697  16.642  -0.987  1.00 20.00     0.015 C 
HETATM    3  C3  UNL     1     -34.801  14.795  -2.690  1.00 20.00     0.043 C 
HETATM    4  C4  UNL     1     -33.526  18.339  -5.070  1.00 20.00     0.002 C 
HETATM    5  C5  UNL     1     -33.641  16.921  -5.622  1.00 20.00     0.006 C 
HETATM    6  C6  UNL     1     -33.753  18.189  -3.572  1.00 20.00     0.014 C 
HETATM    7  C7  UNL     1     -34.569  16.165  -4.660  1.00 20.00     0.006 C 
HETATM    8  C8  UNL     1     -34.859  17.129  -3.475  1.00 20.00    -0.017 C 
HETATM    9  C9  UNL     1     -34.036  14.844  -4.028  1.00 20.00    -0.040 C 
HETATM   10  C10 UNL     1     -36.252  17.764  -3.611  1.00 20.00     0.020 C 
HETATM   11  C11 UNL     1     -34.395  13.636  -4.904  1.00 20.00     0.015 C 
HETATM   12  C12 UNL     1     -32.518  14.804  -3.758  1.00 20.00     0.015 C 
ENDROOT
TORSDOF 0
ENDMDL
MODEL 5
REMARK VINA RESULT:      -4.8      1.328      3.216
REMARK  0 active torsions:
REMARK  status: ('A' for Active; 'I' for Inactive)
ROOT
HETATM    1  C1  UNL     1     -34.321  14.298  -3.869  1.00 20.00    -0.080 C 
HETATM    2  C2  UNL     1     -33.328  13.411  -3.736  1.00 20.00     0.015 C 
HETATM    3  C3  UNL     1     -35.753  13.933  -4.147  1.00 20.00     0.043 C 
HETATM    4  C4  UNL     1     -33.672  17.723  -5.222  1.00 20.00     0.002 C 
HETATM    5  C5  UNL     1     -35.168  17.478  -5.395  1.00 20.00     0.006 C 
HETATM    6  C6  UNL     1     -33.106  16.373  -4.806  1.00 20.00     0.014 C 
HETATM    7  C7  UNL     1     -35.518  16.312  -4.458  1.00 20.00     0.006 C 
HETATM    8  C8  UNL     1     -34.174  15.803  -3.864  1.00 20.00    -0.017 C 
HETATM    9  C9  UNL     1     -36.220  15.068  -5.081  1.00 20.00    -0.040 C 
HETATM   10  C10 UNL     1     -33.980  16.314  -2.427  1.00 20.00     0.020 C 
HETATM   11  C11 UNL     1     -37.747  15.221  -5.030  1.00 20.00     0.015 C 
HETATM   12  C12 UNL     1     -35.820  14.740  -6.534  1.00 20.00     0.015 C 
ENDROOT
TORSDOF 0
ENDMDL
MODEL 6
REMARK VINA RESULT:      -4.8      1.553      3.403
REMARK  0 active torsions:
REMARK  status: ('A' for Active; 'I' for Inactive)
ROOT
HETATM    1  C1  UNL     1     -36.885  15.440  -4.372  1.00 20.00    -0.080 C 
HETATM    2  C2  UNL     1     -37.987  15.069  -3.710  1.00 20.00     0.015 C 
HETATM    3  C3  UNL     1     -36.541  14.993  -5.767  1.00 20.00     0.043 C 
HETATM    4  C4  UNL     1     -33.715  16.216  -2.547  1.00 20.00     0.002 C 
HETATM    5  C5  UNL     1     -33.311  15.923  -3.989  1.00 20.00     0.006 C 
HETATM    6  C6  UNL     1     -35.182  15.820  -2.470  1.00 20.00     0.014 C 
HETATM    7  C7  UNL     1     -34.593  16.054  -4.825  1.00 20.00     0.006 C 
HETATM    8  C8  UNL     1     -35.756  16.279  -3.817  1.00 20.00    -0.017 C 
HETATM    9  C9  UNL     1     -35.008  14.840  -5.708  1.00 20.00    -0.040 C 
HETATM   10  C10 UNL     1     -36.166  17.760  -3.772  1.00 20.00     0.020 C 
HETATM   11  C11 UNL     1     -34.397  14.953  -7.112  1.00 20.00     0.015 C 
HETATM   12  C12 UNL     1     -34.648  13.452  -5.140  1.00 20.00     0.015 C 
ENDROOT
TORSDOF 0
ENDMDL
MODEL 7
REMARK VINA RESULT:      -4.8      1.405      2.895
REMARK  0 active torsions:
REMARK  status: ('A' for Active; 'I' for Inactive)
ROOT
HETATM    1  C1  UNL     1     -33.775  14.541  -3.940  1.00 20.00    -0.080 C 
HETATM    2  C2  UNL     1     -33.319  13.291  -3.796  1.00 20.00     0.015 C 
HETATM    3  C3  UNL     1     -33.072  15.765  -3.420  1.00 20.00     0.043 C 
HETATM    4  C4  UNL     1     -37.443  15.244  -4.106  1.00 20.00     0.002 C 
HETATM    5  C5  UNL     1     -36.778  16.563  -3.724  1.00 20.00     0.006 C 
HETATM    6  C6  UNL     1     -36.333  14.208  -4.002  1.00 20.00     0.014 C 
HETATM    7  C7  UNL     1     -35.295  16.412  -4.093  1.00 20.00     0.006 C 
HETATM    8  C8  UNL     1     -35.100  14.939  -4.549  1.00 20.00    -0.017 C 
HETATM    9  C9  UNL     1     -34.241  16.666  -2.973  1.00 20.00    -0.040 C 
HETATM   10  C10 UNL     1     -35.031  14.843  -6.083  1.00 20.00     0.020 C 
HETATM   11  C11 UNL     1     -33.814  18.140  -2.951  1.00 20.00     0.015 C 
HETATM   12  C12 UNL     1     -34.681  16.274  -1.548  1.00 20.00     0.015 C 
ENDROOT
TORSDOF 0
ENDMDL
MODEL 8
REMARK VINA RESULT:      -4.7      1.458      3.256
REMARK  0 active torsions:
REMARK  status: ('A' for Active; 'I' for Inactive)
ROOT
HETATM    1  C1  UNL     1     -36.414  16.709  -4.537  1.00 20.00    -0.080 C 
HETATM    2  C2  UNL     1     -36.862  17.386  -5.601  1.00 20.00     0.015 C 
HETATM    3  C3  UNL     1     -35.860  17.350  -3.295  1.00 20.00     0.043 C 
HETATM    4  C4  UNL     1     -34.886  13.318  -4.920  1.00 20.00     0.002 C 
HETATM    5  C5  UNL     1     -34.407  13.847  -3.572  1.00 20.00     0.006 C 
HETATM    6  C6  UNL     1     -35.561  14.510  -5.584  1.00 20.00     0.014 C 
HETATM    7  C7  UNL     1     -35.359  14.994  -3.203  1.00 20.00     0.006 C 
HETATM    8  C8  UNL     1     -36.292  15.206  -4.429  1.00 20.00    -0.017 C 
HETATM    9  C9  UNL     1     -34.729  16.384  -2.887  1.00 20.00    -0.040 C 
HETATM   10  C10 UNL     1     -37.673  14.576  -4.184  1.00 20.00     0.020 C 
HETATM   11  C11 UNL     1     -34.417  16.514  -1.390  1.00 20.00     0.015 C 
HETATM   12  C12 UNL     1     -33.448  16.726  -3.674  1.00 20.00     0.015 C 
ENDROOT
TORSDOF 0
ENDMDL
MODEL 9
REMARK VINA RESULT:      -4.7      1.380      3.756
REMARK  0 active torsions:
REMARK  status: ('A' for Active; 'I' for Inactive)
ROOT
HETATM    1  C1  UNL     1     -36.483  14.895  -4.968  1.00 20.00    -0.080 C 
HETATM    2  C2  UNL     1     -37.799  15.104  -4.846  1.00 20.00     0.015 C 
HETATM    3  C3  UNL     1     -35.703  13.896  -4.159  1.00 20.00     0.043 C 
HETATM    4  C4  UNL     1     -34.184  17.658  -5.999  1.00 20.00     0.002 C 
HETATM    5  C5  UNL     1     -33.307  16.610  -5.321  1.00 20.00     0.006 C 
HETATM    6  C6  UNL     1     -35.610  17.203  -5.723  1.00 20.00     0.014 C 
HETATM    7  C7  UNL     1     -34.128  15.312  -5.308  1.00 20.00     0.006 C 
HETATM    8  C8  UNL     1     -35.538  15.676  -5.853  1.00 20.00    -0.017 C 
HETATM    9  C9  UNL     1     -34.356  14.613  -3.935  1.00 20.00    -0.040 C 
HETATM   10  C10 UNL     1     -35.692  15.234  -7.318  1.00 20.00     0.020 C 
HETATM   11  C11 UNL     1     -33.241  13.599  -3.647  1.00 20.00     0.015 C 
HETATM   12  C12 UNL     1     -34.469  15.558  -2.721  1.00 20.00     0.015 C 
ENDROOT
TORSDOF 0
ENDMDL
