MODEL 1
REMARK VINA RESULT:      -5.1      0.000      0.000
REMARK  0 active torsions:
REMARK  status: ('A' for Active; 'I' for Inactive)
ROOT
HETATM    1  C1  UNL     1     -34.907   3.807   4.646  1.00 20.00    -0.021 C 
HETATM    2  C2  UNL     1     -33.733   5.208   2.935  1.00 20.00    -0.021 C 
HETATM    3  C3  UNL     1     -34.791   4.199   5.923  1.00 20.00    -0.023 C 
HETATM    4  C4  UNL     1     -33.058   6.272   3.391  1.00 20.00    -0.023 C 
HETATM    5  C5  UNL     1     -35.014   4.949   3.678  1.00 20.00     0.035 C 
HETATM    6  C6  UNL     1     -34.810   5.677   6.022  1.00 20.00     0.033 A 
HETATM    7  C7  UNL     1     -33.780   6.908   4.517  1.00 20.00     0.033 A 
HETATM    8  C8  UNL     1     -35.136   6.177   4.600  1.00 20.00     0.015 A 
HETATM    9  C9  UNL     1     -33.434   6.391   5.940  1.00 20.00     0.098 A 
HETATM   10 CL10 UNL     1     -33.070   7.631   7.204  1.00 20.00    -0.124 Cl
ENDROOT
TORSDOF 0
ENDMDL
MODEL 2
REMARK VINA RESULT:      -4.6     12.242     13.459
REMARK  0 active torsions:
REMARK  status: ('A' for Active; 'I' for Inactive)
ROOT
HETATM    1  C1  UNL     1     -33.807  15.980  -5.968  1.00 20.00    -0.021 C 
HETATM    2  C2  UNL     1     -35.846  14.600  -5.515  1.00 20.00    -0.021 C 
HETATM    3  C3  UNL     1     -33.307  16.668  -4.932  1.00 20.00    -0.023 C 
HETATM    4  C4  UNL     1     -36.322  14.626  -4.262  1.00 20.00    -0.023 C 
HETATM    5  C5  UNL     1     -34.345  14.631  -5.586  1.00 20.00     0.035 C 
HETATM    6  C6  UNL     1     -33.422  15.887  -3.679  1.00 20.00     0.033 A 
HETATM    7  C7  UNL     1     -35.212  14.673  -3.281  1.00 20.00     0.033 A 
HETATM    8  C8  UNL     1     -33.924  14.494  -4.110  1.00 20.00     0.015 A 
HETATM    9  C9  UNL     1     -34.724  16.085  -2.859  1.00 20.00     0.098 A 
HETATM   10 CL10 UNL     1     -34.546  16.403  -1.088  1.00 20.00    -0.124 Cl
ENDROOT
TORSDOF 0
ENDMDL
MODEL 3
REMARK VINA RESULT:      -4.6     12.284     13.383
REMARK  0 active torsions:
REMARK  status: ('A' for Active; 'I' for Inactive)
ROOT
HETATM    1  C1  UNL     1     -34.442  13.567  -5.009  1.00 20.00    -0.021 C 
HETATM    2  C2  UNL     1     -33.988  15.683  -6.266  1.00 20.00    -0.021 C 
HETATM    3  C3  UNL     1     -34.326  13.626  -3.674  1.00 20.00    -0.023 C 
HETATM    4  C4  UNL     1     -33.655  16.756  -5.536  1.00 20.00    -0.023 C 
HETATM    5  C5  UNL     1     -35.024  14.812  -5.613  1.00 20.00     0.035 C 
HETATM    6  C6  UNL     1     -34.819  14.925  -3.162  1.00 20.00     0.033 A 
HETATM    7  C7  UNL     1     -34.421  16.784  -4.268  1.00 20.00     0.033 A 
HETATM    8  C8  UNL     1     -35.443  15.635  -4.380  1.00 20.00     0.015 A 
HETATM    9  C9  UNL     1     -33.773  16.066  -3.053  1.00 20.00     0.098 A 
HETATM   10 CL10 UNL     1     -33.703  16.978  -1.494  1.00 20.00    -0.124 Cl
ENDROOT
TORSDOF 0
ENDMDL
MODEL 4
REMARK VINA RESULT:      -4.6     12.367     13.575
REMARK  0 active torsions:
REMARK  status: ('A' for Active; 'I' for Inactive)
ROOT
HETATM    1  C1  UNL     1     -33.076  13.657  -3.571  1.00 20.00    -0.021 C 
HETATM    2  C2  UNL     1     -34.899  13.347  -5.258  1.00 20.00    -0.021 C 
HETATM    3  C3  UNL     1     -32.456  14.846  -3.569  1.00 20.00    -0.023 C 
HETATM    4  C4  UNL     1     -35.154  14.387  -6.064  1.00 20.00    -0.023 C 
HETATM    5  C5  UNL     1     -34.548  13.751  -3.853  1.00 20.00     0.035 C 
HETATM    6  C6  UNL     1     -33.417  15.938  -3.846  1.00 20.00     0.033 A 
HETATM    7  C7  UNL     1     -35.020  15.666  -5.327  1.00 20.00     0.033 A 
HETATM    8  C8  UNL     1     -34.806  15.270  -3.852  1.00 20.00     0.015 A 
HETATM    9  C9  UNL     1     -33.613  16.324  -5.337  1.00 20.00     0.098 A 
HETATM   10 CL10 UNL     1     -33.525  18.080  -5.755  1.00 20.00    -0.124 Cl
ENDROOT
TORSDOF 0
ENDMDL
MODEL 5
REMARK VINA RESULT:      -4.6     12.820     14.056
REMARK  0 active torsions:
REMARK  status: ('A' for Active; 'I' for Inactive)
ROOT
HETATM    1  C1  UNL     1     -34.960  15.608  -2.446  1.00 20.00    -0.021 C 
HETATM    2  C2  UNL     1     -33.816  17.691  -3.233  1.00 20.00    -0.021 C 
HETATM    3  C3  UNL     1     -35.307  14.722  -3.389  1.00 20.00    -0.023 C 
HETATM    4  C4  UNL     1     -33.613  17.802  -4.553  1.00 20.00    -0.023 C 
HETATM    5  C5  UNL     1     -33.649  16.289  -2.718  1.00 20.00     0.035 C 
HETATM    6  C6  UNL     1     -34.277  14.658  -4.453  1.00 20.00     0.033 A 
HETATM    7  C7  UNL     1     -33.271  16.487  -5.144  1.00 20.00     0.033 A 
HETATM    8  C8  UNL     1     -33.111  15.529  -3.946  1.00 20.00     0.015 A 
HETATM    9  C9  UNL     1     -34.460  15.627  -5.651  1.00 20.00     0.098 A 
HETATM   10 CL10 UNL     1     -34.324  14.925  -7.310  1.00 20.00    -0.124 Cl
ENDROOT
TORSDOF 0
ENDMDL
MODEL 6
REMARK VINA RESULT:      -4.5     12.201     13.063
REMARK  0 active torsions:
REMARK  status: ('A' for Active; 'I' for Inactive)
ROOT
HETATM    1  C1  UNL     1     -33.548  13.876  -3.829  1.00 20.00    -0.021 C 
HETATM    2  C2  UNL     1     -33.888  15.945  -2.462  1.00 20.00    -0.021 C 
HETATM    3  C3  UNL     1     -34.653  13.281  -4.301  1.00 20.00    -0.023 C 
HETATM    4  C4  UNL     1     -35.155  16.344  -2.281  1.00 20.00    -0.023 C 
HETATM    5  C5  UNL     1     -33.630  15.375  -3.829  1.00 20.00     0.035 C 
HETATM    6  C6  UNL     1     -35.660  14.290  -4.703  1.00 20.00     0.033 A 
HETATM    7  C7  UNL     1     -35.958  16.109  -3.504  1.00 20.00     0.033 A 
HETATM    8  C8  UNL     1     -34.949  15.652  -4.576  1.00 20.00     0.015 A 
HETATM    9  C9  UNL     1     -36.669  14.733  -3.610  1.00 20.00     0.098 A 
HETATM   10 CL10 UNL     1     -38.421  14.739  -4.055  1.00 20.00    -0.124 Cl
ENDROOT
TORSDOF 0
ENDMDL
MODEL 7
REMARK VINA RESULT:      -4.5      1.758      2.814
REMARK  0 active torsions:
REMARK  status: ('A' for Active; 'I' for Inactive)
ROOT
HETATM    1  C1  UNL     1     -35.667   4.958   4.480  1.00 20.00    -0.021 C 
HETATM    2  C2  UNL     1     -34.492   5.962   6.450  1.00 20.00    -0.021 C 
HETATM    3  C3  UNL     1     -35.311   5.417   3.272  1.00 20.00    -0.023 C 
HETATM    4  C4  UNL     1     -33.573   6.901   6.186  1.00 20.00    -0.023 C 
HETATM    5  C5  UNL     1     -34.518   4.849   5.441  1.00 20.00     0.035 C 
HETATM    6  C6  UNL     1     -33.855   5.686   3.222  1.00 20.00     0.033 A 
HETATM    7  C7  UNL     1     -32.822   6.567   4.953  1.00 20.00     0.033 A 
HETATM    8  C8  UNL     1     -33.294   5.153   4.556  1.00 20.00     0.015 A 
HETATM    9  C9  UNL     1     -33.403   7.116   3.621  1.00 20.00     0.098 A 
HETATM   10 CL10 UNL     1     -32.259   7.963   2.508  1.00 20.00    -0.124 Cl
ENDROOT
TORSDOF 0
ENDMDL
MODEL 8
REMARK VINA RESULT:      -4.5     12.008     13.196
REMARK  0 active torsions:
REMARK  status: ('A' for Active; 'I' for Inactive)
ROOT
HETATM    1  C1  UNL     1     -36.135  15.197  -5.603  1.00 20.00    -0.021 C 
HETATM    2  C2  UNL     1     -34.468  13.438  -4.976  1.00 20.00    -0.021 C 
HETATM    3  C3  UNL     1     -36.419  16.114  -4.668  1.00 20.00    -0.023 C 
HETATM    4  C4  UNL     1     -33.951  13.514  -3.742  1.00 20.00    -0.023 C 
HETATM    5  C5  UNL     1     -34.693  14.781  -5.614  1.00 20.00     0.035 C 
HETATM    6  C6  UNL     1     -35.205  16.471  -3.897  1.00 20.00     0.033 A 
HETATM    7  C7  UNL     1     -33.739  14.926  -3.348  1.00 20.00     0.033 A 
HETATM    8  C8  UNL     1     -34.042  15.755  -4.613  1.00 20.00     0.015 A 
HETATM    9  C9  UNL     1     -34.922  15.627  -2.626  1.00 20.00     0.098 A 
HETATM   10 CL10 UNL     1     -34.545  16.526  -1.104  1.00 20.00    -0.124 Cl
ENDROOT
TORSDOF 0
ENDMDL
MODEL 9
REMARK VINA RESULT:      -4.4     12.736     14.025
REMARK  0 active torsions:
REMARK  status: ('A' for Active; 'I' for Inactive)
ROOT
HETATM    1  C1  UNL     1     -34.489  14.625  -5.768  1.00 20.00    -0.021 C 
HETATM    2  C2  UNL     1     -34.963  14.469  -3.315  1.00 20.00    -0.021 C 
HETATM    3  C3  UNL     1     -34.158  15.836  -6.239  1.00 20.00    -0.023 C 
HETATM    4  C4  UNL     1     -34.858  15.604  -2.610  1.00 20.00    -0.023 C 
HETATM    5  C5  UNL     1     -33.933  14.342  -4.402  1.00 20.00     0.035 C 
HETATM    6  C6  UNL     1     -33.316  16.565  -5.263  1.00 20.00     0.033 A 
HETATM    7  C7  UNL     1     -33.731  16.427  -3.108  1.00 20.00     0.033 A 
HETATM    8  C8  UNL     1     -33.008  15.547  -4.147  1.00 20.00     0.015 A 
HETATM    9  C9  UNL     1     -34.064  17.448  -4.229  1.00 20.00     0.098 A 
HETATM   10 CL10 UNL     1     -33.473  19.142  -4.007  1.00 20.00    -0.124 Cl
ENDROOT
TORSDOF 0
ENDMDL
