MODEL 1
REMARK VINA RESULT:      -3.8      0.000      0.000
REMARK  1 active torsions:
REMARK  status: ('A' for Active; 'I' for Inactive)
REMARK    1  A    between atoms: C1_1  and  C2_2 
ROOT
HETATM    1  C1  UNL     1     -34.648   4.196   5.465  1.00 20.00     0.432 C 
HETATM    2  F3  UNL     1     -35.017   3.274   4.547  1.00 20.00    -0.167 F 
HETATM    3  F4  UNL     1     -35.588   4.191   6.439  1.00 20.00    -0.167 F 
HETATM    4  F5  UNL     1     -33.492   3.769   6.024  1.00 20.00    -0.167 F 
ENDROOT
BRANCH   1   5
HETATM    5  C2  UNL     1     -34.499   5.575   4.850  1.00 20.00     0.267 C 
HETATM    6 CL6  UNL     1     -35.938   5.988   3.887  1.00 20.00    -0.079 Cl
HETATM    7 CL7  UNL     1     -34.250   6.801   6.117  1.00 20.00    -0.079 Cl
HETATM    8 BR8  UNL     1     -32.943   5.592   3.665  1.00 20.00    -0.040 Br
ENDBRANCH   1   5
TORSDOF 1
ENDMDL
MODEL 2
REMARK VINA RESULT:      -3.7      1.521      1.814
REMARK  1 active torsions:
REMARK  status: ('A' for Active; 'I' for Inactive)
REMARK    1  A    between atoms: C1_1  and  C2_2 
ROOT
HETATM    1  C1  UNL     1     -34.657   4.186   5.504  1.00 20.00     0.432 C 
HETATM    2  F3  UNL     1     -35.117   3.295   4.597  1.00 20.00    -0.167 F 
HETATM    3  F4  UNL     1     -35.597   4.294   6.472  1.00 20.00    -0.167 F 
HETATM    4  F5  UNL     1     -33.555   3.648   6.076  1.00 20.00    -0.167 F 
ENDROOT
BRANCH   1   5
HETATM    5  C2  UNL     1     -34.360   5.533   4.871  1.00 20.00     0.267 C 
HETATM    6 CL6  UNL     1     -32.940   5.422   3.804  1.00 20.00    -0.079 Cl
HETATM    7 CL7  UNL     1     -35.766   6.108   3.943  1.00 20.00    -0.079 Cl
HETATM    8 BR8  UNL     1     -33.974   6.839   6.274  1.00 20.00    -0.040 Br
ENDBRANCH   1   5
TORSDOF 1
ENDMDL
MODEL 3
REMARK VINA RESULT:      -3.7     13.193     13.690
REMARK  1 active torsions:
REMARK  status: ('A' for Active; 'I' for Inactive)
REMARK    1  A    between atoms: C1_1  and  C2_2 
ROOT
HETATM    1  C1  UNL     1     -33.747  14.089  -3.965  1.00 20.00     0.432 C 
HETATM    2  F3  UNL     1     -32.429  14.006  -3.671  1.00 20.00    -0.167 F 
HETATM    3  F4  UNL     1     -33.935  13.454  -5.145  1.00 20.00    -0.167 F 
HETATM    4  F5  UNL     1     -34.416  13.387  -3.022  1.00 20.00    -0.167 F 
ENDROOT
BRANCH   1   5
HETATM    5  C2  UNL     1     -34.218  15.530  -4.033  1.00 20.00     0.267 C 
HETATM    6 CL6  UNL     1     -33.113  16.501  -5.036  1.00 20.00    -0.079 Cl
HETATM    7 CL7  UNL     1     -35.867  15.616  -4.697  1.00 20.00    -0.079 Cl
HETATM    8 BR8  UNL     1     -34.240  16.291  -2.232  1.00 20.00    -0.040 Br
ENDBRANCH   1   5
TORSDOF 1
ENDMDL
MODEL 4
REMARK VINA RESULT:      -3.6     13.493     13.948
REMARK  1 active torsions:
REMARK  status: ('A' for Active; 'I' for Inactive)
REMARK    1  A    between atoms: C1_1  and  C2_2 
ROOT
HETATM    1  C1  UNL     1     -33.234  15.082  -3.789  1.00 20.00     0.432 C 
HETATM    2  F3  UNL     1     -33.489  15.621  -2.575  1.00 20.00    -0.167 F 
HETATM    3  F4  UNL     1     -32.481  15.974  -4.473  1.00 20.00    -0.167 F 
HETATM    4  F5  UNL     1     -32.469  13.983  -3.590  1.00 20.00    -0.167 F 
ENDROOT
BRANCH   1   5
HETATM    5  C2  UNL     1     -34.511  14.750  -4.537  1.00 20.00     0.267 C 
HETATM    6 CL6  UNL     1     -34.578  15.634  -6.081  1.00 20.00    -0.079 Cl
HETATM    7 CL7  UNL     1     -34.620  12.999  -4.841  1.00 20.00    -0.079 Cl
HETATM    8 BR8  UNL     1     -36.052  15.282  -3.457  1.00 20.00    -0.040 Br
ENDBRANCH   1   5
TORSDOF 1
ENDMDL
MODEL 5
REMARK VINA RESULT:      -3.6     13.534     13.899
REMARK  1 active torsions:
REMARK  status: ('A' for Active; 'I' for Inactive)
REMARK    1  A    between atoms: C1_1  and  C2_2 
ROOT
HETATM    1  C1  UNL     1     -33.872  13.939  -4.192  1.00 20.00     0.432 C 
HETATM    2  F3  UNL     1     -34.000  12.778  -4.875  1.00 20.00    -0.167 F 
HETATM    3  F4  UNL     1     -34.635  13.835  -3.079  1.00 20.00    -0.167 F 
HETATM    4  F5  UNL     1     -32.584  14.028  -3.787  1.00 20.00    -0.167 F 
ENDROOT
BRANCH   1   5
HETATM    5  C2  UNL     1     -34.281  15.135  -5.032  1.00 20.00     0.267 C 
HETATM    6 CL6  UNL     1     -33.061  16.426  -4.917  1.00 20.00    -0.079 Cl
HETATM    7 CL7  UNL     1     -34.495  14.658  -6.734  1.00 20.00    -0.079 Cl
HETATM    8 BR8  UNL     1     -35.983  15.838  -4.373  1.00 20.00    -0.040 Br
ENDBRANCH   1   5
TORSDOF 1
ENDMDL
MODEL 6
REMARK VINA RESULT:      -3.6     13.508     13.940
REMARK  1 active torsions:
REMARK  status: ('A' for Active; 'I' for Inactive)
REMARK    1  A    between atoms: C1_1  and  C2_2 
ROOT
HETATM    1  C1  UNL     1     -33.886  13.906  -4.195  1.00 20.00     0.432 C 
HETATM    2  F3  UNL     1     -32.602  13.977  -3.775  1.00 20.00    -0.167 F 
HETATM    3  F4  UNL     1     -34.010  12.764  -4.911  1.00 20.00    -0.167 F 
HETATM    4  F5  UNL     1     -34.664  13.775  -3.095  1.00 20.00    -0.167 F 
ENDROOT
BRANCH   1   5
HETATM    5  C2  UNL     1     -34.277  15.119  -5.019  1.00 20.00     0.267 C 
HETATM    6 CL6  UNL     1     -33.046  16.396  -4.872  1.00 20.00    -0.079 Cl
HETATM    7 CL7  UNL     1     -34.480  14.672  -6.730  1.00 20.00    -0.079 Cl
HETATM    8 BR8  UNL     1     -35.978  15.827  -4.363  1.00 20.00    -0.040 Br
ENDBRANCH   1   5
TORSDOF 1
ENDMDL
MODEL 7
REMARK VINA RESULT:      -3.6     13.481     13.919
REMARK  1 active torsions:
REMARK  status: ('A' for Active; 'I' for Inactive)
REMARK    1  A    between atoms: C1_1  and  C2_2 
ROOT
HETATM    1  C1  UNL     1     -33.269  15.044  -3.810  1.00 20.00     0.432 C 
HETATM    2  F3  UNL     1     -33.561  15.566  -2.597  1.00 20.00    -0.167 F 
HETATM    3  F4  UNL     1     -32.488  15.942  -4.454  1.00 20.00    -0.167 F 
HETATM    4  F5  UNL     1     -32.519  13.938  -3.603  1.00 20.00    -0.167 F 
ENDROOT
BRANCH   1   5
HETATM    5  C2  UNL     1     -34.523  14.733  -4.606  1.00 20.00     0.267 C 
HETATM    6 CL6  UNL     1     -34.694  12.977  -4.839  1.00 20.00    -0.079 Cl
HETATM    7 CL7  UNL     1     -35.963  15.374  -3.778  1.00 20.00    -0.079 Cl
HETATM    8 BR8  UNL     1     -34.400  15.577  -6.366  1.00 20.00    -0.040 Br
ENDBRANCH   1   5
TORSDOF 1
ENDMDL
MODEL 8
REMARK VINA RESULT:      -3.6     13.352     13.800
REMARK  1 active torsions:
REMARK  status: ('A' for Active; 'I' for Inactive)
REMARK    1  A    between atoms: C1_1  and  C2_2 
ROOT
HETATM    1  C1  UNL     1     -33.873  13.916  -4.154  1.00 20.00     0.432 C 
HETATM    2  F3  UNL     1     -32.575  14.003  -3.783  1.00 20.00    -0.167 F 
HETATM    3  F4  UNL     1     -33.995  12.811  -4.926  1.00 20.00    -0.167 F 
HETATM    4  F5  UNL     1     -34.599  13.703  -3.033  1.00 20.00    -0.167 F 
ENDROOT
BRANCH   1   5
HETATM    5  C2  UNL     1     -34.331  15.159  -4.895  1.00 20.00     0.267 C 
HETATM    6 CL6  UNL     1     -35.795  15.831  -4.139  1.00 20.00    -0.079 Cl
HETATM    7 CL7  UNL     1     -33.042  16.387  -4.909  1.00 20.00    -0.079 Cl
HETATM    8 BR8  UNL     1     -34.754  14.691  -6.746  1.00 20.00    -0.040 Br
ENDBRANCH   1   5
TORSDOF 1
ENDMDL
MODEL 9
REMARK VINA RESULT:      -3.6     13.189     13.601
REMARK  1 active torsions:
REMARK  status: ('A' for Active; 'I' for Inactive)
REMARK    1  A    between atoms: C1_1  and  C2_2 
ROOT
HETATM    1  C1  UNL     1     -33.780  14.201  -3.940  1.00 20.00     0.432 C 
HETATM    2  F3  UNL     1     -32.461  14.107  -3.655  1.00 20.00    -0.167 F 
HETATM    3  F4  UNL     1     -33.949  13.748  -5.204  1.00 20.00    -0.167 F 
HETATM    4  F5  UNL     1     -34.432  13.348  -3.118  1.00 20.00    -0.167 F 
ENDROOT
BRANCH   1   5
HETATM    5  C2  UNL     1     -34.287  15.624  -3.792  1.00 20.00     0.267 C 
HETATM    6 CL6  UNL     1     -36.047  15.688  -4.048  1.00 20.00    -0.079 Cl
HETATM    7 CL7  UNL     1     -33.890  16.263  -2.179  1.00 20.00    -0.079 Cl
HETATM    8 BR8  UNL     1     -33.430  16.761  -5.132  1.00 20.00    -0.040 Br
ENDBRANCH   1   5
TORSDOF 1
ENDMDL
