MODEL 1
REMARK VINA RESULT:      -3.5      0.000      0.000
REMARK  1 active torsions:
REMARK  status: ('A' for Active; 'I' for Inactive)
REMARK    1  A    between atoms: C2_2  and  C6_6 
ROOT
HETATM    1  C1  UNL     1     -33.785  17.227  -4.978  1.00 20.00     0.071 C 
HETATM    2  C2  UNL     1     -34.048  15.910  -5.046  1.00 20.00     0.003 C 
HETATM    3 BR7  UNL     1     -33.844  18.481  -6.349  1.00 20.00    -0.062 Br
HETATM    4 BR8  UNL     1     -34.552  15.104  -6.687  1.00 20.00    -0.054 Br
ENDROOT
BRANCH   2   5
HETATM    5  C6  UNL     1     -33.969  14.943  -3.840  1.00 20.00    -0.017 C 
HETATM    6  C3  UNL     1     -34.745  13.621  -4.073  1.00 20.00     0.020 C 
HETATM    7  C4  UNL     1     -32.504  14.548  -3.551  1.00 20.00     0.020 C 
HETATM    8  C5  UNL     1     -34.581  15.594  -2.580  1.00 20.00     0.020 C 
ENDBRANCH   2   5
TORSDOF 1
ENDMDL
MODEL 2
REMARK VINA RESULT:      -3.5      2.343      3.246
REMARK  1 active torsions:
REMARK  status: ('A' for Active; 'I' for Inactive)
REMARK    1  A    between atoms: C2_2  and  C6_6 
ROOT
HETATM    1  C1  UNL     1     -36.322  15.603  -3.592  1.00 20.00     0.071 C 
HETATM    2  C2  UNL     1     -35.108  15.091  -3.860  1.00 20.00     0.003 C 
HETATM    3 BR7  UNL     1     -37.986  14.842  -3.920  1.00 20.00    -0.062 Br
HETATM    4 BR8  UNL     1     -34.931  13.387  -4.674  1.00 20.00    -0.054 Br
ENDROOT
BRANCH   2   5
HETATM    5  C6  UNL     1     -33.772  15.808  -3.547  1.00 20.00    -0.017 C 
HETATM    6  C3  UNL     1     -33.413  16.900  -4.587  1.00 20.00     0.020 C 
HETATM    7  C4  UNL     1     -33.839  16.512  -2.175  1.00 20.00     0.020 C 
HETATM    8  C5  UNL     1     -32.601  14.800  -3.548  1.00 20.00     0.020 C 
ENDBRANCH   2   5
TORSDOF 1
ENDMDL
MODEL 3
REMARK VINA RESULT:      -3.5      2.459      3.195
REMARK  1 active torsions:
REMARK  status: ('A' for Active; 'I' for Inactive)
REMARK    1  A    between atoms: C2_2  and  C6_6 
ROOT
HETATM    1  C1  UNL     1     -34.966  15.603  -2.726  1.00 20.00     0.071 C 
HETATM    2  C2  UNL     1     -34.679  15.760  -4.030  1.00 20.00     0.003 C 
HETATM    3 BR7  UNL     1     -34.468  16.689  -1.301  1.00 20.00    -0.062 Br
HETATM    4 BR8  UNL     1     -33.643  17.234  -4.624  1.00 20.00    -0.054 Br
ENDROOT
BRANCH   2   5
HETATM    5  C6  UNL     1     -35.142  14.794  -5.146  1.00 20.00    -0.017 C 
HETATM    6  C3  UNL     1     -34.399  15.019  -6.488  1.00 20.00     0.020 C 
HETATM    7  C4  UNL     1     -34.882  13.326  -4.741  1.00 20.00     0.020 C 
HETATM    8  C5  UNL     1     -36.647  14.983  -5.440  1.00 20.00     0.020 C 
ENDBRANCH   2   5
TORSDOF 1
ENDMDL
MODEL 4
REMARK VINA RESULT:      -3.5      2.218      2.931
REMARK  1 active torsions:
REMARK  status: ('A' for Active; 'I' for Inactive)
REMARK    1  A    between atoms: C2_2  and  C6_6 
ROOT
HETATM    1  C1  UNL     1     -34.173  16.149  -2.159  1.00 20.00     0.071 C 
HETATM    2  C2  UNL     1     -34.162  16.050  -3.500  1.00 20.00     0.003 C 
HETATM    3 BR7  UNL     1     -33.787  17.638  -1.114  1.00 20.00    -0.062 Br
HETATM    4 BR8  UNL     1     -33.713  17.544  -4.579  1.00 20.00    -0.054 Br
ENDROOT
BRANCH   2   5
HETATM    5  C6  UNL     1     -34.500  14.758  -4.281  1.00 20.00    -0.017 C 
HETATM    6  C3  UNL     1     -35.942  14.253  -4.021  1.00 20.00     0.020 C 
HETATM    7  C4  UNL     1     -34.384  14.994  -5.803  1.00 20.00     0.020 C 
HETATM    8  C5  UNL     1     -33.552  13.610  -3.869  1.00 20.00     0.020 C 
ENDBRANCH   2   5
TORSDOF 1
ENDMDL
MODEL 5
REMARK VINA RESULT:      -3.4      0.606      1.408
REMARK  1 active torsions:
REMARK  status: ('A' for Active; 'I' for Inactive)
REMARK    1  A    between atoms: C2_2  and  C6_6 
ROOT
HETATM    1  C1  UNL     1     -34.030  17.146  -4.843  1.00 20.00     0.071 C 
HETATM    2  C2  UNL     1     -34.309  15.845  -5.034  1.00 20.00     0.003 C 
HETATM    3 BR7  UNL     1     -33.768  18.465  -6.127  1.00 20.00    -0.062 Br
HETATM    4 BR8  UNL     1     -34.483  15.137  -6.785  1.00 20.00    -0.054 Br
ENDROOT
BRANCH   2   5
HETATM    5  C6  UNL     1     -34.509  14.821  -3.892  1.00 20.00    -0.017 C 
HETATM    6  C3  UNL     1     -33.324  13.832  -3.750  1.00 20.00     0.020 C 
HETATM    7  C4  UNL     1     -34.649  15.539  -2.532  1.00 20.00     0.020 C 
HETATM    8  C5  UNL     1     -35.768  13.961  -4.147  1.00 20.00     0.020 C 
ENDBRANCH   2   5
TORSDOF 1
ENDMDL
MODEL 6
REMARK VINA RESULT:      -3.4      2.445      3.337
REMARK  1 active torsions:
REMARK  status: ('A' for Active; 'I' for Inactive)
REMARK    1  A    between atoms: C2_2  and  C6_6 
ROOT
HETATM    1  C1  UNL     1     -34.946  15.610  -2.708  1.00 20.00     0.071 C 
HETATM    2  C2  UNL     1     -34.661  15.776  -4.012  1.00 20.00     0.003 C 
HETATM    3 BR7  UNL     1     -34.460  16.696  -1.279  1.00 20.00    -0.062 Br
HETATM    4 BR8  UNL     1     -33.643  17.264  -4.600  1.00 20.00    -0.054 Br
ENDROOT
BRANCH   2   5
HETATM    5  C6  UNL     1     -35.113  14.809  -5.132  1.00 20.00    -0.017 C 
HETATM    6  C3  UNL     1     -34.833  13.322  -4.798  1.00 20.00     0.020 C 
HETATM    7  C4  UNL     1     -36.634  14.927  -5.374  1.00 20.00     0.020 C 
HETATM    8  C5  UNL     1     -34.362  15.112  -6.448  1.00 20.00     0.020 C 
ENDBRANCH   2   5
TORSDOF 1
ENDMDL
MODEL 7
REMARK VINA RESULT:      -3.4      2.151      2.478
REMARK  1 active torsions:
REMARK  status: ('A' for Active; 'I' for Inactive)
REMARK    1  A    between atoms: C2_2  and  C6_6 
ROOT
HETATM    1  C1  UNL     1     -34.027  17.191  -4.630  1.00 20.00     0.071 C 
HETATM    2  C2  UNL     1     -34.345  16.120  -3.881  1.00 20.00     0.003 C 
HETATM    3 BR7  UNL     1     -33.724  18.937  -4.068  1.00 20.00    -0.062 Br
HETATM    4 BR8  UNL     1     -34.538  16.275  -2.001  1.00 20.00    -0.054 Br
ENDROOT
BRANCH   2   5
HETATM    5  C6  UNL     1     -34.580  14.700  -4.447  1.00 20.00    -0.017 C 
HETATM    6  C3  UNL     1     -35.982  14.136  -4.106  1.00 20.00     0.020 C 
HETATM    7  C4  UNL     1     -34.469  14.701  -5.988  1.00 20.00     0.020 C 
HETATM    8  C5  UNL     1     -33.552  13.704  -3.863  1.00 20.00     0.020 C 
ENDBRANCH   2   5
TORSDOF 1
ENDMDL
MODEL 8
REMARK VINA RESULT:      -3.3      1.007      1.759
REMARK  1 active torsions:
REMARK  status: ('A' for Active; 'I' for Inactive)
REMARK    1  A    between atoms: C2_2  and  C6_6 
ROOT
HETATM    1  C1  UNL     1     -34.786  15.341  -6.219  1.00 20.00     0.071 C 
HETATM    2  C2  UNL     1     -34.223  15.789  -5.083  1.00 20.00     0.003 C 
HETATM    3 BR7  UNL     1     -35.093  16.278  -7.795  1.00 20.00    -0.062 Br
HETATM    4 BR8  UNL     1     -33.623  17.582  -4.939  1.00 20.00    -0.054 Br
ENDROOT
BRANCH   2   5
HETATM    5  C6  UNL     1     -34.011  14.925  -3.817  1.00 20.00    -0.017 C 
HETATM    6  C3  UNL     1     -34.711  13.545  -3.901  1.00 20.00     0.020 C 
HETATM    7  C4  UNL     1     -32.509  14.644  -3.593  1.00 20.00     0.020 C 
HETATM    8  C5  UNL     1     -34.588  15.635  -2.571  1.00 20.00     0.020 C 
ENDBRANCH   2   5
TORSDOF 1
ENDMDL
MODEL 9
REMARK VINA RESULT:      -3.3     11.844     12.935
REMARK  1 active torsions:
REMARK  status: ('A' for Active; 'I' for Inactive)
REMARK    1  A    between atoms: C2_2  and  C6_6 
ROOT
HETATM    1  C1  UNL     1     -42.206   7.326  -2.655  1.00 20.00     0.071 C 
HETATM    2  C2  UNL     1     -42.240   6.076  -2.161  1.00 20.00     0.003 C 
HETATM    3 BR7  UNL     1     -43.048   7.981  -4.178  1.00 20.00    -0.062 Br
HETATM    4 BR8  UNL     1     -43.235   4.715  -3.030  1.00 20.00    -0.054 Br
ENDROOT
BRANCH   2   5
HETATM    5  C6  UNL     1     -41.500   5.626  -0.879  1.00 20.00    -0.017 C 
HETATM    6  C3  UNL     1     -42.462   5.277   0.285  1.00 20.00     0.020 C 
HETATM    7  C4  UNL     1     -40.659   4.360  -1.149  1.00 20.00     0.020 C 
HETATM    8  C5  UNL     1     -40.576   6.752  -0.361  1.00 20.00     0.020 C 
ENDBRANCH   2   5
TORSDOF 1
ENDMDL
