MODEL 1
REMARK VINA RESULT:      -5.2      0.000      0.000
REMARK  0 active torsions:
REMARK  status: ('A' for Active; 'I' for Inactive)
ROOT
HETATM    1  C1  UNL     1     -36.727  14.918  -4.210  1.00 20.00     0.135 C 
HETATM    2  C2  UNL     1     -36.741  16.401  -3.940  1.00 20.00     0.080 C 
HETATM    3  C3  UNL     1     -35.957  16.766  -2.686  1.00 20.00     0.016 C 
HETATM    4  C4  UNL     1     -34.825  13.190  -4.437  1.00 20.00     0.023 A 
HETATM    5  C5  UNL     1     -34.008  15.108  -2.911  1.00 20.00     0.014 C 
HETATM    6  C6  UNL     1     -34.187  14.544  -4.291  1.00 20.00     0.003 A 
HETATM    7  C7  UNL     1     -35.543  14.416  -4.966  1.00 20.00     0.021 A 
HETATM    8  C8  UNL     1     -34.414  16.594  -2.745  1.00 20.00    -0.047 C 
HETATM    9  C9  UNL     1     -35.591  14.558  -6.470  1.00 20.00     0.024 C 
HETATM   10  C10 UNL     1     -33.790  17.478  -3.839  1.00 20.00     0.015 C 
HETATM   11  C11 UNL     1     -33.853  17.075  -1.384  1.00 20.00     0.015 C 
HETATM   12  O12 UNL     1     -37.620  14.157  -3.854  1.00 20.00    -0.297 OA
ENDROOT
TORSDOF 0
ENDMDL
MODEL 2
REMARK VINA RESULT:      -4.8      2.130      4.102
REMARK  0 active torsions:
REMARK  status: ('A' for Active; 'I' for Inactive)
ROOT
HETATM    1  C1  UNL     1     -33.393  15.930  -4.491  1.00 20.00     0.135 C 
HETATM    2  C2  UNL     1     -34.178  16.808  -5.431  1.00 20.00     0.080 C 
HETATM    3  C3  UNL     1     -34.616  16.062  -6.685  1.00 20.00     0.016 C 
HETATM    4  C4  UNL     1     -33.870  13.633  -3.419  1.00 20.00     0.023 A 
HETATM    5  C5  UNL     1     -35.170  13.779  -5.647  1.00 20.00     0.014 C 
HETATM    6  C6  UNL     1     -35.107  14.044  -4.170  1.00 20.00     0.003 A 
HETATM    7  C7  UNL     1     -34.209  15.104  -3.554  1.00 20.00     0.021 A 
HETATM    8  C8  UNL     1     -35.693  14.956  -6.508  1.00 20.00    -0.047 C 
HETATM    9  C9  UNL     1     -34.696  15.790  -2.299  1.00 20.00     0.024 C 
HETATM   10  C10 UNL     1     -37.004  15.532  -5.945  1.00 20.00     0.015 C 
HETATM   11  C11 UNL     1     -36.000  14.394  -7.918  1.00 20.00     0.015 C 
HETATM   12  O12 UNL     1     -32.168  15.887  -4.470  1.00 20.00    -0.297 OA
ENDROOT
TORSDOF 0
ENDMDL
MODEL 3
REMARK VINA RESULT:      -4.8      1.736      3.542
REMARK  0 active torsions:
REMARK  status: ('A' for Active; 'I' for Inactive)
ROOT
HETATM    1  C1  UNL     1     -34.684  13.789  -4.720  1.00 20.00     0.135 C 
HETATM    2  C2  UNL     1     -34.678  14.081  -6.199  1.00 20.00     0.080 C 
HETATM    3  C3  UNL     1     -35.881  14.911  -6.627  1.00 20.00     0.016 C 
HETATM    4  C4  UNL     1     -34.869  15.291  -2.632  1.00 20.00     0.023 A 
HETATM    5  C5  UNL     1     -36.058  16.474  -4.596  1.00 20.00     0.014 C 
HETATM    6  C6  UNL     1     -34.796  16.195  -3.831  1.00 20.00     0.003 A 
HETATM    7  C7  UNL     1     -34.091  14.850  -3.856  1.00 20.00     0.021 A 
HETATM    8  C8  UNL     1     -35.930  16.386  -6.137  1.00 20.00    -0.047 C 
HETATM    9  C9  UNL     1     -32.586  14.847  -3.718  1.00 20.00     0.024 C 
HETATM   10  C10 UNL     1     -34.725  17.191  -6.654  1.00 20.00     0.015 C 
HETATM   11  C11 UNL     1     -37.206  17.020  -6.743  1.00 20.00     0.015 C 
HETATM   12  O12 UNL     1     -35.128  12.753  -4.238  1.00 20.00    -0.297 OA
ENDROOT
TORSDOF 0
ENDMDL
MODEL 4
REMARK VINA RESULT:      -4.7      1.495      2.095
REMARK  0 active torsions:
REMARK  status: ('A' for Active; 'I' for Inactive)
ROOT
HETATM    1  C1  UNL     1     -35.384  13.975  -5.024  1.00 20.00     0.135 C 
HETATM    2  C2  UNL     1     -36.036  14.483  -3.763  1.00 20.00     0.080 C 
HETATM    3  C3  UNL     1     -35.078  15.306  -2.912  1.00 20.00     0.016 C 
HETATM    4  C4  UNL     1     -34.091  15.139  -6.928  1.00 20.00     0.023 A 
HETATM    5  C5  UNL     1     -33.811  16.540  -4.776  1.00 20.00     0.014 C 
HETATM    6  C6  UNL     1     -34.603  16.214  -6.009  1.00 20.00     0.003 A 
HETATM    7  C7  UNL     1     -35.389  14.924  -6.175  1.00 20.00     0.021 A 
HETATM    8  C8  UNL     1     -34.642  16.688  -3.476  1.00 20.00    -0.047 C 
HETATM    9  C9  UNL     1     -36.652  14.976  -7.003  1.00 20.00     0.024 C 
HETATM   10  C10 UNL     1     -35.850  17.620  -3.677  1.00 20.00     0.015 C 
HETATM   11  C11 UNL     1     -33.723  17.340  -2.414  1.00 20.00     0.015 C 
HETATM   12  O12 UNL     1     -34.889  12.858  -5.126  1.00 20.00    -0.297 OA
ENDROOT
TORSDOF 0
ENDMDL
MODEL 5
REMARK VINA RESULT:      -4.7      1.413      3.744
REMARK  0 active torsions:
REMARK  status: ('A' for Active; 'I' for Inactive)
ROOT
HETATM    1  C1  UNL     1     -36.222  16.715  -3.005  1.00 20.00     0.135 C 
HETATM    2  C2  UNL     1     -36.650  15.333  -3.428  1.00 20.00     0.080 C 
HETATM    3  C3  UNL     1     -36.258  15.025  -4.868  1.00 20.00     0.016 C 
HETATM    4  C4  UNL     1     -33.955  17.944  -3.051  1.00 20.00     0.023 A 
HETATM    5  C5  UNL     1     -33.963  16.177  -4.935  1.00 20.00     0.014 C 
HETATM    6  C6  UNL     1     -33.708  16.530  -3.498  1.00 20.00     0.003 A 
HETATM    7  C7  UNL     1     -34.820  16.825  -2.505  1.00 20.00     0.021 A 
HETATM    8  C8  UNL     1     -34.741  14.858  -5.165  1.00 20.00    -0.047 C 
HETATM    9  C9  UNL     1     -34.585  16.451  -1.061  1.00 20.00     0.024 C 
HETATM   10  C10 UNL     1     -34.135  13.694  -4.361  1.00 20.00     0.015 C 
HETATM   11  C11 UNL     1     -34.612  14.501  -6.666  1.00 20.00     0.015 C 
HETATM   12  O12 UNL     1     -36.958  17.693  -3.046  1.00 20.00    -0.297 OA
ENDROOT
TORSDOF 0
ENDMDL
MODEL 6
REMARK VINA RESULT:      -4.7      1.993      4.006
REMARK  0 active torsions:
REMARK  status: ('A' for Active; 'I' for Inactive)
ROOT
HETATM    1  C1  UNL     1     -34.456  17.696  -4.027  1.00 20.00     0.135 C 
HETATM    2  C2  UNL     1     -35.300  17.071  -5.108  1.00 20.00     0.080 C 
HETATM    3  C3  UNL     1     -34.877  15.640  -5.415  1.00 20.00     0.016 C 
HETATM    4  C4  UNL     1     -33.840  16.962  -1.632  1.00 20.00     0.023 A 
HETATM    5  C5  UNL     1     -34.319  14.847  -3.036  1.00 20.00     0.014 C 
HETATM    6  C6  UNL     1     -34.827  15.963  -2.169  1.00 20.00     0.003 A 
HETATM    7  C7  UNL     1     -34.891  17.410  -2.629  1.00 20.00     0.021 A 
HETATM    8  C8  UNL     1     -35.147  14.574  -4.316  1.00 20.00    -0.047 C 
HETATM    9  C9  UNL     1     -36.003  18.271  -2.078  1.00 20.00     0.024 C 
HETATM   10  C10 UNL     1     -36.650  14.455  -4.006  1.00 20.00     0.015 C 
HETATM   11  C11 UNL     1     -34.682  13.211  -4.885  1.00 20.00     0.015 C 
HETATM   12  O12 UNL     1     -33.481  18.404  -4.255  1.00 20.00    -0.297 OA
ENDROOT
TORSDOF 0
ENDMDL
MODEL 7
REMARK VINA RESULT:      -4.6      2.110      3.032
REMARK  0 active torsions:
REMARK  status: ('A' for Active; 'I' for Inactive)
ROOT
HETATM    1  C1  UNL     1     -34.467  16.804  -6.261  1.00 20.00     0.135 C 
HETATM    2  C2  UNL     1     -33.287  16.501  -5.373  1.00 20.00     0.080 C 
HETATM    3  C3  UNL     1     -33.607  16.714  -3.899  1.00 20.00     0.016 C 
HETATM    4  C4  UNL     1     -36.911  15.979  -6.281  1.00 20.00     0.023 A 
HETATM    5  C5  UNL     1     -36.020  15.836  -3.860  1.00 20.00     0.014 C 
HETATM    6  C6  UNL     1     -36.184  15.207  -5.214  1.00 20.00     0.003 A 
HETATM    7  C7  UNL     1     -35.433  15.682  -6.446  1.00 20.00     0.021 A 
HETATM    8  C8  UNL     1     -34.604  15.719  -3.243  1.00 20.00    -0.047 C 
HETATM    9  C9  UNL     1     -35.078  14.649  -7.490  1.00 20.00     0.024 C 
HETATM   10  C10 UNL     1     -34.078  14.274  -3.301  1.00 20.00     0.015 C 
HETATM   11  C11 UNL     1     -34.718  16.112  -1.749  1.00 20.00     0.015 C 
HETATM   12  O12 UNL     1     -34.637  17.884  -6.815  1.00 20.00    -0.297 OA
ENDROOT
TORSDOF 0
ENDMDL
MODEL 8
REMARK VINA RESULT:      -4.6      1.893      3.667
REMARK  0 active torsions:
REMARK  status: ('A' for Active; 'I' for Inactive)
ROOT
HETATM    1  C1  UNL     1     -34.094  14.843  -3.427  1.00 20.00     0.135 C 
HETATM    2  C2  UNL     1     -32.947  15.534  -4.117  1.00 20.00     0.080 C 
HETATM    3  C3  UNL     1     -33.294  15.945  -5.542  1.00 20.00     0.016 C 
HETATM    4  C4  UNL     1     -36.562  15.489  -3.044  1.00 20.00     0.023 A 
HETATM    5  C5  UNL     1     -35.734  16.665  -5.190  1.00 20.00     0.014 C 
HETATM    6  C6  UNL     1     -35.886  16.664  -3.696  1.00 20.00     0.003 A 
HETATM    7  C7  UNL     1     -35.091  15.746  -2.782  1.00 20.00     0.021 A 
HETATM    8  C8  UNL     1     -34.338  17.084  -5.713  1.00 20.00    -0.047 C 
HETATM    9  C9  UNL     1     -34.744  16.261  -1.404  1.00 20.00     0.024 C 
HETATM   10  C10 UNL     1     -33.855  18.391  -5.060  1.00 20.00     0.015 C 
HETATM   11  C11 UNL     1     -34.475  17.347  -7.233  1.00 20.00     0.015 C 
HETATM   12  O12 UNL     1     -34.217  13.624  -3.376  1.00 20.00    -0.297 OA
ENDROOT
TORSDOF 0
ENDMDL
MODEL 9
REMARK VINA RESULT:      -4.6      1.932      2.833
REMARK  0 active torsions:
REMARK  status: ('A' for Active; 'I' for Inactive)
ROOT
HETATM    1  C1  UNL     1     -35.592  17.638  -3.674  1.00 20.00     0.135 C 
HETATM    2  C2  UNL     1     -35.362  18.881  -2.854  1.00 20.00     0.080 C 
HETATM    3  C3  UNL     1     -35.614  18.647  -1.370  1.00 20.00     0.016 C 
HETATM    4  C4  UNL     1     -34.682  15.230  -3.511  1.00 20.00     0.023 A 
HETATM    5  C5  UNL     1     -34.654  16.274  -1.149  1.00 20.00     0.014 C 
HETATM    6  C6  UNL     1     -33.974  16.049  -2.468  1.00 20.00     0.003 A 
HETATM    7  C7  UNL     1     -34.432  16.704  -3.761  1.00 20.00     0.021 A 
HETATM    8  C8  UNL     1     -34.608  17.730  -0.620  1.00 20.00    -0.047 C 
HETATM    9  C9  UNL     1     -33.376  17.031  -4.791  1.00 20.00     0.024 C 
HETATM   10  C10 UNL     1     -33.181  18.305  -0.664  1.00 20.00     0.015 C 
HETATM   11  C11 UNL     1     -35.049  17.695   0.865  1.00 20.00     0.015 C 
HETATM   12  O12 UNL     1     -36.646  17.393  -4.250  1.00 20.00    -0.297 OA
ENDROOT
TORSDOF 0
ENDMDL
