MODEL 1
REMARK VINA RESULT:      -4.7      0.000      0.000
REMARK  0 active torsions:
REMARK  status: ('A' for Active; 'I' for Inactive)
ROOT
HETATM    1  C1  UNL     1     -33.725   6.643   5.533  1.00 20.00     0.014 C 
HETATM    2  C2  UNL     1     -35.014   5.433   3.721  1.00 20.00     0.014 C 
HETATM    3  C3  UNL     1     -34.055   5.435   6.367  1.00 20.00    -0.004 A 
HETATM    4  C4  UNL     1     -35.194   4.368   4.769  1.00 20.00    -0.004 A 
HETATM    5  C5  UNL     1     -34.117   4.074   5.760  1.00 20.00    -0.001 A 
HETATM    6  C6  UNL     1     -35.389   4.793   6.186  1.00 20.00    -0.001 A 
HETATM    7  C7  UNL     1     -33.811   6.361   4.014  1.00 20.00    -0.046 C 
HETATM    8  C8  UNL     1     -32.502   5.712   3.515  1.00 20.00     0.015 C 
HETATM    9  C9  UNL     1     -33.993   7.689   3.256  1.00 20.00     0.015 C 
ENDROOT
TORSDOF 0
ENDMDL
MODEL 2
REMARK VINA RESULT:      -4.7      1.066      2.333
REMARK  0 active torsions:
REMARK  status: ('A' for Active; 'I' for Inactive)
ROOT
HETATM    1  C1  UNL     1     -34.777   3.973   4.341  1.00 20.00     0.014 C 
HETATM    2  C2  UNL     1     -33.815   6.300   4.601  1.00 20.00     0.014 C 
HETATM    3  C3  UNL     1     -34.898   4.017   5.841  1.00 20.00    -0.004 A 
HETATM    4  C4  UNL     1     -34.049   6.071   6.070  1.00 20.00    -0.004 A 
HETATM    5  C5  UNL     1     -35.227   5.289   6.548  1.00 20.00    -0.001 A 
HETATM    6  C6  UNL     1     -33.825   4.701   6.618  1.00 20.00    -0.001 A 
HETATM    7  C7  UNL     1     -34.683   5.381   3.707  1.00 20.00    -0.046 C 
HETATM    8  C8  UNL     1     -36.093   5.984   3.531  1.00 20.00     0.015 C 
HETATM    9  C9  UNL     1     -34.043   5.273   2.311  1.00 20.00     0.015 C 
ENDROOT
TORSDOF 0
ENDMDL
MODEL 3
REMARK VINA RESULT:      -4.5     12.006     13.661
REMARK  0 active torsions:
REMARK  status: ('A' for Active; 'I' for Inactive)
ROOT
HETATM    1  C1  UNL     1     -34.560  13.604  -5.092  1.00 20.00     0.014 C 
HETATM    2  C2  UNL     1     -33.839  15.977  -5.598  1.00 20.00     0.014 C 
HETATM    3  C3  UNL     1     -33.988  13.879  -3.728  1.00 20.00    -0.004 A 
HETATM    4  C4  UNL     1     -33.351  15.973  -4.174  1.00 20.00    -0.004 A 
HETATM    5  C5  UNL     1     -34.091  15.233  -3.109  1.00 20.00    -0.001 A 
HETATM    6  C6  UNL     1     -32.757  14.717  -3.632  1.00 20.00    -0.001 A 
HETATM    7  C7  UNL     1     -34.916  14.898  -5.863  1.00 20.00    -0.046 C 
HETATM    8  C8  UNL     1     -36.306  15.412  -5.432  1.00 20.00     0.015 C 
HETATM    9  C9  UNL     1     -34.976  14.595  -7.372  1.00 20.00     0.015 C 
ENDROOT
TORSDOF 0
ENDMDL
MODEL 4
REMARK VINA RESULT:      -4.4      8.818     10.335
REMARK  0 active torsions:
REMARK  status: ('A' for Active; 'I' for Inactive)
ROOT
HETATM    1  C1  UNL     1     -40.790   4.528  -1.058  1.00 20.00     0.014 C 
HETATM    2  C2  UNL     1     -42.519   5.358  -2.710  1.00 20.00     0.014 C 
HETATM    3  C3  UNL     1     -40.912   5.905  -0.465  1.00 20.00    -0.004 A 
HETATM    4  C4  UNL     1     -42.437   6.639  -1.923  1.00 20.00    -0.004 A 
HETATM    5  C5  UNL     1     -42.221   6.622  -0.447  1.00 20.00    -0.001 A 
HETATM    6  C6  UNL     1     -41.109   7.059  -1.390  1.00 20.00    -0.001 A 
HETATM    7  C7  UNL     1     -42.021   4.132  -1.908  1.00 20.00    -0.046 C 
HETATM    8  C8  UNL     1     -43.148   3.594  -1.001  1.00 20.00     0.015 C 
HETATM    9  C9  UNL     1     -41.629   3.007  -2.884  1.00 20.00     0.015 C 
ENDROOT
TORSDOF 0
ENDMDL
MODEL 5
REMARK VINA RESULT:      -4.3     12.074     12.943
REMARK  0 active torsions:
REMARK  status: ('A' for Active; 'I' for Inactive)
ROOT
HETATM    1  C1  UNL     1     -33.588  14.984  -3.206  1.00 20.00     0.014 C 
HETATM    2  C2  UNL     1     -36.102  15.266  -3.120  1.00 20.00     0.014 C 
HETATM    3  C3  UNL     1     -33.877  14.101  -4.389  1.00 20.00    -0.004 A 
HETATM    4  C4  UNL     1     -36.095  14.349  -4.313  1.00 20.00    -0.004 A 
HETATM    5  C5  UNL     1     -34.999  14.409  -5.324  1.00 20.00    -0.001 A 
HETATM    6  C6  UNL     1     -35.096  13.242  -4.351  1.00 20.00    -0.001 A 
HETATM    7  C7  UNL     1     -34.741  15.970  -2.900  1.00 20.00    -0.046 C 
HETATM    8  C8  UNL     1     -34.632  17.217  -3.802  1.00 20.00     0.015 C 
HETATM    9  C9  UNL     1     -34.638  16.440  -1.437  1.00 20.00     0.015 C 
ENDROOT
TORSDOF 0
ENDMDL
MODEL 6
REMARK VINA RESULT:      -4.2     11.912     13.156
REMARK  0 active torsions:
REMARK  status: ('A' for Active; 'I' for Inactive)
ROOT
HETATM    1  C1  UNL     1     -35.399  16.049  -4.382  1.00 20.00     0.014 C 
HETATM    2  C2  UNL     1     -33.127  15.221  -3.634  1.00 20.00     0.014 C 
HETATM    3  C3  UNL     1     -35.643  14.606  -4.736  1.00 20.00    -0.004 A 
HETATM    4  C4  UNL     1     -33.637  13.876  -4.076  1.00 20.00    -0.004 A 
HETATM    5  C5  UNL     1     -35.073  13.505  -3.906  1.00 20.00    -0.001 A 
HETATM    6  C6  UNL     1     -34.507  13.811  -5.287  1.00 20.00    -0.001 A 
HETATM    7  C7  UNL     1     -34.267  16.226  -3.342  1.00 20.00    -0.046 C 
HETATM    8  C8  UNL     1     -34.814  16.015  -1.915  1.00 20.00     0.015 C 
HETATM    9  C9  UNL     1     -33.717  17.662  -3.424  1.00 20.00     0.015 C 
ENDROOT
TORSDOF 0
ENDMDL
MODEL 7
REMARK VINA RESULT:      -4.2      8.802     10.176
REMARK  0 active torsions:
REMARK  status: ('A' for Active; 'I' for Inactive)
ROOT
HETATM    1  C1  UNL     1     -42.674   5.519  -2.446  1.00 20.00     0.014 C 
HETATM    2  C2  UNL     1     -40.948   6.892  -1.203  1.00 20.00     0.014 C 
HETATM    3  C3  UNL     1     -42.233   4.410  -1.529  1.00 20.00    -0.004 A 
HETATM    4  C4  UNL     1     -40.710   5.622  -0.433  1.00 20.00    -0.004 A 
HETATM    5  C5  UNL     1     -41.833   4.690  -0.119  1.00 20.00    -0.001 A 
HETATM    6  C6  UNL     1     -40.789   4.324  -1.166  1.00 20.00    -0.001 A 
HETATM    7  C7  UNL     1     -42.335   6.923  -1.890  1.00 20.00    -0.046 C 
HETATM    8  C8  UNL     1     -43.417   7.379  -0.890  1.00 20.00     0.015 C 
HETATM    9  C9  UNL     1     -42.310   7.939  -3.048  1.00 20.00     0.015 C 
ENDROOT
TORSDOF 0
ENDMDL
MODEL 8
REMARK VINA RESULT:      -4.2     12.314     13.172
REMARK  0 active torsions:
REMARK  status: ('A' for Active; 'I' for Inactive)
ROOT
HETATM    1  C1  UNL     1     -35.871  14.929  -3.567  1.00 20.00     0.014 C 
HETATM    2  C2  UNL     1     -33.340  14.983  -3.532  1.00 20.00     0.014 C 
HETATM    3  C3  UNL     1     -35.760  16.160  -2.708  1.00 20.00    -0.004 A 
HETATM    4  C4  UNL     1     -33.527  16.208  -2.677  1.00 20.00    -0.004 A 
HETATM    5  C5  UNL     1     -34.662  17.148  -2.917  1.00 20.00    -0.001 A 
HETATM    6  C6  UNL     1     -34.659  16.227  -1.705  1.00 20.00    -0.001 A 
HETATM    7  C7  UNL     1     -34.588  14.657  -4.388  1.00 20.00    -0.046 C 
HETATM    8  C8  UNL     1     -34.588  15.503  -5.678  1.00 20.00     0.015 C 
HETATM    9  C9  UNL     1     -34.550  13.174  -4.802  1.00 20.00     0.015 C 
ENDROOT
TORSDOF 0
ENDMDL
MODEL 9
REMARK VINA RESULT:      -4.2     12.051     13.678
REMARK  0 active torsions:
REMARK  status: ('A' for Active; 'I' for Inactive)
ROOT
HETATM    1  C1  UNL     1     -34.448  15.284  -6.065  1.00 20.00     0.014 C 
HETATM    2  C2  UNL     1     -33.833  15.603  -3.631  1.00 20.00     0.014 C 
HETATM    3  C3  UNL     1     -34.905  13.922  -5.617  1.00 20.00    -0.004 A 
HETATM    4  C4  UNL     1     -34.361  14.203  -3.469  1.00 20.00    -0.004 A 
HETATM    5  C5  UNL     1     -35.522  13.721  -4.274  1.00 20.00    -0.001 A 
HETATM    6  C6  UNL     1     -34.113  13.221  -4.564  1.00 20.00    -0.001 A 
HETATM    7  C7  UNL     1     -34.373  16.302  -4.902  1.00 20.00    -0.046 C 
HETATM    8  C8  UNL     1     -35.766  16.907  -4.628  1.00 20.00     0.015 C 
HETATM    9  C9  UNL     1     -33.430  17.455  -5.291  1.00 20.00     0.015 C 
ENDROOT
TORSDOF 0
ENDMDL
