MODEL 1
REMARK VINA RESULT:      -3.6      0.000      0.000
REMARK  1 active torsions:
REMARK  status: ('A' for Active; 'I' for Inactive)
REMARK    1  A    between atoms: C4_4  and  C6_6 
ROOT
HETATM    1  C1  UNL     1     -35.047  13.346  -4.594  1.00 20.00     0.279 C 
HETATM    2  C2  UNL     1     -33.334  14.721  -3.559  1.00 20.00     0.284 C 
HETATM    3  C3  UNL     1     -36.145  14.402  -4.543  1.00 20.00     0.104 C 
HETATM    4  C4  UNL     1     -34.213  15.963  -3.371  1.00 20.00     0.075 C 
HETATM    5  N7  UNL     1     -33.711  13.926  -4.730  1.00 20.00     0.085 N 
HETATM    6  S8  UNL     1     -35.956  15.489  -3.103  1.00 20.00    -0.161 SA
HETATM    7  H21 UNL     1     -33.036  13.170  -4.844  1.00 20.00     0.315 HD
ENDROOT
BRANCH   4   8
HETATM    8  C6  UNL     1     -33.739  16.789  -2.177  1.00 20.00     0.012 C 
HETATM    9  C5  UNL     1     -34.605  16.575  -0.978  1.00 20.00     0.006 C 
ENDBRANCH   4   8
TORSDOF 1
ENDMDL
MODEL 2
REMARK VINA RESULT:      -3.6      1.939      2.482
REMARK  1 active torsions:
REMARK  status: ('A' for Active; 'I' for Inactive)
REMARK    1  A    between atoms: C4_4  and  C6_6 
ROOT
HETATM    1  C1  UNL     1     -33.381  16.498  -5.452  1.00 20.00     0.279 C 
HETATM    2  C2  UNL     1     -33.595  15.394  -3.300  1.00 20.00     0.284 C 
HETATM    3  C3  UNL     1     -33.586  17.912  -4.923  1.00 20.00     0.104 C 
HETATM    4  C4  UNL     1     -33.830  16.671  -2.484  1.00 20.00     0.075 C 
HETATM    5  N7  UNL     1     -32.748  15.614  -4.474  1.00 20.00     0.085 N 
HETATM    6  S8  UNL     1     -34.694  17.930  -3.487  1.00 20.00    -0.161 SA
HETATM    7  H21 UNL     1     -32.563  14.714  -4.917  1.00 20.00     0.315 HD
ENDROOT
BRANCH   4   8
HETATM    8  C6  UNL     1     -34.665  16.377  -1.240  1.00 20.00     0.012 C 
HETATM    9  C5  UNL     1     -34.462  17.412  -0.182  1.00 20.00     0.006 C 
ENDBRANCH   4   8
TORSDOF 1
ENDMDL
MODEL 3
REMARK VINA RESULT:      -3.6      1.370      1.398
REMARK  1 active torsions:
REMARK  status: ('A' for Active; 'I' for Inactive)
REMARK    1  A    between atoms: C4_4  and  C6_6 
ROOT
HETATM    1  C1  UNL     1     -34.915  13.517  -5.445  1.00 20.00     0.279 C 
HETATM    2  C2  UNL     1     -34.136  14.247  -3.263  1.00 20.00     0.284 C 
HETATM    3  C3  UNL     1     -34.512  14.787  -6.186  1.00 20.00     0.104 C 
HETATM    4  C4  UNL     1     -33.629  15.619  -3.722  1.00 20.00     0.075 C 
HETATM    5  N7  UNL     1     -34.042  13.225  -4.308  1.00 20.00     0.085 N 
HETATM    6  S8  UNL     1     -34.627  16.246  -5.116  1.00 20.00    -0.161 SA
HETATM    7  H21 UNL     1     -34.313  12.325  -3.911  1.00 20.00     0.315 HD
ENDROOT
BRANCH   4   8
HETATM    8  C6  UNL     1     -33.689  16.631  -2.580  1.00 20.00     0.012 C 
HETATM    9  C5  UNL     1     -34.691  16.237  -1.545  1.00 20.00     0.006 C 
ENDBRANCH   4   8
TORSDOF 1
ENDMDL
MODEL 4
REMARK VINA RESULT:      -3.6      1.669      1.964
REMARK  1 active torsions:
REMARK  status: ('A' for Active; 'I' for Inactive)
REMARK    1  A    between atoms: C4_4  and  C6_6 
ROOT
HETATM    1  C1  UNL     1     -35.526  14.054  -4.934  1.00 20.00     0.279 C 
HETATM    2  C2  UNL     1     -35.845  15.697  -3.174  1.00 20.00     0.284 C 
HETATM    3  C3  UNL     1     -34.127  13.632  -4.500  1.00 20.00     0.104 C 
HETATM    4  C4  UNL     1     -34.480  15.489  -2.507  1.00 20.00     0.075 C 
HETATM    5  N7  UNL     1     -36.360  14.484  -3.811  1.00 20.00     0.085 N 
HETATM    6  S8  UNL     1     -33.222  15.009  -3.741  1.00 20.00    -0.161 SA
HETATM    7  H21 UNL     1     -37.302  14.670  -4.156  1.00 20.00     0.315 HD
ENDROOT
BRANCH   4   8
HETATM    8  C6  UNL     1     -34.017  16.764  -1.804  1.00 20.00     0.012 C 
HETATM    9  C5  UNL     1     -34.673  16.929  -0.473  1.00 20.00     0.006 C 
ENDBRANCH   4   8
TORSDOF 1
ENDMDL
MODEL 5
REMARK VINA RESULT:      -3.5     12.118     12.564
REMARK  1 active torsions:
REMARK  status: ('A' for Active; 'I' for Inactive)
REMARK    1  A    between atoms: C4_4  and  C6_6 
ROOT
HETATM    1  C1  UNL     1     -35.035   4.406   5.938  1.00 20.00     0.279 C 
HETATM    2  C2  UNL     1     -34.541   5.014   3.639  1.00 20.00     0.284 C 
HETATM    3  C3  UNL     1     -34.624   5.743   6.543  1.00 20.00     0.104 C 
HETATM    4  C4  UNL     1     -34.063   6.438   3.946  1.00 20.00     0.075 C 
HETATM    5  N7  UNL     1     -35.559   4.539   4.578  1.00 20.00     0.085 N 
HETATM    6  S8  UNL     1     -33.286   6.519   5.596  1.00 20.00    -0.161 SA
HETATM    7  H21 UNL     1     -35.892   3.627   4.266  1.00 20.00     0.315 HD
ENDROOT
BRANCH   4   8
HETATM    8  C6  UNL     1     -33.052   6.910   2.903  1.00 20.00     0.012 C 
HETATM    9  C5  UNL     1     -31.750   7.290   3.528  1.00 20.00     0.006 C 
ENDBRANCH   4   8
TORSDOF 1
ENDMDL
MODEL 6
REMARK VINA RESULT:      -3.5      2.200      3.835
REMARK  1 active torsions:
REMARK  status: ('A' for Active; 'I' for Inactive)
REMARK    1  A    between atoms: C4_4  and  C6_6 
ROOT
HETATM    1  C1  UNL     1     -33.155  15.258  -3.669  1.00 20.00     0.279 C 
HETATM    2  C2  UNL     1     -34.070  15.920  -5.819  1.00 20.00     0.284 C 
HETATM    3  C3  UNL     1     -33.488  13.777  -3.808  1.00 20.00     0.104 C 
HETATM    4  C4  UNL     1     -34.526  14.519  -6.241  1.00 20.00     0.075 C 
HETATM    5  N7  UNL     1     -32.887  15.901  -4.956  1.00 20.00     0.085 N 
HETATM    6  S8  UNL     1     -34.995  13.523  -4.784  1.00 20.00    -0.161 SA
HETATM    7  H21 UNL     1     -32.590  16.862  -4.786  1.00 20.00     0.315 HD
ENDROOT
BRANCH   4   8
HETATM    8  C6  UNL     1     -35.720  14.597  -7.189  1.00 20.00     0.012 C 
HETATM    9  C5  UNL     1     -36.905  15.229  -6.534  1.00 20.00     0.006 C 
ENDBRANCH   4   8
TORSDOF 1
ENDMDL
MODEL 7
REMARK VINA RESULT:      -3.4      2.007      3.892
REMARK  1 active torsions:
REMARK  status: ('A' for Active; 'I' for Inactive)
REMARK    1  A    between atoms: C4_4  and  C6_6 
ROOT
HETATM    1  C1  UNL     1     -32.994  14.069  -3.585  1.00 20.00     0.279 C 
HETATM    2  C2  UNL     1     -34.793  13.322  -5.036  1.00 20.00     0.284 C 
HETATM    3  C3  UNL     1     -33.266  15.559  -3.755  1.00 20.00     0.104 C 
HETATM    4  C4  UNL     1     -35.303  14.722  -5.397  1.00 20.00     0.075 C 
HETATM    5  N7  UNL     1     -34.205  13.256  -3.696  1.00 20.00     0.085 N 
HETATM    6  S8  UNL     1     -33.933  15.930  -5.400  1.00 20.00    -0.161 SA
HETATM    7  H21 UNL     1     -33.969  12.286  -3.490  1.00 20.00     0.315 HD
ENDROOT
BRANCH   4   8
HETATM    8  C6  UNL     1     -35.962  14.723  -6.774  1.00 20.00     0.012 C 
HETATM    9  C5  UNL     1     -34.958  14.897  -7.867  1.00 20.00     0.006 C 
ENDBRANCH   4   8
TORSDOF 1
ENDMDL
MODEL 8
REMARK VINA RESULT:      -3.4      2.313      2.967
REMARK  1 active torsions:
REMARK  status: ('A' for Active; 'I' for Inactive)
REMARK    1  A    between atoms: C4_4  and  C6_6 
ROOT
HETATM    1  C1  UNL     1     -33.933  13.768  -3.678  1.00 20.00     0.279 C 
HETATM    2  C2  UNL     1     -33.281  15.955  -4.509  1.00 20.00     0.284 C 
HETATM    3  C3  UNL     1     -34.651  13.327  -4.948  1.00 20.00     0.104 C 
HETATM    4  C4  UNL     1     -33.917  15.799  -5.895  1.00 20.00     0.075 C 
HETATM    5  N7  UNL     1     -32.823  14.684  -3.944  1.00 20.00     0.085 N 
HETATM    6  S8  UNL     1     -35.399  14.735  -5.812  1.00 20.00    -0.161 SA
HETATM    7  H21 UNL     1     -32.336  14.871  -3.068  1.00 20.00     0.315 HD
ENDROOT
BRANCH   4   8
HETATM    8  C6  UNL     1     -34.319  17.157  -6.466  1.00 20.00     0.012 C 
HETATM    9  C5  UNL     1     -33.640  18.279  -5.752  1.00 20.00     0.006 C 
ENDBRANCH   4   8
TORSDOF 1
ENDMDL
MODEL 9
REMARK VINA RESULT:      -3.3      2.246      3.930
REMARK  1 active torsions:
REMARK  status: ('A' for Active; 'I' for Inactive)
REMARK    1  A    between atoms: C4_4  and  C6_6 
ROOT
HETATM    1  C1  UNL     1     -34.705  16.207  -1.968  1.00 20.00     0.279 C 
HETATM    2  C2  UNL     1     -35.722  14.782  -3.651  1.00 20.00     0.284 C 
HETATM    3  C3  UNL     1     -33.853  17.013  -2.941  1.00 20.00     0.104 C 
HETATM    4  C4  UNL     1     -34.999  15.404  -4.851  1.00 20.00     0.075 C 
HETATM    5  N7  UNL     1     -35.956  15.737  -2.566  1.00 20.00     0.085 N 
HETATM    6  S8  UNL     1     -33.346  16.012  -4.367  1.00 20.00    -0.161 SA
HETATM    7  H21 UNL     1     -36.513  15.283  -1.843  1.00 20.00     0.315 HD
ENDROOT
BRANCH   4   8
HETATM    8  C6  UNL     1     -34.838  14.386  -5.977  1.00 20.00     0.012 C 
HETATM    9  C5  UNL     1     -34.426  15.038  -7.257  1.00 20.00     0.006 C 
ENDBRANCH   4   8
TORSDOF 1
ENDMDL
