MODEL 1
REMARK VINA RESULT:      -5.7      0.000      0.000
REMARK  2 active torsions:
REMARK  status: ('A' for Active; 'I' for Inactive)
REMARK    1  A    between atoms: C2_2  and  C3_3 
REMARK    2  A    between atoms: C2_2  and  C4_4 
ROOT
HETATM    1  C2  UNL     1     -33.804   5.547   5.185  1.00 20.00     0.244 C 
HETATM    2 CL9  UNL     1     -33.846   6.774   6.503  1.00 20.00    -0.111 Cl
ENDROOT
BRANCH   1   3
HETATM    3  C3  UNL     1     -33.662   6.235   3.810  1.00 20.00     0.200 C 
HETATM    4  C1  UNL     1     -33.920   5.306   2.625  1.00 20.00     0.072 C 
HETATM    5  F5  UNL     1     -34.557   7.260   3.736  1.00 20.00    -0.224 F 
HETATM    6 CL10 UNL     1     -32.021   6.928   3.600  1.00 20.00    -0.081 Cl
ENDBRANCH   1   3
BRANCH   1   7
HETATM    7  C4  UNL     1     -35.054   4.686   5.339  1.00 20.00     0.408 C 
HETATM    8  F6  UNL     1     -34.788   3.377   5.144  1.00 20.00    -0.169 F 
HETATM    9  F7  UNL     1     -35.583   4.817   6.579  1.00 20.00    -0.169 F 
HETATM   10  F8  UNL     1     -36.022   5.043   4.468  1.00 20.00    -0.169 F 
ENDBRANCH   1   7
TORSDOF 2
ENDMDL
MODEL 2
REMARK VINA RESULT:      -5.2      1.230      1.300
REMARK  2 active torsions:
REMARK  status: ('A' for Active; 'I' for Inactive)
REMARK    1  A    between atoms: C2_2  and  C3_3 
REMARK    2  A    between atoms: C2_2  and  C4_4 
ROOT
HETATM    1  C2  UNL     1     -33.824   5.391   4.961  1.00 20.00     0.244 C 
HETATM    2 CL9  UNL     1     -33.863   6.655   6.244  1.00 20.00    -0.111 Cl
ENDROOT
BRANCH   1   3
HETATM    3  C3  UNL     1     -33.580   6.032   3.578  1.00 20.00     0.200 C 
HETATM    4  C1  UNL     1     -32.104   6.228   3.240  1.00 20.00     0.072 C 
HETATM    5  F5  UNL     1     -34.122   5.229   2.619  1.00 20.00    -0.224 F 
HETATM    6 CL10 UNL     1     -34.375   7.636   3.459  1.00 20.00    -0.081 Cl
ENDBRANCH   1   3
BRANCH   1   7
HETATM    7  C4  UNL     1     -35.126   4.602   5.075  1.00 20.00     0.408 C 
HETATM    8  F6  UNL     1     -34.975   3.326   4.661  1.00 20.00    -0.169 F 
HETATM    9  F7  UNL     1     -35.561   4.569   6.356  1.00 20.00    -0.169 F 
HETATM   10  F8  UNL     1     -36.117   5.157   4.345  1.00 20.00    -0.169 F 
ENDBRANCH   1   7
TORSDOF 2
ENDMDL
MODEL 3
REMARK VINA RESULT:      -5.0      2.382      3.510
REMARK  2 active torsions:
REMARK  status: ('A' for Active; 'I' for Inactive)
REMARK    1  A    between atoms: C2_2  and  C3_3 
REMARK    2  A    between atoms: C2_2  and  C4_4 
ROOT
HETATM    1  C2  UNL     1     -33.849   6.654   4.184  1.00 20.00     0.244 C 
HETATM    2 CL9  UNL     1     -33.558   6.565   5.960  1.00 20.00    -0.111 Cl
ENDROOT
BRANCH   1   3
HETATM    3  C3  UNL     1     -34.724   5.470   3.720  1.00 20.00     0.200 C 
HETATM    4  C1  UNL     1     -36.175   5.850   3.431  1.00 20.00     0.072 C 
HETATM    5  F5  UNL     1     -34.195   4.954   2.575  1.00 20.00    -0.224 F 
HETATM    6 CL10 UNL     1     -34.747   4.162   4.947  1.00 20.00    -0.081 Cl
ENDBRANCH   1   3
BRANCH   1   7
HETATM    7  C4  UNL     1     -32.481   6.734   3.513  1.00 20.00     0.408 C 
HETATM    8  F6  UNL     1     -32.563   7.256   2.271  1.00 20.00    -0.169 F 
HETATM    9  F7  UNL     1     -31.635   7.511   4.230  1.00 20.00    -0.169 F 
HETATM   10  F8  UNL     1     -31.897   5.521   3.411  1.00 20.00    -0.169 F 
ENDBRANCH   1   7
TORSDOF 2
ENDMDL
MODEL 4
REMARK VINA RESULT:      -4.6      1.621      3.109
REMARK  2 active torsions:
REMARK  status: ('A' for Active; 'I' for Inactive)
REMARK    1  A    between atoms: C2_2  and  C3_3 
REMARK    2  A    between atoms: C2_2  and  C4_4 
ROOT
HETATM    1  C2  UNL     1     -34.199   6.214   4.456  1.00 20.00     0.244 C 
HETATM    2 CL9  UNL     1     -32.526   6.158   3.791  1.00 20.00    -0.111 Cl
ENDROOT
BRANCH   1   3
HETATM    3  C3  UNL     1     -34.192   5.896   5.967  1.00 20.00     0.200 C 
HETATM    4  C1  UNL     1     -33.594   7.005   6.829  1.00 20.00     0.072 C 
HETATM    5  F5  UNL     1     -35.475   5.695   6.381  1.00 20.00    -0.224 F 
HETATM    6 CL10 UNL     1     -33.268   4.396   6.307  1.00 20.00    -0.081 Cl
ENDBRANCH   1   3
BRANCH   1   7
HETATM    7  C4  UNL     1     -35.046   5.267   3.611  1.00 20.00     0.408 C 
HETATM    8  F6  UNL     1     -36.288   5.754   3.407  1.00 20.00    -0.169 F 
HETATM    9  F7  UNL     1     -34.480   5.062   2.399  1.00 20.00    -0.169 F 
HETATM   10  F8  UNL     1     -35.171   4.052   4.188  1.00 20.00    -0.169 F 
ENDBRANCH   1   7
TORSDOF 2
ENDMDL
MODEL 5
REMARK VINA RESULT:      -4.4     12.202     12.829
REMARK  2 active torsions:
REMARK  status: ('A' for Active; 'I' for Inactive)
REMARK    1  A    between atoms: C2_2  and  C3_3 
REMARK    2  A    between atoms: C2_2  and  C4_4 
ROOT
HETATM    1  C2  UNL     1     -34.900  14.510  -3.238  1.00 20.00     0.244 C 
HETATM    2 CL9  UNL     1     -36.604  14.631  -3.812  1.00 20.00    -0.111 Cl
ENDROOT
BRANCH   1   3
HETATM    3  C3  UNL     1     -34.354  15.906  -2.868  1.00 20.00     0.200 C 
HETATM    4  C1  UNL     1     -34.669  16.333  -1.436  1.00 20.00     0.072 C 
HETATM    5  F5  UNL     1     -32.998  15.900  -3.010  1.00 20.00    -0.224 F 
HETATM    6 CL10 UNL     1     -35.011  17.168  -3.961  1.00 20.00    -0.081 Cl
ENDBRANCH   1   3
BRANCH   1   7
HETATM    7  C4  UNL     1     -34.113  13.789  -4.329  1.00 20.00     0.408 C 
HETATM    8  F6  UNL     1     -32.938  13.311  -3.865  1.00 20.00    -0.169 F 
HETATM    9  F7  UNL     1     -34.817  12.742  -4.821  1.00 20.00    -0.169 F 
HETATM   10  F8  UNL     1     -33.844  14.598  -5.375  1.00 20.00    -0.169 F 
ENDBRANCH   1   7
TORSDOF 2
ENDMDL
MODEL 6
REMARK VINA RESULT:      -4.4     12.051     13.437
REMARK  2 active torsions:
REMARK  status: ('A' for Active; 'I' for Inactive)
REMARK    1  A    between atoms: C2_2  and  C3_3 
REMARK    2  A    between atoms: C2_2  and  C4_4 
ROOT
HETATM    1  C2  UNL     1     -33.268  15.474  -4.094  1.00 20.00     0.244 C 
HETATM    2 CL9  UNL     1     -33.646  16.208  -2.493  1.00 20.00    -0.111 Cl
ENDROOT
BRANCH   1   3
HETATM    3  C3  UNL     1     -33.953  16.268  -5.228  1.00 20.00     0.200 C 
HETATM    4  C1  UNL     1     -33.575  17.747  -5.262  1.00 20.00     0.072 C 
HETATM    5  F5  UNL     1     -33.597  15.722  -6.425  1.00 20.00    -0.224 F 
HETATM    6 CL10 UNL     1     -35.740  16.173  -5.095  1.00 20.00    -0.081 Cl
ENDBRANCH   1   3
BRANCH   1   7
HETATM    7  C4  UNL     1     -33.670  14.004  -4.015  1.00 20.00     0.408 C 
HETATM    8  F6  UNL     1     -32.650  13.229  -3.586  1.00 20.00    -0.169 F 
HETATM    9  F7  UNL     1     -34.706  13.830  -3.162  1.00 20.00    -0.169 F 
HETATM   10  F8  UNL     1     -34.072  13.527  -5.212  1.00 20.00    -0.169 F 
ENDBRANCH   1   7
TORSDOF 2
ENDMDL
MODEL 7
REMARK VINA RESULT:      -4.3     12.328     13.144
REMARK  2 active torsions:
REMARK  status: ('A' for Active; 'I' for Inactive)
REMARK    1  A    between atoms: C2_2  and  C3_3 
REMARK    2  A    between atoms: C2_2  and  C4_4 
ROOT
HETATM    1  C2  UNL     1     -34.618  15.040  -4.710  1.00 20.00     0.244 C 
HETATM    2 CL9  UNL     1     -34.404  14.962  -6.497  1.00 20.00    -0.111 Cl
ENDROOT
BRANCH   1   3
HETATM    3  C3  UNL     1     -33.553  15.961  -4.077  1.00 20.00     0.200 C 
HETATM    4  C1  UNL     1     -33.893  16.416  -2.659  1.00 20.00     0.072 C 
HETATM    5  F5  UNL     1     -32.367  15.292  -4.024  1.00 20.00    -0.224 F 
HETATM    6 CL10 UNL     1     -33.303  17.436  -5.068  1.00 20.00    -0.081 Cl
ENDBRANCH   1   3
BRANCH   1   7
HETATM    7  C4  UNL     1     -34.601  13.603  -4.197  1.00 20.00     0.408 C 
HETATM    8  F6  UNL     1     -34.108  13.525  -2.942  1.00 20.00    -0.169 F 
HETATM    9  F7  UNL     1     -35.849  13.080  -4.181  1.00 20.00    -0.169 F 
HETATM   10  F8  UNL     1     -33.855  12.796  -4.981  1.00 20.00    -0.169 F 
ENDBRANCH   1   7
TORSDOF 2
ENDMDL
MODEL 8
REMARK VINA RESULT:      -4.3      9.109      9.900
REMARK  2 active torsions:
REMARK  status: ('A' for Active; 'I' for Inactive)
REMARK    1  A    between atoms: C2_2  and  C3_3 
REMARK    2  A    between atoms: C2_2  and  C4_4 
ROOT
HETATM    1  C2  UNL     1     -41.527   5.906  -1.852  1.00 20.00     0.244 C 
HETATM    2 CL9  UNL     1     -43.048   6.259  -2.749  1.00 20.00    -0.111 Cl
ENDROOT
BRANCH   1   3
HETATM    3  C3  UNL     1     -41.451   4.409  -1.483  1.00 20.00     0.200 C 
HETATM    4  C1  UNL     1     -41.827   3.470  -2.628  1.00 20.00     0.072 C 
HETATM    5  F5  UNL     1     -40.176   4.111  -1.106  1.00 20.00    -0.224 F 
HETATM    6 CL10 UNL     1     -42.531   4.028  -0.101  1.00 20.00    -0.081 Cl
ENDBRANCH   1   3
BRANCH   1   7
HETATM    7  C4  UNL     1     -41.482   6.857  -0.660  1.00 20.00     0.408 C 
HETATM    8  F6  UNL     1     -40.611   6.437   0.283  1.00 20.00    -0.169 F 
HETATM    9  F7  UNL     1     -41.104   8.098  -1.045  1.00 20.00    -0.169 F 
HETATM   10  F8  UNL     1     -42.691   6.987  -0.073  1.00 20.00    -0.169 F 
ENDBRANCH   1   7
TORSDOF 2
ENDMDL
MODEL 9
REMARK VINA RESULT:      -4.3      2.066      3.849
REMARK  2 active torsions:
REMARK  status: ('A' for Active; 'I' for Inactive)
REMARK    1  A    between atoms: C2_2  and  C3_3 
REMARK    2  A    between atoms: C2_2  and  C4_4 
ROOT
HETATM    1  C2  UNL     1     -33.444   5.471   3.792  1.00 20.00     0.244 C 
HETATM    2 CL9  UNL     1     -34.158   4.891   2.243  1.00 20.00    -0.111 Cl
ENDROOT
BRANCH   1   3
HETATM    3  C3  UNL     1     -34.508   5.476   4.910  1.00 20.00     0.200 C 
HETATM    4  C1  UNL     1     -34.131   6.329   6.119  1.00 20.00     0.072 C 
HETATM    5  F5  UNL     1     -35.676   5.966   4.405  1.00 20.00    -0.224 F 
HETATM    6 CL10 UNL     1     -34.828   3.813   5.505  1.00 20.00    -0.081 Cl
ENDBRANCH   1   3
BRANCH   1   7
HETATM    7  C4  UNL     1     -32.814   6.832   3.509  1.00 20.00     0.408 C 
HETATM    8  F6  UNL     1     -32.002   7.226   4.514  1.00 20.00    -0.169 F 
HETATM    9  F7  UNL     1     -32.076   6.797   2.375  1.00 20.00    -0.169 F 
HETATM   10  F8  UNL     1     -33.746   7.793   3.333  1.00 20.00    -0.169 F 
ENDBRANCH   1   7
TORSDOF 2
ENDMDL
