MODEL 1
REMARK VINA RESULT:      -5.9      0.000      0.000
REMARK  0 active torsions:
REMARK  status: ('A' for Active; 'I' for Inactive)
ROOT
HETATM    1  C1  UNL     1     -35.239   4.360   6.036  1.00 20.00     0.004 C 
HETATM    2  C2  UNL     1     -35.280   3.968   4.727  1.00 20.00    -0.017 C 
HETATM    3  C3  UNL     1     -33.756   5.308   2.783  1.00 20.00    -0.021 C 
HETATM    4  C4  UNL     1     -33.029   6.421   3.120  1.00 20.00    -0.024 C 
HETATM    5  C5  UNL     1     -33.949   6.597   6.807  1.00 20.00    -0.019 C 
HETATM    6  C6  UNL     1     -34.471   5.566   6.142  1.00 20.00    -0.056 C 
HETATM    7  C7  UNL     1     -33.005   7.393   5.845  1.00 20.00     0.036 C 
HETATM    8  C8  UNL     1     -34.829   5.082   3.815  1.00 20.00     0.039 C 
HETATM    9  C9  UNL     1     -33.526   6.998   4.440  1.00 20.00     0.020 C 
HETATM   10  C10 UNL     1     -33.879   5.607   4.830  1.00 20.00     0.037 C 
ENDROOT
TORSDOF 0
ENDMDL
MODEL 2
REMARK VINA RESULT:      -5.9      0.256      3.215
REMARK  0 active torsions:
REMARK  status: ('A' for Active; 'I' for Inactive)
ROOT
HETATM    1  C1  UNL     1     -32.953   7.385   5.773  1.00 20.00     0.004 C 
HETATM    2  C2  UNL     1     -33.627   6.731   6.766  1.00 20.00    -0.017 C 
HETATM    3  C3  UNL     1     -35.076   4.388   6.211  1.00 20.00    -0.021 C 
HETATM    4  C4  UNL     1     -35.189   3.934   4.921  1.00 20.00    -0.024 C 
HETATM    5  C5  UNL     1     -33.192   6.667   3.186  1.00 20.00    -0.019 C 
HETATM    6  C6  UNL     1     -33.260   6.772   4.514  1.00 20.00    -0.056 C 
HETATM    7  C7  UNL     1     -33.904   5.345   2.747  1.00 20.00     0.036 C 
HETATM    8  C8  UNL     1     -34.709   5.849   6.195  1.00 20.00     0.039 C 
HETATM    9  C9  UNL     1     -34.851   5.047   3.937  1.00 20.00     0.020 C 
HETATM   10  C10 UNL     1     -33.917   5.574   4.967  1.00 20.00     0.037 C 
ENDROOT
TORSDOF 0
ENDMDL
MODEL 3
REMARK VINA RESULT:      -5.5      0.367      2.626
REMARK  0 active torsions:
REMARK  status: ('A' for Active; 'I' for Inactive)
ROOT
HETATM    1  C1  UNL     1     -35.371   4.086   4.647  1.00 20.00     0.004 C 
HETATM    2  C2  UNL     1     -35.300   4.400   5.975  1.00 20.00    -0.017 C 
HETATM    3  C3  UNL     1     -33.880   6.666   6.838  1.00 20.00    -0.021 C 
HETATM    4  C4  UNL     1     -33.173   7.423   5.938  1.00 20.00    -0.024 C 
HETATM    5  C5  UNL     1     -33.933   5.418   2.796  1.00 20.00    -0.019 C 
HETATM    6  C6  UNL     1     -34.517   4.971   3.909  1.00 20.00    -0.056 C 
HETATM    7  C7  UNL     1     -33.162   6.739   3.127  1.00 20.00     0.036 C 
HETATM    8  C8  UNL     1     -34.121   5.298   6.257  1.00 20.00     0.039 C 
HETATM    9  C9  UNL     1     -32.933   6.635   4.657  1.00 20.00     0.020 C 
HETATM   10  C10 UNL     1     -34.224   5.948   4.924  1.00 20.00     0.037 C 
ENDROOT
TORSDOF 0
ENDMDL
MODEL 4
REMARK VINA RESULT:      -5.3      0.887      2.698
REMARK  0 active torsions:
REMARK  status: ('A' for Active; 'I' for Inactive)
ROOT
HETATM    1  C1  UNL     1     -32.065   7.528   4.063  1.00 20.00     0.004 C 
HETATM    2  C2  UNL     1     -32.463   6.916   2.907  1.00 20.00    -0.017 C 
HETATM    3  C3  UNL     1     -34.712   5.231   2.880  1.00 20.00    -0.021 C 
HETATM    4  C4  UNL     1     -35.373   4.940   4.047  1.00 20.00    -0.024 C 
HETATM    5  C5  UNL     1     -33.200   6.948   6.438  1.00 20.00    -0.019 C 
HETATM    6  C6  UNL     1     -32.857   7.035   5.153  1.00 20.00    -0.056 C 
HETATM    7  C7  UNL     1     -34.502   6.088   6.556  1.00 20.00     0.036 C 
HETATM    8  C8  UNL     1     -33.321   5.710   3.202  1.00 20.00     0.039 C 
HETATM    9  C9  UNL     1     -34.490   5.256   5.248  1.00 20.00     0.020 C 
HETATM   10  C10 UNL     1     -33.885   6.338   4.426  1.00 20.00     0.037 C 
ENDROOT
TORSDOF 0
ENDMDL
MODEL 5
REMARK VINA RESULT:      -5.2      0.448      2.604
REMARK  0 active torsions:
REMARK  status: ('A' for Active; 'I' for Inactive)
ROOT
HETATM    1  C1  UNL     1     -33.671   6.849   6.710  1.00 20.00     0.004 C 
HETATM    2  C2  UNL     1     -32.994   7.455   5.689  1.00 20.00    -0.017 C 
HETATM    3  C3  UNL     1     -33.318   6.578   3.039  1.00 20.00    -0.021 C 
HETATM    4  C4  UNL     1     -34.091   5.477   2.764  1.00 20.00    -0.024 C 
HETATM    5  C5  UNL     1     -35.120   4.610   6.322  1.00 20.00    -0.019 C 
HETATM    6  C6  UNL     1     -34.362   5.700   6.201  1.00 20.00    -0.056 C 
HETATM    7  C7  UNL     1     -35.442   4.059   4.893  1.00 20.00     0.036 C 
HETATM    8  C8  UNL     1     -32.906   6.547   4.487  1.00 20.00     0.039 C 
HETATM    9  C9  UNL     1     -34.301   4.650   4.026  1.00 20.00     0.020 C 
HETATM   10  C10 UNL     1     -34.222   5.925   4.787  1.00 20.00     0.037 C 
ENDROOT
TORSDOF 0
ENDMDL
MODEL 6
REMARK VINA RESULT:      -5.2      0.332      3.043
REMARK  0 active torsions:
REMARK  status: ('A' for Active; 'I' for Inactive)
ROOT
HETATM    1  C1  UNL     1     -34.056   5.212   2.822  1.00 20.00     0.004 C 
HETATM    2  C2  UNL     1     -33.333   6.357   3.005  1.00 20.00    -0.017 C 
HETATM    3  C3  UNL     1     -32.881   7.370   5.587  1.00 20.00    -0.021 C 
HETATM    4  C4  UNL     1     -33.460   6.769   6.676  1.00 20.00    -0.024 C 
HETATM    5  C5  UNL     1     -35.345   4.008   4.861  1.00 20.00    -0.019 C 
HETATM    6  C6  UNL     1     -34.606   4.798   4.080  1.00 20.00    -0.056 C 
HETATM    7  C7  UNL     1     -35.121   4.422   6.353  1.00 20.00     0.036 C 
HETATM    8  C8  UNL     1     -33.637   6.981   4.343  1.00 20.00     0.039 C 
HETATM    9  C9  UNL     1     -34.621   5.885   6.238  1.00 20.00     0.020 C 
HETATM   10  C10 UNL     1     -33.873   5.656   4.973  1.00 20.00     0.037 C 
ENDROOT
TORSDOF 0
ENDMDL
MODEL 7
REMARK VINA RESULT:      -5.0     12.170     13.942
REMARK  0 active torsions:
REMARK  status: ('A' for Active; 'I' for Inactive)
ROOT
HETATM    1  C1  UNL     1     -34.709  13.235  -4.899  1.00 20.00     0.004 C 
HETATM    2  C2  UNL     1     -34.327  13.614  -3.643  1.00 20.00    -0.017 C 
HETATM    3  C3  UNL     1     -33.664  16.289  -3.093  1.00 20.00    -0.021 C 
HETATM    4  C4  UNL     1     -33.633  17.216  -4.105  1.00 20.00    -0.024 C 
HETATM    5  C5  UNL     1     -34.575  14.927  -6.993  1.00 20.00    -0.019 C 
HETATM    6  C6  UNL     1     -34.545  14.344  -5.795  1.00 20.00    -0.056 C 
HETATM    7  C7  UNL     1     -34.294  16.457  -6.817  1.00 20.00     0.036 C 
HETATM    8  C8  UNL     1     -33.551  14.907  -3.681  1.00 20.00     0.039 C 
HETATM    9  C9  UNL     1     -33.552  16.521  -5.458  1.00 20.00     0.020 C 
HETATM   10  C10 UNL     1     -34.324  15.405  -4.848  1.00 20.00     0.037 C 
ENDROOT
TORSDOF 0
ENDMDL
MODEL 8
REMARK VINA RESULT:      -4.9      0.434      2.628
REMARK  0 active torsions:
REMARK  status: ('A' for Active; 'I' for Inactive)
ROOT
HETATM    1  C1  UNL     1     -33.259   6.447   3.039  1.00 20.00     0.004 C 
HETATM    2  C2  UNL     1     -33.988   5.310   2.828  1.00 20.00    -0.017 C 
HETATM    3  C3  UNL     1     -35.407   4.109   4.935  1.00 20.00    -0.021 C 
HETATM    4  C4  UNL     1     -35.304   4.605   6.210  1.00 20.00    -0.024 C 
HETATM    5  C5  UNL     1     -32.879   7.451   5.511  1.00 20.00    -0.019 C 
HETATM    6  C6  UNL     1     -33.248   6.745   4.442  1.00 20.00    -0.056 C 
HETATM    7  C7  UNL     1     -33.666   6.926   6.758  1.00 20.00     0.036 C 
HETATM    8  C8  UNL     1     -34.227   4.574   4.123  1.00 20.00     0.039 C 
HETATM    9  C9  UNL     1     -34.071   5.491   6.335  1.00 20.00     0.020 C 
HETATM   10  C10 UNL     1     -34.266   5.839   4.903  1.00 20.00     0.037 C 
ENDROOT
TORSDOF 0
ENDMDL
MODEL 9
REMARK VINA RESULT:      -4.8      9.441     10.764
REMARK  0 active torsions:
REMARK  status: ('A' for Active; 'I' for Inactive)
ROOT
HETATM    1  C1  UNL     1     -43.052   4.140  -3.248  1.00 20.00     0.004 C 
HETATM    2  C2  UNL     1     -42.259   3.461  -2.365  1.00 20.00    -0.017 C 
HETATM    3  C3  UNL     1     -40.839   4.835  -0.367  1.00 20.00    -0.021 C 
HETATM    4  C4  UNL     1     -40.861   6.207  -0.322  1.00 20.00    -0.024 C 
HETATM    5  C5  UNL     1     -43.089   6.834  -3.341  1.00 20.00    -0.019 C 
HETATM    6  C6  UNL     1     -42.875   5.550  -3.051  1.00 20.00    -0.056 C 
HETATM    7  C7  UNL     1     -42.405   7.718  -2.245  1.00 20.00     0.036 C 
HETATM    8  C8  UNL     1     -41.232   4.377  -1.747  1.00 20.00     0.039 C 
HETATM    9  C9  UNL     1     -41.327   6.773  -1.657  1.00 20.00     0.020 C 
HETATM   10  C10 UNL     1     -42.150   5.544  -1.808  1.00 20.00     0.037 C 
ENDROOT
TORSDOF 0
ENDMDL
