MODEL 1
REMARK VINA RESULT:      -4.9      0.000      0.000
REMARK  2 active torsions:
REMARK  status: ('A' for Active; 'I' for Inactive)
REMARK    1  A    between atoms: C1_1  and  C2_2 
REMARK    2  A    between atoms: C1_1  and  C3_3 
ROOT
HETATM    1  C1  UNL     1     -33.779   6.268   3.721  1.00 20.00     0.386 C 
HETATM    2  F4  UNL     1     -34.148   5.499   2.657  1.00 20.00    -0.191 F 
HETATM    3  F5  UNL     1     -34.591   7.364   3.685  1.00 20.00    -0.191 F 
ENDROOT
BRANCH   1   4
HETATM    4  C2  UNL     1     -32.352   6.738   3.471  1.00 20.00     0.390 C 
HETATM    5  F6  UNL     1     -31.586   5.649   3.189  1.00 20.00    -0.181 F 
HETATM    6  F7  UNL     1     -31.827   7.285   4.595  1.00 20.00    -0.181 F 
HETATM    7 CL9  UNL     1     -32.210   7.888   2.132  1.00 20.00    -0.042 Cl
ENDBRANCH   1   4
BRANCH   1   8
HETATM    8  C3  UNL     1     -34.066   5.495   5.011  1.00 20.00     0.328 C 
HETATM    9  F8  UNL     1     -33.051   4.627   5.260  1.00 20.00    -0.200 F 
HETATM   10 CL10 UNL     1     -35.591   4.577   4.927  1.00 20.00    -0.059 Cl
HETATM   11 CL11 UNL     1     -34.162   6.626   6.396  1.00 20.00    -0.059 Cl
ENDBRANCH   1   8
TORSDOF 2
ENDMDL
MODEL 2
REMARK VINA RESULT:      -4.9      0.766      1.502
REMARK  2 active torsions:
REMARK  status: ('A' for Active; 'I' for Inactive)
REMARK    1  A    between atoms: C1_1  and  C2_2 
REMARK    2  A    between atoms: C1_1  and  C3_3 
ROOT
HETATM    1  C1  UNL     1     -33.535   6.552   4.315  1.00 20.00     0.386 C 
HETATM    2  F4  UNL     1     -34.385   7.564   3.975  1.00 20.00    -0.191 F 
HETATM    3  F5  UNL     1     -32.728   7.058   5.291  1.00 20.00    -0.191 F 
ENDROOT
BRANCH   1   4
HETATM    4  C2  UNL     1     -32.666   6.257   3.100  1.00 20.00     0.390 C 
HETATM    5  F6  UNL     1     -33.376   5.469   2.247  1.00 20.00    -0.181 F 
HETATM    6  F7  UNL     1     -31.575   5.536   3.458  1.00 20.00    -0.181 F 
HETATM    7 CL9  UNL     1     -32.154   7.711   2.227  1.00 20.00    -0.042 Cl
ENDBRANCH   1   4
BRANCH   1   8
HETATM    8  C3  UNL     1     -34.353   5.402   4.910  1.00 20.00     0.328 C 
HETATM    9  F8  UNL     1     -33.633   4.251   4.851  1.00 20.00    -0.200 F 
HETATM   10 CL10 UNL     1     -35.896   5.153   4.056  1.00 20.00    -0.059 Cl
HETATM   11 CL11 UNL     1     -34.707   5.730   6.634  1.00 20.00    -0.059 Cl
ENDBRANCH   1   8
TORSDOF 2
ENDMDL
MODEL 3
REMARK VINA RESULT:      -4.7      2.091      3.583
REMARK  2 active torsions:
REMARK  status: ('A' for Active; 'I' for Inactive)
REMARK    1  A    between atoms: C1_1  and  C2_2 
REMARK    2  A    between atoms: C1_1  and  C3_3 
ROOT
HETATM    1  C1  UNL     1     -34.955   4.931   4.535  1.00 20.00     0.386 C 
HETATM    2  F4  UNL     1     -36.282   5.207   4.376  1.00 20.00    -0.191 F 
HETATM    3  F5  UNL     1     -34.806   3.619   4.190  1.00 20.00    -0.191 F 
ENDROOT
BRANCH   1   4
HETATM    4  C2  UNL     1     -34.637   5.060   6.019  1.00 20.00     0.390 C 
HETATM    5  F6  UNL     1     -33.701   4.125   6.339  1.00 20.00    -0.181 F 
HETATM    6  F7  UNL     1     -35.730   4.767   6.767  1.00 20.00    -0.181 F 
HETATM    7 CL9  UNL     1     -34.019   6.655   6.475  1.00 20.00    -0.042 Cl
ENDBRANCH   1   4
BRANCH   1   8
HETATM    8  C3  UNL     1     -34.152   5.786   3.551  1.00 20.00     0.328 C 
HETATM    9  F8  UNL     1     -34.545   7.082   3.645  1.00 20.00    -0.200 F 
HETATM   10 CL10 UNL     1     -34.358   5.251   1.864  1.00 20.00    -0.059 Cl
HETATM   11 CL11 UNL     1     -32.411   5.717   3.958  1.00 20.00    -0.059 Cl
ENDBRANCH   1   8
TORSDOF 2
ENDMDL
MODEL 4
REMARK VINA RESULT:      -4.6      1.992      2.756
REMARK  2 active torsions:
REMARK  status: ('A' for Active; 'I' for Inactive)
REMARK    1  A    between atoms: C1_1  and  C2_2 
REMARK    2  A    between atoms: C1_1  and  C3_3 
ROOT
HETATM    1  C1  UNL     1     -34.955   4.985   4.476  1.00 20.00     0.386 C 
HETATM    2  F4  UNL     1     -34.820   3.673   4.126  1.00 20.00    -0.191 F 
HETATM    3  F5  UNL     1     -36.272   5.286   4.284  1.00 20.00    -0.191 F 
ENDROOT
BRANCH   1   4
HETATM    4  C2  UNL     1     -34.141   5.807   3.487  1.00 20.00     0.390 C 
HETATM    5  F6  UNL     1     -34.552   7.103   3.566  1.00 20.00    -0.181 F 
HETATM    6  F7  UNL     1     -34.395   5.411   2.215  1.00 20.00    -0.181 F 
HETATM    7 CL9  UNL     1     -32.396   5.752   3.786  1.00 20.00    -0.042 Cl
ENDBRANCH   1   4
BRANCH   1   8
HETATM    8  C3  UNL     1     -34.638   5.132   5.967  1.00 20.00     0.328 C 
HETATM    9  F8  UNL     1     -35.769   4.947   6.695  1.00 20.00    -0.200 F 
HETATM   10 CL10 UNL     1     -33.962   6.732   6.362  1.00 20.00    -0.059 Cl
HETATM   11 CL11 UNL     1     -33.460   3.880   6.469  1.00 20.00    -0.059 Cl
ENDBRANCH   1   8
TORSDOF 2
ENDMDL
MODEL 5
REMARK VINA RESULT:      -4.6      1.518      2.149
REMARK  2 active torsions:
REMARK  status: ('A' for Active; 'I' for Inactive)
REMARK    1  A    between atoms: C1_1  and  C2_2 
REMARK    2  A    between atoms: C1_1  and  C3_3 
ROOT
HETATM    1  C1  UNL     1     -33.745   6.538   4.078  1.00 20.00     0.386 C 
HETATM    2  F4  UNL     1     -34.404   7.719   3.904  1.00 20.00    -0.191 F 
HETATM    3  F5  UNL     1     -33.507   6.441   5.418  1.00 20.00    -0.191 F 
ENDROOT
BRANCH   1   4
HETATM    4  C2  UNL     1     -32.399   6.658   3.375  1.00 20.00     0.390 C 
HETATM    5  F6  UNL     1     -32.616   7.112   2.111  1.00 20.00    -0.181 F 
HETATM    6  F7  UNL     1     -31.821   5.438   3.242  1.00 20.00    -0.181 F 
HETATM    7 CL9  UNL     1     -31.274   7.761   4.183  1.00 20.00    -0.042 Cl
ENDBRANCH   1   4
BRANCH   1   8
HETATM    8  C3  UNL     1     -34.672   5.391   3.667  1.00 20.00     0.328 C 
HETATM    9  F8  UNL     1     -34.187   4.791   2.548  1.00 20.00    -0.200 F 
HETATM   10 CL10 UNL     1     -36.333   5.946   3.340  1.00 20.00    -0.059 Cl
HETATM   11 CL11 UNL     1     -34.732   4.156   4.961  1.00 20.00    -0.059 Cl
ENDBRANCH   1   8
TORSDOF 2
ENDMDL
MODEL 6
REMARK VINA RESULT:      -4.6      1.413      3.538
REMARK  2 active torsions:
REMARK  status: ('A' for Active; 'I' for Inactive)
REMARK    1  A    between atoms: C1_1  and  C2_2 
REMARK    2  A    between atoms: C1_1  and  C3_3 
ROOT
HETATM    1  C1  UNL     1     -33.781   6.605   4.058  1.00 20.00     0.386 C 
HETATM    2  F4  UNL     1     -33.652   6.531   5.415  1.00 20.00    -0.191 F 
HETATM    3  F5  UNL     1     -34.498   7.741   3.817  1.00 20.00    -0.191 F 
ENDROOT
BRANCH   1   4
HETATM    4  C2  UNL     1     -34.627   5.419   3.615  1.00 20.00     0.390 C 
HETATM    5  F6  UNL     1     -34.085   4.909   2.476  1.00 20.00    -0.181 F 
HETATM    6  F7  UNL     1     -35.880   5.823   3.288  1.00 20.00    -0.181 F 
HETATM    7 CL9  UNL     1     -34.720   4.126   4.821  1.00 20.00    -0.042 Cl
ENDBRANCH   1   4
BRANCH   1   8
HETATM    8  C3  UNL     1     -32.391   6.769   3.439  1.00 20.00     0.328 C 
HETATM    9  F8  UNL     1     -31.831   5.547   3.243  1.00 20.00    -0.200 F 
HETATM   10 CL10 UNL     1     -31.301   7.735   4.465  1.00 20.00    -0.059 Cl
HETATM   11 CL11 UNL     1     -32.521   7.567   1.842  1.00 20.00    -0.059 Cl
ENDBRANCH   1   8
TORSDOF 2
ENDMDL
MODEL 7
REMARK VINA RESULT:      -4.5      1.456      3.625
REMARK  2 active torsions:
REMARK  status: ('A' for Active; 'I' for Inactive)
REMARK    1  A    between atoms: C1_1  and  C2_2 
REMARK    2  A    between atoms: C1_1  and  C3_3 
ROOT
HETATM    1  C1  UNL     1     -33.793   6.419   4.370  1.00 20.00     0.386 C 
HETATM    2  F4  UNL     1     -33.015   6.869   5.396  1.00 20.00    -0.191 F 
HETATM    3  F5  UNL     1     -34.635   7.449   4.065  1.00 20.00    -0.191 F 
ENDROOT
BRANCH   1   4
HETATM    4  C2  UNL     1     -34.638   5.272   4.907  1.00 20.00     0.390 C 
HETATM    5  F6  UNL     1     -33.986   4.105   4.655  1.00 20.00    -0.181 F 
HETATM    6  F7  UNL     1     -35.817   5.196   4.241  1.00 20.00    -0.181 F 
HETATM    7 CL9  UNL     1     -34.949   5.376   6.648  1.00 20.00    -0.042 Cl
ENDBRANCH   1   4
BRANCH   1   8
HETATM    8  C3  UNL     1     -32.900   6.148   3.157  1.00 20.00     0.328 C 
HETATM    9  F8  UNL     1     -31.817   5.423   3.539  1.00 20.00    -0.200 F 
HETATM   10 CL10 UNL     1     -32.335   7.649   2.382  1.00 20.00    -0.059 Cl
HETATM   11 CL11 UNL     1     -33.793   5.185   1.941  1.00 20.00    -0.059 Cl
ENDBRANCH   1   8
TORSDOF 2
ENDMDL
MODEL 8
REMARK VINA RESULT:      -4.5      1.796      3.217
REMARK  2 active torsions:
REMARK  status: ('A' for Active; 'I' for Inactive)
REMARK    1  A    between atoms: C1_1  and  C2_2 
REMARK    2  A    between atoms: C1_1  and  C3_3 
ROOT
HETATM    1  C1  UNL     1     -34.047   6.126   4.724  1.00 20.00     0.386 C 
HETATM    2  F4  UNL     1     -32.748   5.993   4.331  1.00 20.00    -0.191 F 
HETATM    3  F5  UNL     1     -34.414   7.392   4.370  1.00 20.00    -0.191 F 
ENDROOT
BRANCH   1   4
HETATM    4  C2  UNL     1     -34.074   6.043   6.244  1.00 20.00     0.390 C 
HETATM    5  F6  UNL     1     -33.297   4.994   6.630  1.00 20.00    -0.181 F 
HETATM    6  F7  UNL     1     -35.326   5.765   6.684  1.00 20.00    -0.181 F 
HETATM    7 CL9  UNL     1     -33.478   7.507   7.044  1.00 20.00    -0.042 Cl
ENDBRANCH   1   4
BRANCH   1   8
HETATM    8  C3  UNL     1     -34.905   5.134   3.934  1.00 20.00     0.328 C 
HETATM    9  F8  UNL     1     -36.169   5.617   3.815  1.00 20.00    -0.200 F 
HETATM   10 CL10 UNL     1     -34.979   3.532   4.711  1.00 20.00    -0.059 Cl
HETATM   11 CL11 UNL     1     -34.245   4.932   2.283  1.00 20.00    -0.059 Cl
ENDBRANCH   1   8
TORSDOF 2
ENDMDL
MODEL 9
REMARK VINA RESULT:      -4.4      9.296     10.436
REMARK  2 active torsions:
REMARK  status: ('A' for Active; 'I' for Inactive)
REMARK    1  A    between atoms: C1_1  and  C2_2 
REMARK    2  A    between atoms: C1_1  and  C3_3 
ROOT
HETATM    1  C1  UNL     1     -41.318   4.802  -1.336  1.00 20.00     0.386 C 
HETATM    2  F4  UNL     1     -40.107   4.176  -1.310  1.00 20.00    -0.191 F 
HETATM    3  F5  UNL     1     -41.135   5.933  -2.077  1.00 20.00    -0.191 F 
ENDROOT
BRANCH   1   4
HETATM    4  C2  UNL     1     -41.641   5.228   0.090  1.00 20.00     0.390 C 
HETATM    5  F6  UNL     1     -40.655   6.061   0.522  1.00 20.00    -0.181 F 
HETATM    6  F7  UNL     1     -41.621   4.159   0.923  1.00 20.00    -0.181 F 
HETATM    7 CL9  UNL     1     -43.193   6.068   0.244  1.00 20.00    -0.042 Cl
ENDBRANCH   1   4
BRANCH   1   8
HETATM    8  C3  UNL     1     -42.322   3.904  -2.063  1.00 20.00     0.328 C 
HETATM    9  F8  UNL     1     -43.117   3.279  -1.156  1.00 20.00    -0.200 F 
HETATM   10 CL10 UNL     1     -41.523   2.666  -3.065  1.00 20.00    -0.059 Cl
HETATM   11 CL11 UNL     1     -43.378   4.892  -3.118  1.00 20.00    -0.059 Cl
ENDBRANCH   1   8
TORSDOF 2
ENDMDL
