MODEL 1
REMARK VINA RESULT:      -4.8      0.000      0.000
REMARK  1 active torsions:
REMARK  status: ('A' for Active; 'I' for Inactive)
REMARK    1  A    between atoms: C5_5  and  O10_10 
ROOT
HETATM    1  C1  UNL     1     -34.842  14.227  -5.787  1.00 20.00     0.001 C 
HETATM    2  C2  UNL     1     -35.269  15.490  -5.642  1.00 20.00    -0.018 C 
HETATM    3  C3  UNL     1     -33.844  14.260  -3.436  1.00 20.00     0.046 C 
HETATM    4  C4  UNL     1     -36.108  15.603  -3.234  1.00 20.00     0.024 A 
HETATM    5  C5  UNL     1     -34.322  13.427  -4.635  1.00 20.00     0.141 C 
HETATM    6  C6  UNL     1     -35.303  16.231  -4.359  1.00 20.00    -0.018 A 
HETATM    7  C7  UNL     1     -34.597  15.561  -3.173  1.00 20.00    -0.030 A 
HETATM    8  C8  UNL     1     -35.312  17.733  -4.485  1.00 20.00     0.020 C 
HETATM    9  C9  UNL     1     -33.933  16.408  -2.110  1.00 20.00     0.016 C 
ENDROOT
BRANCH   5  10
HETATM   10  O10 UNL     1     -35.346  12.521  -4.231  1.00 20.00    -0.392 OA
HETATM   11  H24 UNL     1     -35.062  11.639  -4.514  1.00 20.00     0.210 HD
ENDBRANCH   5  10
TORSDOF 1
ENDMDL
MODEL 2
REMARK VINA RESULT:      -4.5      1.616      2.767
REMARK  1 active torsions:
REMARK  status: ('A' for Active; 'I' for Inactive)
REMARK    1  A    between atoms: C5_5  and  O10_10 
ROOT
HETATM    1  C1  UNL     1     -33.049  15.278  -3.792  1.00 20.00     0.001 C 
HETATM    2  C2  UNL     1     -33.267  16.207  -4.735  1.00 20.00    -0.018 C 
HETATM    3  C3  UNL     1     -35.294  14.175  -4.313  1.00 20.00     0.046 C 
HETATM    4  C4  UNL     1     -34.337  14.917  -6.660  1.00 20.00     0.024 A 
HETATM    5  C5  UNL     1     -33.905  14.059  -3.666  1.00 20.00     0.141 C 
HETATM    6  C6  UNL     1     -34.336  16.140  -5.759  1.00 20.00    -0.018 A 
HETATM    7  C7  UNL     1     -35.383  15.033  -5.572  1.00 20.00    -0.030 A 
HETATM    8  C8  UNL     1     -34.734  17.465  -6.360  1.00 20.00     0.020 C 
HETATM    9  C9  UNL     1     -36.810  15.257  -6.019  1.00 20.00     0.016 C 
ENDROOT
BRANCH   5  10
HETATM   10  O10 UNL     1     -33.190  12.959  -4.226  1.00 20.00    -0.392 OA
HETATM   11  H24 UNL     1     -32.462  13.338  -4.741  1.00 20.00     0.210 HD
ENDBRANCH   5  10
TORSDOF 1
ENDMDL
MODEL 3
REMARK VINA RESULT:      -4.4     11.159     12.168
REMARK  1 active torsions:
REMARK  status: ('A' for Active; 'I' for Inactive)
REMARK    1  A    between atoms: C5_5  and  O10_10 
ROOT
HETATM    1  C1  UNL     1     -41.981   4.645   0.104  1.00 20.00     0.001 C 
HETATM    2  C2  UNL     1     -42.422   5.892   0.323  1.00 20.00    -0.018 C 
HETATM    3  C3  UNL     1     -41.937   5.068  -2.415  1.00 20.00     0.046 C 
HETATM    4  C4  UNL     1     -41.109   7.328  -1.330  1.00 20.00     0.024 A 
HETATM    5  C5  UNL     1     -41.471   4.206  -1.231  1.00 20.00     0.141 C 
HETATM    6  C6  UNL     1     -42.441   6.974  -0.689  1.00 20.00    -0.018 A 
HETATM    7  C7  UNL     1     -42.132   6.555  -2.133  1.00 20.00    -0.030 A 
HETATM    8  C8  UNL     1     -43.417   8.091  -0.418  1.00 20.00     0.020 C 
HETATM    9  C9  UNL     1     -42.784   7.281  -3.289  1.00 20.00     0.016 C 
ENDROOT
BRANCH   5  10
HETATM   10  O10 UNL     1     -40.046   4.179  -1.170  1.00 20.00    -0.392 OA
HETATM   11  H24 UNL     1     -39.742   3.805  -2.010  1.00 20.00     0.210 HD
ENDBRANCH   5  10
TORSDOF 1
ENDMDL
MODEL 4
REMARK VINA RESULT:      -4.4      1.601      3.383
REMARK  1 active torsions:
REMARK  status: ('A' for Active; 'I' for Inactive)
REMARK    1  A    between atoms: C5_5  and  O10_10 
ROOT
HETATM    1  C1  UNL     1     -35.796  16.197  -2.375  1.00 20.00     0.001 C 
HETATM    2  C2  UNL     1     -34.560  15.688  -2.481  1.00 20.00    -0.018 C 
HETATM    3  C3  UNL     1     -36.275  15.631  -4.819  1.00 20.00     0.046 C 
HETATM    4  C4  UNL     1     -34.857  13.596  -3.913  1.00 20.00     0.024 A 
HETATM    5  C5  UNL     1     -36.832  15.997  -3.434  1.00 20.00     0.141 C 
HETATM    6  C6  UNL     1     -34.077  14.865  -3.615  1.00 20.00    -0.018 A 
HETATM    7  C7  UNL     1     -35.004  14.787  -4.836  1.00 20.00    -0.030 A 
HETATM    8  C8  UNL     1     -32.581  14.838  -3.798  1.00 20.00     0.020 C 
HETATM    9  C9  UNL     1     -34.419  14.651  -6.223  1.00 20.00     0.016 C 
ENDROOT
BRANCH   5  10
HETATM   10  O10 UNL     1     -37.733  14.988  -2.982  1.00 20.00    -0.392 OA
HETATM   11  H24 UNL     1     -38.517  15.449  -2.649  1.00 20.00     0.210 HD
ENDBRANCH   5  10
TORSDOF 1
ENDMDL
MODEL 5
REMARK VINA RESULT:      -4.4      1.819      2.790
REMARK  1 active torsions:
REMARK  status: ('A' for Active; 'I' for Inactive)
REMARK    1  A    between atoms: C5_5  and  O10_10 
ROOT
HETATM    1  C1  UNL     1     -33.153  16.302  -5.235  1.00 20.00     0.001 C 
HETATM    2  C2  UNL     1     -34.096  16.019  -6.145  1.00 20.00    -0.018 C 
HETATM    3  C3  UNL     1     -34.591  15.291  -3.382  1.00 20.00     0.046 C 
HETATM    4  C4  UNL     1     -34.958  13.714  -5.468  1.00 20.00     0.024 A 
HETATM    5  C5  UNL     1     -33.201  15.755  -3.844  1.00 20.00     0.141 C 
HETATM    6  C6  UNL     1     -35.262  15.135  -5.910  1.00 20.00    -0.018 A 
HETATM    7  C7  UNL     1     -35.500  14.701  -4.457  1.00 20.00    -0.030 A 
HETATM    8  C8  UNL     1     -36.432  15.355  -6.835  1.00 20.00     0.020 C 
HETATM    9  C9  UNL     1     -36.907  14.465  -3.958  1.00 20.00     0.016 C 
ENDROOT
BRANCH   5  10
HETATM   10  O10 UNL     1     -32.268  14.679  -3.763  1.00 20.00    -0.392 OA
HETATM   11  H24 UNL     1     -31.877  14.721  -2.878  1.00 20.00     0.210 HD
ENDBRANCH   5  10
TORSDOF 1
ENDMDL
MODEL 6
REMARK VINA RESULT:      -4.4      1.733      2.453
REMARK  1 active torsions:
REMARK  status: ('A' for Active; 'I' for Inactive)
REMARK    1  A    between atoms: C5_5  and  O10_10 
ROOT
HETATM    1  C1  UNL     1     -36.996  16.088  -4.768  1.00 20.00     0.001 C 
HETATM    2  C2  UNL     1     -35.797  16.685  -4.720  1.00 20.00    -0.018 C 
HETATM    3  C3  UNL     1     -35.956  13.865  -4.063  1.00 20.00     0.046 C 
HETATM    4  C4  UNL     1     -34.679  15.693  -2.650  1.00 20.00     0.024 A 
HETATM    5  C5  UNL     1     -37.225  14.717  -4.216  1.00 20.00     0.141 C 
HETATM    6  C6  UNL     1     -34.581  16.095  -4.112  1.00 20.00    -0.018 A 
HETATM    7  C7  UNL     1     -34.675  14.616  -3.713  1.00 20.00    -0.030 A 
HETATM    8  C8  UNL     1     -33.275  16.663  -4.606  1.00 20.00     0.020 C 
HETATM    9  C9  UNL     1     -33.450  13.732  -3.784  1.00 20.00     0.016 C 
ENDROOT
BRANCH   5  10
HETATM   10  O10 UNL     1     -37.884  14.854  -2.959  1.00 20.00    -0.392 OA
HETATM   11  H24 UNL     1     -37.696  14.045  -2.460  1.00 20.00     0.210 HD
ENDBRANCH   5  10
TORSDOF 1
ENDMDL
MODEL 7
REMARK VINA RESULT:      -4.3      1.289      2.082
REMARK  1 active torsions:
REMARK  status: ('A' for Active; 'I' for Inactive)
REMARK    1  A    between atoms: C5_5  and  O10_10 
ROOT
HETATM    1  C1  UNL     1     -36.221  14.121  -4.065  1.00 20.00     0.001 C 
HETATM    2  C2  UNL     1     -36.049  15.200  -3.289  1.00 20.00    -0.018 C 
HETATM    3  C3  UNL     1     -34.415  14.946  -5.671  1.00 20.00     0.046 C 
HETATM    4  C4  UNL     1     -33.523  15.566  -3.264  1.00 20.00     0.024 A 
HETATM    5  C5  UNL     1     -35.272  13.774  -5.167  1.00 20.00     0.141 C 
HETATM    6  C6  UNL     1     -34.918  16.151  -3.400  1.00 20.00    -0.018 A 
HETATM    7  C7  UNL     1     -34.016  15.989  -4.631  1.00 20.00    -0.030 A 
HETATM    8  C8  UNL     1     -35.172  17.521  -2.823  1.00 20.00     0.020 C 
HETATM    9  C9  UNL     1     -33.356  17.200  -5.251  1.00 20.00     0.016 C 
ENDROOT
BRANCH   5  10
HETATM   10  O10 UNL     1     -34.437  12.712  -4.711  1.00 20.00    -0.392 OA
HETATM   11  H24 UNL     1     -33.536  12.928  -4.994  1.00 20.00     0.210 HD
ENDBRANCH   5  10
TORSDOF 1
ENDMDL
MODEL 8
REMARK VINA RESULT:      -4.3      1.455      2.943
REMARK  1 active torsions:
REMARK  status: ('A' for Active; 'I' for Inactive)
REMARK    1  A    between atoms: C5_5  and  O10_10 
ROOT
HETATM    1  C1  UNL     1     -34.532  15.169  -3.050  1.00 20.00     0.001 C 
HETATM    2  C2  UNL     1     -35.139  16.118  -3.778  1.00 20.00    -0.018 C 
HETATM    3  C3  UNL     1     -34.417  13.633  -5.088  1.00 20.00     0.046 C 
HETATM    4  C4  UNL     1     -33.940  16.053  -6.030  1.00 20.00     0.024 A 
HETATM    5  C5  UNL     1     -33.904  13.966  -3.678  1.00 20.00     0.141 C 
HETATM    6  C6  UNL     1     -35.246  16.113  -5.255  1.00 20.00    -0.018 A 
HETATM    7  C7  UNL     1     -34.814  14.820  -5.961  1.00 20.00    -0.030 A 
HETATM    8  C8  UNL     1     -36.368  16.946  -5.821  1.00 20.00     0.020 C 
HETATM    9  C9  UNL     1     -35.495  14.393  -7.241  1.00 20.00     0.016 C 
ENDROOT
BRANCH   5  10
HETATM   10  O10 UNL     1     -32.492  14.168  -3.701  1.00 20.00    -0.392 OA
HETATM   11  H24 UNL     1     -32.092  13.300  -3.857  1.00 20.00     0.210 HD
ENDBRANCH   5  10
TORSDOF 1
ENDMDL
MODEL 9
REMARK VINA RESULT:      -4.3      1.816      3.095
REMARK  1 active torsions:
REMARK  status: ('A' for Active; 'I' for Inactive)
REMARK    1  A    between atoms: C5_5  and  O10_10 
ROOT
HETATM    1  C1  UNL     1     -33.636  13.923  -3.980  1.00 20.00     0.001 C 
HETATM    2  C2  UNL     1     -34.445  13.706  -5.028  1.00 20.00    -0.018 C 
HETATM    3  C3  UNL     1     -33.241  16.329  -4.741  1.00 20.00     0.046 C 
HETATM    4  C4  UNL     1     -35.791  15.864  -5.247  1.00 20.00     0.024 A 
HETATM    5  C5  UNL     1     -33.168  15.294  -3.608  1.00 20.00     0.141 C 
HETATM    6  C6  UNL     1     -34.984  14.763  -5.915  1.00 20.00    -0.018 A 
HETATM    7  C7  UNL     1     -34.390  16.167  -5.733  1.00 20.00    -0.030 A 
HETATM    8  C8  UNL     1     -35.417  14.297  -7.282  1.00 20.00     0.020 C 
HETATM    9  C9  UNL     1     -34.265  17.096  -6.919  1.00 20.00     0.016 C 
ENDROOT
BRANCH   5  10
HETATM   10  O10 UNL     1     -33.935  15.731  -2.488  1.00 20.00    -0.392 OA
HETATM   11  H24 UNL     1     -34.004  14.973  -1.889  1.00 20.00     0.210 HD
ENDBRANCH   5  10
TORSDOF 1
ENDMDL
