MODEL 1
REMARK VINA RESULT:      -3.7      0.000      0.000
REMARK  0 active torsions:
REMARK  status: ('A' for Active; 'I' for Inactive)
ROOT
HETATM    1  C1  UNL     1     -34.438  13.613  -4.620  1.00 20.00     0.196 C 
HETATM    2  C2  UNL     1     -33.253  14.087  -3.806  1.00 20.00     0.092 C 
HETATM    3  C3  UNL     1     -33.445  15.489  -3.226  1.00 20.00     0.019 C 
HETATM    4  C4  UNL     1     -33.592  16.591  -4.277  1.00 20.00     0.087 C 
HETATM    5  O5  UNL     1     -35.131  12.650  -4.319  1.00 20.00    -0.285 OA
HETATM    6  S6  UNL     1     -34.703  14.523  -6.103  1.00 20.00    -0.020 SA
HETATM    7  S7  UNL     1     -35.098  16.352  -5.265  1.00 20.00    -0.090 SA
ENDROOT
TORSDOF 0
ENDMDL
MODEL 2
REMARK VINA RESULT:      -3.5      1.751      1.877
REMARK  0 active torsions:
REMARK  status: ('A' for Active; 'I' for Inactive)
ROOT
HETATM    1  C1  UNL     1     -33.623  14.010  -3.986  1.00 20.00     0.196 C 
HETATM    2  C2  UNL     1     -33.409  15.337  -3.289  1.00 20.00     0.092 C 
HETATM    3  C3  UNL     1     -34.612  15.779  -2.455  1.00 20.00     0.019 C 
HETATM    4  C4  UNL     1     -35.884  16.029  -3.269  1.00 20.00     0.087 C 
HETATM    5  O5  UNL     1     -32.965  13.004  -3.753  1.00 20.00    -0.285 OA
HETATM    6  S6  UNL     1     -34.863  14.044  -5.234  1.00 20.00    -0.020 SA
HETATM    7  S7  UNL     1     -36.472  14.495  -4.046  1.00 20.00    -0.090 SA
ENDROOT
TORSDOF 0
ENDMDL
MODEL 3
REMARK VINA RESULT:      -3.5      1.950      2.327
REMARK  0 active torsions:
REMARK  status: ('A' for Active; 'I' for Inactive)
ROOT
HETATM    1  C1  UNL     1     -34.992  13.749  -4.799  1.00 20.00     0.196 C 
HETATM    2  C2  UNL     1     -35.376  14.317  -6.148  1.00 20.00     0.092 C 
HETATM    3  C3  UNL     1     -34.292  15.205  -6.758  1.00 20.00     0.019 C 
HETATM    4  C4  UNL     1     -33.975  16.461  -5.944  1.00 20.00     0.087 C 
HETATM    5  O5  UNL     1     -34.848  12.553  -4.578  1.00 20.00    -0.285 OA
HETATM    6  S6  UNL     1     -34.834  14.956  -3.528  1.00 20.00    -0.020 SA
HETATM    7  S7  UNL     1     -33.278  16.028  -4.323  1.00 20.00    -0.090 SA
ENDROOT
TORSDOF 0
ENDMDL
MODEL 4
REMARK VINA RESULT:      -3.5      1.708      2.261
REMARK  0 active torsions:
REMARK  status: ('A' for Active; 'I' for Inactive)
ROOT
HETATM    1  C1  UNL     1     -36.116  14.428  -4.131  1.00 20.00     0.196 C 
HETATM    2  C2  UNL     1     -35.006  13.551  -4.671  1.00 20.00     0.092 C 
HETATM    3  C3  UNL     1     -33.747  13.574  -3.804  1.00 20.00     0.019 C 
HETATM    4  C4  UNL     1     -33.074  14.945  -3.707  1.00 20.00     0.087 C 
HETATM    5  O5  UNL     1     -37.198  14.001  -3.750  1.00 20.00    -0.285 OA
HETATM    6  S6  UNL     1     -35.753  16.150  -4.165  1.00 20.00    -0.020 SA
HETATM    7  S7  UNL     1     -34.157  16.145  -2.879  1.00 20.00    -0.090 SA
ENDROOT
TORSDOF 0
ENDMDL
MODEL 5
REMARK VINA RESULT:      -3.4      1.842      2.397
REMARK  0 active torsions:
REMARK  status: ('A' for Active; 'I' for Inactive)
ROOT
HETATM    1  C1  UNL     1     -33.779  13.873  -3.942  1.00 20.00     0.196 C 
HETATM    2  C2  UNL     1     -34.941  13.611  -4.874  1.00 20.00     0.092 C 
HETATM    3  C3  UNL     1     -34.835  14.373  -6.196  1.00 20.00     0.019 C 
HETATM    4  C4  UNL     1     -34.861  15.896  -6.048  1.00 20.00     0.087 C 
HETATM    5  O5  UNL     1     -32.982  13.013  -3.585  1.00 20.00    -0.285 OA
HETATM    6  S6  UNL     1     -33.699  15.524  -3.337  1.00 20.00    -0.020 SA
HETATM    7  S7  UNL     1     -33.412  16.486  -5.124  1.00 20.00    -0.090 SA
ENDROOT
TORSDOF 0
ENDMDL
MODEL 6
REMARK VINA RESULT:      -3.3      1.921      2.876
REMARK  0 active torsions:
REMARK  status: ('A' for Active; 'I' for Inactive)
ROOT
HETATM    1  C1  UNL     1     -33.763  16.209  -4.587  1.00 20.00     0.196 C 
HETATM    2  C2  UNL     1     -33.579  15.251  -3.430  1.00 20.00     0.092 C 
HETATM    3  C3  UNL     1     -33.551  13.784  -3.863  1.00 20.00     0.019 C 
HETATM    4  C4  UNL     1     -34.850  13.292  -4.503  1.00 20.00     0.087 C 
HETATM    5  O5  UNL     1     -32.927  17.036  -4.927  1.00 20.00    -0.285 OA
HETATM    6  S6  UNL     1     -35.332  16.093  -5.375  1.00 20.00    -0.020 SA
HETATM    7  S7  UNL     1     -35.183  14.166  -6.060  1.00 20.00    -0.090 SA
ENDROOT
TORSDOF 0
ENDMDL
MODEL 7
REMARK VINA RESULT:      -3.2      1.376      1.443
REMARK  0 active torsions:
REMARK  status: ('A' for Active; 'I' for Inactive)
ROOT
HETATM    1  C1  UNL     1     -36.047  14.282  -4.323  1.00 20.00     0.196 C 
HETATM    2  C2  UNL     1     -34.714  13.841  -3.760  1.00 20.00     0.092 C 
HETATM    3  C3  UNL     1     -33.815  15.011  -3.356  1.00 20.00     0.019 C 
HETATM    4  C4  UNL     1     -33.404  15.919  -4.516  1.00 20.00     0.087 C 
HETATM    5  O5  UNL     1     -37.125  14.037  -3.796  1.00 20.00    -0.285 OA
HETATM    6  S6  UNL     1     -35.934  15.126  -5.863  1.00 20.00    -0.020 SA
HETATM    7  S7  UNL     1     -34.851  16.750  -5.237  1.00 20.00    -0.090 SA
ENDROOT
TORSDOF 0
ENDMDL
MODEL 8
REMARK VINA RESULT:      -3.2     11.954     12.362
REMARK  0 active torsions:
REMARK  status: ('A' for Active; 'I' for Inactive)
ROOT
HETATM    1  C1  UNL     1     -41.573   4.895  -0.375  1.00 20.00     0.196 C 
HETATM    2  C2  UNL     1     -40.836   6.217  -0.352  1.00 20.00     0.092 C 
HETATM    3  C3  UNL     1     -41.606   7.347  -1.037  1.00 20.00     0.019 C 
HETATM    4  C4  UNL     1     -41.851   7.126  -2.531  1.00 20.00     0.087 C 
HETATM    5  O5  UNL     1     -41.965   4.315   0.630  1.00 20.00    -0.285 OA
HETATM    6  S6  UNL     1     -41.762   4.205  -1.982  1.00 20.00    -0.020 SA
HETATM    7  S7  UNL     1     -42.918   5.682  -2.810  1.00 20.00    -0.090 SA
ENDROOT
TORSDOF 0
ENDMDL
MODEL 9
REMARK VINA RESULT:      -3.2     12.691     13.261
REMARK  0 active torsions:
REMARK  status: ('A' for Active; 'I' for Inactive)
ROOT
HETATM    1  C1  UNL     1     -33.351   6.259   4.009  1.00 20.00     0.196 C 
HETATM    2  C2  UNL     1     -33.604   6.991   5.310  1.00 20.00     0.092 C 
HETATM    3  C3  UNL     1     -33.844   6.051   6.492  1.00 20.00     0.019 C 
HETATM    4  C4  UNL     1     -35.089   5.172   6.354  1.00 20.00     0.087 C 
HETATM    5  O5  UNL     1     -32.297   6.316   3.388  1.00 20.00    -0.285 OA
HETATM    6  S6  UNL     1     -34.739   5.361   3.408  1.00 20.00    -0.020 SA
HETATM    7  S7  UNL     1     -34.927   4.027   4.953  1.00 20.00    -0.090 SA
ENDROOT
TORSDOF 0
ENDMDL
