MODEL 1
REMARK VINA RESULT:      -5.5      0.000      0.000
REMARK  0 active torsions:
REMARK  status: ('A' for Active; 'I' for Inactive)
ROOT
HETATM    1  C1  UNL     1     -33.632   6.780   6.709  1.00 20.00    -0.021 C 
HETATM    2  C2  UNL     1     -34.607   4.400   6.232  1.00 20.00    -0.021 C 
HETATM    3  C3  UNL     1     -32.852   7.161   5.673  1.00 20.00    -0.025 C 
HETATM    4  C4  UNL     1     -34.792   3.909   4.988  1.00 20.00    -0.025 C 
HETATM    5  C5  UNL     1     -33.293   6.420   3.011  1.00 20.00     0.009 C 
HETATM    6  C6  UNL     1     -34.211   5.185   2.719  1.00 20.00     0.009 C 
HETATM    7  C7  UNL     1     -34.785   5.893   6.284  1.00 20.00     0.035 C 
HETATM    8  C8  UNL     1     -33.221   6.322   4.513  1.00 20.00     0.013 C 
HETATM    9  C9  UNL     1     -35.114   4.985   3.973  1.00 20.00     0.013 C 
HETATM   10  C10 UNL     1     -34.730   6.184   4.805  1.00 20.00     0.012 C 
ENDROOT
TORSDOF 0
ENDMDL
MODEL 2
REMARK VINA RESULT:      -5.3      0.866      2.815
REMARK  0 active torsions:
REMARK  status: ('A' for Active; 'I' for Inactive)
ROOT
HETATM    1  C1  UNL     1     -32.596   6.632   2.845  1.00 20.00    -0.021 C 
HETATM    2  C2  UNL     1     -35.007   5.615   2.837  1.00 20.00    -0.021 C 
HETATM    3  C3  UNL     1     -32.393   7.294   4.006  1.00 20.00    -0.025 C 
HETATM    4  C4  UNL     1     -35.682   5.297   3.963  1.00 20.00    -0.025 C 
HETATM    5  C5  UNL     1     -33.531   6.568   6.456  1.00 20.00     0.009 C 
HETATM    6  C6  UNL     1     -34.783   5.627   6.452  1.00 20.00     0.009 C 
HETATM    7  C7  UNL     1     -33.521   5.441   3.001  1.00 20.00     0.035 C 
HETATM    8  C8  UNL     1     -33.396   6.803   4.975  1.00 20.00     0.013 C 
HETATM    9  C9  UNL     1     -34.772   4.865   5.093  1.00 20.00     0.013 C 
HETATM   10  C10 UNL     1     -33.465   5.335   4.504  1.00 20.00     0.012 C 
ENDROOT
TORSDOF 0
ENDMDL
MODEL 3
REMARK VINA RESULT:      -4.9      0.644      3.116
REMARK  0 active torsions:
REMARK  status: ('A' for Active; 'I' for Inactive)
ROOT
HETATM    1  C1  UNL     1     -35.443   4.227   4.597  1.00 20.00    -0.021 C 
HETATM    2  C2  UNL     1     -33.611   5.087   2.939  1.00 20.00    -0.021 C 
HETATM    3  C3  UNL     1     -35.074   4.519   5.864  1.00 20.00    -0.025 C 
HETATM    4  C4  UNL     1     -32.783   6.117   3.216  1.00 20.00    -0.025 C 
HETATM    5  C5  UNL     1     -33.582   6.771   6.592  1.00 20.00     0.009 C 
HETATM    6  C6  UNL     1     -32.766   7.520   5.485  1.00 20.00     0.009 C 
HETATM    7  C7  UNL     1     -34.958   5.251   3.591  1.00 20.00     0.035 C 
HETATM    8  C8  UNL     1     -34.053   5.587   5.790  1.00 20.00     0.013 C 
HETATM    9  C9  UNL     1     -33.418   7.155   4.117  1.00 20.00     0.013 C 
HETATM   10  C10 UNL     1     -34.609   6.346   4.568  1.00 20.00     0.012 C 
ENDROOT
TORSDOF 0
ENDMDL
MODEL 4
REMARK VINA RESULT:      -4.8      0.713      2.567
REMARK  0 active torsions:
REMARK  status: ('A' for Active; 'I' for Inactive)
ROOT
HETATM    1  C1  UNL     1     -35.233   4.223   5.972  1.00 20.00    -0.021 C 
HETATM    2  C2  UNL     1     -34.139   6.522   6.574  1.00 20.00    -0.021 C 
HETATM    3  C3  UNL     1     -35.566   4.214   4.662  1.00 20.00    -0.025 C 
HETATM    4  C4  UNL     1     -33.495   7.296   5.675  1.00 20.00    -0.025 C 
HETATM    5  C5  UNL     1     -34.148   5.569   2.666  1.00 20.00     0.009 C 
HETATM    6  C6  UNL     1     -33.183   6.728   3.087  1.00 20.00     0.009 C 
HETATM    7  C7  UNL     1     -34.001   5.056   6.262  1.00 20.00     0.035 C 
HETATM    8  C8  UNL     1     -34.782   5.280   4.002  1.00 20.00     0.013 C 
HETATM    9  C9  UNL     1     -32.819   6.493   4.584  1.00 20.00     0.013 C 
HETATM   10  C10 UNL     1     -33.495   5.169   4.845  1.00 20.00     0.012 C 
ENDROOT
TORSDOF 0
ENDMDL
MODEL 5
REMARK VINA RESULT:      -4.8     11.969     13.598
REMARK  0 active torsions:
REMARK  status: ('A' for Active; 'I' for Inactive)
ROOT
HETATM    1  C1  UNL     1     -33.830  16.228  -3.114  1.00 20.00    -0.021 C 
HETATM    2  C2  UNL     1     -34.198  13.689  -3.626  1.00 20.00    -0.021 C 
HETATM    3  C3  UNL     1     -33.437  16.861  -4.242  1.00 20.00    -0.025 C 
HETATM    4  C4  UNL     1     -34.517  13.217  -4.851  1.00 20.00    -0.025 C 
HETATM    5  C5  UNL     1     -34.246  16.134  -6.820  1.00 20.00     0.009 C 
HETATM    6  C6  UNL     1     -34.831  14.699  -7.046  1.00 20.00     0.009 C 
HETATM    7  C7  UNL     1     -34.761  15.064  -3.385  1.00 20.00     0.035 C 
HETATM    8  C8  UNL     1     -33.814  15.999  -5.384  1.00 20.00     0.013 C 
HETATM    9  C9  UNL     1     -35.340  14.195  -5.662  1.00 20.00     0.013 C 
HETATM   10  C10 UNL     1     -35.122  15.418  -4.806  1.00 20.00     0.012 C 
ENDROOT
TORSDOF 0
ENDMDL
MODEL 6
REMARK VINA RESULT:      -4.6     11.952     13.721
REMARK  0 active torsions:
REMARK  status: ('A' for Active; 'I' for Inactive)
ROOT
HETATM    1  C1  UNL     1     -34.836  13.344  -4.152  1.00 20.00    -0.021 C 
HETATM    2  C2  UNL     1     -34.832  15.473  -2.631  1.00 20.00    -0.021 C 
HETATM    3  C3  UNL     1     -34.995  13.715  -5.442  1.00 20.00    -0.025 C 
HETATM    4  C4  UNL     1     -34.463  16.697  -3.068  1.00 20.00    -0.025 C 
HETATM    5  C5  UNL     1     -34.041  16.112  -6.523  1.00 20.00     0.009 C 
HETATM    6  C6  UNL     1     -33.675  17.282  -5.548  1.00 20.00     0.009 C 
HETATM    7  C7  UNL     1     -34.082  14.373  -3.332  1.00 20.00     0.035 C 
HETATM    8  C8  UNL     1     -34.642  15.148  -5.535  1.00 20.00     0.013 C 
HETATM    9  C9  UNL     1     -33.409  16.642  -4.153  1.00 20.00     0.013 C 
HETATM   10  C10 UNL     1     -33.517  15.172  -4.479  1.00 20.00     0.012 C 
ENDROOT
TORSDOF 0
ENDMDL
MODEL 7
REMARK VINA RESULT:      -4.6     11.998     13.949
REMARK  0 active torsions:
REMARK  status: ('A' for Active; 'I' for Inactive)
ROOT
HETATM    1  C1  UNL     1     -34.756  13.183  -4.831  1.00 20.00    -0.021 C 
HETATM    2  C2  UNL     1     -34.406  14.991  -6.689  1.00 20.00    -0.021 C 
HETATM    3  C3  UNL     1     -34.074  13.543  -3.721  1.00 20.00    -0.025 C 
HETATM    4  C4  UNL     1     -34.117  16.283  -6.424  1.00 20.00    -0.025 C 
HETATM    5  C5  UNL     1     -33.639  16.191  -2.927  1.00 20.00     0.009 C 
HETATM    6  C6  UNL     1     -33.805  17.329  -3.990  1.00 20.00     0.009 C 
HETATM    7  C7  UNL     1     -35.266  14.372  -5.621  1.00 20.00     0.035 C 
HETATM    8  C8  UNL     1     -33.797  14.992  -3.826  1.00 20.00     0.013 C 
HETATM    9  C9  UNL     1     -34.718  16.764  -5.120  1.00 20.00     0.013 C 
HETATM   10  C10 UNL     1     -35.091  15.418  -4.549  1.00 20.00     0.012 C 
ENDROOT
TORSDOF 0
ENDMDL
MODEL 8
REMARK VINA RESULT:      -4.6     12.306     14.299
REMARK  0 active torsions:
REMARK  status: ('A' for Active; 'I' for Inactive)
ROOT
HETATM    1  C1  UNL     1     -34.740  16.120  -7.220  1.00 20.00    -0.021 C 
HETATM    2  C2  UNL     1     -33.354  16.907  -5.145  1.00 20.00    -0.021 C 
HETATM    3  C3  UNL     1     -34.814  14.771  -7.224  1.00 20.00    -0.025 C 
HETATM    4  C4  UNL     1     -33.248  16.188  -4.007  1.00 20.00    -0.025 C 
HETATM    5  C5  UNL     1     -34.869  13.187  -4.918  1.00 20.00     0.009 C 
HETATM    6  C6  UNL     1     -34.374  13.810  -3.569  1.00 20.00     0.009 C 
HETATM    7  C7  UNL     1     -34.682  16.703  -5.822  1.00 20.00     0.035 C 
HETATM    8  C8  UNL     1     -34.502  14.308  -5.854  1.00 20.00     0.013 C 
HETATM    9  C9  UNL     1     -34.480  15.357  -3.719  1.00 20.00     0.013 C 
HETATM   10  C10 UNL     1     -35.138  15.476  -5.072  1.00 20.00     0.012 C 
ENDROOT
TORSDOF 0
ENDMDL
MODEL 9
REMARK VINA RESULT:      -4.5     12.096     12.986
REMARK  0 active torsions:
REMARK  status: ('A' for Active; 'I' for Inactive)
ROOT
HETATM    1  C1  UNL     1     -32.656  14.821  -3.587  1.00 20.00    -0.021 C 
HETATM    2  C2  UNL     1     -33.896  16.496  -2.005  1.00 20.00    -0.021 C 
HETATM    3  C3  UNL     1     -33.488  13.804  -3.904  1.00 20.00    -0.025 C 
HETATM    4  C4  UNL     1     -35.238  16.646  -1.988  1.00 20.00    -0.025 C 
HETATM    5  C5  UNL     1     -36.263  14.057  -4.158  1.00 20.00     0.009 C 
HETATM    6  C6  UNL     1     -36.965  15.297  -3.509  1.00 20.00     0.009 C 
HETATM    7  C7  UNL     1     -33.384  16.133  -3.373  1.00 20.00     0.035 C 
HETATM    8  C8  UNL     1     -34.867  14.262  -3.629  1.00 20.00     0.013 C 
HETATM    9  C9  UNL     1     -35.875  16.397  -3.339  1.00 20.00     0.013 C 
HETATM   10  C10 UNL     1     -34.693  15.746  -4.014  1.00 20.00     0.012 C 
ENDROOT
TORSDOF 0
ENDMDL
