MODEL 1
REMARK VINA RESULT:      -5.3      0.000      0.000
REMARK  0 active torsions:
REMARK  status: ('A' for Active; 'I' for Inactive)
ROOT
HETATM    1  C1  UNL     1     -36.726  15.096  -3.473  1.00 20.00     0.132 C 
HETATM    2  C2  UNL     1     -37.217  16.505  -3.309  1.00 20.00     0.079 C 
HETATM    3  C3  UNL     1     -35.920  17.297  -3.320  1.00 20.00     0.017 C 
HETATM    4  C4  UNL     1     -33.467  16.604  -3.277  1.00 20.00     0.011 C 
HETATM    5  C5  UNL     1     -33.491  15.846  -4.598  1.00 20.00     0.010 C 
HETATM    6  C6  UNL     1     -35.252  14.943  -3.142  1.00 20.00     0.071 C 
HETATM    7  C7  UNL     1     -34.861  16.372  -2.688  1.00 20.00    -0.033 C 
HETATM    8  C8  UNL     1     -34.295  14.562  -4.305  1.00 20.00    -0.037 C 
HETATM    9  C9  UNL     1     -34.851  16.519  -1.163  1.00 20.00     0.016 C 
HETATM   10  C10 UNL     1     -34.986  14.068  -5.582  1.00 20.00     0.015 C 
HETATM   11  C11 UNL     1     -33.338  13.454  -3.820  1.00 20.00     0.015 C 
HETATM   12  O12 UNL     1     -37.456  14.163  -3.788  1.00 20.00    -0.298 OA
ENDROOT
TORSDOF 0
ENDMDL
MODEL 2
REMARK VINA RESULT:      -5.2      1.723      3.167
REMARK  0 active torsions:
REMARK  status: ('A' for Active; 'I' for Inactive)
ROOT
HETATM    1  C1  UNL     1     -34.932  13.806  -5.300  1.00 20.00     0.132 C 
HETATM    2  C2  UNL     1     -35.061  14.058  -6.775  1.00 20.00     0.079 C 
HETATM    3  C3  UNL     1     -34.863  15.563  -6.858  1.00 20.00     0.017 C 
HETATM    4  C4  UNL     1     -34.687  17.388  -5.086  1.00 20.00     0.011 C 
HETATM    5  C5  UNL     1     -33.425  16.849  -4.425  1.00 20.00     0.010 C 
HETATM    6  C6  UNL     1     -35.113  15.063  -4.469  1.00 20.00     0.071 C 
HETATM    7  C7  UNL     1     -35.434  16.132  -5.544  1.00 20.00    -0.033 C 
HETATM    8  C8  UNL     1     -33.880  15.579  -3.676  1.00 20.00    -0.037 C 
HETATM    9  C9  UNL     1     -36.937  16.397  -5.674  1.00 20.00     0.016 C 
HETATM   10  C10 UNL     1     -32.717  14.586  -3.563  1.00 20.00     0.015 C 
HETATM   11  C11 UNL     1     -34.328  15.955  -2.248  1.00 20.00     0.015 C 
HETATM   12  O12 UNL     1     -34.754  12.691  -4.823  1.00 20.00    -0.298 OA
ENDROOT
TORSDOF 0
ENDMDL
MODEL 3
REMARK VINA RESULT:      -5.0      1.978      3.474
REMARK  0 active torsions:
REMARK  status: ('A' for Active; 'I' for Inactive)
ROOT
HETATM    1  C1  UNL     1     -35.309  16.954  -4.943  1.00 20.00     0.132 C 
HETATM    2  C2  UNL     1     -36.582  16.682  -5.693  1.00 20.00     0.079 C 
HETATM    3  C3  UNL     1     -36.556  15.168  -5.824  1.00 20.00     0.017 C 
HETATM    4  C4  UNL     1     -34.784  13.413  -5.295  1.00 20.00     0.011 C 
HETATM    5  C5  UNL     1     -34.724  13.691  -3.799  1.00 20.00     0.010 C 
HETATM    6  C6  UNL     1     -34.329  15.795  -5.006  1.00 20.00     0.071 C 
HETATM    7  C7  UNL     1     -35.066  14.782  -5.919  1.00 20.00    -0.033 C 
HETATM    8  C8  UNL     1     -34.013  15.055  -3.677  1.00 20.00    -0.037 C 
HETATM    9  C9  UNL     1     -34.580  14.843  -7.370  1.00 20.00     0.016 C 
HETATM   10  C10 UNL     1     -34.471  15.778  -2.404  1.00 20.00     0.015 C 
HETATM   11  C11 UNL     1     -32.489  14.835  -3.580  1.00 20.00     0.015 C 
HETATM   12  O12 UNL     1     -35.071  18.020  -4.389  1.00 20.00    -0.298 OA
ENDROOT
TORSDOF 0
ENDMDL
MODEL 4
REMARK VINA RESULT:      -4.9      1.211      3.450
REMARK  0 active torsions:
REMARK  status: ('A' for Active; 'I' for Inactive)
ROOT
HETATM    1  C1  UNL     1     -36.223  14.394  -4.197  1.00 20.00     0.132 C 
HETATM    2  C2  UNL     1     -35.242  13.260  -4.288  1.00 20.00     0.079 C 
HETATM    3  C3  UNL     1     -33.948  13.985  -4.619  1.00 20.00     0.017 C 
HETATM    4  C4  UNL     1     -33.426  16.406  -5.229  1.00 20.00     0.011 C 
HETATM    5  C5  UNL     1     -33.904  17.009  -3.914  1.00 20.00     0.010 C 
HETATM    6  C6  UNL     1     -35.724  15.661  -4.868  1.00 20.00     0.071 C 
HETATM    7  C7  UNL     1     -34.360  15.214  -5.455  1.00 20.00    -0.033 C 
HETATM    8  C8  UNL     1     -35.442  16.887  -3.958  1.00 20.00    -0.037 C 
HETATM    9  C9  UNL     1     -34.453  14.855  -6.941  1.00 20.00     0.016 C 
HETATM   10  C10 UNL     1     -36.005  16.786  -2.535  1.00 20.00     0.015 C 
HETATM   11  C11 UNL     1     -36.040  18.147  -4.619  1.00 20.00     0.015 C 
HETATM   12  O12 UNL     1     -37.329  14.284  -3.681  1.00 20.00    -0.298 OA
ENDROOT
TORSDOF 0
ENDMDL
MODEL 5
REMARK VINA RESULT:      -4.9      1.424      2.385
REMARK  0 active torsions:
REMARK  status: ('A' for Active; 'I' for Inactive)
ROOT
HETATM    1  C1  UNL     1     -35.934  14.724  -3.781  1.00 20.00     0.132 C 
HETATM    2  C2  UNL     1     -35.532  15.505  -2.563  1.00 20.00     0.079 C 
HETATM    3  C3  UNL     1     -34.457  16.426  -3.115  1.00 20.00     0.017 C 
HETATM    4  C4  UNL     1     -33.270  16.547  -5.369  1.00 20.00     0.011 C 
HETATM    5  C5  UNL     1     -34.518  16.841  -6.192  1.00 20.00     0.010 C 
HETATM    6  C6  UNL     1     -34.900  14.791  -4.891  1.00 20.00     0.071 C 
HETATM    7  C7  UNL     1     -33.770  15.634  -4.246  1.00 20.00    -0.033 C 
HETATM    8  C8  UNL     1     -35.308  15.515  -6.204  1.00 20.00    -0.037 C 
HETATM    9  C9  UNL     1     -32.637  14.765  -3.691  1.00 20.00     0.016 C 
HETATM   10  C10 UNL     1     -36.808  15.794  -6.354  1.00 20.00     0.015 C 
HETATM   11  C11 UNL     1     -34.858  14.658  -7.406  1.00 20.00     0.015 C 
HETATM   12  O12 UNL     1     -36.962  14.061  -3.844  1.00 20.00    -0.298 OA
ENDROOT
TORSDOF 0
ENDMDL
MODEL 6
REMARK VINA RESULT:      -4.9      1.421      3.220
REMARK  0 active torsions:
REMARK  status: ('A' for Active; 'I' for Inactive)
ROOT
HETATM    1  C1  UNL     1     -34.681  13.776  -4.208  1.00 20.00     0.132 C 
HETATM    2  C2  UNL     1     -35.255  13.689  -5.593  1.00 20.00     0.079 C 
HETATM    3  C3  UNL     1     -35.989  15.015  -5.717  1.00 20.00     0.017 C 
HETATM    4  C4  UNL     1     -36.513  16.867  -4.044  1.00 20.00     0.011 C 
HETATM    5  C5  UNL     1     -35.064  17.232  -3.749  1.00 20.00     0.010 C 
HETATM    6  C6  UNL     1     -35.366  14.825  -3.350  1.00 20.00     0.071 C 
HETATM    7  C7  UNL     1     -36.475  15.357  -4.294  1.00 20.00    -0.033 C 
HETATM    8  C8  UNL     1     -34.521  16.053  -2.913  1.00 20.00    -0.037 C 
HETATM    9  C9  UNL     1     -37.837  14.714  -4.016  1.00 20.00     0.016 C 
HETATM   10  C10 UNL     1     -33.009  15.910  -3.121  1.00 20.00     0.015 C 
HETATM   11  C11 UNL     1     -34.774  16.324  -1.415  1.00 20.00     0.015 C 
HETATM   12  O12 UNL     1     -33.791  13.038  -3.803  1.00 20.00    -0.298 OA
ENDROOT
TORSDOF 0
ENDMDL
MODEL 7
REMARK VINA RESULT:      -4.8      1.870      3.391
REMARK  0 active torsions:
REMARK  status: ('A' for Active; 'I' for Inactive)
ROOT
HETATM    1  C1  UNL     1     -34.454  14.623  -5.974  1.00 20.00     0.132 C 
HETATM    2  C2  UNL     1     -34.810  13.383  -5.206  1.00 20.00     0.079 C 
HETATM    3  C3  UNL     1     -34.798  13.884  -3.771  1.00 20.00     0.017 C 
HETATM    4  C4  UNL     1     -34.075  16.088  -2.711  1.00 20.00     0.011 C 
HETATM    5  C5  UNL     1     -35.094  16.956  -3.436  1.00 20.00     0.010 C 
HETATM    6  C6  UNL     1     -33.812  15.690  -5.107  1.00 20.00     0.071 C 
HETATM    7  C7  UNL     1     -33.729  14.993  -3.725  1.00 20.00    -0.033 C 
HETATM    8  C8  UNL     1     -34.602  17.011  -4.897  1.00 20.00    -0.037 C 
HETATM    9  C9  UNL     1     -32.343  14.402  -3.451  1.00 20.00     0.016 C 
HETATM   10  C10 UNL     1     -35.787  17.219  -5.848  1.00 20.00     0.015 C 
HETATM   11  C11 UNL     1     -33.636  18.202  -5.071  1.00 20.00     0.015 C 
HETATM   12  O12 UNL     1     -34.619  14.733  -7.184  1.00 20.00    -0.298 OA
ENDROOT
TORSDOF 0
ENDMDL
MODEL 8
REMARK VINA RESULT:      -4.8      2.043      3.100
REMARK  0 active torsions:
REMARK  status: ('A' for Active; 'I' for Inactive)
ROOT
HETATM    1  C1  UNL     1     -33.245  15.448  -3.625  1.00 20.00     0.132 C 
HETATM    2  C2  UNL     1     -33.749  16.217  -2.438  1.00 20.00     0.079 C 
HETATM    3  C3  UNL     1     -35.071  16.764  -2.951  1.00 20.00     0.017 C 
HETATM    4  C4  UNL     1     -36.161  16.779  -5.256  1.00 20.00     0.011 C 
HETATM    5  C5  UNL     1     -36.268  15.266  -5.393  1.00 20.00     0.010 C 
HETATM    6  C6  UNL     1     -33.928  15.849  -4.920  1.00 20.00     0.071 C 
HETATM    7  C7  UNL     1     -34.869  16.992  -4.463  1.00 20.00    -0.033 C 
HETATM    8  C8  UNL     1     -34.819  14.784  -5.617  1.00 20.00    -0.037 C 
HETATM    9  C9  UNL     1     -34.277  18.379  -4.729  1.00 20.00     0.016 C 
HETATM   10  C10 UNL     1     -34.651  13.352  -5.095  1.00 20.00     0.015 C 
HETATM   11  C11 UNL     1     -34.505  14.782  -7.128  1.00 20.00     0.015 C 
HETATM   12  O12 UNL     1     -32.340  14.624  -3.556  1.00 20.00    -0.298 OA
ENDROOT
TORSDOF 0
ENDMDL
MODEL 9
REMARK VINA RESULT:      -4.8      1.947      3.862
REMARK  0 active torsions:
REMARK  status: ('A' for Active; 'I' for Inactive)
ROOT
HETATM    1  C1  UNL     1     -33.757  16.333  -5.331  1.00 20.00     0.132 C 
HETATM    2  C2  UNL     1     -34.278  15.756  -6.616  1.00 20.00     0.079 C 
HETATM    3  C3  UNL     1     -35.504  14.989  -6.146  1.00 20.00     0.017 C 
HETATM    4  C4  UNL     1     -36.413  14.426  -3.831  1.00 20.00     0.011 C 
HETATM    5  C5  UNL     1     -36.644  15.867  -3.394  1.00 20.00     0.010 C 
HETATM    6  C6  UNL     1     -34.303  15.625  -4.103  1.00 20.00     0.071 C 
HETATM    7  C7  UNL     1     -35.171  14.500  -4.722  1.00 20.00    -0.033 C 
HETATM    8  C8  UNL     1     -35.231  16.442  -3.162  1.00 20.00    -0.037 C 
HETATM    9  C9  UNL     1     -34.439  13.155  -4.767  1.00 20.00     0.016 C 
HETATM   10  C10 UNL     1     -35.231  17.957  -3.401  1.00 20.00     0.015 C 
HETATM   11  C11 UNL     1     -34.805  16.189  -1.700  1.00 20.00     0.015 C 
HETATM   12  O12 UNL     1     -32.937  17.242  -5.287  1.00 20.00    -0.298 OA
ENDROOT
TORSDOF 0
ENDMDL
