MODEL 1
REMARK VINA RESULT:      -5.5      0.000      0.000
REMARK  0 active torsions:
REMARK  status: ('A' for Active; 'I' for Inactive)
ROOT
HETATM    1  C1  UNL     1     -34.145   6.324   5.900  1.00 20.00     0.129 C 
HETATM    2  C2  UNL     1     -33.877   6.340   4.382  1.00 20.00     0.254 C 
HETATM    3  C3  UNL     1     -34.624   4.866   5.745  1.00 20.00     0.313 C 
HETATM    4  C4  UNL     1     -34.910   5.193   4.257  1.00 20.00     0.338 C 
HETATM    5  F5  UNL     1     -32.614   6.020   4.013  1.00 20.00    -0.243 F 
HETATM    6  F6  UNL     1     -33.678   3.921   5.955  1.00 20.00    -0.199 F 
HETATM    7  F7  UNL     1     -35.698   4.517   6.485  1.00 20.00    -0.199 F 
HETATM    8  F8  UNL     1     -34.601   4.220   3.373  1.00 20.00    -0.196 F 
HETATM    9  F9  UNL     1     -36.177   5.583   3.986  1.00 20.00    -0.196 F 
ENDROOT
TORSDOF 0
ENDMDL
MODEL 2
REMARK VINA RESULT:      -5.0      0.985      2.759
REMARK  0 active torsions:
REMARK  status: ('A' for Active; 'I' for Inactive)
ROOT
HETATM    1  C1  UNL     1     -33.548   6.208   4.486  1.00 20.00     0.129 C 
HETATM    2  C2  UNL     1     -33.778   6.081   6.004  1.00 20.00     0.254 C 
HETATM    3  C3  UNL     1     -34.791   5.317   4.278  1.00 20.00     0.313 C 
HETATM    4  C4  UNL     1     -34.550   4.772   5.709  1.00 20.00     0.338 C 
HETATM    5  F5  UNL     1     -34.515   7.071   6.562  1.00 20.00    -0.243 F 
HETATM    6  F6  UNL     1     -35.956   5.983   4.104  1.00 20.00    -0.199 F 
HETATM    7  F7  UNL     1     -34.705   4.409   3.283  1.00 20.00    -0.199 F 
HETATM    8  F8  UNL     1     -35.660   4.565   6.452  1.00 20.00    -0.196 F 
HETATM    9  F9  UNL     1     -33.814   3.639   5.778  1.00 20.00    -0.196 F 
ENDROOT
TORSDOF 0
ENDMDL
MODEL 3
REMARK VINA RESULT:      -4.9      1.046      2.575
REMARK  0 active torsions:
REMARK  status: ('A' for Active; 'I' for Inactive)
ROOT
HETATM    1  C1  UNL     1     -35.030   3.893   4.865  1.00 20.00     0.129 C 
HETATM    2  C2  UNL     1     -35.094   5.055   3.855  1.00 20.00     0.254 C 
HETATM    3  C3  UNL     1     -34.509   4.902   5.909  1.00 20.00     0.313 C 
HETATM    4  C4  UNL     1     -34.034   5.778   4.722  1.00 20.00     0.338 C 
HETATM    5  F5  UNL     1     -36.292   5.681   3.768  1.00 20.00    -0.243 F 
HETATM    6  F6  UNL     1     -35.459   5.463   6.695  1.00 20.00    -0.199 F 
HETATM    7  F7  UNL     1     -33.537   4.451   6.730  1.00 20.00    -0.199 F 
HETATM    8  F8  UNL     1     -34.206   7.109   4.870  1.00 20.00    -0.196 F 
HETATM    9  F9  UNL     1     -32.749   5.587   4.342  1.00 20.00    -0.196 F 
ENDROOT
TORSDOF 0
ENDMDL
MODEL 4
REMARK VINA RESULT:      -4.8      1.296      2.854
REMARK  0 active torsions:
REMARK  status: ('A' for Active; 'I' for Inactive)
ROOT
HETATM    1  C1  UNL     1     -35.123   5.759   3.873  1.00 20.00     0.129 C 
HETATM    2  C2  UNL     1     -35.438   4.638   4.882  1.00 20.00     0.254 C 
HETATM    3  C3  UNL     1     -33.743   5.903   4.548  1.00 20.00     0.313 C 
HETATM    4  C4  UNL     1     -34.376   5.270   5.814  1.00 20.00     0.338 C 
HETATM    5  F5  UNL     1     -35.159   3.382   4.458  1.00 20.00    -0.243 F 
HETATM    6  F6  UNL     1     -32.745   5.185   3.982  1.00 20.00    -0.199 F 
HETATM    7  F7  UNL     1     -33.286   7.166   4.691  1.00 20.00    -0.199 F 
HETATM    8  F8  UNL     1     -33.593   4.398   6.487  1.00 20.00    -0.196 F 
HETATM    9  F9  UNL     1     -34.854   6.152   6.722  1.00 20.00    -0.196 F 
ENDROOT
TORSDOF 0
ENDMDL
MODEL 5
REMARK VINA RESULT:      -4.6      1.148      2.619
REMARK  0 active torsions:
REMARK  status: ('A' for Active; 'I' for Inactive)
ROOT
HETATM    1  C1  UNL     1     -33.865   5.312   3.762  1.00 20.00     0.129 C 
HETATM    2  C2  UNL     1     -33.630   6.220   4.984  1.00 20.00     0.254 C 
HETATM    3  C3  UNL     1     -35.082   4.720   4.503  1.00 20.00     0.313 C 
HETATM    4  C4  UNL     1     -34.410   5.177   5.823  1.00 20.00     0.338 C 
HETATM    5  F5  UNL     1     -34.202   7.446   4.913  1.00 20.00    -0.243 F 
HETATM    6  F6  UNL     1     -36.268   5.309   4.227  1.00 20.00    -0.199 F 
HETATM    7  F7  UNL     1     -35.264   3.389   4.368  1.00 20.00    -0.199 F 
HETATM    8  F8  UNL     1     -35.242   5.682   6.760  1.00 20.00    -0.196 F 
HETATM    9  F9  UNL     1     -33.648   4.242   6.436  1.00 20.00    -0.196 F 
ENDROOT
TORSDOF 0
ENDMDL
MODEL 6
REMARK VINA RESULT:      -4.4      1.098      2.726
REMARK  0 active torsions:
REMARK  status: ('A' for Active; 'I' for Inactive)
ROOT
HETATM    1  C1  UNL     1     -33.527   4.634   5.960  1.00 20.00     0.129 C 
HETATM    2  C2  UNL     1     -34.869   4.003   5.542  1.00 20.00     0.254 C 
HETATM    3  C3  UNL     1     -33.995   5.942   5.291  1.00 20.00     0.313 C 
HETATM    4  C4  UNL     1     -34.949   5.076   4.429  1.00 20.00     0.338 C 
HETATM    5  F5  UNL     1     -35.852   4.064   6.473  1.00 20.00    -0.243 F 
HETATM    6  F6  UNL     1     -34.606   6.826   6.114  1.00 20.00    -0.199 F 
HETATM    7  F7  UNL     1     -33.051   6.627   4.611  1.00 20.00    -0.199 F 
HETATM    8  F8  UNL     1     -36.174   5.599   4.205  1.00 20.00    -0.196 F 
HETATM    9  F9  UNL     1     -34.456   4.698   3.226  1.00 20.00    -0.196 F 
ENDROOT
TORSDOF 0
ENDMDL
MODEL 7
REMARK VINA RESULT:      -4.2      8.197      9.584
REMARK  0 active torsions:
REMARK  status: ('A' for Active; 'I' for Inactive)
ROOT
HETATM    1  C1  UNL     1     -42.220   4.870   0.020  1.00 20.00     0.129 C 
HETATM    2  C2  UNL     1     -42.894   5.993  -0.791  1.00 20.00     0.254 C 
HETATM    3  C3  UNL     1     -40.900   5.218  -0.698  1.00 20.00     0.313 C 
HETATM    4  C4  UNL     1     -41.762   5.827  -1.834  1.00 20.00     0.338 C 
HETATM    5  F5  UNL     1     -42.942   7.201  -0.180  1.00 20.00    -0.243 F 
HETATM    6  F6  UNL     1     -40.102   6.096  -0.047  1.00 20.00    -0.199 F 
HETATM    7  F7  UNL     1     -40.126   4.169  -1.049  1.00 20.00    -0.199 F 
HETATM    8  F8  UNL     1     -41.292   6.972  -2.377  1.00 20.00    -0.196 F 
HETATM    9  F9  UNL     1     -42.038   4.990  -2.860  1.00 20.00    -0.196 F 
ENDROOT
TORSDOF 0
ENDMDL
MODEL 8
REMARK VINA RESULT:      -4.1      7.927      9.218
REMARK  0 active torsions:
REMARK  status: ('A' for Active; 'I' for Inactive)
ROOT
HETATM    1  C1  UNL     1     -42.715   5.872  -1.477  1.00 20.00     0.129 C 
HETATM    2  C2  UNL     1     -41.429   6.720  -1.454  1.00 20.00     0.254 C 
HETATM    3  C3  UNL     1     -42.337   5.360  -0.071  1.00 20.00     0.313 C 
HETATM    4  C4  UNL     1     -40.868   5.720  -0.414  1.00 20.00     0.338 C 
HETATM    5  F5  UNL     1     -41.581   7.990  -1.008  1.00 20.00    -0.243 F 
HETATM    6  F6  UNL     1     -42.874   6.051   0.960  1.00 20.00    -0.199 F 
HETATM    7  F7  UNL     1     -42.579   4.052   0.164  1.00 20.00    -0.199 F 
HETATM    8  F8  UNL     1     -40.148   6.262   0.593  1.00 20.00    -0.196 F 
HETATM    9  F9  UNL     1     -40.130   4.708  -0.925  1.00 20.00    -0.196 F 
ENDROOT
TORSDOF 0
ENDMDL
MODEL 9
REMARK VINA RESULT:      -4.1     12.294     13.341
REMARK  0 active torsions:
REMARK  status: ('A' for Active; 'I' for Inactive)
ROOT
HETATM    1  C1  UNL     1     -35.322  15.499  -3.816  1.00 20.00     0.129 C 
HETATM    2  C2  UNL     1     -34.188  16.154  -3.004  1.00 20.00     0.254 C 
HETATM    3  C3  UNL     1     -34.327  14.383  -4.201  1.00 20.00     0.313 C 
HETATM    4  C4  UNL     1     -33.190  15.397  -3.914  1.00 20.00     0.338 C 
HETATM    5  F5  UNL     1     -34.143  15.815  -1.694  1.00 20.00    -0.243 F 
HETATM    6  F6  UNL     1     -34.343  13.293  -3.399  1.00 20.00    -0.199 F 
HETATM    7  F7  UNL     1     -34.407  13.936  -5.473  1.00 20.00    -0.199 F 
HETATM    8  F8  UNL     1     -32.099  14.894  -3.298  1.00 20.00    -0.196 F 
HETATM    9  F9  UNL     1     -32.750  16.089  -4.991  1.00 20.00    -0.196 F 
ENDROOT
TORSDOF 0
ENDMDL
