MODEL 1
REMARK VINA RESULT:      -4.6      0.000      0.000
REMARK  2 active torsions:
REMARK  status: ('A' for Active; 'I' for Inactive)
REMARK    1  A    between atoms: C7_7  and  C9_9 
REMARK    2  A    between atoms: C8_8  and  C10_10 
ROOT
HETATM    1  C1  UNL     1     -34.234  17.359  -0.306  1.00 20.00    -0.030 C 
HETATM    2  C2  UNL     1     -34.834  16.421  -1.075  1.00 20.00    -0.025 C 
HETATM    3  C5  UNL     1     -33.306  18.259  -1.127  1.00 20.00     0.032 C 
HETATM    4  C9  UNL     1     -34.194  16.472  -2.415  1.00 20.00     0.020 C 
HETATM    5  C10 UNL     1     -33.985  18.011  -2.448  1.00 20.00     0.005 C 
ENDROOT
BRANCH   4   6
HETATM    6  C7  UNL     1     -34.570  16.213  -3.895  1.00 20.00     0.016 C 
HETATM    7  C3  UNL     1     -34.986  14.742  -3.867  1.00 20.00    -0.025 C 
HETATM    8  C4  UNL     1     -33.885  14.017  -3.595  1.00 20.00    -0.025 C 
HETATM    9  C8  UNL     1     -32.707  14.962  -3.566  1.00 20.00     0.013 C 
HETATM   10  C6  UNL     1     -33.243  15.968  -4.630  1.00 20.00     0.018 C 
ENDBRANCH   4   6
TORSDOF 2
ENDMDL
MODEL 2
REMARK VINA RESULT:      -4.5      0.811      3.834
REMARK  2 active torsions:
REMARK  status: ('A' for Active; 'I' for Inactive)
REMARK    1  A    between atoms: C7_7  and  C9_9 
REMARK    2  A    between atoms: C8_8  and  C10_10 
ROOT
HETATM    1  C1  UNL     1     -33.287  13.828  -3.854  1.00 20.00    -0.030 C 
HETATM    2  C2  UNL     1     -32.929  15.099  -3.557  1.00 20.00    -0.025 C 
HETATM    3  C5  UNL     1     -34.804  13.630  -3.777  1.00 20.00     0.032 C 
HETATM    4  C9  UNL     1     -34.141  15.790  -3.045  1.00 20.00     0.020 C 
HETATM    5  C10 UNL     1     -35.155  15.080  -3.983  1.00 20.00     0.005 C 
ENDROOT
BRANCH   4   6
HETATM    6  C7  UNL     1     -34.743  17.217  -3.018  1.00 20.00     0.016 C 
HETATM    7  C3  UNL     1     -33.642  18.016  -2.322  1.00 20.00    -0.025 C 
HETATM    8  C4  UNL     1     -33.571  17.582  -1.049  1.00 20.00    -0.025 C 
HETATM    9  C8  UNL     1     -34.693  16.592  -0.839  1.00 20.00     0.013 C 
HETATM   10  C6  UNL     1     -35.710  17.244  -1.825  1.00 20.00     0.018 C 
ENDBRANCH   4   6
TORSDOF 2
ENDMDL
MODEL 3
REMARK VINA RESULT:      -4.4      2.071      3.880
REMARK  2 active torsions:
REMARK  status: ('A' for Active; 'I' for Inactive)
REMARK    1  A    between atoms: C7_7  and  C9_9 
REMARK    2  A    between atoms: C8_8  and  C10_10 
ROOT
HETATM    1  C1  UNL     1     -34.450  16.740  -7.317  1.00 20.00    -0.030 C 
HETATM    2  C2  UNL     1     -34.217  15.523  -6.775  1.00 20.00    -0.025 C 
HETATM    3  C5  UNL     1     -34.362  17.856  -6.271  1.00 20.00     0.032 C 
HETATM    4  C9  UNL     1     -34.176  15.696  -5.300  1.00 20.00     0.020 C 
HETATM    5  C10 UNL     1     -33.492  17.090  -5.308  1.00 20.00     0.005 C 
ENDROOT
BRANCH   4   6
HETATM    6  C7  UNL     1     -33.483  15.056  -4.071  1.00 20.00     0.016 C 
HETATM    7  C3  UNL     1     -33.854  13.581  -4.226  1.00 20.00    -0.025 C 
HETATM    8  C4  UNL     1     -35.184  13.479  -4.041  1.00 20.00    -0.025 C 
HETATM    9  C8  UNL     1     -35.698  14.840  -3.636  1.00 20.00     0.013 C 
HETATM   10  C6  UNL     1     -34.418  15.310  -2.879  1.00 20.00     0.018 C 
ENDBRANCH   4   6
TORSDOF 2
ENDMDL
MODEL 4
REMARK VINA RESULT:      -4.4      1.153      2.068
REMARK  2 active torsions:
REMARK  status: ('A' for Active; 'I' for Inactive)
REMARK    1  A    between atoms: C7_7  and  C9_9 
REMARK    2  A    between atoms: C8_8  and  C10_10 
ROOT
HETATM    1  C1  UNL     1     -35.822  17.325  -2.029  1.00 20.00    -0.030 C 
HETATM    2  C2  UNL     1     -35.625  16.947  -3.313  1.00 20.00    -0.025 C 
HETATM    3  C5  UNL     1     -34.812  16.669  -1.082  1.00 20.00     0.032 C 
HETATM    4  C9  UNL     1     -34.624  15.850  -3.304  1.00 20.00     0.020 C 
HETATM    5  C10 UNL     1     -33.766  16.408  -2.135  1.00 20.00     0.005 C 
ENDROOT
BRANCH   4   6
HETATM    6  C7  UNL     1     -33.509  15.283  -4.218  1.00 20.00     0.016 C 
HETATM    7  C3  UNL     1     -34.257  15.051  -5.530  1.00 20.00    -0.025 C 
HETATM    8  C4  UNL     1     -35.148  14.063  -5.317  1.00 20.00    -0.025 C 
HETATM    9  C8  UNL     1     -34.925  13.537  -3.919  1.00 20.00     0.013 C 
HETATM   10  C6  UNL     1     -33.388  13.793  -3.861  1.00 20.00     0.018 C 
ENDBRANCH   4   6
TORSDOF 2
ENDMDL
MODEL 5
REMARK VINA RESULT:      -4.4      1.889      4.227
REMARK  2 active torsions:
REMARK  status: ('A' for Active; 'I' for Inactive)
REMARK    1  A    between atoms: C7_7  and  C9_9 
REMARK    2  A    between atoms: C8_8  and  C10_10 
ROOT
HETATM    1  C1  UNL     1     -35.110  16.376  -7.178  1.00 20.00    -0.030 C 
HETATM    2  C2  UNL     1     -35.415  16.532  -5.869  1.00 20.00    -0.025 C 
HETATM    3  C5  UNL     1     -34.495  15.002  -7.460  1.00 20.00     0.032 C 
HETATM    4  C9  UNL     1     -34.831  15.376  -5.139  1.00 20.00     0.020 C 
HETATM    5  C10 UNL     1     -35.084  14.323  -6.251  1.00 20.00     0.005 C 
ENDROOT
BRANCH   4   6
HETATM    6  C7  UNL     1     -35.128  14.524  -3.879  1.00 20.00     0.016 C 
HETATM    7  C3  UNL     1     -35.026  15.561  -2.760  1.00 20.00    -0.025 C 
HETATM    8  C4  UNL     1     -33.740  15.954  -2.690  1.00 20.00    -0.025 C 
HETATM    9  C8  UNL     1     -32.947  15.106  -3.657  1.00 20.00     0.013 C 
HETATM   10  C6  UNL     1     -33.811  13.814  -3.531  1.00 20.00     0.018 C 
ENDBRANCH   4   6
TORSDOF 2
ENDMDL
MODEL 6
REMARK VINA RESULT:      -4.3      1.253      3.928
REMARK  2 active torsions:
REMARK  status: ('A' for Active; 'I' for Inactive)
REMARK    1  A    between atoms: C7_7  and  C9_9 
REMARK    2  A    between atoms: C8_8  and  C10_10 
ROOT
HETATM    1  C1  UNL     1     -34.436  13.247  -4.771  1.00 20.00    -0.030 C 
HETATM    2  C2  UNL     1     -33.951  13.899  -3.689  1.00 20.00    -0.025 C 
HETATM    3  C5  UNL     1     -34.962  14.217  -5.833  1.00 20.00     0.032 C 
HETATM    4  C9  UNL     1     -34.313  15.332  -3.839  1.00 20.00     0.020 C 
HETATM    5  C10 UNL     1     -34.139  15.395  -5.381  1.00 20.00     0.005 C 
ENDROOT
BRANCH   4   6
HETATM    6  C7  UNL     1     -33.754  16.722  -3.442  1.00 20.00     0.016 C 
HETATM    7  C3  UNL     1     -33.664  16.608  -1.920  1.00 20.00    -0.025 C 
HETATM    8  C4  UNL     1     -34.923  16.527  -1.447  1.00 20.00    -0.025 C 
HETATM    9  C8  UNL     1     -35.865  16.713  -2.613  1.00 20.00     0.013 C 
HETATM   10  C6  UNL     1     -34.958  17.676  -3.439  1.00 20.00     0.018 C 
ENDBRANCH   4   6
TORSDOF 2
ENDMDL
MODEL 7
REMARK VINA RESULT:      -4.3      2.395      4.635
REMARK  2 active torsions:
REMARK  status: ('A' for Active; 'I' for Inactive)
REMARK    1  A    between atoms: C7_7  and  C9_9 
REMARK    2  A    between atoms: C8_8  and  C10_10 
ROOT
HETATM    1  C1  UNL     1     -35.256  14.961  -7.918  1.00 20.00    -0.030 C 
HETATM    2  C2  UNL     1     -34.245  15.146  -7.038  1.00 20.00    -0.025 C 
HETATM    3  C5  UNL     1     -36.625  15.008  -7.231  1.00 20.00     0.032 C 
HETATM    4  C9  UNL     1     -34.834  15.109  -5.674  1.00 20.00     0.020 C 
HETATM    5  C10 UNL     1     -36.169  15.813  -6.042  1.00 20.00     0.005 C 
ENDROOT
BRANCH   4   6
HETATM    6  C7  UNL     1     -34.575  15.725  -4.276  1.00 20.00     0.016 C 
HETATM    7  C3  UNL     1     -33.200  15.155  -3.926  1.00 20.00    -0.025 C 
HETATM    8  C4  UNL     1     -33.343  13.826  -3.763  1.00 20.00    -0.025 C 
HETATM    9  C8  UNL     1     -34.816  13.507  -3.871  1.00 20.00     0.013 C 
HETATM   10  C6  UNL     1     -35.347  14.848  -3.279  1.00 20.00     0.018 C 
ENDBRANCH   4   6
TORSDOF 2
ENDMDL
MODEL 8
REMARK VINA RESULT:      -4.2     11.930     13.328
REMARK  2 active torsions:
REMARK  status: ('A' for Active; 'I' for Inactive)
REMARK    1  A    between atoms: C7_7  and  C9_9 
REMARK    2  A    between atoms: C8_8  and  C10_10 
ROOT
HETATM    1  C1  UNL     1     -31.974   6.588   2.967  1.00 20.00    -0.030 C 
HETATM    2  C2  UNL     1     -32.635   6.901   4.106  1.00 20.00    -0.025 C 
HETATM    3  C5  UNL     1     -32.666   5.458   2.199  1.00 20.00     0.032 C 
HETATM    4  C9  UNL     1     -33.685   5.868   4.305  1.00 20.00     0.020 C 
HETATM    5  C10 UNL     1     -34.029   5.678   2.803  1.00 20.00     0.005 C 
ENDROOT
BRANCH   4   6
HETATM    6  C7  UNL     1     -35.098   5.749   4.929  1.00 20.00     0.016 C 
HETATM    7  C3  UNL     1     -34.786   5.718   6.425  1.00 20.00    -0.025 C 
HETATM    8  C4  UNL     1     -34.134   4.566   6.676  1.00 20.00    -0.025 C 
HETATM    9  C8  UNL     1     -34.114   3.761   5.398  1.00 20.00     0.013 C 
HETATM   10  C6  UNL     1     -35.478   4.264   4.834  1.00 20.00     0.018 C 
ENDBRANCH   4   6
TORSDOF 2
ENDMDL
MODEL 9
REMARK VINA RESULT:      -4.1      2.431      3.798
REMARK  2 active torsions:
REMARK  status: ('A' for Active; 'I' for Inactive)
REMARK    1  A    between atoms: C7_7  and  C9_9 
REMARK    2  A    between atoms: C8_8  and  C10_10 
ROOT
HETATM    1  C1  UNL     1     -33.486  13.538  -3.634  1.00 20.00    -0.030 C 
HETATM    2  C2  UNL     1     -34.611  13.585  -4.384  1.00 20.00    -0.025 C 
HETATM    3  C5  UNL     1     -32.693  14.846  -3.712  1.00 20.00     0.032 C 
HETATM    4  C9  UNL     1     -34.551  14.830  -5.193  1.00 20.00     0.020 C 
HETATM    5  C10 UNL     1     -33.864  15.707  -4.110  1.00 20.00     0.005 C 
ENDROOT
BRANCH   4   6
HETATM    6  C7  UNL     1     -35.523  15.867  -5.811  1.00 20.00     0.016 C 
HETATM    7  C3  UNL     1     -36.426  14.984  -6.672  1.00 20.00    -0.025 C 
HETATM    8  C4  UNL     1     -35.671  14.491  -7.673  1.00 20.00    -0.025 C 
HETATM    9  C8  UNL     1     -34.305  15.127  -7.574  1.00 20.00     0.013 C 
HETATM   10  C6  UNL     1     -34.773  16.496  -6.994  1.00 20.00     0.018 C 
ENDBRANCH   4   6
TORSDOF 2
ENDMDL
