MODEL 1
REMARK VINA RESULT:      -5.3      0.000      0.000
REMARK  0 active torsions:
REMARK  status: ('A' for Active; 'I' for Inactive)
ROOT
HETATM    1  C1  UNL     1     -35.516  14.625  -3.480  1.00 20.00    -0.018 C 
HETATM    2  C2  UNL     1     -33.434  17.581  -5.045  1.00 20.00    -0.018 C 
HETATM    3  C3  UNL     1     -34.610  15.293  -2.710  1.00 20.00    -0.078 C 
HETATM    4  C4  UNL     1     -33.598  16.424  -5.750  1.00 20.00    -0.078 C 
HETATM    5  C5  UNL     1     -34.716  16.280  -1.557  1.00 20.00     0.035 C 
HETATM    6  C6  UNL     1     -34.400  16.034  -6.981  1.00 20.00     0.035 C 
HETATM    7  C7  UNL     1     -33.873  17.547  -2.112  1.00 20.00     0.013 C 
HETATM    8  C8  UNL     1     -35.298  14.803  -6.433  1.00 20.00     0.013 C 
HETATM    9  C9  UNL     1     -35.266  15.065  -4.923  1.00 20.00     0.017 C 
HETATM   10  C10 UNL     1     -33.916  17.293  -3.622  1.00 20.00     0.017 C 
HETATM   11  C11 UNL     1     -33.512  15.831  -3.529  1.00 20.00     0.030 C 
HETATM   12  C12 UNL     1     -33.763  15.273  -4.848  1.00 20.00     0.030 C 
ENDROOT
TORSDOF 0
ENDMDL
MODEL 2
REMARK VINA RESULT:      -5.3     11.973     13.695
REMARK  0 active torsions:
REMARK  status: ('A' for Active; 'I' for Inactive)
ROOT
HETATM    1  C1  UNL     1     -33.890   5.003   2.799  1.00 20.00    -0.018 C 
HETATM    2  C2  UNL     1     -33.381   6.720   6.309  1.00 20.00    -0.018 C 
HETATM    3  C3  UNL     1     -33.435   6.288   2.862  1.00 20.00    -0.078 C 
HETATM    4  C4  UNL     1     -34.510   5.991   6.071  1.00 20.00    -0.078 C 
HETATM    5  C5  UNL     1     -32.095   6.956   2.595  1.00 20.00     0.035 C 
HETATM    6  C6  UNL     1     -35.026   4.644   6.550  1.00 20.00     0.035 C 
HETATM    7  C7  UNL     1     -31.798   7.703   4.002  1.00 20.00     0.013 C 
HETATM    8  C8  UNL     1     -35.273   3.854   5.158  1.00 20.00     0.013 C 
HETATM    9  C9  UNL     1     -34.367   4.644   4.206  1.00 20.00     0.017 C 
HETATM   10  C10 UNL     1     -32.693   6.906   4.955  1.00 20.00     0.017 C 
HETATM   11  C11 UNL     1     -33.927   6.967   4.071  1.00 20.00     0.030 C 
HETATM   12  C12 UNL     1     -34.863   6.011   4.643  1.00 20.00     0.030 C 
ENDROOT
TORSDOF 0
ENDMDL
MODEL 3
REMARK VINA RESULT:      -5.2     11.946     13.584
REMARK  0 active torsions:
REMARK  status: ('A' for Active; 'I' for Inactive)
ROOT
HETATM    1  C1  UNL     1     -33.346   6.715   6.274  1.00 20.00    -0.018 C 
HETATM    2  C2  UNL     1     -33.949   5.026   2.766  1.00 20.00    -0.018 C 
HETATM    3  C3  UNL     1     -34.485   5.996   6.058  1.00 20.00    -0.078 C 
HETATM    4  C4  UNL     1     -33.483   6.308   2.827  1.00 20.00    -0.078 C 
HETATM    5  C5  UNL     1     -35.000   4.649   6.541  1.00 20.00     0.035 C 
HETATM    6  C6  UNL     1     -32.146   6.967   2.534  1.00 20.00     0.035 C 
HETATM    7  C7  UNL     1     -35.284   3.871   5.148  1.00 20.00     0.013 C 
HETATM    8  C8  UNL     1     -31.809   7.703   3.937  1.00 20.00     0.013 C 
HETATM    9  C9  UNL     1     -32.689   6.906   4.906  1.00 20.00     0.017 C 
HETATM   10  C10 UNL     1     -34.396   4.660   4.182  1.00 20.00     0.017 C 
HETATM   11  C11 UNL     1     -34.872   6.028   4.639  1.00 20.00     0.030 C 
HETATM   12  C12 UNL     1     -33.943   6.981   4.052  1.00 20.00     0.030 C 
ENDROOT
TORSDOF 0
ENDMDL
MODEL 4
REMARK VINA RESULT:      -5.2      0.298      3.993
REMARK  0 active torsions:
REMARK  status: ('A' for Active; 'I' for Inactive)
ROOT
HETATM    1  C1  UNL     1     -33.392  17.276  -5.224  1.00 20.00    -0.018 C 
HETATM    2  C2  UNL     1     -35.796  14.643  -3.546  1.00 20.00    -0.018 C 
HETATM    3  C3  UNL     1     -33.717  16.134  -5.897  1.00 20.00    -0.078 C 
HETATM    4  C4  UNL     1     -34.794  15.208  -2.810  1.00 20.00    -0.078 C 
HETATM    5  C5  UNL     1     -34.589  15.821  -7.103  1.00 20.00     0.035 C 
HETATM    6  C6  UNL     1     -34.748  16.226  -1.682  1.00 20.00     0.035 C 
HETATM    7  C7  UNL     1     -35.623  14.727  -6.505  1.00 20.00     0.013 C 
HETATM    8  C8  UNL     1     -33.766  17.364  -2.284  1.00 20.00     0.013 C 
HETATM    9  C9  UNL     1     -33.873  17.083  -3.786  1.00 20.00     0.017 C 
HETATM   10  C10 UNL     1     -35.524  15.017  -5.004  1.00 20.00     0.017 C 
HETATM   11  C11 UNL     1     -34.006  15.033  -4.964  1.00 20.00     0.030 C 
HETATM   12  C12 UNL     1     -33.657  15.584  -3.664  1.00 20.00     0.030 C 
ENDROOT
TORSDOF 0
ENDMDL
MODEL 5
REMARK VINA RESULT:      -5.1      0.939      3.491
REMARK  0 active torsions:
REMARK  status: ('A' for Active; 'I' for Inactive)
ROOT
HETATM    1  C1  UNL     1     -34.170  16.175  -6.277  1.00 20.00    -0.018 C 
HETATM    2  C2  UNL     1     -34.617  15.759  -2.384  1.00 20.00    -0.018 C 
HETATM    3  C3  UNL     1     -34.169  14.926  -5.728  1.00 20.00    -0.078 C 
HETATM    4  C4  UNL     1     -33.778  16.720  -2.869  1.00 20.00    -0.078 C 
HETATM    5  C5  UNL     1     -35.144  13.759  -5.735  1.00 20.00     0.035 C 
HETATM    6  C6  UNL     1     -33.830  18.237  -2.943  1.00 20.00     0.035 C 
HETATM    7  C7  UNL     1     -35.390  13.507  -4.153  1.00 20.00     0.013 C 
HETATM    8  C8  UNL     1     -33.648  18.512  -4.528  1.00 20.00     0.013 C 
HETATM    9  C9  UNL     1     -34.071  17.160  -5.112  1.00 20.00     0.017 C 
HETATM   10  C10 UNL     1     -34.979  14.863  -3.571  1.00 20.00     0.017 C 
HETATM   11  C11 UNL     1     -33.673  14.957  -4.342  1.00 20.00     0.030 C 
HETATM   12  C12 UNL     1     -33.218  16.327  -4.171  1.00 20.00     0.030 C 
ENDROOT
TORSDOF 0
ENDMDL
MODEL 6
REMARK VINA RESULT:      -5.1      0.933      1.914
REMARK  0 active torsions:
REMARK  status: ('A' for Active; 'I' for Inactive)
ROOT
HETATM    1  C1  UNL     1     -34.654  15.748  -2.360  1.00 20.00    -0.018 C 
HETATM    2  C2  UNL     1     -34.152  16.218  -6.240  1.00 20.00    -0.018 C 
HETATM    3  C3  UNL     1     -33.809  16.716  -2.818  1.00 20.00    -0.078 C 
HETATM    4  C4  UNL     1     -34.157  14.961  -5.707  1.00 20.00    -0.078 C 
HETATM    5  C5  UNL     1     -33.860  18.235  -2.871  1.00 20.00     0.035 C 
HETATM    6  C6  UNL     1     -35.133  13.796  -5.744  1.00 20.00     0.035 C 
HETATM    7  C7  UNL     1     -33.655  18.530  -4.451  1.00 20.00     0.013 C 
HETATM    8  C8  UNL     1     -35.401  13.521  -4.171  1.00 20.00     0.013 C 
HETATM    9  C9  UNL     1     -34.998  14.868  -3.563  1.00 20.00     0.017 C 
HETATM   10  C10 UNL     1     -34.070  17.187  -5.059  1.00 20.00     0.017 C 
HETATM   11  C11 UNL     1     -33.229  16.342  -4.119  1.00 20.00     0.030 C 
HETATM   12  C12 UNL     1     -33.682  14.973  -4.315  1.00 20.00     0.030 C 
ENDROOT
TORSDOF 0
ENDMDL
MODEL 7
REMARK VINA RESULT:      -5.1      0.730      2.460
REMARK  0 active torsions:
REMARK  status: ('A' for Active; 'I' for Inactive)
ROOT
HETATM    1  C1  UNL     1     -33.456  17.352  -4.946  1.00 20.00    -0.018 C 
HETATM    2  C2  UNL     1     -35.703  14.296  -3.882  1.00 20.00    -0.018 C 
HETATM    3  C3  UNL     1     -34.163  17.409  -3.781  1.00 20.00    -0.078 C 
HETATM    4  C4  UNL     1     -35.727  14.734  -5.174  1.00 20.00    -0.078 C 
HETATM    5  C5  UNL     1     -33.791  17.356  -2.307  1.00 20.00     0.035 C 
HETATM    6  C6  UNL     1     -35.205  14.184  -6.492  1.00 20.00     0.035 C 
HETATM    7  C7  UNL     1     -34.681  16.112  -1.772  1.00 20.00     0.013 C 
HETATM    8  C8  UNL     1     -34.260  15.389  -7.018  1.00 20.00     0.013 C 
HETATM    9  C9  UNL     1     -33.977  16.134  -5.710  1.00 20.00     0.017 C 
HETATM   10  C10 UNL     1     -34.954  15.361  -3.078  1.00 20.00     0.017 C 
HETATM   11  C11 UNL     1     -35.383  16.590  -3.860  1.00 20.00     0.030 C 
HETATM   12  C12 UNL     1     -35.425  16.171  -5.253  1.00 20.00     0.030 C 
ENDROOT
TORSDOF 0
ENDMDL
MODEL 8
REMARK VINA RESULT:      -5.1      0.743      3.420
REMARK  0 active torsions:
REMARK  status: ('A' for Active; 'I' for Inactive)
ROOT
HETATM    1  C1  UNL     1     -35.714  14.272  -3.910  1.00 20.00    -0.018 C 
HETATM    2  C2  UNL     1     -33.442  17.318  -4.954  1.00 20.00    -0.018 C 
HETATM    3  C3  UNL     1     -35.726  14.711  -5.201  1.00 20.00    -0.078 C 
HETATM    4  C4  UNL     1     -34.158  17.376  -3.792  1.00 20.00    -0.078 C 
HETATM    5  C5  UNL     1     -35.199  14.161  -6.517  1.00 20.00     0.035 C 
HETATM    6  C6  UNL     1     -33.796  17.318  -2.317  1.00 20.00     0.035 C 
HETATM    7  C7  UNL     1     -34.243  15.362  -7.034  1.00 20.00     0.013 C 
HETATM    8  C8  UNL     1     -34.697  16.080  -1.790  1.00 20.00     0.013 C 
HETATM    9  C9  UNL     1     -34.966  15.332  -3.099  1.00 20.00     0.017 C 
HETATM   10  C10 UNL     1     -33.964  16.103  -5.723  1.00 20.00     0.017 C 
HETATM   11  C11 UNL     1     -35.415  16.148  -5.276  1.00 20.00     0.030 C 
HETATM   12  C12 UNL     1     -35.382  16.564  -3.883  1.00 20.00     0.030 C 
ENDROOT
TORSDOF 0
ENDMDL
MODEL 9
REMARK VINA RESULT:      -5.0      1.202      2.987
REMARK  0 active torsions:
REMARK  status: ('A' for Active; 'I' for Inactive)
ROOT
HETATM    1  C1  UNL     1     -33.689  16.220  -3.196  1.00 20.00    -0.018 C 
HETATM    2  C2  UNL     1     -34.711  15.551  -6.942  1.00 20.00    -0.018 C 
HETATM    3  C3  UNL     1     -34.463  15.138  -3.502  1.00 20.00    -0.078 C 
HETATM    4  C4  UNL     1     -34.786  16.817  -6.438  1.00 20.00    -0.078 C 
HETATM    5  C5  UNL     1     -34.226  13.637  -3.537  1.00 20.00     0.035 C 
HETATM    6  C6  UNL     1     -33.986  18.092  -6.645  1.00 20.00     0.035 C 
HETATM    7  C7  UNL     1     -34.629  13.261  -5.060  1.00 20.00     0.013 C 
HETATM    8  C8  UNL     1     -33.519  18.455  -5.138  1.00 20.00     0.013 C 
HETATM    9  C9  UNL     1     -33.649  17.091  -4.452  1.00 20.00     0.017 C 
HETATM   10  C10 UNL     1     -34.487  14.622  -5.748  1.00 20.00     0.017 C 
HETATM   11  C11 UNL     1     -35.277  15.390  -4.702  1.00 20.00     0.030 C 
HETATM   12  C12 UNL     1     -35.039  16.796  -4.989  1.00 20.00     0.030 C 
ENDROOT
TORSDOF 0
ENDMDL
