MODEL 1
REMARK VINA RESULT:      -4.6      0.000      0.000
REMARK  0 active torsions:
REMARK  status: ('A' for Active; 'I' for Inactive)
ROOT
HETATM    1  C1  UNL     1     -35.551  13.674  -4.167  1.00 20.00     0.006 C 
HETATM    2  C2  UNL     1     -34.568  14.461  -3.284  1.00 20.00     0.011 C 
HETATM    3  C3  UNL     1     -34.977  14.313  -6.654  1.00 20.00     0.010 C 
HETATM    4  C4  UNL     1     -34.210  15.625  -6.785  1.00 20.00     0.069 C 
HETATM    5  C5  UNL     1     -33.617  18.103  -4.371  1.00 20.00     0.197 C 
HETATM    6  C6  UNL     1     -35.077  18.093  -4.735  1.00 20.00     0.197 C 
HETATM    7  C7  UNL     1     -34.516  13.731  -5.319  1.00 20.00    -0.005 C 
HETATM    8  C8  UNL     1     -33.795  14.872  -4.557  1.00 20.00     0.052 C 
HETATM    9  C9  UNL     1     -34.117  16.137  -5.352  1.00 20.00     0.168 C 
HETATM   10  O10 UNL     1     -33.065  17.095  -5.216  1.00 20.00    -0.353 OA
HETATM   11  O11 UNL     1     -35.364  16.709  -4.935  1.00 20.00    -0.353 OA
ENDROOT
TORSDOF 0
ENDMDL
MODEL 2
REMARK VINA RESULT:      -4.5      1.590      3.008
REMARK  0 active torsions:
REMARK  status: ('A' for Active; 'I' for Inactive)
ROOT
HETATM    1  C1  UNL     1     -33.526  13.648  -3.850  1.00 20.00     0.006 C 
HETATM    2  C2  UNL     1     -35.003  13.350  -4.158  1.00 20.00     0.011 C 
HETATM    3  C3  UNL     1     -33.138  16.172  -4.483  1.00 20.00     0.010 C 
HETATM    4  C4  UNL     1     -34.179  16.724  -5.451  1.00 20.00     0.069 C 
HETATM    5  C5  UNL     1     -36.601  15.011  -7.326  1.00 20.00     0.197 C 
HETATM    6  C6  UNL     1     -35.232  14.692  -7.860  1.00 20.00     0.197 C 
HETATM    7  C7  UNL     1     -33.897  15.139  -3.653  1.00 20.00    -0.005 C 
HETATM    8  C8  UNL     1     -35.231  14.860  -4.393  1.00 20.00     0.052 C 
HETATM    9  C9  UNL     1     -35.063  15.523  -5.760  1.00 20.00     0.168 C 
HETATM   10  O10 UNL     1     -36.332  15.936  -6.274  1.00 20.00    -0.353 OA
HETATM   11  O11 UNL     1     -34.418  14.641  -6.689  1.00 20.00    -0.353 OA
ENDROOT
TORSDOF 0
ENDMDL
MODEL 3
REMARK VINA RESULT:      -4.5     12.484     13.975
REMARK  0 active torsions:
REMARK  status: ('A' for Active; 'I' for Inactive)
ROOT
HETATM    1  C1  UNL     1     -42.859   7.499  -0.931  1.00 20.00     0.006 C 
HETATM    2  C2  UNL     1     -43.235   6.896  -2.295  1.00 20.00     0.011 C 
HETATM    3  C3  UNL     1     -40.777   6.138  -0.075  1.00 20.00     0.010 C 
HETATM    4  C4  UNL     1     -40.627   4.772  -0.737  1.00 20.00     0.069 C 
HETATM    5  C5  UNL     1     -42.901   3.019  -2.755  1.00 20.00     0.197 C 
HETATM    6  C6  UNL     1     -43.417   3.072  -1.343  1.00 20.00     0.197 C 
HETATM    7  C7  UNL     1     -41.402   7.020  -1.153  1.00 20.00    -0.005 C 
HETATM    8  C8  UNL     1     -41.929   6.071  -2.261  1.00 20.00     0.052 C 
HETATM    9  C9  UNL     1     -41.845   4.673  -1.648  1.00 20.00     0.168 C 
HETATM   10  O10 UNL     1     -41.646   3.691  -2.668  1.00 20.00    -0.353 OA
HETATM   11  O11 UNL     1     -43.023   4.367  -0.889  1.00 20.00    -0.353 OA
ENDROOT
TORSDOF 0
ENDMDL
MODEL 4
REMARK VINA RESULT:      -4.5      1.922      3.246
REMARK  0 active torsions:
REMARK  status: ('A' for Active; 'I' for Inactive)
ROOT
HETATM    1  C1  UNL     1     -33.660  16.097  -2.676  1.00 20.00     0.006 C 
HETATM    2  C2  UNL     1     -34.489  16.964  -3.638  1.00 20.00     0.011 C 
HETATM    3  C3  UNL     1     -33.580  13.692  -3.736  1.00 20.00     0.010 C 
HETATM    4  C4  UNL     1     -34.695  13.433  -4.745  1.00 20.00     0.069 C 
HETATM    5  C5  UNL     1     -37.577  15.323  -5.406  1.00 20.00     0.197 C 
HETATM    6  C6  UNL     1     -37.689  14.694  -4.044  1.00 20.00     0.197 C 
HETATM    7  C7  UNL     1     -33.283  15.184  -3.869  1.00 20.00    -0.005 C 
HETATM    8  C8  UNL     1     -34.460  15.808  -4.662  1.00 20.00     0.052 C 
HETATM    9  C9  UNL     1     -35.524  14.711  -4.708  1.00 20.00     0.168 C 
HETATM   10  O10 UNL     1     -36.324  14.839  -5.886  1.00 20.00    -0.353 OA
HETATM   11  O11 UNL     1     -36.355  14.745  -3.540  1.00 20.00    -0.353 OA
ENDROOT
TORSDOF 0
ENDMDL
MODEL 5
REMARK VINA RESULT:      -4.5      1.387      2.216
REMARK  0 active torsions:
REMARK  status: ('A' for Active; 'I' for Inactive)
ROOT
HETATM    1  C1  UNL     1     -34.564  15.582  -2.541  1.00 20.00     0.006 C 
HETATM    2  C2  UNL     1     -33.728  16.555  -3.390  1.00 20.00     0.011 C 
HETATM    3  C3  UNL     1     -35.039  13.495  -4.070  1.00 20.00     0.010 C 
HETATM    4  C4  UNL     1     -34.891  13.784  -5.560  1.00 20.00     0.069 C 
HETATM    5  C5  UNL     1     -34.570  16.868  -7.204  1.00 20.00     0.197 C 
HETATM    6  C6  UNL     1     -35.958  16.740  -6.639  1.00 20.00     0.197 C 
HETATM    7  C7  UNL     1     -34.019  14.412  -3.398  1.00 20.00    -0.005 C 
HETATM    8  C8  UNL     1     -33.581  15.452  -4.462  1.00 20.00     0.052 C 
HETATM    9  C9  UNL     1     -34.572  15.273  -5.612  1.00 20.00     0.168 C 
HETATM   10  O10 UNL     1     -33.962  15.626  -6.857  1.00 20.00    -0.353 OA
HETATM   11  O11 UNL     1     -35.756  16.054  -5.404  1.00 20.00    -0.353 OA
ENDROOT
TORSDOF 0
ENDMDL
MODEL 6
REMARK VINA RESULT:      -4.4      1.452      2.096
REMARK  0 active torsions:
REMARK  status: ('A' for Active; 'I' for Inactive)
ROOT
HETATM    1  C1  UNL     1     -35.625  13.680  -4.558  1.00 20.00     0.006 C 
HETATM    2  C2  UNL     1     -36.230  15.005  -4.064  1.00 20.00     0.011 C 
HETATM    3  C3  UNL     1     -33.098  13.709  -3.827  1.00 20.00     0.010 C 
HETATM    4  C4  UNL     1     -32.562  15.108  -3.541  1.00 20.00     0.069 C 
HETATM    5  C5  UNL     1     -34.009  18.228  -4.240  1.00 20.00     0.197 C 
HETATM    6  C6  UNL     1     -33.605  17.561  -5.526  1.00 20.00     0.197 C 
HETATM    7  C7  UNL     1     -34.570  13.774  -3.426  1.00 20.00    -0.005 C 
HETATM    8  C8  UNL     1     -34.930  15.274  -3.274  1.00 20.00     0.052 C 
HETATM    9  C9  UNL     1     -33.736  16.022  -3.869  1.00 20.00     0.168 C 
HETATM   10  O10 UNL     1     -33.584  17.300  -3.244  1.00 20.00    -0.353 OA
HETATM   11  O11 UNL     1     -33.876  16.180  -5.288  1.00 20.00    -0.353 OA
ENDROOT
TORSDOF 0
ENDMDL
MODEL 7
REMARK VINA RESULT:      -4.4      1.915      2.171
REMARK  0 active torsions:
REMARK  status: ('A' for Active; 'I' for Inactive)
ROOT
HETATM    1  C1  UNL     1     -34.689  13.274  -4.516  1.00 20.00     0.006 C 
HETATM    2  C2  UNL     1     -33.415  13.763  -3.807  1.00 20.00     0.011 C 
HETATM    3  C3  UNL     1     -35.916  15.429  -5.392  1.00 20.00     0.010 C 
HETATM    4  C4  UNL     1     -35.497  16.706  -4.669  1.00 20.00     0.069 C 
HETATM    5  C5  UNL     1     -33.616  17.080  -1.730  1.00 20.00     0.197 C 
HETATM    6  C6  UNL     1     -34.955  16.481  -1.398  1.00 20.00     0.197 C 
HETATM    7  C7  UNL     1     -34.663  14.556  -5.385  1.00 20.00    -0.005 C 
HETATM    8  C8  UNL     1     -33.686  15.181  -4.356  1.00 20.00     0.052 C 
HETATM    9  C9  UNL     1     -34.521  16.218  -3.605  1.00 20.00     0.168 C 
HETATM   10  O10 UNL     1     -33.692  17.286  -3.139  1.00 20.00    -0.353 OA
HETATM   11  O11 UNL     1     -35.223  15.622  -2.506  1.00 20.00    -0.353 OA
ENDROOT
TORSDOF 0
ENDMDL
MODEL 8
REMARK VINA RESULT:      -4.4      1.894      3.788
REMARK  0 active torsions:
REMARK  status: ('A' for Active; 'I' for Inactive)
ROOT
HETATM    1  C1  UNL     1     -33.627  17.433  -1.548  1.00 20.00     0.006 C 
HETATM    2  C2  UNL     1     -34.683  16.341  -1.308  1.00 20.00     0.011 C 
HETATM    3  C3  UNL     1     -33.651  17.924  -4.132  1.00 20.00     0.010 C 
HETATM    4  C4  UNL     1     -34.253  16.795  -4.961  1.00 20.00     0.069 C 
HETATM    5  C5  UNL     1     -35.064  13.519  -3.999  1.00 20.00     0.197 C 
HETATM    6  C6  UNL     1     -33.569  13.687  -4.005  1.00 20.00     0.197 C 
HETATM    7  C7  UNL     1     -34.412  17.875  -2.808  1.00 20.00    -0.005 C 
HETATM    8  C8  UNL     1     -35.157  16.516  -2.768  1.00 20.00     0.052 C 
HETATM    9  C9  UNL     1     -34.571  15.717  -3.933  1.00 20.00     0.168 C 
HETATM   10  O10 UNL     1     -35.536  14.791  -4.439  1.00 20.00    -0.353 OA
HETATM   11  O11 UNL     1     -33.379  15.023  -3.539  1.00 20.00    -0.353 OA
ENDROOT
TORSDOF 0
ENDMDL
MODEL 9
REMARK VINA RESULT:      -4.3      1.690      3.961
REMARK  0 active torsions:
REMARK  status: ('A' for Active; 'I' for Inactive)
ROOT
HETATM    1  C1  UNL     1     -34.158  18.117  -4.688  1.00 20.00     0.006 C 
HETATM    2  C2  UNL     1     -33.569  16.856  -5.342  1.00 20.00     0.011 C 
HETATM    3  C3  UNL     1     -34.628  17.491  -2.176  1.00 20.00     0.010 C 
HETATM    4  C4  UNL     1     -34.736  15.990  -1.932  1.00 20.00     0.069 C 
HETATM    5  C5  UNL     1     -34.999  13.373  -4.256  1.00 20.00     0.197 C 
HETATM    6  C6  UNL     1     -36.265  14.185  -4.267  1.00 20.00     0.197 C 
HETATM    7  C7  UNL     1     -33.624  17.623  -3.320  1.00 20.00    -0.005 C 
HETATM    8  C8  UNL     1     -33.465  16.211  -3.942  1.00 20.00     0.052 C 
HETATM    9  C9  UNL     1     -34.591  15.383  -3.323  1.00 20.00     0.168 C 
HETATM   10  O10 UNL     1     -34.215  14.005  -3.246  1.00 20.00    -0.353 OA
HETATM   11  O11 UNL     1     -35.808  15.523  -4.068  1.00 20.00    -0.353 OA
ENDROOT
TORSDOF 0
ENDMDL
