MODEL 1
REMARK VINA RESULT:      -4.7      0.000      0.000
REMARK  3 active torsions:
REMARK  status: ('A' for Active; 'I' for Inactive)
REMARK    1  A    between atoms: C2_2  and  C8_8 
REMARK    2  A    between atoms: C6_6  and  C7_7 
REMARK    3  A    between atoms: C7_7  and  C8_8 
ROOT
HETATM    1  C5  UNL     1     -35.686   5.758   3.176  1.00 20.00     0.014 C 
HETATM    2  C8  UNL     1     -34.431   6.060   4.001  1.00 20.00     0.004 C 
ENDROOT
BRANCH   2   3
HETATM    3  C2  UNL     1     -34.444   5.218   5.253  1.00 20.00    -0.027 C 
HETATM    4  C1  UNL     1     -34.130   5.686   6.470  1.00 20.00    -0.035 C 
HETATM    5  C3  UNL     1     -33.730   7.099   6.739  1.00 20.00     0.036 C 
ENDBRANCH   2   3
BRANCH   2   6
HETATM    6  C7  UNL     1     -33.169   5.810   3.155  1.00 20.00     0.008 C 
BRANCH   6   7
HETATM    7  C6  UNL     1     -32.076   6.859   3.380  1.00 20.00    -0.004 C 
HETATM    8  C4  UNL     1     -32.119   7.944   2.314  1.00 20.00     0.005 C 
ENDBRANCH   6   7
ENDBRANCH   2   6
TORSDOF 3
ENDMDL
MODEL 2
REMARK VINA RESULT:      -4.6      1.220      2.099
REMARK  3 active torsions:
REMARK  status: ('A' for Active; 'I' for Inactive)
REMARK    1  A    between atoms: C2_2  and  C8_8 
REMARK    2  A    between atoms: C6_6  and  C7_7 
REMARK    3  A    between atoms: C7_7  and  C8_8 
ROOT
HETATM    1  C5  UNL     1     -33.236   7.063   5.123  1.00 20.00     0.014 C 
HETATM    2  C8  UNL     1     -33.254   5.923   4.101  1.00 20.00     0.004 C 
ENDROOT
BRANCH   2   3
HETATM    3  C2  UNL     1     -34.686   5.553   3.792  1.00 20.00    -0.027 C 
HETATM    4  C1  UNL     1     -35.431   4.750   4.565  1.00 20.00    -0.035 C 
HETATM    5  C3  UNL     1     -34.941   4.120   5.826  1.00 20.00     0.036 C 
ENDBRANCH   2   3
BRANCH   2   6
HETATM    6  C7  UNL     1     -32.484   6.336   2.832  1.00 20.00     0.008 C 
BRANCH   6   7
HETATM    7  C6  UNL     1     -31.868   7.734   2.932  1.00 20.00    -0.004 C 
HETATM    8  C4  UNL     1     -32.048   8.515   1.638  1.00 20.00     0.005 C 
ENDBRANCH   6   7
ENDBRANCH   2   6
TORSDOF 3
ENDMDL
MODEL 3
REMARK VINA RESULT:      -4.4      1.150      3.959
REMARK  3 active torsions:
REMARK  status: ('A' for Active; 'I' for Inactive)
REMARK    1  A    between atoms: C2_2  and  C8_8 
REMARK    2  A    between atoms: C6_6  and  C7_7 
REMARK    3  A    between atoms: C7_7  and  C8_8 
ROOT
HETATM    1  C5  UNL     1     -33.633   6.821   5.378  1.00 20.00     0.014 C 
HETATM    2  C8  UNL     1     -33.666   6.613   3.861  1.00 20.00     0.004 C 
ENDROOT
BRANCH   2   3
HETATM    3  C2  UNL     1     -32.252   6.513   3.341  1.00 20.00    -0.027 C 
HETATM    4  C1  UNL     1     -31.692   7.418   2.525  1.00 20.00    -0.035 C 
HETATM    5  C3  UNL     1     -32.396   8.637   2.028  1.00 20.00     0.036 C 
ENDBRANCH   2   3
BRANCH   2   6
HETATM    6  C7  UNL     1     -34.492   5.359   3.516  1.00 20.00     0.008 C 
BRANCH   6   7
HETATM    7  C6  UNL     1     -35.445   4.939   4.639  1.00 20.00    -0.004 C 
HETATM    8  C4  UNL     1     -34.861   3.805   5.468  1.00 20.00     0.005 C 
ENDBRANCH   6   7
ENDBRANCH   2   6
TORSDOF 3
ENDMDL
MODEL 4
REMARK VINA RESULT:      -4.2      1.121      2.522
REMARK  3 active torsions:
REMARK  status: ('A' for Active; 'I' for Inactive)
REMARK    1  A    between atoms: C2_2  and  C8_8 
REMARK    2  A    between atoms: C6_6  and  C7_7 
REMARK    3  A    between atoms: C7_7  and  C8_8 
ROOT
HETATM    1  C5  UNL     1     -33.286   7.377   6.683  1.00 20.00     0.014 C 
HETATM    2  C8  UNL     1     -33.650   6.177   5.803  1.00 20.00     0.004 C 
ENDROOT
BRANCH   2   3
HETATM    3  C2  UNL     1     -34.851   5.475   6.389  1.00 20.00    -0.027 C 
HETATM    4  C1  UNL     1     -35.290   4.278   5.975  1.00 20.00    -0.035 C 
HETATM    5  C3  UNL     1     -34.646   3.488   4.884  1.00 20.00     0.036 C 
ENDBRANCH   2   3
BRANCH   2   6
HETATM    6  C7  UNL     1     -33.905   6.640   4.356  1.00 20.00     0.008 C 
BRANCH   6   7
HETATM    7  C6  UNL     1     -32.777   6.256   3.394  1.00 20.00    -0.004 C 
HETATM    8  C4  UNL     1     -32.156   7.486   2.748  1.00 20.00     0.005 C 
ENDBRANCH   6   7
ENDBRANCH   2   6
TORSDOF 3
ENDMDL
MODEL 5
REMARK VINA RESULT:      -4.0      1.396      4.518
REMARK  3 active torsions:
REMARK  status: ('A' for Active; 'I' for Inactive)
REMARK    1  A    between atoms: C2_2  and  C8_8 
REMARK    2  A    between atoms: C6_6  and  C7_7 
REMARK    3  A    between atoms: C7_7  and  C8_8 
ROOT
HETATM    1  C5  UNL     1     -31.389   7.566   4.088  1.00 20.00     0.014 C 
HETATM    2  C8  UNL     1     -32.515   7.431   3.058  1.00 20.00     0.004 C 
ENDROOT
BRANCH   2   3
HETATM    3  C2  UNL     1     -31.946   7.613   1.672  1.00 20.00    -0.027 C 
HETATM    4  C1  UNL     1     -31.970   8.774   1.002  1.00 20.00    -0.035 C 
HETATM    5  C3  UNL     1     -32.561  10.033   1.543  1.00 20.00     0.036 C 
ENDBRANCH   2   3
BRANCH   2   6
HETATM    6  C7  UNL     1     -33.215   6.068   3.216  1.00 20.00     0.008 C 
BRANCH   6   7
HETATM    7  C6  UNL     1     -34.006   5.946   4.521  1.00 20.00    -0.004 C 
HETATM    8  C4  UNL     1     -35.147   4.948   4.389  1.00 20.00     0.005 C 
ENDBRANCH   6   7
ENDBRANCH   2   6
TORSDOF 3
ENDMDL
MODEL 6
REMARK VINA RESULT:      -4.0     11.130     12.425
REMARK  3 active torsions:
REMARK  status: ('A' for Active; 'I' for Inactive)
REMARK    1  A    between atoms: C2_2  and  C8_8 
REMARK    2  A    between atoms: C6_6  and  C7_7 
REMARK    3  A    between atoms: C7_7  and  C8_8 
ROOT
HETATM    1  C5  UNL     1     -33.355  16.941  -4.921  1.00 20.00     0.014 C 
HETATM    2  C8  UNL     1     -33.865  16.100  -3.748  1.00 20.00     0.004 C 
ENDROOT
BRANCH   2   3
HETATM    3  C2  UNL     1     -33.056  14.829  -3.656  1.00 20.00    -0.027 C 
HETATM    4  C1  UNL     1     -33.559  13.606  -3.877  1.00 20.00    -0.035 C 
HETATM    5  C3  UNL     1     -34.984  13.347  -4.241  1.00 20.00     0.036 C 
ENDBRANCH   2   3
BRANCH   2   6
HETATM    6  C7  UNL     1     -33.800  16.916  -2.443  1.00 20.00     0.008 C 
BRANCH   6   7
HETATM    7  C6  UNL     1     -34.692  16.350  -1.334  1.00 20.00    -0.004 C 
HETATM    8  C4  UNL     1     -34.668  17.234  -0.096  1.00 20.00     0.005 C 
ENDBRANCH   6   7
ENDBRANCH   2   6
TORSDOF 3
ENDMDL
MODEL 7
REMARK VINA RESULT:      -3.9     11.056     12.088
REMARK  3 active torsions:
REMARK  status: ('A' for Active; 'I' for Inactive)
REMARK    1  A    between atoms: C2_2  and  C8_8 
REMARK    2  A    between atoms: C6_6  and  C7_7 
REMARK    3  A    between atoms: C7_7  and  C8_8 
ROOT
HETATM    1  C5  UNL     1     -33.877  17.062  -4.249  1.00 20.00     0.014 C 
HETATM    2  C8  UNL     1     -33.490  16.116  -3.109  1.00 20.00     0.004 C 
ENDROOT
BRANCH   2   3
HETATM    3  C2  UNL     1     -34.628  16.035  -2.120  1.00 20.00    -0.027 C 
HETATM    4  C1  UNL     1     -34.682  16.746  -0.984  1.00 20.00    -0.035 C 
HETATM    5  C3  UNL     1     -33.623  17.706  -0.554  1.00 20.00     0.036 C 
ENDBRANCH   2   3
BRANCH   2   6
HETATM    6  C7  UNL     1     -33.121  14.731  -3.671  1.00 20.00     0.008 C 
BRANCH   6   7
HETATM    7  C6  UNL     1     -34.272  13.723  -3.592  1.00 20.00    -0.004 C 
HETATM    8  C4  UNL     1     -34.709  13.269  -4.977  1.00 20.00     0.005 C 
ENDBRANCH   6   7
ENDBRANCH   2   6
TORSDOF 3
ENDMDL
MODEL 8
REMARK VINA RESULT:      -3.9      0.961      3.475
REMARK  3 active torsions:
REMARK  status: ('A' for Active; 'I' for Inactive)
REMARK    1  A    between atoms: C2_2  and  C8_8 
REMARK    2  A    between atoms: C6_6  and  C7_7 
REMARK    3  A    between atoms: C7_7  and  C8_8 
ROOT
HETATM    1  C5  UNL     1     -35.090   3.761   5.197  1.00 20.00     0.014 C 
HETATM    2  C8  UNL     1     -34.248   5.038   5.123  1.00 20.00     0.004 C 
ENDROOT
BRANCH   2   3
HETATM    3  C2  UNL     1     -34.583   5.783   3.853  1.00 20.00    -0.027 C 
HETATM    4  C1  UNL     1     -33.662   6.261   3.004  1.00 20.00    -0.035 C 
HETATM    5  C3  UNL     1     -32.190   6.118   3.207  1.00 20.00     0.036 C 
ENDBRANCH   2   3
BRANCH   2   6
HETATM    6  C7  UNL     1     -34.487   5.904   6.374  1.00 20.00     0.008 C 
BRANCH   6   7
HETATM    7  C6  UNL     1     -33.440   7.007   6.551  1.00 20.00    -0.004 C 
HETATM    8  C4  UNL     1     -33.867   8.014   7.609  1.00 20.00     0.005 C 
ENDBRANCH   6   7
ENDBRANCH   2   6
TORSDOF 3
ENDMDL
MODEL 9
REMARK VINA RESULT:      -3.7     11.042     12.355
REMARK  3 active torsions:
REMARK  status: ('A' for Active; 'I' for Inactive)
REMARK    1  A    between atoms: C2_2  and  C8_8 
REMARK    2  A    between atoms: C6_6  and  C7_7 
REMARK    3  A    between atoms: C7_7  and  C8_8 
ROOT
HETATM    1  C5  UNL     1     -33.483  13.591  -3.731  1.00 20.00     0.014 C 
HETATM    2  C8  UNL     1     -34.428  14.769  -3.479  1.00 20.00     0.004 C 
ENDROOT
BRANCH   2   3
HETATM    3  C2  UNL     1     -33.614  16.014  -3.220  1.00 20.00    -0.027 C 
HETATM    4  C1  UNL     1     -33.741  16.773  -2.122  1.00 20.00    -0.035 C 
HETATM    5  C3  UNL     1     -34.702  16.483  -1.017  1.00 20.00     0.036 C 
ENDBRANCH   2   3
BRANCH   2   6
HETATM    6  C7  UNL     1     -35.383  14.948  -4.674  1.00 20.00     0.008 C 
BRANCH   6   7
HETATM    7  C6  UNL     1     -34.955  14.150  -5.909  1.00 20.00    -0.004 C 
HETATM    8  C4  UNL     1     -34.436  15.065  -7.009  1.00 20.00     0.005 C 
ENDBRANCH   6   7
ENDBRANCH   2   6
TORSDOF 3
ENDMDL
