MODEL 1
REMARK VINA RESULT:      -5.1      0.000      0.000
REMARK  0 active torsions:
REMARK  status: ('A' for Active; 'I' for Inactive)
ROOT
HETATM    1  C1  UNL     1     -34.400  14.269  -4.182  1.00 20.00     0.131 C 
HETATM    2  C2  UNL     1     -35.003  13.672  -5.440  1.00 20.00     0.079 C 
HETATM    3  C3  UNL     1     -34.739  14.554  -6.664  1.00 20.00     0.016 C 
HETATM    4  C4  UNL     1     -34.518  17.958  -4.703  1.00 20.00     0.006 C 
HETATM    5  C5  UNL     1     -33.988  17.930  -3.261  1.00 20.00     0.005 C 
HETATM    6  C6  UNL     1     -34.738  15.725  -3.935  1.00 20.00     0.064 C 
HETATM    7  C7  UNL     1     -34.346  16.522  -5.182  1.00 20.00     0.005 C 
HETATM    8  C8  UNL     1     -33.960  16.448  -2.833  1.00 20.00    -0.007 C 
HETATM    9  C9  UNL     1     -35.084  16.058  -6.459  1.00 20.00    -0.043 C 
HETATM   10  C10 UNL     1     -34.552  16.233  -1.447  1.00 20.00     0.011 C 
HETATM   11  C11 UNL     1     -34.571  16.853  -7.675  1.00 20.00     0.015 C 
HETATM   12  C12 UNL     1     -36.613  16.243  -6.388  1.00 20.00     0.015 C 
HETATM   13  O13 UNL     1     -33.767  13.586  -3.380  1.00 20.00    -0.298 OA
ENDROOT
TORSDOF 0
ENDMDL
MODEL 2
REMARK VINA RESULT:      -5.0      1.832      4.273
REMARK  0 active torsions:
REMARK  status: ('A' for Active; 'I' for Inactive)
ROOT
HETATM    1  C1  UNL     1     -33.861  17.634  -4.890  1.00 20.00     0.131 C 
HETATM    2  C2  UNL     1     -33.894  17.360  -3.397  1.00 20.00     0.079 C 
HETATM    3  C3  UNL     1     -33.604  15.889  -3.087  1.00 20.00     0.016 C 
HETATM    4  C4  UNL     1     -34.974  14.454  -6.485  1.00 20.00     0.006 C 
HETATM    5  C5  UNL     1     -34.862  15.333  -7.739  1.00 20.00     0.005 C 
HETATM    6  C6  UNL     1     -34.686  16.685  -5.735  1.00 20.00     0.064 C 
HETATM    7  C7  UNL     1     -34.245  15.255  -5.413  1.00 20.00     0.005 C 
HETATM    8  C8  UNL     1     -34.490  16.749  -7.252  1.00 20.00    -0.007 C 
HETATM    9  C9  UNL     1     -34.439  14.879  -3.926  1.00 20.00    -0.043 C 
HETATM   10  C10 UNL     1     -35.331  17.831  -7.916  1.00 20.00     0.011 C 
HETATM   11  C11 UNL     1     -33.895  13.459  -3.673  1.00 20.00     0.015 C 
HETATM   12  C12 UNL     1     -35.911  14.906  -3.470  1.00 20.00     0.015 C 
HETATM   13  O13 UNL     1     -33.282  18.613  -5.356  1.00 20.00    -0.298 OA
ENDROOT
TORSDOF 0
ENDMDL
MODEL 3
REMARK VINA RESULT:      -5.0      2.075      3.526
REMARK  0 active torsions:
REMARK  status: ('A' for Active; 'I' for Inactive)
ROOT
HETATM    1  C1  UNL     1     -33.657  17.933  -4.518  1.00 20.00     0.131 C 
HETATM    2  C2  UNL     1     -33.420  16.893  -5.599  1.00 20.00     0.079 C 
HETATM    3  C3  UNL     1     -34.353  15.689  -5.436  1.00 20.00     0.016 C 
HETATM    4  C4  UNL     1     -34.782  15.999  -1.537  1.00 20.00     0.006 C 
HETATM    5  C5  UNL     1     -34.711  17.399  -0.910  1.00 20.00     0.005 C 
HETATM    6  C6  UNL     1     -33.676  17.396  -3.102  1.00 20.00     0.064 C 
HETATM    7  C7  UNL     1     -34.707  16.267  -3.036  1.00 20.00     0.005 C 
HETATM    8  C8  UNL     1     -34.161  18.341  -2.001  1.00 20.00    -0.007 C 
HETATM    9  C9  UNL     1     -34.394  15.098  -3.998  1.00 20.00    -0.043 C 
HETATM   10  C10 UNL     1     -33.064  19.259  -1.477  1.00 20.00     0.011 C 
HETATM   11  C11 UNL     1     -35.522  14.049  -3.928  1.00 20.00     0.015 C 
HETATM   12  C12 UNL     1     -33.066  14.381  -3.684  1.00 20.00     0.015 C 
HETATM   13  O13 UNL     1     -33.730  19.132  -4.779  1.00 20.00    -0.298 OA
ENDROOT
TORSDOF 0
ENDMDL
MODEL 4
REMARK VINA RESULT:      -4.9      1.431      3.769
REMARK  0 active torsions:
REMARK  status: ('A' for Active; 'I' for Inactive)
ROOT
HETATM    1  C1  UNL     1     -34.582  13.839  -4.747  1.00 20.00     0.131 C 
HETATM    2  C2  UNL     1     -33.699  14.182  -3.561  1.00 20.00     0.079 C 
HETATM    3  C3  UNL     1     -34.341  15.249  -2.670  1.00 20.00     0.016 C 
HETATM    4  C4  UNL     1     -36.442  16.976  -5.515  1.00 20.00     0.006 C 
HETATM    5  C5  UNL     1     -36.935  16.106  -6.680  1.00 20.00     0.005 C 
HETATM    6  C6  UNL     1     -35.090  15.028  -5.536  1.00 20.00     0.064 C 
HETATM    7  C7  UNL     1     -35.795  15.977  -4.563  1.00 20.00     0.005 C 
HETATM    8  C8  UNL     1     -36.181  14.764  -6.576  1.00 20.00    -0.007 C 
HETATM    9  C9  UNL     1     -34.868  16.496  -3.439  1.00 20.00    -0.043 C 
HETATM   10  C10 UNL     1     -35.627  14.304  -7.917  1.00 20.00     0.011 C 
HETATM   11  C11 UNL     1     -35.675  17.373  -2.463  1.00 20.00     0.015 C 
HETATM   12  C12 UNL     1     -33.683  17.335  -3.956  1.00 20.00     0.015 C 
HETATM   13  O13 UNL     1     -34.782  12.676  -5.089  1.00 20.00    -0.298 OA
ENDROOT
TORSDOF 0
ENDMDL
MODEL 5
REMARK VINA RESULT:      -4.9      1.764      2.156
REMARK  0 active torsions:
REMARK  status: ('A' for Active; 'I' for Inactive)
ROOT
HETATM    1  C1  UNL     1     -36.907  15.310  -4.103  1.00 20.00     0.131 C 
HETATM    2  C2  UNL     1     -37.629  15.553  -5.417  1.00 20.00     0.079 C 
HETATM    3  C3  UNL     1     -36.772  15.139  -6.616  1.00 20.00     0.016 C 
HETATM    4  C4  UNL     1     -33.290  15.748  -4.888  1.00 20.00     0.006 C 
HETATM    5  C5  UNL     1     -33.189  15.542  -3.369  1.00 20.00     0.005 C 
HETATM    6  C6  UNL     1     -35.498  15.863  -4.033  1.00 20.00     0.064 C 
HETATM    7  C7  UNL     1     -34.710  15.309  -5.222  1.00 20.00     0.005 C 
HETATM    8  C8  UNL     1     -34.636  15.431  -2.845  1.00 20.00    -0.007 C 
HETATM    9  C9  UNL     1     -35.319  15.695  -6.590  1.00 20.00    -0.043 C 
HETATM   10  C10 UNL     1     -34.868  16.278  -1.600  1.00 20.00     0.011 C 
HETATM   11  C11 UNL     1     -34.515  15.030  -7.724  1.00 20.00     0.015 C 
HETATM   12  C12 UNL     1     -35.331  17.214  -6.851  1.00 20.00     0.015 C 
HETATM   13  O13 UNL     1     -37.469  14.788  -3.143  1.00 20.00    -0.298 OA
ENDROOT
TORSDOF 0
ENDMDL
MODEL 6
REMARK VINA RESULT:      -4.8      1.445      1.720
REMARK  0 active torsions:
REMARK  status: ('A' for Active; 'I' for Inactive)
ROOT
HETATM    1  C1  UNL     1     -33.615  14.762  -3.707  1.00 20.00     0.131 C 
HETATM    2  C2  UNL     1     -34.250  13.561  -4.385  1.00 20.00     0.079 C 
HETATM    3  C3  UNL     1     -35.194  13.985  -5.514  1.00 20.00     0.016 C 
HETATM    4  C4  UNL     1     -36.143  17.486  -3.990  1.00 20.00     0.006 C 
HETATM    5  C5  UNL     1     -35.095  18.211  -3.133  1.00 20.00     0.005 C 
HETATM    6  C6  UNL     1     -34.584  15.846  -3.282  1.00 20.00     0.064 C 
HETATM    7  C7  UNL     1     -35.405  16.257  -4.506  1.00 20.00     0.005 C 
HETATM    8  C8  UNL     1     -33.987  17.181  -2.830  1.00 20.00    -0.007 C 
HETATM    9  C9  UNL     1     -36.215  15.090  -5.117  1.00 20.00    -0.043 C 
HETATM   10  C10 UNL     1     -33.575  17.184  -1.364  1.00 20.00     0.011 C 
HETATM   11  C11 UNL     1     -36.941  15.571  -6.389  1.00 20.00     0.015 C 
HETATM   12  C12 UNL     1     -37.275  14.509  -4.161  1.00 20.00     0.015 C 
HETATM   13  O13 UNL     1     -32.416  14.796  -3.441  1.00 20.00    -0.298 OA
ENDROOT
TORSDOF 0
ENDMDL
MODEL 7
REMARK VINA RESULT:      -4.8      1.947      3.646
REMARK  0 active torsions:
REMARK  status: ('A' for Active; 'I' for Inactive)
ROOT
HETATM    1  C1  UNL     1     -35.232  14.020  -4.213  1.00 20.00     0.131 C 
HETATM    2  C2  UNL     1     -33.728  14.223  -4.190  1.00 20.00     0.079 C 
HETATM    3  C3  UNL     1     -33.299  15.132  -3.035  1.00 20.00     0.016 C 
HETATM    4  C4  UNL     1     -36.658  17.169  -2.821  1.00 20.00     0.006 C 
HETATM    5  C5  UNL     1     -37.964  16.456  -3.204  1.00 20.00     0.005 C 
HETATM    6  C6  UNL     1     -36.053  15.290  -4.135  1.00 20.00     0.064 C 
HETATM    7  C7  UNL     1     -35.607  16.069  -2.895  1.00 20.00     0.005 C 
HETATM    8  C8  UNL     1     -37.557  15.139  -3.897  1.00 20.00    -0.007 C 
HETATM    9  C9  UNL     1     -34.110  16.455  -2.924  1.00 20.00    -0.043 C 
HETATM   10  C10 UNL     1     -38.341  14.890  -5.178  1.00 20.00     0.011 C 
HETATM   11  C11 UNL     1     -33.728  17.159  -1.607  1.00 20.00     0.015 C 
HETATM   12  C12 UNL     1     -33.739  17.398  -4.086  1.00 20.00     0.015 C 
HETATM   13  O13 UNL     1     -35.732  12.910  -4.382  1.00 20.00    -0.298 OA
ENDROOT
TORSDOF 0
ENDMDL
MODEL 8
REMARK VINA RESULT:      -4.7      1.256      2.045
REMARK  0 active torsions:
REMARK  status: ('A' for Active; 'I' for Inactive)
ROOT
HETATM    1  C1  UNL     1     -33.893  15.343  -3.946  1.00 20.00     0.131 C 
HETATM    2  C2  UNL     1     -34.707  14.070  -4.083  1.00 20.00     0.079 C 
HETATM    3  C3  UNL     1     -34.935  13.702  -5.553  1.00 20.00     0.016 C 
HETATM    4  C4  UNL     1     -34.754  17.376  -6.949  1.00 20.00     0.006 C 
HETATM    5  C5  UNL     1     -33.856  18.385  -6.217  1.00 20.00     0.005 C 
HETATM    6  C6  UNL     1     -34.387  16.514  -4.771  1.00 20.00     0.064 C 
HETATM    7  C7  UNL     1     -34.484  16.060  -6.229  1.00 20.00     0.005 C 
HETATM    8  C8  UNL     1     -33.469  17.735  -4.873  1.00 20.00    -0.007 C 
HETATM    9  C9  UNL     1     -35.454  14.874  -6.435  1.00 20.00    -0.043 C 
HETATM   10  C10 UNL     1     -33.620  18.693  -3.699  1.00 20.00     0.011 C 
HETATM   11  C11 UNL     1     -35.427  14.430  -7.910  1.00 20.00     0.015 C 
HETATM   12  C12 UNL     1     -36.915  15.202  -6.069  1.00 20.00     0.015 C 
HETATM   13  O13 UNL     1     -32.963  15.433  -3.148  1.00 20.00    -0.298 OA
ENDROOT
TORSDOF 0
ENDMDL
MODEL 9
REMARK VINA RESULT:      -4.7      1.877      3.160
REMARK  0 active torsions:
REMARK  status: ('A' for Active; 'I' for Inactive)
ROOT
HETATM    1  C1  UNL     1     -33.888  17.052  -5.421  1.00 20.00     0.131 C 
HETATM    2  C2  UNL     1     -34.417  17.543  -6.756  1.00 20.00     0.079 C 
HETATM    3  C3  UNL     1     -35.836  17.031  -7.023  1.00 20.00     0.016 C 
HETATM    4  C4  UNL     1     -35.516  13.742  -4.887  1.00 20.00     0.006 C 
HETATM    5  C5  UNL     1     -34.590  13.761  -3.662  1.00 20.00     0.005 C 
HETATM    6  C6  UNL     1     -34.025  15.562  -5.183  1.00 20.00     0.064 C 
HETATM    7  C7  UNL     1     -35.495  15.183  -5.382  1.00 20.00     0.005 C 
HETATM    8  C8  UNL     1     -33.749  15.051  -3.767  1.00 20.00    -0.007 C 
HETATM    9  C9  UNL     1     -36.019  15.502  -6.802  1.00 20.00    -0.043 C 
HETATM   10  C10 UNL     1     -32.271  14.804  -3.501  1.00 20.00     0.011 C 
HETATM   11  C11 UNL     1     -37.521  15.168  -6.888  1.00 20.00     0.015 C 
HETATM   12  C12 UNL     1     -35.298  14.718  -7.915  1.00 20.00     0.015 C 
HETATM   13  O13 UNL     1     -33.306  17.802  -4.641  1.00 20.00    -0.298 OA
ENDROOT
TORSDOF 0
ENDMDL
