MODEL 1
REMARK VINA RESULT:      -4.7      0.000      0.000
REMARK  2 active torsions:
REMARK  status: ('A' for Active; 'I' for Inactive)
REMARK    1  A    between atoms: C7_7  and  C10_10 
REMARK    2  A    between atoms: C8_8  and  C9_9 
ROOT
HETATM    1  C1  UNL     1     -34.598  16.413  -1.096  1.00 20.00    -0.019 C 
HETATM    2  C3  UNL     1     -34.829  17.521  -0.351  1.00 20.00    -0.087 C 
HETATM    3  C5  UNL     1     -34.549  18.808  -1.143  1.00 20.00     0.039 C 
HETATM    4  C8  UNL     1     -34.364  16.862  -2.494  1.00 20.00     0.021 C 
HETATM    5  C10 UNL     1     -33.611  18.170  -2.135  1.00 20.00     0.005 C 
HETATM    6  C11 UNL     1     -35.264  17.575   1.068  1.00 20.00     0.043 C 
ENDROOT
BRANCH   4   7
HETATM    7  C9  UNL     1     -33.564  16.410  -3.741  1.00 20.00     0.022 C 
HETATM    8  C4  UNL     1     -34.146  15.018  -4.009  1.00 20.00    -0.082 C 
HETATM    9  C2  UNL     1     -35.429  15.181  -4.387  1.00 20.00    -0.019 C 
HETATM   10  C12 UNL     1     -33.391  13.768  -3.769  1.00 20.00     0.043 C 
HETATM   11  C7  UNL     1     -35.689  16.666  -4.498  1.00 20.00     0.014 C 
HETATM   12  C6  UNL     1     -34.252  17.078  -4.943  1.00 20.00     0.018 C 
ENDBRANCH   4   7
TORSDOF 2
ENDMDL
MODEL 2
REMARK VINA RESULT:      -4.7      1.976      3.589
REMARK  2 active torsions:
REMARK  status: ('A' for Active; 'I' for Inactive)
REMARK    1  A    between atoms: C7_7  and  C10_10 
REMARK    2  A    between atoms: C8_8  and  C9_9 
ROOT
HETATM    1  C1  UNL     1     -35.601  15.829  -3.565  1.00 20.00    -0.019 C 
HETATM    2  C3  UNL     1     -34.584  15.850  -2.670  1.00 20.00    -0.087 C 
HETATM    3  C5  UNL     1     -33.309  15.209  -3.242  1.00 20.00     0.039 C 
HETATM    4  C8  UNL     1     -35.036  15.380  -4.865  1.00 20.00     0.021 C 
HETATM    5  C10 UNL     1     -34.017  14.370  -4.275  1.00 20.00     0.005 C 
HETATM    6  C11 UNL     1     -34.619  16.376  -1.282  1.00 20.00     0.043 C 
ENDROOT
BRANCH   4   7
HETATM    7  C9  UNL     1     -35.496  14.610  -6.128  1.00 20.00     0.022 C 
HETATM    8  C4  UNL     1     -36.572  15.540  -6.698  1.00 20.00    -0.082 C 
HETATM    9  C2  UNL     1     -35.957  16.666  -7.110  1.00 20.00    -0.019 C 
HETATM   10  C12 UNL     1     -38.017  15.219  -6.665  1.00 20.00     0.043 C 
HETATM   11  C7  UNL     1     -34.469  16.464  -6.942  1.00 20.00     0.014 C 
HETATM   12  C6  UNL     1     -34.454  14.928  -7.213  1.00 20.00     0.018 C 
ENDBRANCH   4   7
TORSDOF 2
ENDMDL
MODEL 3
REMARK VINA RESULT:      -4.6      1.155      2.415
REMARK  2 active torsions:
REMARK  status: ('A' for Active; 'I' for Inactive)
REMARK    1  A    between atoms: C7_7  and  C10_10 
REMARK    2  A    between atoms: C8_8  and  C9_9 
ROOT
HETATM    1  C1  UNL     1     -33.602  17.510  -2.516  1.00 20.00    -0.019 C 
HETATM    2  C3  UNL     1     -33.614  17.648  -1.167  1.00 20.00    -0.087 C 
HETATM    3  C5  UNL     1     -34.738  16.822  -0.522  1.00 20.00     0.039 C 
HETATM    4  C8  UNL     1     -34.559  16.425  -2.858  1.00 20.00     0.021 C 
HETATM    5  C10 UNL     1     -35.601  16.757  -1.756  1.00 20.00     0.005 C 
HETATM    6  C11 UNL     1     -32.714  18.492  -0.342  1.00 20.00     0.043 C 
ENDROOT
BRANCH   4   7
HETATM    7  C9  UNL     1     -35.500  16.031  -4.023  1.00 20.00     0.022 C 
HETATM    8  C4  UNL     1     -34.504  15.679  -5.134  1.00 20.00    -0.082 C 
HETATM    9  C2  UNL     1     -33.845  14.568  -4.750  1.00 20.00    -0.019 C 
HETATM   10  C12 UNL     1     -34.299  16.524  -6.331  1.00 20.00     0.043 C 
HETATM   11  C7  UNL     1     -34.463  14.093  -3.456  1.00 20.00     0.014 C 
HETATM   12  C6  UNL     1     -35.917  14.577  -3.749  1.00 20.00     0.018 C 
ENDBRANCH   4   7
TORSDOF 2
ENDMDL
MODEL 4
REMARK VINA RESULT:      -4.6      1.178      2.394
REMARK  2 active torsions:
REMARK  status: ('A' for Active; 'I' for Inactive)
REMARK    1  A    between atoms: C7_7  and  C10_10 
REMARK    2  A    between atoms: C8_8  and  C9_9 
ROOT
HETATM    1  C1  UNL     1     -33.339  18.041  -1.557  1.00 20.00    -0.019 C 
HETATM    2  C3  UNL     1     -33.585  18.056  -0.224  1.00 20.00    -0.087 C 
HETATM    3  C5  UNL     1     -34.828  17.226   0.134  1.00 20.00     0.039 C 
HETATM    4  C8  UNL     1     -34.251  17.036  -2.163  1.00 20.00     0.021 C 
HETATM    5  C10 UNL     1     -35.461  17.312  -1.231  1.00 20.00     0.005 C 
HETATM    6  C11 UNL     1     -32.822  18.781   0.823  1.00 20.00     0.043 C 
ENDROOT
BRANCH   4   7
HETATM    7  C9  UNL     1     -34.983  16.792  -3.507  1.00 20.00     0.022 C 
HETATM    8  C4  UNL     1     -33.820  16.763  -4.504  1.00 20.00    -0.082 C 
HETATM    9  C2  UNL     1     -33.083  15.667  -4.236  1.00 20.00    -0.019 C 
HETATM   10  C12 UNL     1     -33.570  17.844  -5.484  1.00 20.00     0.043 C 
HETATM   11  C7  UNL     1     -33.796  14.888  -3.156  1.00 20.00     0.014 C 
HETATM   12  C6  UNL     1     -35.250  15.279  -3.567  1.00 20.00     0.018 C 
ENDBRANCH   4   7
TORSDOF 2
ENDMDL
MODEL 5
REMARK VINA RESULT:      -4.6      1.951      4.978
REMARK  2 active torsions:
REMARK  status: ('A' for Active; 'I' for Inactive)
REMARK    1  A    between atoms: C7_7  and  C10_10 
REMARK    2  A    between atoms: C8_8  and  C9_9 
ROOT
HETATM    1  C1  UNL     1     -36.028  16.106  -5.693  1.00 20.00    -0.019 C 
HETATM    2  C3  UNL     1     -36.433  15.378  -6.761  1.00 20.00    -0.087 C 
HETATM    3  C5  UNL     1     -35.328  14.429  -7.254  1.00 20.00     0.039 C 
HETATM    4  C8  UNL     1     -34.720  15.554  -5.252  1.00 20.00     0.021 C 
HETATM    5  C10 UNL     1     -34.185  15.217  -6.669  1.00 20.00     0.005 C 
HETATM    6  C11 UNL     1     -37.745  15.448  -7.452  1.00 20.00     0.043 C 
ENDROOT
BRANCH   4   7
HETATM    7  C9  UNL     1     -33.419  16.050  -4.572  1.00 20.00     0.022 C 
HETATM    8  C4  UNL     1     -33.953  16.687  -3.284  1.00 20.00    -0.082 C 
HETATM    9  C2  UNL     1     -34.459  15.698  -2.522  1.00 20.00    -0.019 C 
HETATM   10  C12 UNL     1     -33.963  18.149  -3.051  1.00 20.00     0.043 C 
HETATM   11  C7  UNL     1     -34.165  14.388  -3.217  1.00 20.00     0.014 C 
HETATM   12  C6  UNL     1     -32.818  14.819  -3.875  1.00 20.00     0.018 C 
ENDBRANCH   4   7
TORSDOF 2
ENDMDL
MODEL 6
REMARK VINA RESULT:      -4.5      1.850      4.752
REMARK  2 active torsions:
REMARK  status: ('A' for Active; 'I' for Inactive)
REMARK    1  A    between atoms: C7_7  and  C10_10 
REMARK    2  A    between atoms: C8_8  and  C9_9 
ROOT
HETATM    1  C1  UNL     1     -34.467  17.251  -5.652  1.00 20.00    -0.019 C 
HETATM    2  C3  UNL     1     -34.614  17.233  -6.999  1.00 20.00    -0.087 C 
HETATM    3  C5  UNL     1     -34.739  15.798  -7.537  1.00 20.00     0.039 C 
HETATM    4  C8  UNL     1     -34.702  15.867  -5.163  1.00 20.00     0.021 C 
HETATM    5  C10 UNL     1     -34.050  15.141  -6.369  1.00 20.00     0.005 C 
HETATM    6  C11 UNL     1     -34.629  18.399  -7.918  1.00 20.00     0.043 C 
ENDROOT
BRANCH   4   7
HETATM    7  C9  UNL     1     -34.240  14.951  -4.002  1.00 20.00     0.022 C 
HETATM    8  C4  UNL     1     -35.037  15.509  -2.817  1.00 20.00    -0.082 C 
HETATM    9  C2  UNL     1     -36.340  15.249  -3.047  1.00 20.00    -0.019 C 
HETATM   10  C12 UNL     1     -34.414  16.272  -1.713  1.00 20.00     0.043 C 
HETATM   11  C7  UNL     1     -36.426  14.417  -4.306  1.00 20.00     0.014 C 
HETATM   12  C6  UNL     1     -35.071  13.664  -4.130  1.00 20.00     0.018 C 
ENDBRANCH   4   7
TORSDOF 2
ENDMDL
MODEL 7
REMARK VINA RESULT:      -4.5      1.596      3.158
REMARK  2 active torsions:
REMARK  status: ('A' for Active; 'I' for Inactive)
REMARK    1  A    between atoms: C7_7  and  C10_10 
REMARK    2  A    between atoms: C8_8  and  C9_9 
ROOT
HETATM    1  C1  UNL     1     -34.779  17.364  -3.951  1.00 20.00    -0.019 C 
HETATM    2  C3  UNL     1     -34.038  17.811  -2.908  1.00 20.00    -0.087 C 
HETATM    3  C5  UNL     1     -33.858  16.728  -1.832  1.00 20.00     0.039 C 
HETATM    4  C8  UNL     1     -34.965  15.900  -3.765  1.00 20.00     0.021 C 
HETATM    5  C10 UNL     1     -35.079  15.933  -2.217  1.00 20.00     0.005 C 
HETATM    6  C11 UNL     1     -33.462  19.168  -2.731  1.00 20.00     0.043 C 
ENDROOT
BRANCH   4   7
HETATM    7  C9  UNL     1     -36.014  14.811  -4.100  1.00 20.00     0.022 C 
HETATM    8  C4  UNL     1     -36.065  14.875  -5.630  1.00 20.00    -0.082 C 
HETATM    9  C2  UNL     1     -34.873  14.449  -6.093  1.00 20.00    -0.019 C 
HETATM   10  C12 UNL     1     -37.221  15.419  -6.377  1.00 20.00     0.043 C 
HETATM   11  C7  UNL     1     -34.061  13.981  -4.908  1.00 20.00     0.014 C 
HETATM   12  C6  UNL     1     -35.258  13.473  -4.045  1.00 20.00     0.018 C 
ENDBRANCH   4   7
TORSDOF 2
ENDMDL
MODEL 8
REMARK VINA RESULT:      -4.4      1.510      2.142
REMARK  2 active torsions:
REMARK  status: ('A' for Active; 'I' for Inactive)
REMARK    1  A    between atoms: C7_7  and  C10_10 
REMARK    2  A    between atoms: C8_8  and  C9_9 
ROOT
HETATM    1  C1  UNL     1     -36.142  16.733  -2.835  1.00 20.00    -0.019 C 
HETATM    2  C3  UNL     1     -36.205  17.753  -1.945  1.00 20.00    -0.087 C 
HETATM    3  C5  UNL     1     -34.917  17.859  -1.111  1.00 20.00     0.039 C 
HETATM    4  C8  UNL     1     -34.747  16.221  -2.824  1.00 20.00     0.021 C 
HETATM    5  C10 UNL     1     -34.496  16.425  -1.306  1.00 20.00     0.005 C 
HETATM    6  C11 UNL     1     -37.343  18.677  -1.715  1.00 20.00     0.043 C 
ENDROOT
BRANCH   4   7
HETATM    7  C9  UNL     1     -33.997  14.886  -3.055  1.00 20.00     0.022 C 
HETATM    8  C4  UNL     1     -34.566  14.426  -4.401  1.00 20.00    -0.082 C 
HETATM    9  C2  UNL     1     -34.143  15.298  -5.338  1.00 20.00    -0.019 C 
HETATM   10  C12 UNL     1     -35.491  13.279  -4.537  1.00 20.00     0.043 C 
HETATM   11  C7  UNL     1     -33.197  16.267  -4.669  1.00 20.00     0.014 C 
HETATM   12  C6  UNL     1     -32.618  15.272  -3.615  1.00 20.00     0.018 C 
ENDBRANCH   4   7
TORSDOF 2
ENDMDL
MODEL 9
REMARK VINA RESULT:      -4.4      1.288      4.370
REMARK  2 active torsions:
REMARK  status: ('A' for Active; 'I' for Inactive)
REMARK    1  A    between atoms: C7_7  and  C10_10 
REMARK    2  A    between atoms: C8_8  and  C9_9 
ROOT
HETATM    1  C1  UNL     1     -35.428  15.475  -3.034  1.00 20.00    -0.019 C 
HETATM    2  C3  UNL     1     -34.529  14.645  -3.616  1.00 20.00    -0.087 C 
HETATM    3  C5  UNL     1     -33.147  15.304  -3.745  1.00 20.00     0.039 C 
HETATM    4  C8  UNL     1     -34.678  16.657  -2.533  1.00 20.00     0.021 C 
HETATM    5  C10 UNL     1     -33.654  16.722  -3.697  1.00 20.00     0.005 C 
HETATM    6  C11 UNL     1     -34.772  13.271  -4.123  1.00 20.00     0.043 C 
ENDROOT
BRANCH   4   7
HETATM    7  C9  UNL     1     -34.919  18.167  -2.286  1.00 20.00     0.022 C 
HETATM    8  C4  UNL     1     -35.919  18.147  -1.124  1.00 20.00    -0.082 C 
HETATM    9  C2  UNL     1     -35.276  17.656  -0.046  1.00 20.00    -0.019 C 
HETATM   10  C12 UNL     1     -37.342  18.521  -1.278  1.00 20.00     0.043 C 
HETATM   11  C7  UNL     1     -33.827  17.460  -0.426  1.00 20.00     0.014 C 
HETATM   12  C6  UNL     1     -33.732  18.645  -1.435  1.00 20.00     0.018 C 
ENDBRANCH   4   7
TORSDOF 2
ENDMDL
