MODEL 1
REMARK VINA RESULT:      -5.5      0.000      0.000
REMARK  0 active torsions:
REMARK  status: ('A' for Active; 'I' for Inactive)
ROOT
HETATM    1  C1  UNL     1     -35.262   4.136   5.848  1.00 20.00    -0.021 C 
HETATM    2  C2  UNL     1     -35.487   4.220   4.513  1.00 20.00    -0.021 C 
HETATM    3  C3  UNL     1     -34.261   6.451   6.671  1.00 20.00    -0.021 C 
HETATM    4  C4  UNL     1     -33.554   7.272   5.856  1.00 20.00    -0.021 C 
HETATM    5  C5  UNL     1     -34.054   5.884   2.860  1.00 20.00    -0.015 C 
HETATM    6  C6  UNL     1     -33.057   6.690   3.310  1.00 20.00    -0.079 C 
HETATM    7  C7  UNL     1     -34.088   4.994   6.309  1.00 20.00     0.036 C 
HETATM    8  C8  UNL     1     -34.753   5.409   4.062  1.00 20.00     0.036 C 
HETATM    9  C9  UNL     1     -32.777   6.514   4.804  1.00 20.00     0.042 C 
HETATM   10  C10 UNL     1     -33.501   5.202   4.941  1.00 20.00     0.020 C 
HETATM   11  C11 UNL     1     -32.202   7.582   2.486  1.00 20.00     0.044 C 
ENDROOT
TORSDOF 0
ENDMDL
MODEL 2
REMARK VINA RESULT:      -5.1     11.492     13.650
REMARK  0 active torsions:
REMARK  status: ('A' for Active; 'I' for Inactive)
ROOT
HETATM    1  C1  UNL     1     -33.675  16.274  -2.866  1.00 20.00    -0.021 C 
HETATM    2  C2  UNL     1     -33.407  16.939  -4.018  1.00 20.00    -0.021 C 
HETATM    3  C3  UNL     1     -34.024  13.709  -3.447  1.00 20.00    -0.021 C 
HETATM    4  C4  UNL     1     -34.462  13.287  -4.659  1.00 20.00    -0.021 C 
HETATM    5  C5  UNL     1     -34.294  16.086  -6.475  1.00 20.00    -0.015 C 
HETATM    6  C6  UNL     1     -35.043  14.963  -6.640  1.00 20.00    -0.079 C 
HETATM    7  C7  UNL     1     -34.580  15.063  -3.075  1.00 20.00     0.036 C 
HETATM    8  C8  UNL     1     -33.778  16.020  -5.101  1.00 20.00     0.036 C 
HETATM    9  C9  UNL     1     -35.393  14.281  -5.315  1.00 20.00     0.042 C 
HETATM   10  C10 UNL     1     -35.058  15.460  -4.443  1.00 20.00     0.020 C 
HETATM   11  C11 UNL     1     -35.604  14.454  -7.917  1.00 20.00     0.044 C 
ENDROOT
TORSDOF 0
ENDMDL
MODEL 3
REMARK VINA RESULT:      -5.0     11.523     13.242
REMARK  0 active torsions:
REMARK  status: ('A' for Active; 'I' for Inactive)
ROOT
HETATM    1  C1  UNL     1     -35.840  14.768  -6.429  1.00 20.00    -0.021 C 
HETATM    2  C2  UNL     1     -36.699  15.527  -5.704  1.00 20.00    -0.021 C 
HETATM    3  C3  UNL     1     -34.384  13.320  -4.748  1.00 20.00    -0.021 C 
HETATM    4  C4  UNL     1     -34.121  13.719  -3.479  1.00 20.00    -0.021 C 
HETATM    5  C5  UNL     1     -36.167  16.337  -3.132  1.00 20.00    -0.015 C 
HETATM    6  C6  UNL     1     -35.020  16.014  -2.479  1.00 20.00    -0.079 C 
HETATM    7  C7  UNL     1     -34.531  14.486  -5.698  1.00 20.00     0.036 C 
HETATM    8  C8  UNL     1     -36.201  15.478  -4.323  1.00 20.00     0.036 C 
HETATM    9  C9  UNL     1     -34.041  15.224  -3.351  1.00 20.00     0.042 C 
HETATM   10  C10 UNL     1     -34.697  15.562  -4.662  1.00 20.00     0.020 C 
HETATM   11  C11 UNL     1     -34.629  16.444  -1.112  1.00 20.00     0.044 C 
ENDROOT
TORSDOF 0
ENDMDL
MODEL 4
REMARK VINA RESULT:      -4.9     12.109     13.654
REMARK  0 active torsions:
REMARK  status: ('A' for Active; 'I' for Inactive)
ROOT
HETATM    1  C1  UNL     1     -34.043  15.528  -6.436  1.00 20.00    -0.021 C 
HETATM    2  C2  UNL     1     -33.686  16.725  -5.909  1.00 20.00    -0.021 C 
HETATM    3  C3  UNL     1     -35.947  14.480  -4.913  1.00 20.00    -0.021 C 
HETATM    4  C4  UNL     1     -36.067  14.768  -3.593  1.00 20.00    -0.021 C 
HETATM    5  C5  UNL     1     -33.928  17.309  -3.234  1.00 20.00    -0.015 C 
HETATM    6  C6  UNL     1     -34.413  16.421  -2.326  1.00 20.00    -0.079 C 
HETATM    7  C7  UNL     1     -34.512  14.528  -5.383  1.00 20.00     0.036 C 
HETATM    8  C8  UNL     1     -34.247  16.743  -4.552  1.00 20.00     0.036 C 
HETATM    9  C9  UNL     1     -34.733  15.056  -2.941  1.00 20.00     0.042 C 
HETATM   10  C10 UNL     1     -33.945  15.269  -4.204  1.00 20.00     0.020 C 
HETATM   11  C11 UNL     1     -34.535  16.632  -0.861  1.00 20.00     0.044 C 
ENDROOT
TORSDOF 0
ENDMDL
MODEL 5
REMARK VINA RESULT:      -4.9     11.842     12.754
REMARK  0 active torsions:
REMARK  status: ('A' for Active; 'I' for Inactive)
ROOT
HETATM    1  C1  UNL     1     -32.562  14.848  -3.575  1.00 20.00    -0.021 C 
HETATM    2  C2  UNL     1     -33.304  13.772  -3.937  1.00 20.00    -0.021 C 
HETATM    3  C3  UNL     1     -34.030  16.373  -1.975  1.00 20.00    -0.021 C 
HETATM    4  C4  UNL     1     -35.385  16.399  -2.031  1.00 20.00    -0.021 C 
HETATM    5  C5  UNL     1     -36.050  13.823  -4.051  1.00 20.00    -0.015 C 
HETATM    6  C6  UNL     1     -36.780  14.930  -3.754  1.00 20.00    -0.079 C 
HETATM    7  C7  UNL     1     -33.405  16.095  -3.322  1.00 20.00     0.036 C 
HETATM    8  C8  UNL     1     -34.688  14.107  -3.578  1.00 20.00     0.036 C 
HETATM    9  C9  UNL     1     -35.910  16.146  -3.426  1.00 20.00     0.042 C 
HETATM   10  C10 UNL     1     -34.641  15.588  -4.010  1.00 20.00     0.020 C 
HETATM   11  C11 UNL     1     -38.257  15.062  -3.833  1.00 20.00     0.044 C 
ENDROOT
TORSDOF 0
ENDMDL
MODEL 6
REMARK VINA RESULT:      -4.8     11.733     14.066
REMARK  0 active torsions:
REMARK  status: ('A' for Active; 'I' for Inactive)
ROOT
HETATM    1  C1  UNL     1     -34.941  13.267  -4.516  1.00 20.00    -0.021 C 
HETATM    2  C2  UNL     1     -34.139  13.886  -3.614  1.00 20.00    -0.021 C 
HETATM    3  C3  UNL     1     -34.643  14.472  -6.861  1.00 20.00    -0.021 C 
HETATM    4  C4  UNL     1     -34.279  15.774  -6.972  1.00 20.00    -0.021 C 
HETATM    5  C5  UNL     1     -33.400  16.523  -3.838  1.00 20.00    -0.015 C 
HETATM    6  C6  UNL     1     -33.810  17.320  -4.861  1.00 20.00    -0.079 C 
HETATM    7  C7  UNL     1     -35.445  14.205  -5.609  1.00 20.00     0.036 C 
HETATM    8  C8  UNL     1     -33.743  15.153  -4.242  1.00 20.00     0.036 C 
HETATM    9  C9  UNL     1     -34.774  16.613  -5.816  1.00 20.00     0.042 C 
HETATM   10  C10 UNL     1     -35.107  15.479  -4.886  1.00 20.00     0.020 C 
HETATM   11  C11 UNL     1     -33.501  18.762  -5.036  1.00 20.00     0.044 C 
ENDROOT
TORSDOF 0
ENDMDL
MODEL 7
REMARK VINA RESULT:      -4.8     11.814     13.663
REMARK  0 active torsions:
REMARK  status: ('A' for Active; 'I' for Inactive)
ROOT
HETATM    1  C1  UNL     1     -34.564  13.378  -4.175  1.00 20.00    -0.021 C 
HETATM    2  C2  UNL     1     -34.836  13.746  -5.452  1.00 20.00    -0.021 C 
HETATM    3  C3  UNL     1     -34.758  15.525  -2.628  1.00 20.00    -0.021 C 
HETATM    4  C4  UNL     1     -34.547  16.782  -3.093  1.00 20.00    -0.021 C 
HETATM    5  C5  UNL     1     -34.407  16.292  -6.394  1.00 20.00    -0.015 C 
HETATM    6  C6  UNL     1     -33.899  17.289  -5.621  1.00 20.00    -0.079 C 
HETATM    7  C7  UNL     1     -33.925  14.496  -3.356  1.00 20.00     0.036 C 
HETATM    8  C8  UNL     1     -34.766  15.213  -5.464  1.00 20.00     0.036 C 
HETATM    9  C9  UNL     1     -33.531  16.820  -4.212  1.00 20.00     0.042 C 
HETATM   10  C10 UNL     1     -33.543  15.351  -4.531  1.00 20.00     0.020 C 
HETATM   11  C11 UNL     1     -33.591  18.675  -6.057  1.00 20.00     0.044 C 
ENDROOT
TORSDOF 0
ENDMDL
MODEL 8
REMARK VINA RESULT:      -4.7     11.906     13.904
REMARK  0 active torsions:
REMARK  status: ('A' for Active; 'I' for Inactive)
ROOT
HETATM    1  C1  UNL     1     -34.886  14.744  -6.698  1.00 20.00    -0.021 C 
HETATM    2  C2  UNL     1     -34.814  13.862  -5.670  1.00 20.00    -0.021 C 
HETATM    3  C3  UNL     1     -33.671  16.984  -5.961  1.00 20.00    -0.021 C 
HETATM    4  C4  UNL     1     -33.576  17.372  -4.665  1.00 20.00    -0.021 C 
HETATM    5  C5  UNL     1     -34.623  14.646  -3.043  1.00 20.00    -0.015 C 
HETATM    6  C6  UNL     1     -34.596  15.951  -2.662  1.00 20.00    -0.079 C 
HETATM    7  C7  UNL     1     -34.930  16.197  -6.235  1.00 20.00     0.036 C 
HETATM    8  C8  UNL     1     -34.418  14.653  -4.498  1.00 20.00     0.036 C 
HETATM    9  C9  UNL     1     -34.757  16.917  -3.838  1.00 20.00     0.042 C 
HETATM   10  C10 UNL     1     -35.284  15.893  -4.806  1.00 20.00     0.020 C 
HETATM   11  C11 UNL     1     -34.542  16.465  -1.270  1.00 20.00     0.044 C 
ENDROOT
TORSDOF 0
ENDMDL
MODEL 9
REMARK VINA RESULT:      -4.6     11.773     13.100
REMARK  0 active torsions:
REMARK  status: ('A' for Active; 'I' for Inactive)
ROOT
HETATM    1  C1  UNL     1     -34.383  13.327  -4.701  1.00 20.00    -0.021 C 
HETATM    2  C2  UNL     1     -33.560  13.811  -3.738  1.00 20.00    -0.021 C 
HETATM    3  C3  UNL     1     -35.888  15.322  -5.593  1.00 20.00    -0.021 C 
HETATM    4  C4  UNL     1     -36.202  16.398  -4.830  1.00 20.00    -0.021 C 
HETATM    5  C5  UNL     1     -34.197  15.991  -2.189  1.00 20.00    -0.015 C 
HETATM    6  C6  UNL     1     -35.365  16.673  -2.321  1.00 20.00    -0.079 C 
HETATM    7  C7  UNL     1     -35.716  14.065  -4.773  1.00 20.00     0.036 C 
HETATM    8  C8  UNL     1     -34.109  15.123  -3.372  1.00 20.00     0.036 C 
HETATM    9  C9  UNL     1     -36.302  16.054  -3.360  1.00 20.00     0.042 C 
HETATM   10  C10 UNL     1     -35.600  14.725  -3.427  1.00 20.00     0.020 C 
HETATM   11  C11 UNL     1     -35.812  17.827  -1.500  1.00 20.00     0.044 C 
ENDROOT
TORSDOF 0
ENDMDL
