MODEL 1
REMARK VINA RESULT:      -3.7      0.000      0.000
REMARK  1 active torsions:
REMARK  status: ('A' for Active; 'I' for Inactive)
REMARK    1  A    between atoms: C2_2  and  C3_3 
ROOT
HETATM    1  C1  UNL     1     -34.189   5.879   6.379  1.00 20.00     0.105 C 
HETATM    2  C2  UNL     1     -34.450   5.485   5.128  1.00 20.00     0.036 C 
HETATM    3 CL4  UNL     1     -33.492   7.381   6.815  1.00 20.00    -0.096 Cl
HETATM    4 CL5  UNL     1     -35.157   3.912   4.888  1.00 20.00    -0.087 Cl
ENDROOT
BRANCH   2   5
HETATM    5  C3  UNL     1     -34.158   6.239   3.869  1.00 20.00     0.166 C 
HETATM    6 CL6  UNL     1     -32.417   6.191   3.506  1.00 20.00    -0.125 Cl
ENDBRANCH   2   5
TORSDOF 1
ENDMDL
MODEL 2
REMARK VINA RESULT:      -3.7      1.610      2.896
REMARK  1 active torsions:
REMARK  status: ('A' for Active; 'I' for Inactive)
REMARK    1  A    between atoms: C2_2  and  C3_3 
ROOT
HETATM    1  C1  UNL     1     -32.996   6.632   3.242  1.00 20.00     0.105 C 
HETATM    2  C2  UNL     1     -33.880   6.211   4.154  1.00 20.00     0.036 C 
HETATM    3 CL4  UNL     1     -31.539   7.462   3.590  1.00 20.00    -0.096 Cl
HETATM    4 CL5  UNL     1     -35.311   5.389   3.600  1.00 20.00    -0.087 Cl
ENDROOT
BRANCH   2   5
HETATM    5  C3  UNL     1     -33.805   6.408   5.635  1.00 20.00     0.166 C 
HETATM    6 CL6  UNL     1     -34.750   5.160   6.478  1.00 20.00    -0.125 Cl
ENDBRANCH   2   5
TORSDOF 1
ENDMDL
MODEL 3
REMARK VINA RESULT:      -3.6      1.061      3.172
REMARK  1 active torsions:
REMARK  status: ('A' for Active; 'I' for Inactive)
REMARK    1  A    between atoms: C2_2  and  C3_3 
ROOT
HETATM    1  C1  UNL     1     -32.849   6.590   4.127  1.00 20.00     0.105 C 
HETATM    2  C2  UNL     1     -33.867   6.149   4.876  1.00 20.00     0.036 C 
HETATM    3 CL4  UNL     1     -32.542   6.125   2.508  1.00 20.00    -0.096 Cl
HETATM    4 CL5  UNL     1     -34.006   6.737   6.509  1.00 20.00    -0.087 Cl
ENDROOT
BRANCH   2   5
HETATM    5  C3  UNL     1     -34.905   5.147   4.480  1.00 20.00     0.166 C 
HETATM    6 CL6  UNL     1     -35.028   3.862   5.704  1.00 20.00    -0.125 Cl
ENDBRANCH   2   5
TORSDOF 1
ENDMDL
MODEL 4
REMARK VINA RESULT:      -3.6      0.590      2.552
REMARK  1 active torsions:
REMARK  status: ('A' for Active; 'I' for Inactive)
REMARK    1  A    between atoms: C2_2  and  C3_3 
ROOT
HETATM    1  C1  UNL     1     -34.515   4.991   6.045  1.00 20.00     0.105 C 
HETATM    2  C2  UNL     1     -34.013   6.137   5.572  1.00 20.00     0.036 C 
HETATM    3 CL4  UNL     1     -35.157   3.725   5.086  1.00 20.00    -0.096 Cl
HETATM    4 CL5  UNL     1     -33.411   7.308   6.711  1.00 20.00    -0.087 Cl
ENDROOT
BRANCH   2   5
HETATM    5  C3  UNL     1     -33.945   6.565   4.139  1.00 20.00     0.166 C 
HETATM    6 CL6  UNL     1     -32.350   6.182   3.450  1.00 20.00    -0.125 Cl
ENDBRANCH   2   5
TORSDOF 1
ENDMDL
MODEL 5
REMARK VINA RESULT:      -3.4      1.134      2.459
REMARK  1 active torsions:
REMARK  status: ('A' for Active; 'I' for Inactive)
REMARK    1  A    between atoms: C2_2  and  C3_3 
ROOT
HETATM    1  C1  UNL     1     -33.425   6.642   5.032  1.00 20.00     0.105 C 
HETATM    2  C2  UNL     1     -34.048   5.823   4.177  1.00 20.00     0.036 C 
HETATM    3 CL4  UNL     1     -33.889   6.909   6.659  1.00 20.00    -0.096 Cl
HETATM    4 CL5  UNL     1     -33.425   5.693   2.557  1.00 20.00    -0.087 Cl
ENDROOT
BRANCH   2   5
HETATM    5  C3  UNL     1     -35.279   5.016   4.442  1.00 20.00     0.166 C 
HETATM    6 CL6  UNL     1     -34.965   3.796   5.697  1.00 20.00    -0.125 Cl
ENDBRANCH   2   5
TORSDOF 1
ENDMDL
MODEL 6
REMARK VINA RESULT:      -3.4      1.634      1.927
REMARK  1 active torsions:
REMARK  status: ('A' for Active; 'I' for Inactive)
REMARK    1  A    between atoms: C2_2  and  C3_3 
ROOT
HETATM    1  C1  UNL     1     -34.150   6.067   5.066  1.00 20.00     0.105 C 
HETATM    2  C2  UNL     1     -33.475   6.121   3.912  1.00 20.00     0.036 C 
HETATM    3 CL4  UNL     1     -33.672   6.825   6.525  1.00 20.00    -0.096 Cl
HETATM    4 CL5  UNL     1     -34.122   5.275   2.535  1.00 20.00    -0.087 Cl
ENDROOT
BRANCH   2   5
HETATM    5  C3  UNL     1     -32.167   6.807   3.668  1.00 20.00     0.166 C 
HETATM    6 CL6  UNL     1     -32.287   7.894   2.265  1.00 20.00    -0.125 Cl
ENDBRANCH   2   5
TORSDOF 1
ENDMDL
MODEL 7
REMARK VINA RESULT:      -3.3      1.851      2.142
REMARK  1 active torsions:
REMARK  status: ('A' for Active; 'I' for Inactive)
REMARK    1  A    between atoms: C2_2  and  C3_3 
ROOT
HETATM    1  C1  UNL     1     -35.115   4.645   4.727  1.00 20.00     0.105 C 
HETATM    2  C2  UNL     1     -34.355   5.438   3.964  1.00 20.00     0.036 C 
HETATM    3 CL4  UNL     1     -35.189   4.697   6.437  1.00 20.00    -0.096 Cl
HETATM    4 CL5  UNL     1     -34.413   5.225   2.237  1.00 20.00    -0.087 Cl
ENDROOT
BRANCH   2   5
HETATM    5  C3  UNL     1     -33.398   6.487   4.434  1.00 20.00     0.166 C 
HETATM    6 CL6  UNL     1     -32.166   6.808   3.191  1.00 20.00    -0.125 Cl
ENDBRANCH   2   5
TORSDOF 1
ENDMDL
MODEL 8
REMARK VINA RESULT:      -3.0      1.494      3.379
REMARK  1 active torsions:
REMARK  status: ('A' for Active; 'I' for Inactive)
REMARK    1  A    between atoms: C2_2  and  C3_3 
ROOT
HETATM    1  C1  UNL     1     -34.367   5.729   3.408  1.00 20.00     0.105 C 
HETATM    2  C2  UNL     1     -33.491   6.345   4.211  1.00 20.00     0.036 C 
HETATM    3 CL4  UNL     1     -35.925   5.193   3.874  1.00 20.00    -0.096 Cl
HETATM    4 CL5  UNL     1     -31.949   6.809   3.550  1.00 20.00    -0.087 Cl
ENDROOT
BRANCH   2   5
HETATM    5  C3  UNL     1     -33.668   6.651   5.664  1.00 20.00     0.166 C 
HETATM    6 CL6  UNL     1     -34.320   5.237   6.523  1.00 20.00    -0.125 Cl
ENDBRANCH   2   5
TORSDOF 1
ENDMDL
MODEL 9
REMARK VINA RESULT:      -2.9      1.518      2.947
REMARK  1 active torsions:
REMARK  status: ('A' for Active; 'I' for Inactive)
REMARK    1  A    between atoms: C2_2  and  C3_3 
ROOT
HETATM    1  C1  UNL     1     -34.916   4.877   3.917  1.00 20.00     0.105 C 
HETATM    2  C2  UNL     1     -34.480   5.401   5.069  1.00 20.00     0.036 C 
HETATM    3 CL4  UNL     1     -34.403   5.362   2.356  1.00 20.00    -0.096 Cl
HETATM    4 CL5  UNL     1     -35.129   4.775   6.558  1.00 20.00    -0.087 Cl
ENDROOT
BRANCH   2   5
HETATM    5  C3  UNL     1     -33.505   6.524   5.233  1.00 20.00     0.166 C 
HETATM    6 CL6  UNL     1     -33.629   7.222   6.864  1.00 20.00    -0.125 Cl
ENDBRANCH   2   5
TORSDOF 1
ENDMDL
