MODEL 1
REMARK VINA RESULT:      -4.2      0.000      0.000
REMARK  0 active torsions:
REMARK  status: ('A' for Active; 'I' for Inactive)
ROOT
HETATM    1  C1  UNL     1     -35.208   4.617   5.979  1.00 20.00     0.004 C 
HETATM    2  C2  UNL     1     -34.145   5.580   6.504  1.00 20.00     0.005 C 
HETATM    3  C3  UNL     1     -34.915   4.197   4.537  1.00 20.00     0.042 C 
HETATM    4  C4  UNL     1     -32.735   6.465   4.530  1.00 20.00     0.013 A 
HETATM    5  C5  UNL     1     -33.830   6.688   5.543  1.00 20.00    -0.007 A 
HETATM    6  C6  UNL     1     -34.165   6.579   4.073  1.00 20.00     0.029 A 
HETATM    7  C7  UNL     1     -34.947   5.394   3.576  1.00 20.00     0.117 C 
HETATM    8 CL8  UNL     1     -34.295   4.907   1.979  1.00 20.00    -0.101 Cl
HETATM    9 CL9  UNL     1     -36.649   5.929   3.333  1.00 20.00    -0.101 Cl
ENDROOT
TORSDOF 0
ENDMDL
MODEL 2
REMARK VINA RESULT:      -4.2     12.341     13.491
REMARK  0 active torsions:
REMARK  status: ('A' for Active; 'I' for Inactive)
ROOT
HETATM    1  C1  UNL     1     -34.793  13.360  -5.092  1.00 20.00     0.004 C 
HETATM    2  C2  UNL     1     -35.051  14.295  -6.272  1.00 20.00     0.005 C 
HETATM    3  C3  UNL     1     -34.857  14.112  -3.761  1.00 20.00     0.042 C 
HETATM    4  C4  UNL     1     -34.880  16.747  -5.480  1.00 20.00     0.013 A 
HETATM    5  C5  UNL     1     -34.264  15.569  -6.194  1.00 20.00    -0.007 A 
HETATM    6  C6  UNL     1     -33.679  16.059  -4.889  1.00 20.00     0.029 A 
HETATM    7  C7  UNL     1     -33.770  15.192  -3.663  1.00 20.00     0.117 C 
HETATM    8 CL8  UNL     1     -34.083  16.240  -2.244  1.00 20.00    -0.101 Cl
HETATM    9 CL9  UNL     1     -32.163  14.414  -3.427  1.00 20.00    -0.101 Cl
ENDROOT
TORSDOF 0
ENDMDL
MODEL 3
REMARK VINA RESULT:      -4.2      8.537      9.741
REMARK  0 active torsions:
REMARK  status: ('A' for Active; 'I' for Inactive)
ROOT
HETATM    1  C1  UNL     1     -40.726   6.050  -0.084  1.00 20.00     0.004 C 
HETATM    2  C2  UNL     1     -41.215   7.294  -0.821  1.00 20.00     0.005 C 
HETATM    3  C3  UNL     1     -40.760   4.816  -0.989  1.00 20.00     0.042 C 
HETATM    4  C4  UNL     1     -42.396   6.590  -3.007  1.00 20.00     0.013 A 
HETATM    5  C5  UNL     1     -42.489   7.065  -1.578  1.00 20.00    -0.007 A 
HETATM    6  C6  UNL     1     -42.949   5.674  -1.949  1.00 20.00     0.029 A 
HETATM    7  C7  UNL     1     -42.188   4.479  -1.441  1.00 20.00     0.117 C 
HETATM    8 CL8  UNL     1     -42.138   3.240  -2.733  1.00 20.00    -0.101 Cl
HETATM    9 CL9  UNL     1     -43.114   3.793  -0.057  1.00 20.00    -0.101 Cl
ENDROOT
TORSDOF 0
ENDMDL
MODEL 4
REMARK VINA RESULT:      -4.1     12.238     13.204
REMARK  0 active torsions:
REMARK  status: ('A' for Active; 'I' for Inactive)
ROOT
HETATM    1  C1  UNL     1     -33.642  13.644  -3.687  1.00 20.00     0.004 C 
HETATM    2  C2  UNL     1     -32.761  14.891  -3.659  1.00 20.00     0.005 C 
HETATM    3  C3  UNL     1     -34.462  13.570  -4.977  1.00 20.00     0.042 C 
HETATM    4  C4  UNL     1     -33.528  16.527  -5.505  1.00 20.00     0.013 A 
HETATM    5  C5  UNL     1     -33.498  16.138  -4.047  1.00 20.00    -0.007 A 
HETATM    6  C6  UNL     1     -34.794  16.082  -4.822  1.00 20.00     0.029 A 
HETATM    7  C7  UNL     1     -35.435  14.750  -5.104  1.00 20.00     0.117 C 
HETATM    8 CL8  UNL     1     -36.132  14.787  -6.753  1.00 20.00    -0.101 Cl
HETATM    9 CL9  UNL     1     -36.793  14.544  -3.939  1.00 20.00    -0.101 Cl
ENDROOT
TORSDOF 0
ENDMDL
MODEL 5
REMARK VINA RESULT:      -4.1      1.664      2.827
REMARK  0 active torsions:
REMARK  status: ('A' for Active; 'I' for Inactive)
ROOT
HETATM    1  C1  UNL     1     -33.774   5.566   6.253  1.00 20.00     0.004 C 
HETATM    2  C2  UNL     1     -35.062   4.817   5.921  1.00 20.00     0.005 C 
HETATM    3  C3  UNL     1     -33.598   6.795   5.359  1.00 20.00     0.042 C 
HETATM    4  C4  UNL     1     -35.983   5.651   3.657  1.00 20.00     0.013 A 
HETATM    5  C5  UNL     1     -35.251   4.596   4.450  1.00 20.00    -0.007 A 
HETATM    6  C6  UNL     1     -34.513   5.427   3.425  1.00 20.00     0.029 A 
HETATM    7  C7  UNL     1     -33.468   6.410   3.878  1.00 20.00     0.117 C 
HETATM    8 CL8  UNL     1     -33.581   7.877   2.857  1.00 20.00    -0.101 Cl
HETATM    9 CL9  UNL     1     -31.856   5.662   3.586  1.00 20.00    -0.101 Cl
ENDROOT
TORSDOF 0
ENDMDL
MODEL 6
REMARK VINA RESULT:      -4.1     12.585     13.606
REMARK  0 active torsions:
REMARK  status: ('A' for Active; 'I' for Inactive)
ROOT
HETATM    1  C1  UNL     1     -35.126  14.008  -5.929  1.00 20.00     0.004 C 
HETATM    2  C2  UNL     1     -34.438  13.235  -4.806  1.00 20.00     0.005 C 
HETATM    3  C3  UNL     1     -34.420  15.337  -6.205  1.00 20.00     0.042 C 
HETATM    4  C4  UNL     1     -32.809  14.803  -3.556  1.00 20.00     0.013 A 
HETATM    5  C5  UNL     1     -34.136  14.085  -3.608  1.00 20.00    -0.007 A 
HETATM    6  C6  UNL     1     -34.082  15.593  -3.701  1.00 20.00     0.029 A 
HETATM    7  C7  UNL     1     -34.466  16.272  -4.988  1.00 20.00     0.117 C 
HETATM    8 CL8  UNL     1     -33.369  17.664  -5.250  1.00 20.00    -0.101 Cl
HETATM    9 CL9  UNL     1     -36.135  16.919  -4.784  1.00 20.00    -0.101 Cl
ENDROOT
TORSDOF 0
ENDMDL
MODEL 7
REMARK VINA RESULT:      -4.1     12.506     13.653
REMARK  0 active torsions:
REMARK  status: ('A' for Active; 'I' for Inactive)
ROOT
HETATM    1  C1  UNL     1     -33.212  16.234  -4.727  1.00 20.00     0.004 C 
HETATM    2  C2  UNL     1     -33.064  15.093  -3.723  1.00 20.00     0.005 C 
HETATM    3  C3  UNL     1     -34.651  16.347  -5.235  1.00 20.00     0.042 C 
HETATM    4  C4  UNL     1     -35.151  13.576  -3.832  1.00 20.00     0.013 A 
HETATM    5  C5  UNL     1     -33.704  13.818  -4.185  1.00 20.00    -0.007 A 
HETATM    6  C6  UNL     1     -34.760  13.810  -5.267  1.00 20.00     0.029 A 
HETATM    7  C7  UNL     1     -35.090  15.086  -5.993  1.00 20.00     0.117 C 
HETATM    8 CL8  UNL     1     -36.856  15.138  -6.286  1.00 20.00    -0.101 Cl
HETATM    9 CL9  UNL     1     -34.269  15.026  -7.595  1.00 20.00    -0.101 Cl
ENDROOT
TORSDOF 0
ENDMDL
MODEL 8
REMARK VINA RESULT:      -4.0     12.041     13.238
REMARK  0 active torsions:
REMARK  status: ('A' for Active; 'I' for Inactive)
ROOT
HETATM    1  C1  UNL     1     -35.154  15.949  -5.929  1.00 20.00     0.004 C 
HETATM    2  C2  UNL     1     -34.424  14.633  -6.189  1.00 20.00     0.005 C 
HETATM    3  C3  UNL     1     -34.874  16.472  -4.519  1.00 20.00     0.042 C 
HETATM    4  C4  UNL     1     -33.571  13.666  -3.952  1.00 20.00     0.013 A 
HETATM    5  C5  UNL     1     -34.580  13.644  -5.073  1.00 20.00    -0.007 A 
HETATM    6  C6  UNL     1     -34.994  14.077  -3.685  1.00 20.00     0.029 A 
HETATM    7  C7  UNL     1     -35.386  15.508  -3.440  1.00 20.00     0.117 C 
HETATM    8 CL8  UNL     1     -34.761  16.006  -1.836  1.00 20.00    -0.101 Cl
HETATM    9 CL9  UNL     1     -37.185  15.575  -3.372  1.00 20.00    -0.101 Cl
ENDROOT
TORSDOF 0
ENDMDL
MODEL 9
REMARK VINA RESULT:      -4.0     12.030     13.193
REMARK  0 active torsions:
REMARK  status: ('A' for Active; 'I' for Inactive)
ROOT
HETATM    1  C1  UNL     1     -35.537  16.610  -4.912  1.00 20.00     0.004 C 
HETATM    2  C2  UNL     1     -36.352  15.349  -5.190  1.00 20.00     0.005 C 
HETATM    3  C3  UNL     1     -34.053  16.285  -4.727  1.00 20.00     0.042 C 
HETATM    4  C4  UNL     1     -34.932  13.266  -4.627  1.00 20.00     0.013 A 
HETATM    5  C5  UNL     1     -36.034  14.225  -4.249  1.00 20.00    -0.007 A 
HETATM    6  C6  UNL     1     -34.746  14.196  -3.458  1.00 20.00     0.029 A 
HETATM    7  C7  UNL     1     -33.816  15.378  -3.511  1.00 20.00     0.117 C 
HETATM    8 CL8  UNL     1     -32.128  14.777  -3.523  1.00 20.00    -0.101 Cl
HETATM    9 CL9  UNL     1     -34.051  16.322  -1.995  1.00 20.00    -0.101 Cl
ENDROOT
TORSDOF 0
ENDMDL
