MODEL 1
REMARK VINA RESULT:      -5.5      0.000      0.000
REMARK  0 active torsions:
REMARK  status: ('A' for Active; 'I' for Inactive)
ROOT
HETATM    1  C1  UNL     1     -33.494  16.721  -4.722  1.00 20.00    -0.023 C 
HETATM    2  C2  UNL     1     -33.968  16.788  -3.465  1.00 20.00    -0.080 C 
HETATM    3  C3  UNL     1     -35.077  13.825  -4.933  1.00 20.00     0.127 C 
HETATM    4  C4  UNL     1     -33.574  15.643  -5.763  1.00 20.00     0.035 C 
HETATM    5  C5  UNL     1     -33.628  17.974  -2.590  1.00 20.00     0.034 C 
HETATM    6  C6  UNL     1     -34.905  14.929  -5.948  1.00 20.00     0.082 C 
HETATM    7  C7  UNL     1     -36.132  13.997  -3.870  1.00 20.00     0.079 C 
HETATM    8  C8  UNL     1     -33.693  17.391  -1.190  1.00 20.00     0.005 C 
HETATM    9  C9  UNL     1     -36.113  15.359  -3.184  1.00 20.00     0.016 C 
HETATM   10  C10 UNL     1     -34.876  16.447  -1.278  1.00 20.00     0.009 C 
HETATM   11  C11 UNL     1     -34.729  15.755  -2.648  1.00 20.00     0.014 C 
HETATM   12  O12 UNL     1     -34.398  12.798  -4.990  1.00 20.00    -0.298 OA
ENDROOT
TORSDOF 0
ENDMDL
MODEL 2
REMARK VINA RESULT:      -5.0      1.809      3.559
REMARK  0 active torsions:
REMARK  status: ('A' for Active; 'I' for Inactive)
ROOT
HETATM    1  C1  UNL     1     -35.895  13.763  -4.442  1.00 20.00    -0.023 C 
HETATM    2  C2  UNL     1     -36.570  14.790  -3.899  1.00 20.00    -0.080 C 
HETATM    3  C3  UNL     1     -33.152  15.464  -3.721  1.00 20.00     0.127 C 
HETATM    4  C4  UNL     1     -34.433  13.561  -4.717  1.00 20.00     0.035 C 
HETATM    5  C5  UNL     1     -38.081  14.765  -3.854  1.00 20.00     0.034 C 
HETATM    6  C6  UNL     1     -33.442  13.985  -3.643  1.00 20.00     0.082 C 
HETATM    7  C7  UNL     1     -33.647  16.344  -2.600  1.00 20.00     0.079 C 
HETATM    8  C8  UNL     1     -38.446  16.238  -3.871  1.00 20.00     0.005 C 
HETATM    9  C9  UNL     1     -35.102  16.100  -2.211  1.00 20.00     0.016 C 
HETATM   10  C10 UNL     1     -37.373  16.856  -2.996  1.00 20.00     0.009 C 
HETATM   11  C11 UNL     1     -36.070  16.139  -3.402  1.00 20.00     0.014 C 
HETATM   12  O12 UNL     1     -32.502  15.936  -4.655  1.00 20.00    -0.298 OA
ENDROOT
TORSDOF 0
ENDMDL
MODEL 3
REMARK VINA RESULT:      -5.0      1.535      3.103
REMARK  0 active torsions:
REMARK  status: ('A' for Active; 'I' for Inactive)
ROOT
HETATM    1  C1  UNL     1     -35.025  15.255  -6.602  1.00 20.00    -0.023 C 
HETATM    2  C2  UNL     1     -34.618  16.444  -6.124  1.00 20.00    -0.080 C 
HETATM    3  C3  UNL     1     -34.075  14.004  -3.693  1.00 20.00     0.127 C 
HETATM    4  C4  UNL     1     -34.941  13.868  -6.034  1.00 20.00     0.035 C 
HETATM    5  C5  UNL     1     -34.730  17.683  -6.983  1.00 20.00     0.034 C 
HETATM    6  C6  UNL     1     -35.267  13.683  -4.559  1.00 20.00     0.082 C 
HETATM    7  C7  UNL     1     -34.144  15.230  -2.817  1.00 20.00     0.079 C 
HETATM    8  C8  UNL     1     -33.609  18.562  -6.460  1.00 20.00     0.005 C 
HETATM    9  C9  UNL     1     -34.642  16.482  -3.533  1.00 20.00     0.016 C 
HETATM   10  C10 UNL     1     -33.655  18.303  -4.966  1.00 20.00     0.009 C 
HETATM   11  C11 UNL     1     -33.886  16.785  -4.835  1.00 20.00     0.014 C 
HETATM   12  O12 UNL     1     -33.085  13.270  -3.674  1.00 20.00    -0.298 OA
ENDROOT
TORSDOF 0
ENDMDL
MODEL 4
REMARK VINA RESULT:      -4.9      1.289      2.614
REMARK  0 active torsions:
REMARK  status: ('A' for Active; 'I' for Inactive)
ROOT
HETATM    1  C1  UNL     1     -34.744  14.625  -3.033  1.00 20.00    -0.023 C 
HETATM    2  C2  UNL     1     -34.323  15.899  -3.114  1.00 20.00    -0.080 C 
HETATM    3  C3  UNL     1     -35.126  14.772  -6.314  1.00 20.00     0.127 C 
HETATM    4  C4  UNL     1     -35.298  13.689  -4.068  1.00 20.00     0.035 C 
HETATM    5  C5  UNL     1     -33.918  16.643  -1.861  1.00 20.00     0.034 C 
HETATM    6  C6  UNL     1     -34.624  13.656  -5.431  1.00 20.00     0.082 C 
HETATM    7  C7  UNL     1     -34.169  15.883  -6.665  1.00 20.00     0.079 C 
HETATM    8  C8  UNL     1     -34.207  18.090  -2.217  1.00 20.00     0.005 C 
HETATM    9  C9  UNL     1     -33.400  16.445  -5.473  1.00 20.00     0.016 C 
HETATM   10  C10 UNL     1     -33.786  18.163  -3.673  1.00 20.00     0.009 C 
HETATM   11  C11 UNL     1     -34.302  16.852  -4.299  1.00 20.00     0.014 C 
HETATM   12  O12 UNL     1     -36.273  14.760  -6.764  1.00 20.00    -0.298 OA
ENDROOT
TORSDOF 0
ENDMDL
MODEL 5
REMARK VINA RESULT:      -4.9      1.622      3.282
REMARK  0 active torsions:
REMARK  status: ('A' for Active; 'I' for Inactive)
ROOT
HETATM    1  C1  UNL     1     -33.862  16.684  -3.523  1.00 20.00    -0.023 C 
HETATM    2  C2  UNL     1     -34.008  17.065  -4.804  1.00 20.00    -0.080 C 
HETATM    3  C3  UNL     1     -35.505  13.945  -4.376  1.00 20.00     0.127 C 
HETATM    4  C4  UNL     1     -34.384  15.496  -2.768  1.00 20.00     0.035 C 
HETATM    5  C5  UNL     1     -33.457  18.395  -5.266  1.00 20.00     0.034 C 
HETATM    6  C6  UNL     1     -34.328  14.138  -3.452  1.00 20.00     0.082 C 
HETATM    7  C7  UNL     1     -35.243  13.903  -5.861  1.00 20.00     0.079 C 
HETATM    8  C8  UNL     1     -34.374  18.760  -6.420  1.00 20.00     0.005 C 
HETATM    9  C9  UNL     1     -34.340  15.024  -6.367  1.00 20.00     0.016 C 
HETATM   10  C10 UNL     1     -34.607  17.421  -7.094  1.00 20.00     0.009 C 
HETATM   11  C11 UNL     1     -34.800  16.423  -5.934  1.00 20.00     0.014 C 
HETATM   12  O12 UNL     1     -36.645  13.792  -3.931  1.00 20.00    -0.298 OA
ENDROOT
TORSDOF 0
ENDMDL
MODEL 6
REMARK VINA RESULT:      -4.8      1.935      2.346
REMARK  0 active torsions:
REMARK  status: ('A' for Active; 'I' for Inactive)
ROOT
HETATM    1  C1  UNL     1     -34.260  15.095  -2.980  1.00 20.00    -0.023 C 
HETATM    2  C2  UNL     1     -34.641  16.213  -2.336  1.00 20.00    -0.080 C 
HETATM    3  C3  UNL     1     -37.348  14.981  -4.157  1.00 20.00     0.127 C 
HETATM    4  C4  UNL     1     -35.028  14.114  -3.817  1.00 20.00     0.035 C 
HETATM    5  C5  UNL     1     -33.657  16.952  -1.457  1.00 20.00     0.034 C 
HETATM    6  C6  UNL     1     -36.030  14.665  -4.820  1.00 20.00     0.082 C 
HETATM    7  C7  UNL     1     -37.754  16.429  -4.039  1.00 20.00     0.079 C 
HETATM    8  C8  UNL     1     -34.555  17.623  -0.434  1.00 20.00     0.005 C 
HETATM    9  C9  UNL     1     -36.654  17.346  -3.513  1.00 20.00     0.016 C 
HETATM   10  C10 UNL     1     -35.751  18.043  -1.267  1.00 20.00     0.009 C 
HETATM   11  C11 UNL     1     -36.016  16.850  -2.207  1.00 20.00     0.014 C 
HETATM   12  O12 UNL     1     -38.088  14.083  -3.753  1.00 20.00    -0.298 OA
ENDROOT
TORSDOF 0
ENDMDL
MODEL 7
REMARK VINA RESULT:      -4.7      1.604      3.355
REMARK  0 active torsions:
REMARK  status: ('A' for Active; 'I' for Inactive)
ROOT
HETATM    1  C1  UNL     1     -35.461  16.444  -2.661  1.00 20.00    -0.023 C 
HETATM    2  C2  UNL     1     -36.550  16.009  -3.318  1.00 20.00    -0.080 C 
HETATM    3  C3  UNL     1     -33.838  13.988  -4.166  1.00 20.00     0.127 C 
HETATM    4  C4  UNL     1     -34.064  15.901  -2.574  1.00 20.00     0.035 C 
HETATM    5  C5  UNL     1     -37.879  16.704  -3.124  1.00 20.00     0.034 C 
HETATM    6  C6  UNL     1     -33.413  15.402  -3.855  1.00 20.00     0.082 C 
HETATM    7  C7  UNL     1     -34.716  13.759  -5.371  1.00 20.00     0.079 C 
HETATM    8  C8  UNL     1     -38.883  15.598  -3.392  1.00 20.00     0.005 C 
HETATM    9  C9  UNL     1     -35.905  14.711  -5.467  1.00 20.00     0.016 C 
HETATM   10  C10 UNL     1     -38.243  14.841  -4.540  1.00 20.00     0.009 C 
HETATM   11  C11 UNL     1     -36.745  14.773  -4.183  1.00 20.00     0.014 C 
HETATM   12  O12 UNL     1     -33.452  13.042  -3.477  1.00 20.00    -0.298 OA
ENDROOT
TORSDOF 0
ENDMDL
MODEL 8
REMARK VINA RESULT:      -4.7      2.366      4.078
REMARK  0 active torsions:
REMARK  status: ('A' for Active; 'I' for Inactive)
ROOT
HETATM    1  C1  UNL     1     -35.512  16.771  -5.259  1.00 20.00    -0.023 C 
HETATM    2  C2  UNL     1     -34.972  15.624  -4.810  1.00 20.00    -0.080 C 
HETATM    3  C3  UNL     1     -35.534  17.744  -2.099  1.00 20.00     0.127 C 
HETATM    4  C4  UNL     1     -36.038  17.977  -4.536  1.00 20.00     0.035 C 
HETATM    5  C5  UNL     1     -34.635  14.515  -5.781  1.00 20.00     0.034 C 
HETATM    6  C6  UNL     1     -35.231  18.511  -3.362  1.00 20.00     0.082 C 
HETATM    7  C7  UNL     1     -34.449  16.870  -1.522  1.00 20.00     0.079 C 
HETATM    8  C8  UNL     1     -34.753  13.267  -4.925  1.00 20.00     0.005 C 
HETATM    9  C9  UNL     1     -33.762  15.970  -2.544  1.00 20.00     0.016 C 
HETATM   10  C10 UNL     1     -34.178  13.720  -3.597  1.00 20.00     0.009 C 
HETATM   11  C11 UNL     1     -34.741  15.140  -3.386  1.00 20.00     0.014 C 
HETATM   12  O12 UNL     1     -36.625  17.854  -1.535  1.00 20.00    -0.298 OA
ENDROOT
TORSDOF 0
ENDMDL
MODEL 9
REMARK VINA RESULT:      -4.6      2.639      4.053
REMARK  0 active torsions:
REMARK  status: ('A' for Active; 'I' for Inactive)
ROOT
HETATM    1  C1  UNL     1     -35.241  14.537  -6.873  1.00 20.00    -0.023 C 
HETATM    2  C2  UNL     1     -34.654  14.539  -5.664  1.00 20.00    -0.080 C 
HETATM    3  C3  UNL     1     -34.965  17.830  -6.774  1.00 20.00     0.127 C 
HETATM    4  C4  UNL     1     -35.701  15.655  -7.762  1.00 20.00     0.035 C 
HETATM    5  C5  UNL     1     -34.405  13.234  -4.941  1.00 20.00     0.034 C 
HETATM    6  C6  UNL     1     -34.788  16.862  -7.918  1.00 20.00     0.082 C 
HETATM    7  C7  UNL     1     -33.825  17.993  -5.800  1.00 20.00     0.079 C 
HETATM    8  C8  UNL     1     -34.434  13.646  -3.480  1.00 20.00     0.005 C 
HETATM    9  C9  UNL     1     -33.234  16.677  -5.304  1.00 20.00     0.016 C 
HETATM   10  C10 UNL     1     -33.736  14.992  -3.501  1.00 20.00     0.009 C 
HETATM   11  C11 UNL     1     -34.285  15.702  -4.755  1.00 20.00     0.014 C 
HETATM   12  O12 UNL     1     -35.997  18.493  -6.656  1.00 20.00    -0.298 OA
ENDROOT
TORSDOF 0
ENDMDL
