MODEL 1
REMARK VINA RESULT:      -4.9      0.000      0.000
REMARK  0 active torsions:
REMARK  status: ('A' for Active; 'I' for Inactive)
ROOT
HETATM    1  C1  UNL     1     -33.971   5.019   2.891  1.00 20.00    -0.025 A 
HETATM    2  C2  UNL     1     -33.180   6.086   3.033  1.00 20.00    -0.025 A 
HETATM    3  C3  UNL     1     -35.103   3.901   4.877  1.00 20.00     0.009 C 
HETATM    4  C4  UNL     1     -32.686   7.071   5.314  1.00 20.00     0.009 C 
HETATM    5  C5  UNL     1     -34.253   4.446   6.019  1.00 20.00     0.005 C 
HETATM    6  C6  UNL     1     -33.560   6.869   6.547  1.00 20.00     0.005 C 
HETATM    7  C7  UNL     1     -35.129   5.024   3.839  1.00 20.00     0.013 A 
HETATM    8  C8  UNL     1     -33.643   6.996   4.122  1.00 20.00     0.013 A 
HETATM    9  C9  UNL     1     -34.657   5.919   6.089  1.00 20.00    -0.009 C 
HETATM   10  C10 UNL     1     -34.929   6.322   4.636  1.00 20.00     0.005 A 
ENDROOT
TORSDOF 0
ENDMDL
MODEL 2
REMARK VINA RESULT:      -4.8     12.100     13.343
REMARK  0 active torsions:
REMARK  status: ('A' for Active; 'I' for Inactive)
ROOT
HETATM    1  C1  UNL     1     -34.439  14.994  -6.608  1.00 20.00    -0.025 A 
HETATM    2  C2  UNL     1     -34.086  16.239  -6.277  1.00 20.00    -0.025 A 
HETATM    3  C3  UNL     1     -34.670  13.148  -4.872  1.00 20.00     0.009 C 
HETATM    4  C4  UNL     1     -33.556  16.871  -3.881  1.00 20.00     0.009 C 
HETATM    5  C5  UNL     1     -33.875  13.753  -3.720  1.00 20.00     0.005 C 
HETATM    6  C6  UNL     1     -34.035  16.095  -2.660  1.00 20.00     0.005 C 
HETATM    7  C7  UNL     1     -35.309  14.344  -5.578  1.00 20.00     0.013 A 
HETATM    8  C8  UNL     1     -34.631  16.651  -4.949  1.00 20.00     0.013 A 
HETATM    9  C9  UNL     1     -34.771  14.893  -3.233  1.00 20.00    -0.009 C 
HETATM   10  C10 UNL     1     -35.451  15.427  -4.498  1.00 20.00     0.005 A 
ENDROOT
TORSDOF 0
ENDMDL
MODEL 3
REMARK VINA RESULT:      -4.8     12.209     13.745
REMARK  0 active torsions:
REMARK  status: ('A' for Active; 'I' for Inactive)
ROOT
HETATM    1  C1  UNL     1     -34.282  13.606  -3.631  1.00 20.00    -0.025 A 
HETATM    2  C2  UNL     1     -34.574  13.223  -4.878  1.00 20.00    -0.025 A 
HETATM    3  C3  UNL     1     -33.646  16.005  -3.068  1.00 20.00     0.009 C 
HETATM    4  C4  UNL     1     -34.470  14.847  -6.819  1.00 20.00     0.009 C 
HETATM    5  C5  UNL     1     -33.265  16.519  -4.452  1.00 20.00     0.005 C 
HETATM    6  C6  UNL     1     -34.551  16.363  -6.679  1.00 20.00     0.005 C 
HETATM    7  C7  UNL     1     -34.761  14.990  -3.321  1.00 20.00     0.013 A 
HETATM    8  C8  UNL     1     -35.282  14.288  -5.648  1.00 20.00     0.013 A 
HETATM    9  C9  UNL     1     -34.609  16.608  -5.178  1.00 20.00    -0.009 C 
HETATM   10  C10 UNL     1     -35.429  15.435  -4.630  1.00 20.00     0.005 A 
ENDROOT
TORSDOF 0
ENDMDL
MODEL 4
REMARK VINA RESULT:      -4.7     12.259     13.635
REMARK  0 active torsions:
REMARK  status: ('A' for Active; 'I' for Inactive)
ROOT
HETATM    1  C1  UNL     1     -33.846  17.810  -3.446  1.00 20.00    -0.025 A 
HETATM    2  C2  UNL     1     -33.598  17.637  -4.747  1.00 20.00    -0.025 A 
HETATM    3  C3  UNL     1     -34.932  15.999  -2.025  1.00 20.00     0.009 C 
HETATM    4  C4  UNL     1     -34.239  15.497  -5.943  1.00 20.00     0.009 C 
HETATM    5  C5  UNL     1     -35.545  15.126  -3.114  1.00 20.00     0.005 C 
HETATM    6  C6  UNL     1     -34.476  14.161  -5.249  1.00 20.00     0.005 C 
HETATM    7  C7  UNL     1     -33.652  16.559  -2.646  1.00 20.00     0.013 A 
HETATM    8  C8  UNL     1     -33.216  16.230  -5.071  1.00 20.00     0.013 A 
HETATM    9  C9  UNL     1     -34.329  14.467  -3.766  1.00 20.00    -0.009 C 
HETATM   10  C10 UNL     1     -33.225  15.527  -3.701  1.00 20.00     0.005 A 
ENDROOT
TORSDOF 0
ENDMDL
MODEL 5
REMARK VINA RESULT:      -4.6     12.151     13.622
REMARK  0 active torsions:
REMARK  status: ('A' for Active; 'I' for Inactive)
ROOT
HETATM    1  C1  UNL     1     -34.665  15.572  -2.551  1.00 20.00    -0.025 A 
HETATM    2  C2  UNL     1     -33.768  16.435  -3.037  1.00 20.00    -0.025 A 
HETATM    3  C3  UNL     1     -36.213  14.235  -4.064  1.00 20.00     0.009 C 
HETATM    4  C4  UNL     1     -33.560  16.864  -5.525  1.00 20.00     0.009 C 
HETATM    5  C5  UNL     1     -36.117  15.054  -5.347  1.00 20.00     0.005 C 
HETATM    6  C6  UNL     1     -34.038  15.903  -6.607  1.00 20.00     0.005 C 
HETATM    7  C7  UNL     1     -34.835  14.362  -3.415  1.00 20.00     0.013 A 
HETATM    8  C8  UNL     1     -33.185  15.979  -4.334  1.00 20.00     0.013 A 
HETATM    9  C9  UNL     1     -34.700  14.765  -5.846  1.00 20.00    -0.009 C 
HETATM   10  C10 UNL     1     -33.859  14.614  -4.574  1.00 20.00     0.005 A 
ENDROOT
TORSDOF 0
ENDMDL
MODEL 6
REMARK VINA RESULT:      -4.6     12.074     13.510
REMARK  0 active torsions:
REMARK  status: ('A' for Active; 'I' for Inactive)
ROOT
HETATM    1  C1  UNL     1     -33.220  16.670  -5.132  1.00 20.00    -0.025 A 
HETATM    2  C2  UNL     1     -34.015  16.207  -6.101  1.00 20.00    -0.025 A 
HETATM    3  C3  UNL     1     -33.673  16.204  -2.672  1.00 20.00     0.009 C 
HETATM    4  C4  UNL     1     -36.094  14.858  -5.572  1.00 20.00     0.009 C 
HETATM    5  C5  UNL     1     -35.143  15.803  -2.735  1.00 20.00     0.005 C 
HETATM    6  C6  UNL     1     -36.321  14.102  -4.268  1.00 20.00     0.005 C 
HETATM    7  C7  UNL     1     -33.076  15.712  -3.990  1.00 20.00     0.013 A 
HETATM    8  C8  UNL     1     -34.577  14.861  -5.779  1.00 20.00     0.013 A 
HETATM    9  C9  UNL     1     -35.106  14.433  -3.415  1.00 20.00    -0.009 C 
HETATM   10  C10 UNL     1     -33.948  14.521  -4.415  1.00 20.00     0.005 A 
ENDROOT
TORSDOF 0
ENDMDL
MODEL 7
REMARK VINA RESULT:      -4.5      8.937     10.177
REMARK  0 active torsions:
REMARK  status: ('A' for Active; 'I' for Inactive)
ROOT
HETATM    1  C1  UNL     1     -43.045   5.844  -3.226  1.00 20.00    -0.025 A 
HETATM    2  C2  UNL     1     -42.705   7.034  -2.725  1.00 20.00    -0.025 A 
HETATM    3  C3  UNL     1     -42.083   3.670  -2.318  1.00 20.00     0.009 C 
HETATM    4  C4  UNL     1     -41.018   7.245  -0.846  1.00 20.00     0.009 C 
HETATM    5  C5  UNL     1     -40.858   4.199  -1.581  1.00 20.00     0.005 C 
HETATM    6  C6  UNL     1     -40.662   6.121   0.121  1.00 20.00     0.005 C 
HETATM    7  C7  UNL     1     -43.130   4.775  -2.181  1.00 20.00     0.013 A 
HETATM    8  C8  UNL     1     -42.472   6.984  -1.251  1.00 20.00     0.013 A 
HETATM    9  C9  UNL     1     -41.456   4.922  -0.374  1.00 20.00    -0.009 C 
HETATM   10  C10 UNL     1     -42.772   5.518  -0.885  1.00 20.00     0.005 A 
ENDROOT
TORSDOF 0
ENDMDL
MODEL 8
REMARK VINA RESULT:      -4.5     12.191     13.539
REMARK  0 active torsions:
REMARK  status: ('A' for Active; 'I' for Inactive)
ROOT
HETATM    1  C1  UNL     1     -36.084  14.752  -5.633  1.00 20.00    -0.025 A 
HETATM    2  C2  UNL     1     -36.415  14.682  -4.340  1.00 20.00    -0.025 A 
HETATM    3  C3  UNL     1     -33.963  15.913  -6.425  1.00 20.00     0.009 C 
HETATM    4  C4  UNL     1     -34.979  15.754  -2.549  1.00 20.00     0.009 C 
HETATM    5  C5  UNL     1     -33.644  16.766  -5.202  1.00 20.00     0.005 C 
HETATM    6  C6  UNL     1     -33.504  16.098  -2.719  1.00 20.00     0.005 C 
HETATM    7  C7  UNL     1     -34.609  14.647  -5.862  1.00 20.00     0.013 A 
HETATM    8  C8  UNL     1     -35.220  14.544  -3.455  1.00 20.00     0.013 A 
HETATM    9  C9  UNL     1     -33.190  15.739  -4.164  1.00 20.00    -0.009 C 
HETATM   10  C10 UNL     1     -34.040  14.495  -4.443  1.00 20.00     0.005 A 
ENDROOT
TORSDOF 0
ENDMDL
MODEL 9
REMARK VINA RESULT:      -4.5     12.175     13.744
REMARK  0 active torsions:
REMARK  status: ('A' for Active; 'I' for Inactive)
ROOT
HETATM    1  C1  UNL     1     -33.779  17.065  -3.862  1.00 20.00    -0.025 A 
HETATM    2  C2  UNL     1     -33.564  16.050  -3.020  1.00 20.00    -0.025 A 
HETATM    3  C3  UNL     1     -34.595  16.694  -6.244  1.00 20.00     0.009 C 
HETATM    4  C4  UNL     1     -33.896  13.643  -3.737  1.00 20.00     0.009 C 
HETATM    5  C5  UNL     1     -34.248  15.221  -6.427  1.00 20.00     0.005 C 
HETATM    6  C6  UNL     1     -34.768  13.206  -4.909  1.00 20.00     0.005 C 
HETATM    7  C7  UNL     1     -34.952  16.832  -4.764  1.00 20.00     0.013 A 
HETATM    8  C8  UNL     1     -34.535  14.933  -3.216  1.00 20.00     0.013 A 
HETATM    9  C9  UNL     1     -35.259  14.506  -5.528  1.00 20.00    -0.009 C 
HETATM   10  C10 UNL     1     -35.459  15.447  -4.335  1.00 20.00     0.005 A 
ENDROOT
TORSDOF 0
ENDMDL
