MODEL 1
REMARK VINA RESULT:      -5.1      0.000      0.000
REMARK  0 active torsions:
REMARK  status: ('A' for Active; 'I' for Inactive)
ROOT
HETATM    1  C1  UNL     1     -34.424  17.055  -4.524  1.00 20.00    -0.080 C 
HETATM    2  C2  UNL     1     -33.613  18.105  -4.350  1.00 20.00     0.015 C 
HETATM    3  C3  UNL     1     -35.489  16.973  -5.583  1.00 20.00     0.043 C 
HETATM    4  C4  UNL     1     -33.291  13.590  -3.690  1.00 20.00     0.002 C 
HETATM    5  C5  UNL     1     -34.469  13.431  -4.646  1.00 20.00     0.006 C 
HETATM    6  C6  UNL     1     -32.975  15.080  -3.715  1.00 20.00     0.014 C 
HETATM    7  C7  UNL     1     -35.213  14.775  -4.632  1.00 20.00     0.006 C 
HETATM    8  C8  UNL     1     -34.356  15.746  -3.772  1.00 20.00    -0.017 C 
HETATM    9  C9  UNL     1     -35.444  15.488  -5.998  1.00 20.00    -0.040 C 
HETATM   10  C10 UNL     1     -34.955  15.907  -2.365  1.00 20.00     0.020 C 
HETATM   11  C11 UNL     1     -36.779  15.057  -6.619  1.00 20.00     0.015 C 
HETATM   12  C12 UNL     1     -34.336  15.280  -7.051  1.00 20.00     0.015 C 
ENDROOT
TORSDOF 0
ENDMDL
MODEL 2
REMARK VINA RESULT:      -5.0      1.261      3.468
REMARK  0 active torsions:
REMARK  status: ('A' for Active; 'I' for Inactive)
ROOT
HETATM    1  C1  UNL     1     -36.448  15.577  -3.888  1.00 20.00    -0.080 C 
HETATM    2  C2  UNL     1     -37.638  14.982  -3.747  1.00 20.00     0.015 C 
HETATM    3  C3  UNL     1     -36.138  16.972  -3.420  1.00 20.00     0.043 C 
HETATM    4  C4  UNL     1     -33.286  13.582  -3.890  1.00 20.00     0.002 C 
HETATM    5  C5  UNL     1     -32.881  15.014  -3.560  1.00 20.00     0.006 C 
HETATM    6  C6  UNL     1     -34.807  13.588  -3.824  1.00 20.00     0.014 C 
HETATM    7  C7  UNL     1     -34.057  15.901  -3.996  1.00 20.00     0.006 C 
HETATM    8  C8  UNL     1     -35.194  14.938  -4.440  1.00 20.00    -0.017 C 
HETATM    9  C9  UNL     1     -34.680  16.853  -2.931  1.00 20.00    -0.040 C 
HETATM   10  C10 UNL     1     -35.272  14.850  -5.973  1.00 20.00     0.020 C 
HETATM   11  C11 UNL     1     -33.986  18.221  -2.951  1.00 20.00     0.015 C 
HETATM   12  C12 UNL     1     -34.662  16.327  -1.481  1.00 20.00     0.015 C 
ENDROOT
TORSDOF 0
ENDMDL
MODEL 3
REMARK VINA RESULT:      -5.0      1.076      3.113
REMARK  0 active torsions:
REMARK  status: ('A' for Active; 'I' for Inactive)
ROOT
HETATM    1  C1  UNL     1     -34.508  14.449  -4.760  1.00 20.00    -0.080 C 
HETATM    2  C2  UNL     1     -35.095  13.280  -4.475  1.00 20.00     0.015 C 
HETATM    3  C3  UNL     1     -34.617  15.151  -6.084  1.00 20.00     0.043 C 
HETATM    4  C4  UNL     1     -33.913  17.001  -2.093  1.00 20.00     0.002 C 
HETATM    5  C5  UNL     1     -33.858  17.754  -3.418  1.00 20.00     0.006 C 
HETATM    6  C6  UNL     1     -34.424  15.615  -2.460  1.00 20.00     0.014 C 
HETATM    7  C7  UNL     1     -33.644  16.689  -4.504  1.00 20.00     0.006 C 
HETATM    8  C8  UNL     1     -33.729  15.310  -3.793  1.00 20.00    -0.017 C 
HETATM    9  C9  UNL     1     -34.665  16.639  -5.680  1.00 20.00    -0.040 C 
HETATM   10  C10 UNL     1     -32.326  14.721  -3.567  1.00 20.00     0.020 C 
HETATM   11  C11 UNL     1     -34.206  17.533  -6.839  1.00 20.00     0.015 C 
HETATM   12  C12 UNL     1     -36.113  17.029  -5.317  1.00 20.00     0.015 C 
ENDROOT
TORSDOF 0
ENDMDL
MODEL 4
REMARK VINA RESULT:      -4.9      1.262      1.423
REMARK  0 active torsions:
REMARK  status: ('A' for Active; 'I' for Inactive)
ROOT
HETATM    1  C1  UNL     1     -35.243  17.185  -3.902  1.00 20.00    -0.080 C 
HETATM    2  C2  UNL     1     -34.614  18.324  -4.215  1.00 20.00     0.015 C 
HETATM    3  C3  UNL     1     -36.683  16.897  -4.220  1.00 20.00     0.043 C 
HETATM    4  C4  UNL     1     -33.381  13.946  -3.729  1.00 20.00     0.002 C 
HETATM    5  C5  UNL     1     -34.852  13.580  -3.898  1.00 20.00     0.006 C 
HETATM    6  C6  UNL     1     -33.332  15.451  -3.954  1.00 20.00     0.014 C 
HETATM    7  C7  UNL     1     -35.650  14.836  -3.518  1.00 20.00     0.006 C 
HETATM    8  C8  UNL     1     -34.609  15.964  -3.275  1.00 20.00    -0.017 C 
HETATM    9  C9  UNL     1     -36.665  15.393  -4.561  1.00 20.00    -0.040 C 
HETATM   10  C10 UNL     1     -34.387  16.192  -1.771  1.00 20.00     0.020 C 
HETATM   11  C11 UNL     1     -38.053  14.772  -4.358  1.00 20.00     0.015 C 
HETATM   12  C12 UNL     1     -36.266  15.203  -6.039  1.00 20.00     0.015 C 
ENDROOT
TORSDOF 0
ENDMDL
MODEL 5
REMARK VINA RESULT:      -4.8      1.364      2.973
REMARK  0 active torsions:
REMARK  status: ('A' for Active; 'I' for Inactive)
ROOT
HETATM    1  C1  UNL     1     -34.225  17.116  -5.042  1.00 20.00    -0.080 C 
HETATM    2  C2  UNL     1     -33.627  18.004  -5.847  1.00 20.00     0.015 C 
HETATM    3  C3  UNL     1     -34.332  15.646  -5.335  1.00 20.00     0.043 C 
HETATM    4  C4  UNL     1     -34.278  17.611  -1.337  1.00 20.00     0.002 C 
HETATM    5  C5  UNL     1     -34.546  16.127  -1.569  1.00 20.00     0.006 C 
HETATM    6  C6  UNL     1     -33.875  18.147  -2.703  1.00 20.00     0.014 C 
HETATM    7  C7  UNL     1     -34.974  15.997  -3.038  1.00 20.00     0.006 C 
HETATM    8  C8  UNL     1     -34.801  17.404  -3.675  1.00 20.00    -0.017 C 
HETATM    9  C9  UNL     1     -34.177  15.007  -3.940  1.00 20.00    -0.040 C 
HETATM   10  C10 UNL     1     -36.157  18.117  -3.807  1.00 20.00     0.020 C 
HETATM   11  C11 UNL     1     -34.809  13.610  -3.908  1.00 20.00     0.015 C 
HETATM   12  C12 UNL     1     -32.678  14.864  -3.602  1.00 20.00     0.015 C 
ENDROOT
TORSDOF 0
ENDMDL
MODEL 6
REMARK VINA RESULT:      -4.8      1.288      3.686
REMARK  0 active torsions:
REMARK  status: ('A' for Active; 'I' for Inactive)
ROOT
HETATM    1  C1  UNL     1     -36.626  15.211  -4.198  1.00 20.00    -0.080 C 
HETATM    2  C2  UNL     1     -37.868  14.827  -3.879  1.00 20.00     0.015 C 
HETATM    3  C3  UNL     1     -35.430  15.041  -3.302  1.00 20.00     0.043 C 
HETATM    4  C4  UNL     1     -35.470  15.223  -7.754  1.00 20.00     0.002 C 
HETATM    5  C5  UNL     1     -34.207  15.206  -6.899  1.00 20.00     0.006 C 
HETATM    6  C6  UNL     1     -36.604  14.982  -6.768  1.00 20.00     0.014 C 
HETATM    7  C7  UNL     1     -34.637  15.654  -5.495  1.00 20.00     0.006 C 
HETATM    8  C8  UNL     1     -36.186  15.781  -5.527  1.00 20.00    -0.017 C 
HETATM    9  C9  UNL     1     -34.300  14.713  -4.299  1.00 20.00    -0.040 C 
HETATM   10  C10 UNL     1     -36.614  17.253  -5.643  1.00 20.00     0.020 C 
HETATM   11  C11 UNL     1     -32.930  15.061  -3.701  1.00 20.00     0.015 C 
HETATM   12  C12 UNL     1     -34.315  13.204  -4.618  1.00 20.00     0.015 C 
ENDROOT
TORSDOF 0
ENDMDL
MODEL 7
REMARK VINA RESULT:      -4.7      1.317      3.115
REMARK  0 active torsions:
REMARK  status: ('A' for Active; 'I' for Inactive)
ROOT
HETATM    1  C1  UNL     1     -33.714  15.106  -3.854  1.00 20.00    -0.080 C 
HETATM    2  C2  UNL     1     -33.347  13.830  -3.677  1.00 20.00     0.015 C 
HETATM    3  C3  UNL     1     -33.004  16.073  -4.760  1.00 20.00     0.043 C 
HETATM    4  C4  UNL     1     -37.297  16.135  -3.568  1.00 20.00     0.002 C 
HETATM    5  C5  UNL     1     -36.604  17.234  -4.366  1.00 20.00     0.006 C 
HETATM    6  C6  UNL     1     -36.264  15.021  -3.471  1.00 20.00     0.014 C 
HETATM    7  C7  UNL     1     -35.100  17.067  -4.104  1.00 20.00     0.006 C 
HETATM    8  C8  UNL     1     -34.939  15.767  -3.267  1.00 20.00    -0.017 C 
HETATM    9  C9  UNL     1     -34.162  16.911  -5.339  1.00 20.00    -0.040 C 
HETATM   10  C10 UNL     1     -34.708  16.095  -1.782  1.00 20.00     0.020 C 
HETATM   11  C11 UNL     1     -33.657  18.279  -5.817  1.00 20.00     0.015 C 
HETATM   12  C12 UNL     1     -34.777  16.178  -6.549  1.00 20.00     0.015 C 
ENDROOT
TORSDOF 0
ENDMDL
MODEL 8
REMARK VINA RESULT:      -4.7      1.242      2.774
REMARK  0 active torsions:
REMARK  status: ('A' for Active; 'I' for Inactive)
ROOT
HETATM    1  C1  UNL     1     -36.658  14.932  -4.774  1.00 20.00    -0.080 C 
HETATM    2  C2  UNL     1     -37.772  14.752  -4.053  1.00 20.00     0.015 C 
HETATM    3  C3  UNL     1     -36.635  15.478  -6.174  1.00 20.00     0.043 C 
HETATM    4  C4  UNL     1     -33.404  15.735  -3.117  1.00 20.00     0.002 C 
HETATM    5  C5  UNL     1     -33.257  16.174  -4.570  1.00 20.00     0.006 C 
HETATM    6  C6  UNL     1     -34.881  15.402  -2.963  1.00 20.00     0.014 C 
HETATM    7  C7  UNL     1     -34.371  15.454  -5.346  1.00 20.00     0.006 C 
HETATM    8  C8  UNL     1     -35.243  14.720  -4.289  1.00 20.00    -0.017 C 
HETATM    9  C9  UNL     1     -35.348  16.329  -6.188  1.00 20.00    -0.040 C 
HETATM   10  C10 UNL     1     -34.911  13.219  -4.251  1.00 20.00     0.020 C 
HETATM   11  C11 UNL     1     -34.827  16.504  -7.621  1.00 20.00     0.015 C 
HETATM   12  C12 UNL     1     -35.648  17.728  -5.613  1.00 20.00     0.015 C 
ENDROOT
TORSDOF 0
ENDMDL
MODEL 9
REMARK VINA RESULT:      -4.7      1.431      2.689
REMARK  0 active torsions:
REMARK  status: ('A' for Active; 'I' for Inactive)
ROOT
HETATM    1  C1  UNL     1     -34.709  15.655  -3.178  1.00 20.00    -0.080 C 
HETATM    2  C2  UNL     1     -33.806  16.393  -2.521  1.00 20.00     0.015 C 
HETATM    3  C3  UNL     1     -36.162  15.563  -2.802  1.00 20.00     0.043 C 
HETATM    4  C4  UNL     1     -34.375  15.022  -6.848  1.00 20.00     0.002 C 
HETATM    5  C5  UNL     1     -35.838  14.761  -6.506  1.00 20.00     0.006 C 
HETATM    6  C6  UNL     1     -33.792  15.650  -5.589  1.00 20.00     0.014 C 
HETATM    7  C7  UNL     1     -35.892  14.571  -4.982  1.00 20.00     0.006 C 
HETATM    8  C8  UNL     1     -34.464  14.875  -4.448  1.00 20.00    -0.017 C 
HETATM    9  C9  UNL     1     -36.864  15.479  -4.173  1.00 20.00    -0.040 C 
HETATM   10  C10 UNL     1     -33.705  13.574  -4.137  1.00 20.00     0.020 C 
HETATM   11  C11 UNL     1     -38.243  14.819  -4.037  1.00 20.00     0.015 C 
HETATM   12  C12 UNL     1     -37.067  16.901  -4.736  1.00 20.00     0.015 C 
ENDROOT
TORSDOF 0
ENDMDL
