MODEL 1
REMARK VINA RESULT:      -5.8      0.000      0.000
REMARK  0 active torsions:
REMARK  status: ('A' for Active; 'I' for Inactive)
ROOT
HETATM    1  C1  UNL     1     -34.622  13.628  -4.675  1.00 20.00    -0.019 A 
HETATM    2  C2  UNL     1     -35.834  13.934  -4.180  1.00 20.00    -0.019 A 
HETATM    3  C3  UNL     1     -33.357  15.936  -3.000  1.00 20.00    -0.023 C 
HETATM    4  C4  UNL     1     -34.562  16.239  -2.489  1.00 20.00    -0.086 C 
HETATM    5  C5  UNL     1     -33.117  15.708  -4.462  1.00 20.00     0.042 C 
HETATM    6  C6  UNL     1     -35.778  16.380  -3.368  1.00 20.00     0.048 C 
HETATM    7  C7  UNL     1     -35.399  14.612  -7.434  1.00 20.00     0.001 C 
HETATM    8  C8  UNL     1     -36.778  14.965  -6.870  1.00 20.00     0.001 C 
HETATM    9  C9  UNL     1     -34.222  15.228  -6.681  1.00 20.00     0.015 C 
HETATM   10  C10 UNL     1     -36.755  15.872  -5.642  1.00 20.00     0.015 C 
HETATM   11  C11 UNL     1     -34.328  15.056  -5.152  1.00 20.00    -0.009 A 
HETATM   12  C12 UNL     1     -35.745  15.415  -4.572  1.00 20.00    -0.008 A 
HETATM   13  C13 UNL     1     -34.762  16.491  -1.024  1.00 20.00     0.043 C 
ENDROOT
TORSDOF 0
ENDMDL
MODEL 2
REMARK VINA RESULT:      -5.6      1.244      2.243
REMARK  0 active torsions:
REMARK  status: ('A' for Active; 'I' for Inactive)
ROOT
HETATM    1  C1  UNL     1     -32.972  16.101  -4.738  1.00 20.00    -0.019 A 
HETATM    2  C2  UNL     1     -32.919  15.189  -3.752  1.00 20.00    -0.019 A 
HETATM    3  C3  UNL     1     -34.522  18.044  -2.852  1.00 20.00    -0.023 C 
HETATM    4  C4  UNL     1     -34.461  17.144  -1.858  1.00 20.00    -0.086 C 
HETATM    5  C5  UNL     1     -34.934  17.698  -4.252  1.00 20.00     0.042 C 
HETATM    6  C6  UNL     1     -34.816  15.697  -2.082  1.00 20.00     0.048 C 
HETATM    7  C7  UNL     1     -34.902  14.397  -6.337  1.00 20.00     0.001 C 
HETATM    8  C8  UNL     1     -34.846  13.360  -5.213  1.00 20.00     0.001 C 
HETATM    9  C9  UNL     1     -35.281  15.807  -5.889  1.00 20.00     0.015 C 
HETATM   10  C10 UNL     1     -35.173  13.902  -3.823  1.00 20.00     0.015 C 
HETATM   11  C11 UNL     1     -34.493  16.278  -4.650  1.00 20.00    -0.009 A 
HETATM   12  C12 UNL     1     -34.432  15.212  -3.496  1.00 20.00    -0.008 A 
HETATM   13  C13 UNL     1     -34.074  17.530  -0.461  1.00 20.00     0.043 C 
ENDROOT
TORSDOF 0
ENDMDL
MODEL 3
REMARK VINA RESULT:      -5.5      1.198      4.175
REMARK  0 active torsions:
REMARK  status: ('A' for Active; 'I' for Inactive)
ROOT
HETATM    1  C1  UNL     1     -32.936  15.287  -3.823  1.00 20.00    -0.019 A 
HETATM    2  C2  UNL     1     -33.027  16.295  -4.708  1.00 20.00    -0.019 A 
HETATM    3  C3  UNL     1     -35.203  13.763  -5.332  1.00 20.00    -0.023 C 
HETATM    4  C4  UNL     1     -35.289  14.759  -6.228  1.00 20.00    -0.086 C 
HETATM    5  C5  UNL     1     -35.162  13.990  -3.850  1.00 20.00     0.042 C 
HETATM    6  C6  UNL     1     -35.360  16.202  -5.799  1.00 20.00     0.048 C 
HETATM    7  C7  UNL     1     -34.094  17.003  -1.609  1.00 20.00     0.001 C 
HETATM    8  C8  UNL     1     -34.201  18.151  -2.617  1.00 20.00     0.001 C 
HETATM    9  C9  UNL     1     -34.777  15.707  -2.039  1.00 20.00     0.015 C 
HETATM   10  C10 UNL     1     -34.970  17.813  -3.893  1.00 20.00     0.015 C 
HETATM   11  C11 UNL     1     -34.433  15.295  -3.485  1.00 20.00    -0.009 A 
HETATM   12  C12 UNL     1     -34.540  16.474  -4.521  1.00 20.00    -0.008 A 
HETATM   13  C13 UNL     1     -35.358  14.495  -7.703  1.00 20.00     0.043 C 
ENDROOT
TORSDOF 0
ENDMDL
MODEL 4
REMARK VINA RESULT:      -5.1      1.329      1.950
REMARK  0 active torsions:
REMARK  status: ('A' for Active; 'I' for Inactive)
ROOT
HETATM    1  C1  UNL     1     -36.432  15.412  -5.201  1.00 20.00    -0.019 A 
HETATM    2  C2  UNL     1     -36.302  16.725  -4.945  1.00 20.00    -0.019 A 
HETATM    3  C3  UNL     1     -34.419  14.768  -2.906  1.00 20.00    -0.023 C 
HETATM    4  C4  UNL     1     -34.294  16.078  -2.634  1.00 20.00    -0.086 C 
HETATM    5  C5  UNL     1     -34.345  14.204  -4.293  1.00 20.00     0.042 C 
HETATM    6  C6  UNL     1     -34.061  17.090  -3.726  1.00 20.00     0.048 C 
HETATM    7  C7  UNL     1     -34.982  15.690  -7.848  1.00 20.00     0.001 C 
HETATM    8  C8  UNL     1     -34.830  17.185  -7.555  1.00 20.00     0.001 C 
HETATM    9  C9  UNL     1     -34.453  14.766  -6.753  1.00 20.00     0.015 C 
HETATM   10  C10 UNL     1     -34.178  17.512  -6.213  1.00 20.00     0.015 C 
HETATM   11  C11 UNL     1     -34.924  15.172  -5.342  1.00 20.00    -0.009 A 
HETATM   12  C12 UNL     1     -34.771  16.708  -5.041  1.00 20.00    -0.008 A 
HETATM   13  C13 UNL     1     -34.343  16.605  -1.231  1.00 20.00     0.043 C 
ENDROOT
TORSDOF 0
ENDMDL
MODEL 5
REMARK VINA RESULT:      -5.0      1.699      4.341
REMARK  0 active torsions:
REMARK  status: ('A' for Active; 'I' for Inactive)
ROOT
HETATM    1  C1  UNL     1     -35.862  17.647  -3.827  1.00 20.00    -0.019 A 
HETATM    2  C2  UNL     1     -36.282  16.637  -3.046  1.00 20.00    -0.019 A 
HETATM    3  C3  UNL     1     -33.906  15.702  -5.284  1.00 20.00    -0.023 C 
HETATM    4  C4  UNL     1     -34.331  14.684  -4.517  1.00 20.00    -0.086 C 
HETATM    5  C5  UNL     1     -33.528  17.045  -4.735  1.00 20.00     0.042 C 
HETATM    6  C6  UNL     1     -34.452  14.822  -3.022  1.00 20.00     0.048 C 
HETATM    7  C7  UNL     1     -34.482  19.001  -1.493  1.00 20.00     0.001 C 
HETATM    8  C8  UNL     1     -34.956  17.849  -0.603  1.00 20.00     0.001 C 
HETATM    9  C9  UNL     1     -33.697  18.573  -2.732  1.00 20.00     0.015 C 
HETATM   10  C10 UNL     1     -34.573  16.456  -1.100  1.00 20.00     0.015 C 
HETATM   11  C11 UNL     1     -34.377  17.428  -3.510  1.00 20.00    -0.009 A 
HETATM   12  C12 UNL     1     -34.868  16.246  -2.597  1.00 20.00    -0.008 A 
HETATM   13  C13 UNL     1     -34.672  13.344  -5.097  1.00 20.00     0.043 C 
ENDROOT
TORSDOF 0
ENDMDL
MODEL 6
REMARK VINA RESULT:      -4.9      1.202      4.026
REMARK  0 active torsions:
REMARK  status: ('A' for Active; 'I' for Inactive)
ROOT
HETATM    1  C1  UNL     1     -35.390  13.601  -4.326  1.00 20.00    -0.019 A 
HETATM    2  C2  UNL     1     -35.010  13.992  -5.555  1.00 20.00    -0.019 A 
HETATM    3  C3  UNL     1     -38.181  14.924  -4.770  1.00 20.00    -0.023 C 
HETATM    4  C4  UNL     1     -37.814  15.305  -6.005  1.00 20.00    -0.086 C 
HETATM    5  C5  UNL     1     -37.321  15.123  -3.558  1.00 20.00     0.042 C 
HETATM    6  C6  UNL     1     -36.492  15.979  -6.262  1.00 20.00     0.048 C 
HETATM    7  C7  UNL     1     -33.479  15.554  -3.015  1.00 20.00     0.001 C 
HETATM    8  C8  UNL     1     -33.049  16.002  -4.414  1.00 20.00     0.001 C 
HETATM    9  C9  UNL     1     -34.982  15.626  -2.753  1.00 20.00     0.015 C 
HETATM   10  C10 UNL     1     -34.193  16.445  -5.325  1.00 20.00     0.015 C 
HETATM   11  C11 UNL     1     -35.822  15.006  -3.887  1.00 20.00    -0.009 A 
HETATM   12  C12 UNL     1     -35.379  15.463  -5.325  1.00 20.00    -0.008 A 
HETATM   13  C13 UNL     1     -38.712  15.117  -7.192  1.00 20.00     0.043 C 
ENDROOT
TORSDOF 0
ENDMDL
MODEL 7
REMARK VINA RESULT:      -4.9      1.430      3.781
REMARK  0 active torsions:
REMARK  status: ('A' for Active; 'I' for Inactive)
ROOT
HETATM    1  C1  UNL     1     -34.750  14.665  -6.393  1.00 20.00    -0.019 A 
HETATM    2  C2  UNL     1     -34.045  15.807  -6.324  1.00 20.00    -0.019 A 
HETATM    3  C3  UNL     1     -37.371  16.249  -5.799  1.00 20.00    -0.023 C 
HETATM    4  C4  UNL     1     -36.676  17.397  -5.744  1.00 20.00    -0.086 C 
HETATM    5  C5  UNL     1     -36.949  14.996  -5.092  1.00 20.00     0.042 C 
HETATM    6  C6  UNL     1     -35.403  17.510  -4.946  1.00 20.00     0.048 C 
HETATM    7  C7  UNL     1     -33.514  13.641  -3.821  1.00 20.00     0.001 C 
HETATM    8  C8  UNL     1     -32.714  14.944  -3.741  1.00 20.00     0.001 C 
HETATM    9  C9  UNL     1     -35.025  13.824  -3.951  1.00 20.00     0.015 C 
HETATM   10  C10 UNL     1     -33.555  16.217  -3.808  1.00 20.00     0.015 C 
HETATM   11  C11 UNL     1     -35.417  14.859  -5.025  1.00 20.00    -0.009 A 
HETATM   12  C12 UNL     1     -34.594  16.196  -4.945  1.00 20.00    -0.008 A 
HETATM   13  C13 UNL     1     -37.143  18.641  -6.439  1.00 20.00     0.043 C 
ENDROOT
TORSDOF 0
ENDMDL
MODEL 8
REMARK VINA RESULT:      -4.8      1.607      3.056
REMARK  0 active torsions:
REMARK  status: ('A' for Active; 'I' for Inactive)
ROOT
HETATM    1  C1  UNL     1     -35.156  15.710  -2.546  1.00 20.00    -0.019 A 
HETATM    2  C2  UNL     1     -36.151  15.362  -3.380  1.00 20.00    -0.019 A 
HETATM    3  C3  UNL     1     -34.852  18.429  -4.047  1.00 20.00    -0.023 C 
HETATM    4  C4  UNL     1     -35.856  18.095  -4.875  1.00 20.00    -0.086 C 
HETATM    5  C5  UNL     1     -33.720  17.504  -3.711  1.00 20.00     0.042 C 
HETATM    6  C6  UNL     1     -35.911  16.745  -5.542  1.00 20.00     0.048 C 
HETATM    7  C7  UNL     1     -33.307  13.622  -3.734  1.00 20.00     0.001 C 
HETATM    8  C8  UNL     1     -34.439  13.228  -4.686  1.00 20.00     0.001 C 
HETATM    9  C9  UNL     1     -32.939  15.104  -3.755  1.00 20.00     0.015 C 
HETATM   10  C10 UNL     1     -35.021  14.381  -5.502  1.00 20.00     0.015 C 
HETATM   11  C11 UNL     1     -34.167  16.032  -3.674  1.00 20.00    -0.009 A 
HETATM   12  C12 UNL     1     -35.332  15.626  -4.650  1.00 20.00    -0.008 A 
HETATM   13  C13 UNL     1     -36.957  19.054  -5.213  1.00 20.00     0.043 C 
ENDROOT
TORSDOF 0
ENDMDL
MODEL 9
REMARK VINA RESULT:      -4.8      1.252      4.122
REMARK  0 active torsions:
REMARK  status: ('A' for Active; 'I' for Inactive)
ROOT
HETATM    1  C1  UNL     1     -33.657  17.103  -3.755  1.00 20.00    -0.019 A 
HETATM    2  C2  UNL     1     -34.683  17.592  -4.473  1.00 20.00    -0.019 A 
HETATM    3  C3  UNL     1     -34.230  14.252  -4.884  1.00 20.00    -0.023 C 
HETATM    4  C4  UNL     1     -35.247  14.735  -5.616  1.00 20.00    -0.086 C 
HETATM    5  C5  UNL     1     -34.034  14.575  -3.433  1.00 20.00     0.042 C 
HETATM    6  C6  UNL     1     -36.285  15.648  -5.017  1.00 20.00     0.048 C 
HETATM    7  C7  UNL     1     -35.150  17.542  -1.154  1.00 20.00     0.001 C 
HETATM    8  C8  UNL     1     -36.320  18.095  -1.971  1.00 20.00     0.001 C 
HETATM    9  C9  UNL     1     -34.682  16.148  -1.568  1.00 20.00     0.015 C 
HETATM   10  C10 UNL     1     -36.828  17.167  -3.073  1.00 20.00     0.015 C 
HETATM   11  C11 UNL     1     -34.496  16.003  -3.091  1.00 20.00    -0.009 A 
HETATM   12  C12 UNL     1     -35.696  16.574  -3.932  1.00 20.00    -0.008 A 
HETATM   13  C13 UNL     1     -35.431  14.367  -7.059  1.00 20.00     0.043 C 
ENDROOT
TORSDOF 0
ENDMDL
