MODEL 1
REMARK VINA RESULT:      -5.5      0.000      0.000
REMARK  3 active torsions:
REMARK  status: ('A' for Active; 'I' for Inactive)
REMARK    1  A    between atoms: C1_1  and  C3_3 
REMARK    2  A    between atoms: C1_1  and  C4_4 
REMARK    3  A    between atoms: C2_2  and  C3_3 
ROOT
HETATM    1  C1  UNL     1     -33.824   5.462   4.987  1.00 20.00     0.197 C 
ENDROOT
BRANCH   1   2
HETATM    2  C3  UNL     1     -33.661   6.108   3.616  1.00 20.00     0.264 C 
HETATM    3  F5  UNL     1     -34.415   7.235   3.557  1.00 20.00    -0.205 F 
HETATM    4  F6  UNL     1     -34.132   5.263   2.663  1.00 20.00    -0.205 F 
BRANCH   2   5
HETATM    5  C2  UNL     1     -32.212   6.453   3.315  1.00 20.00     0.193 C 
HETATM    6 CL10 UNL     1     -32.110   7.915   2.301  1.00 20.00    -0.124 Cl
ENDBRANCH   2   5
ENDBRANCH   1   2
BRANCH   1   7
HETATM    7  C4  UNL     1     -35.111   4.673   5.106  1.00 20.00     0.393 C 
HETATM    8  F7  UNL     1     -34.937   3.384   4.748  1.00 20.00    -0.171 F 
HETATM    9  F8  UNL     1     -35.554   4.684   6.383  1.00 20.00    -0.171 F 
HETATM   10  F9  UNL     1     -36.085   5.194   4.332  1.00 20.00    -0.171 F 
ENDBRANCH   1   7
TORSDOF 3
ENDMDL
MODEL 2
REMARK VINA RESULT:      -5.5      0.023      1.189
REMARK  3 active torsions:
REMARK  status: ('A' for Active; 'I' for Inactive)
REMARK    1  A    between atoms: C1_1  and  C3_3 
REMARK    2  A    between atoms: C1_1  and  C4_4 
REMARK    3  A    between atoms: C2_2  and  C3_3 
ROOT
HETATM    1  C1  UNL     1     -33.822   5.468   4.997  1.00 20.00     0.197 C 
ENDROOT
BRANCH   1   2
HETATM    2  C3  UNL     1     -33.665   6.103   3.620  1.00 20.00     0.264 C 
HETATM    3  F5  UNL     1     -34.415   7.232   3.558  1.00 20.00    -0.205 F 
HETATM    4  F6  UNL     1     -34.145   5.253   2.676  1.00 20.00    -0.205 F 
BRANCH   2   5
HETATM    5  C2  UNL     1     -32.216   6.438   3.308  1.00 20.00     0.193 C 
HETATM    6 CL10 UNL     1     -32.113   7.909   2.307  1.00 20.00    -0.124 Cl
ENDBRANCH   2   5
ENDBRANCH   1   2
BRANCH   1   7
HETATM    7  C4  UNL     1     -35.116   4.693   5.133  1.00 20.00     0.393 C 
HETATM    8  F7  UNL     1     -36.080   5.195   4.334  1.00 20.00    -0.171 F 
HETATM    9  F8  UNL     1     -34.931   3.400   4.784  1.00 20.00    -0.171 F 
HETATM   10  F9  UNL     1     -35.573   4.711   6.402  1.00 20.00    -0.171 F 
ENDBRANCH   1   7
TORSDOF 3
ENDMDL
MODEL 3
REMARK VINA RESULT:      -5.5      0.058      1.207
REMARK  3 active torsions:
REMARK  status: ('A' for Active; 'I' for Inactive)
REMARK    1  A    between atoms: C1_1  and  C3_3 
REMARK    2  A    between atoms: C1_1  and  C4_4 
REMARK    3  A    between atoms: C2_2  and  C3_3 
ROOT
HETATM    1  C1  UNL     1     -33.832   5.494   5.029  1.00 20.00     0.197 C 
ENDROOT
BRANCH   1   2
HETATM    2  C3  UNL     1     -33.679   6.099   3.638  1.00 20.00     0.264 C 
HETATM    3  F5  UNL     1     -34.418   7.234   3.558  1.00 20.00    -0.205 F 
HETATM    4  F6  UNL     1     -34.174   5.234   2.716  1.00 20.00    -0.205 F 
BRANCH   2   5
HETATM    5  C2  UNL     1     -32.229   6.414   3.309  1.00 20.00     0.193 C 
HETATM    6 CL10 UNL     1     -32.116   7.894   2.323  1.00 20.00    -0.124 Cl
ENDBRANCH   2   5
ENDBRANCH   1   2
BRANCH   1   7
HETATM    7  C4  UNL     1     -35.107   4.689   5.174  1.00 20.00     0.393 C 
HETATM    8  F7  UNL     1     -35.578   4.732   6.437  1.00 20.00    -0.171 F 
HETATM    9  F8  UNL     1     -36.070   5.181   4.363  1.00 20.00    -0.171 F 
HETATM   10  F9  UNL     1     -34.916   3.395   4.842  1.00 20.00    -0.171 F 
ENDBRANCH   1   7
TORSDOF 3
ENDMDL
MODEL 4
REMARK VINA RESULT:      -5.4      2.455      3.809
REMARK  3 active torsions:
REMARK  status: ('A' for Active; 'I' for Inactive)
REMARK    1  A    between atoms: C1_1  and  C3_3 
REMARK    2  A    between atoms: C1_1  and  C4_4 
REMARK    3  A    between atoms: C2_2  and  C3_3 
ROOT
HETATM    1  C1  UNL     1     -33.892   6.590   4.153  1.00 20.00     0.197 C 
ENDROOT
BRANCH   1   2
HETATM    2  C3  UNL     1     -34.754   5.443   3.637  1.00 20.00     0.264 C 
HETATM    3  F5  UNL     1     -34.206   4.945   2.500  1.00 20.00    -0.205 F 
HETATM    4  F6  UNL     1     -35.984   5.916   3.313  1.00 20.00    -0.205 F 
BRANCH   2   5
HETATM    5  C2  UNL     1     -34.894   4.329   4.661  1.00 20.00     0.193 C 
HETATM    6 CL10 UNL     1     -34.819   4.985   6.317  1.00 20.00    -0.124 Cl
ENDBRANCH   2   5
ENDBRANCH   1   2
BRANCH   1   7
HETATM    7  C4  UNL     1     -32.565   6.688   3.429  1.00 20.00     0.393 C 
HETATM    8  F7  UNL     1     -32.711   7.222   2.198  1.00 20.00    -0.171 F 
HETATM    9  F8  UNL     1     -31.710   7.477   4.117  1.00 20.00    -0.171 F 
HETATM   10  F9  UNL     1     -31.984   5.478   3.293  1.00 20.00    -0.171 F 
ENDBRANCH   1   7
TORSDOF 3
ENDMDL
MODEL 5
REMARK VINA RESULT:      -5.4      2.454      3.837
REMARK  3 active torsions:
REMARK  status: ('A' for Active; 'I' for Inactive)
REMARK    1  A    between atoms: C1_1  and  C3_3 
REMARK    2  A    between atoms: C1_1  and  C4_4 
REMARK    3  A    between atoms: C2_2  and  C3_3 
ROOT
HETATM    1  C1  UNL     1     -33.704   6.461   4.314  1.00 20.00     0.197 C 
ENDROOT
BRANCH   1   2
HETATM    2  C3  UNL     1     -34.667   5.454   3.697  1.00 20.00     0.264 C 
HETATM    3  F5  UNL     1     -34.126   4.956   2.556  1.00 20.00    -0.205 F 
HETATM    4  F6  UNL     1     -35.817   6.087   3.349  1.00 20.00    -0.205 F 
BRANCH   2   5
HETATM    5  C2  UNL     1     -34.986   4.312   4.647  1.00 20.00     0.193 C 
HETATM    6 CL10 UNL     1     -34.850   4.848   6.341  1.00 20.00    -0.124 Cl
ENDBRANCH   2   5
ENDBRANCH   1   2
BRANCH   1   7
HETATM    7  C4  UNL     1     -32.473   6.684   3.461  1.00 20.00     0.393 C 
HETATM    8  F7  UNL     1     -31.833   5.524   3.203  1.00 20.00    -0.171 F 
HETATM    9  F8  UNL     1     -32.814   7.233   2.274  1.00 20.00    -0.171 F 
HETATM   10  F9  UNL     1     -31.599   7.518   4.061  1.00 20.00    -0.171 F 
ENDBRANCH   1   7
TORSDOF 3
ENDMDL
MODEL 6
REMARK VINA RESULT:      -5.4      2.449      3.831
REMARK  3 active torsions:
REMARK  status: ('A' for Active; 'I' for Inactive)
REMARK    1  A    between atoms: C1_1  and  C3_3 
REMARK    2  A    between atoms: C1_1  and  C4_4 
REMARK    3  A    between atoms: C2_2  and  C3_3 
ROOT
HETATM    1  C1  UNL     1     -33.689   6.469   4.307  1.00 20.00     0.197 C 
ENDROOT
BRANCH   1   2
HETATM    2  C3  UNL     1     -34.657   5.463   3.694  1.00 20.00     0.264 C 
HETATM    3  F5  UNL     1     -34.111   4.945   2.565  1.00 20.00    -0.205 F 
HETATM    4  F6  UNL     1     -35.797   6.103   3.328  1.00 20.00    -0.205 F 
BRANCH   2   5
HETATM    5  C2  UNL     1     -34.996   4.337   4.656  1.00 20.00     0.193 C 
HETATM    6 CL10 UNL     1     -34.811   4.877   6.345  1.00 20.00    -0.124 Cl
ENDBRANCH   2   5
ENDBRANCH   1   2
BRANCH   1   7
HETATM    7  C4  UNL     1     -32.467   6.699   3.442  1.00 20.00     0.393 C 
HETATM    8  F7  UNL     1     -31.588   7.531   4.038  1.00 20.00    -0.171 F 
HETATM    9  F8  UNL     1     -31.829   5.531   3.207  1.00 20.00    -0.171 F 
HETATM   10  F9  UNL     1     -32.800   7.229   2.247  1.00 20.00    -0.171 F 
ENDBRANCH   1   7
TORSDOF 3
ENDMDL
MODEL 7
REMARK VINA RESULT:      -5.2      1.343      1.716
REMARK  3 active torsions:
REMARK  status: ('A' for Active; 'I' for Inactive)
REMARK    1  A    between atoms: C1_1  and  C3_3 
REMARK    2  A    between atoms: C1_1  and  C4_4 
REMARK    3  A    between atoms: C2_2  and  C3_3 
ROOT
HETATM    1  C1  UNL     1     -34.428   4.993   4.636  1.00 20.00     0.197 C 
ENDROOT
BRANCH   1   2
HETATM    2  C3  UNL     1     -33.680   6.282   4.312  1.00 20.00     0.264 C 
HETATM    3  F5  UNL     1     -33.089   6.753   5.439  1.00 20.00    -0.205 F 
HETATM    4  F6  UNL     1     -34.567   7.225   3.903  1.00 20.00    -0.205 F 
BRANCH   2   5
HETATM    5  C2  UNL     1     -32.627   6.076   3.235  1.00 20.00     0.193 C 
HETATM    6 CL10 UNL     1     -32.121   7.639   2.546  1.00 20.00    -0.124 Cl
ENDBRANCH   2   5
ENDBRANCH   1   2
BRANCH   1   7
HETATM    7  C4  UNL     1     -34.662   4.817   6.122  1.00 20.00     0.393 C 
HETATM    8  F7  UNL     1     -35.685   3.971   6.365  1.00 20.00    -0.171 F 
HETATM    9  F8  UNL     1     -33.561   4.304   6.715  1.00 20.00    -0.171 F 
HETATM   10  F9  UNL     1     -34.939   5.993   6.723  1.00 20.00    -0.171 F 
ENDBRANCH   1   7
TORSDOF 3
ENDMDL
MODEL 8
REMARK VINA RESULT:      -5.1      1.444      1.964
REMARK  3 active torsions:
REMARK  status: ('A' for Active; 'I' for Inactive)
REMARK    1  A    between atoms: C1_1  and  C3_3 
REMARK    2  A    between atoms: C1_1  and  C4_4 
REMARK    3  A    between atoms: C2_2  and  C3_3 
ROOT
HETATM    1  C1  UNL     1     -34.816   4.176   4.620  1.00 20.00     0.197 C 
ENDROOT
BRANCH   1   2
HETATM    2  C3  UNL     1     -34.768   5.366   3.667  1.00 20.00     0.264 C 
HETATM    3  F5  UNL     1     -35.998   5.933   3.595  1.00 20.00    -0.205 F 
HETATM    4  F6  UNL     1     -34.456   4.930   2.420  1.00 20.00    -0.205 F 
BRANCH   2   5
HETATM    5  C2  UNL     1     -33.754   6.408   4.107  1.00 20.00     0.193 C 
HETATM    6 CL10 UNL     1     -32.211   6.187   3.243  1.00 20.00    -0.124 Cl
ENDBRANCH   2   5
ENDBRANCH   1   2
BRANCH   1   7
HETATM    7  C4  UNL     1     -34.802   4.598   6.074  1.00 20.00     0.393 C 
HETATM    8  F7  UNL     1     -34.992   5.927   6.206  1.00 20.00    -0.171 F 
HETATM    9  F8  UNL     1     -35.790   3.976   6.755  1.00 20.00    -0.171 F 
HETATM   10  F9  UNL     1     -33.634   4.282   6.670  1.00 20.00    -0.171 F 
ENDBRANCH   1   7
TORSDOF 3
ENDMDL
MODEL 9
REMARK VINA RESULT:      -5.0      0.933      1.685
REMARK  3 active torsions:
REMARK  status: ('A' for Active; 'I' for Inactive)
REMARK    1  A    between atoms: C1_1  and  C3_3 
REMARK    2  A    between atoms: C1_1  and  C4_4 
REMARK    3  A    between atoms: C2_2  and  C3_3 
ROOT
HETATM    1  C1  UNL     1     -33.804   5.017   4.082  1.00 20.00     0.197 C 
ENDROOT
BRANCH   1   2
HETATM    2  C3  UNL     1     -33.314   6.461   4.063  1.00 20.00     0.264 C 
HETATM    3  F5  UNL     1     -32.983   6.840   5.323  1.00 20.00    -0.205 F 
HETATM    4  F6  UNL     1     -34.324   7.272   3.656  1.00 20.00    -0.205 F 
BRANCH   2   5
HETATM    5  C2  UNL     1     -32.116   6.645   3.147  1.00 20.00     0.193 C 
HETATM    6 CL10 UNL     1     -32.226   8.194   2.272  1.00 20.00    -0.124 Cl
ENDBRANCH   2   5
ENDBRANCH   1   2
BRANCH   1   7
HETATM    7  C4  UNL     1     -35.079   4.849   4.883  1.00 20.00     0.393 C 
HETATM    8  F7  UNL     1     -35.063   5.602   6.003  1.00 20.00    -0.171 F 
HETATM    9  F8  UNL     1     -36.149   5.229   4.151  1.00 20.00    -0.171 F 
HETATM   10  F9  UNL     1     -35.269   3.563   5.247  1.00 20.00    -0.171 F 
ENDBRANCH   1   7
TORSDOF 3
ENDMDL
