MODEL 1
REMARK VINA RESULT:      -4.1      0.000      0.000
REMARK  1 active torsions:
REMARK  status: ('A' for Active; 'I' for Inactive)
REMARK    1  A    between atoms: C1_1  and  C3_3 
ROOT
HETATM    1  C1  UNL     1     -34.325   5.571   3.617  1.00 20.00     0.043 C 
HETATM    2  C2  UNL     1     -33.377   6.364   4.134  1.00 20.00     0.183 C 
HETATM    3  F4  UNL     1     -33.429   6.714   5.437  1.00 20.00    -0.193 F 
HETATM    4 CL5  UNL     1     -32.082   6.956   3.165  1.00 20.00    -0.052 Cl
ENDROOT
BRANCH   1   5
HETATM    5  C3  UNL     1     -35.468   5.016   4.402  1.00 20.00     0.145 C 
HETATM    6 CL6  UNL     1     -34.859   3.940   5.677  1.00 20.00    -0.126 Cl
ENDBRANCH   1   5
TORSDOF 1
ENDMDL
MODEL 2
REMARK VINA RESULT:      -4.0      1.562      1.564
REMARK  1 active torsions:
REMARK  status: ('A' for Active; 'I' for Inactive)
REMARK    1  A    between atoms: C1_1  and  C3_3 
ROOT
HETATM    1  C1  UNL     1     -34.068   5.958   4.448  1.00 20.00     0.043 C 
HETATM    2  C2  UNL     1     -33.395   6.075   3.296  1.00 20.00     0.183 C 
HETATM    3  F4  UNL     1     -33.738   5.314   2.234  1.00 20.00    -0.193 F 
HETATM    4 CL5  UNL     1     -32.085   7.182   3.137  1.00 20.00    -0.052 Cl
ENDROOT
BRANCH   1   5
HETATM    5  C3  UNL     1     -35.218   5.026   4.651  1.00 20.00     0.145 C 
HETATM    6 CL6  UNL     1     -35.105   4.266   6.252  1.00 20.00    -0.126 Cl
ENDBRANCH   1   5
TORSDOF 1
ENDMDL
MODEL 3
REMARK VINA RESULT:      -4.0      1.740      1.807
REMARK  1 active torsions:
REMARK  status: ('A' for Active; 'I' for Inactive)
REMARK    1  A    between atoms: C1_1  and  C3_3 
ROOT
HETATM    1  C1  UNL     1     -33.793   6.574   3.828  1.00 20.00     0.043 C 
HETATM    2  C2  UNL     1     -32.606   6.622   3.211  1.00 20.00     0.183 C 
HETATM    3  F4  UNL     1     -31.740   5.593   3.334  1.00 20.00    -0.193 F 
HETATM    4 CL5  UNL     1     -32.150   7.982   2.257  1.00 20.00    -0.052 Cl
ENDROOT
BRANCH   1   5
HETATM    5  C3  UNL     1     -34.255   5.424   4.661  1.00 20.00     0.145 C 
HETATM    6 CL6  UNL     1     -34.335   5.907   6.368  1.00 20.00    -0.126 Cl
ENDBRANCH   1   5
TORSDOF 1
ENDMDL
MODEL 4
REMARK VINA RESULT:      -4.0      1.328      3.530
REMARK  1 active torsions:
REMARK  status: ('A' for Active; 'I' for Inactive)
REMARK    1  A    between atoms: C1_1  and  C3_3 
ROOT
HETATM    1  C1  UNL     1     -33.219   6.161   3.410  1.00 20.00     0.043 C 
HETATM    2  C2  UNL     1     -33.987   5.990   4.493  1.00 20.00     0.183 C 
HETATM    3  F4  UNL     1     -33.665   6.605   5.652  1.00 20.00    -0.193 F 
HETATM    4 CL5  UNL     1     -35.390   4.991   4.444  1.00 20.00    -0.052 Cl
ENDROOT
BRANCH   1   5
HETATM    5  C3  UNL     1     -31.997   7.020   3.381  1.00 20.00     0.145 C 
HETATM    6 CL6  UNL     1     -32.086   8.152   2.015  1.00 20.00    -0.126 Cl
ENDBRANCH   1   5
TORSDOF 1
ENDMDL
MODEL 5
REMARK VINA RESULT:      -3.9      1.490      3.542
REMARK  1 active torsions:
REMARK  status: ('A' for Active; 'I' for Inactive)
REMARK    1  A    between atoms: C1_1  and  C3_3 
ROOT
HETATM    1  C1  UNL     1     -33.642   5.760   4.401  1.00 20.00     0.043 C 
HETATM    2  C2  UNL     1     -34.855   5.242   4.637  1.00 20.00     0.183 C 
HETATM    3  F4  UNL     1     -35.846   5.411   3.735  1.00 20.00    -0.193 F 
HETATM    4 CL5  UNL     1     -35.184   4.360   6.079  1.00 20.00    -0.052 Cl
ENDROOT
BRANCH   1   5
HETATM    5  C3  UNL     1     -33.287   6.526   3.169  1.00 20.00     0.145 C 
HETATM    6 CL6  UNL     1     -31.736   7.361   3.402  1.00 20.00    -0.126 Cl
ENDBRANCH   1   5
TORSDOF 1
ENDMDL
MODEL 6
REMARK VINA RESULT:      -3.8      1.654      3.572
REMARK  1 active torsions:
REMARK  status: ('A' for Active; 'I' for Inactive)
REMARK    1  A    between atoms: C1_1  and  C3_3 
ROOT
HETATM    1  C1  UNL     1     -33.110   6.302   4.318  1.00 20.00     0.043 C 
HETATM    2  C2  UNL     1     -34.220   5.688   4.746  1.00 20.00     0.183 C 
HETATM    3  F4  UNL     1     -35.020   5.050   3.864  1.00 20.00    -0.193 F 
HETATM    4 CL5  UNL     1     -34.659   5.696   6.412  1.00 20.00    -0.052 Cl
ENDROOT
BRANCH   1   5
HETATM    5  C3  UNL     1     -32.666   6.326   2.891  1.00 20.00     0.145 C 
HETATM    6 CL6  UNL     1     -32.057   7.941   2.474  1.00 20.00    -0.126 Cl
ENDBRANCH   1   5
TORSDOF 1
ENDMDL
MODEL 7
REMARK VINA RESULT:      -3.8      1.930      3.802
REMARK  1 active torsions:
REMARK  status: ('A' for Active; 'I' for Inactive)
REMARK    1  A    between atoms: C1_1  and  C3_3 
ROOT
HETATM    1  C1  UNL     1     -33.216   6.365   3.989  1.00 20.00     0.043 C 
HETATM    2  C2  UNL     1     -34.169   5.576   3.478  1.00 20.00     0.183 C 
HETATM    3  F4  UNL     1     -34.046   5.096   2.222  1.00 20.00    -0.193 F 
HETATM    4 CL5  UNL     1     -35.566   5.156   4.395  1.00 20.00    -0.052 Cl
ENDROOT
BRANCH   1   5
HETATM    5  C3  UNL     1     -31.977   6.760   3.253  1.00 20.00     0.145 C 
HETATM    6 CL6  UNL     1     -32.315   8.152   2.203  1.00 20.00    -0.126 Cl
ENDBRANCH   1   5
TORSDOF 1
ENDMDL
MODEL 8
REMARK VINA RESULT:      -3.7      2.177      2.214
REMARK  1 active torsions:
REMARK  status: ('A' for Active; 'I' for Inactive)
REMARK    1  A    between atoms: C1_1  and  C3_3 
ROOT
HETATM    1  C1  UNL     1     -34.044   6.171   4.862  1.00 20.00     0.043 C 
HETATM    2  C2  UNL     1     -34.142   6.400   6.178  1.00 20.00     0.183 C 
HETATM    3  F4  UNL     1     -35.078   5.754   6.907  1.00 20.00    -0.193 F 
HETATM    4 CL5  UNL     1     -33.095   7.514   6.971  1.00 20.00    -0.052 Cl
ENDROOT
BRANCH   1   5
HETATM    5  C3  UNL     1     -34.912   5.212   4.115  1.00 20.00     0.145 C 
HETATM    6 CL6  UNL     1     -34.955   3.650   4.960  1.00 20.00    -0.126 Cl
ENDBRANCH   1   5
TORSDOF 1
ENDMDL
MODEL 9
REMARK VINA RESULT:      -3.6      2.491      2.663
REMARK  1 active torsions:
REMARK  status: ('A' for Active; 'I' for Inactive)
REMARK    1  A    between atoms: C1_1  and  C3_3 
ROOT
HETATM    1  C1  UNL     1     -34.089   6.204   4.824  1.00 20.00     0.043 C 
HETATM    2  C2  UNL     1     -34.181   6.307   6.156  1.00 20.00     0.183 C 
HETATM    3  F4  UNL     1     -35.028   5.506   6.838  1.00 20.00    -0.193 F 
HETATM    4 CL5  UNL     1     -33.236   7.453   7.029  1.00 20.00    -0.052 Cl
ENDROOT
BRANCH   1   5
HETATM    5  C3  UNL     1     -34.871   5.227   4.007  1.00 20.00     0.145 C 
HETATM    6 CL6  UNL     1     -34.205   5.145   2.362  1.00 20.00    -0.126 Cl
ENDBRANCH   1   5
TORSDOF 1
ENDMDL
