MODEL 1
REMARK VINA RESULT:      -5.3      0.000      0.000
REMARK  1 active torsions:
REMARK  status: ('A' for Active; 'I' for Inactive)
REMARK    1  A    between atoms: C1_1  and  C4_4 
ROOT
HETATM    1  C3  UNL     1     -34.154   6.403   5.602  1.00 20.00     0.018 A 
HETATM    2  C4  UNL     1     -33.329   5.786   4.502  1.00 20.00     0.017 A 
HETATM    3  C5  UNL     1     -34.711   5.240   4.816  1.00 20.00    -0.040 A 
HETATM    4  C8  UNL     1     -34.782   3.898   5.499  1.00 20.00     0.015 C 
HETATM    5  C9  UNL     1     -35.869   5.513   3.890  1.00 20.00     0.015 C 
ENDROOT
BRANCH   2   6
HETATM    6  C1  UNL     1     -33.082   6.553   3.290  1.00 20.00    -0.019 C 
HETATM    7  C2  UNL     1     -32.106   7.454   3.069  1.00 20.00    -0.091 C 
HETATM    8  C6  UNL     1     -31.988   8.166   1.750  1.00 20.00     0.042 C 
HETATM    9  C7  UNL     1     -31.067   7.827   4.088  1.00 20.00     0.042 C 
ENDBRANCH   2   6
TORSDOF 1
ENDMDL
MODEL 2
REMARK VINA RESULT:      -4.4     10.988     12.200
REMARK  1 active torsions:
REMARK  status: ('A' for Active; 'I' for Inactive)
REMARK    1  A    between atoms: C1_1  and  C4_4 
ROOT
HETATM    1  C3  UNL     1     -35.519  16.105  -3.191  1.00 20.00     0.018 A 
HETATM    2  C4  UNL     1     -34.547  15.860  -2.067  1.00 20.00     0.017 A 
HETATM    3  C5  UNL     1     -34.282  15.277  -3.444  1.00 20.00    -0.040 A 
HETATM    4  C8  UNL     1     -34.452  13.789  -3.607  1.00 20.00     0.015 C 
HETATM    5  C9  UNL     1     -33.216  15.868  -4.332  1.00 20.00     0.015 C 
ENDROOT
BRANCH   2   6
HETATM    6  C1  UNL     1     -33.759  16.973  -1.558  1.00 20.00    -0.019 C 
HETATM    7  C2  UNL     1     -33.942  17.656  -0.412  1.00 20.00    -0.091 C 
HETATM    8  C6  UNL     1     -33.033  18.791  -0.029  1.00 20.00     0.042 C 
HETATM    9  C7  UNL     1     -35.040  17.362   0.570  1.00 20.00     0.042 C 
ENDBRANCH   2   6
TORSDOF 1
ENDMDL
MODEL 3
REMARK VINA RESULT:      -4.4     11.404     12.515
REMARK  1 active torsions:
REMARK  status: ('A' for Active; 'I' for Inactive)
REMARK    1  A    between atoms: C1_1  and  C4_4 
ROOT
HETATM    1  C3  UNL     1     -34.645  13.200  -4.866  1.00 20.00     0.018 A 
HETATM    2  C4  UNL     1     -34.025  14.474  -4.352  1.00 20.00     0.017 A 
HETATM    3  C5  UNL     1     -35.044  14.522  -5.478  1.00 20.00    -0.040 A 
HETATM    4  C8  UNL     1     -34.531  14.842  -6.858  1.00 20.00     0.015 C 
HETATM    5  C9  UNL     1     -36.445  15.016  -5.219  1.00 20.00     0.015 C 
ENDROOT
BRANCH   2   6
HETATM    6  C1  UNL     1     -34.363  14.934  -3.013  1.00 20.00    -0.019 C 
HETATM    7  C2  UNL     1     -34.256  16.182  -2.519  1.00 20.00    -0.091 C 
HETATM    8  C6  UNL     1     -34.651  16.494  -1.102  1.00 20.00     0.042 C 
HETATM    9  C7  UNL     1     -33.747  17.353  -3.310  1.00 20.00     0.042 C 
ENDBRANCH   2   6
TORSDOF 1
ENDMDL
MODEL 4
REMARK VINA RESULT:      -4.3     11.123     12.223
REMARK  1 active torsions:
REMARK  status: ('A' for Active; 'I' for Inactive)
REMARK    1  A    between atoms: C1_1  and  C4_4 
ROOT
HETATM    1  C3  UNL     1     -33.738  13.713  -3.927  1.00 20.00     0.018 A 
HETATM    2  C4  UNL     1     -33.852  15.183  -3.617  1.00 20.00     0.017 A 
HETATM    3  C5  UNL     1     -34.824  14.531  -4.585  1.00 20.00    -0.040 A 
HETATM    4  C8  UNL     1     -34.667  14.862  -6.047  1.00 20.00     0.015 C 
HETATM    5  C9  UNL     1     -36.249  14.262  -4.172  1.00 20.00     0.015 C 
ENDROOT
BRANCH   2   6
HETATM    6  C1  UNL     1     -34.278  15.594  -2.287  1.00 20.00    -0.019 C 
HETATM    7  C2  UNL     1     -34.233  16.829  -1.753  1.00 20.00    -0.091 C 
HETATM    8  C6  UNL     1     -34.717  17.089  -0.353  1.00 20.00     0.042 C 
HETATM    9  C7  UNL     1     -33.712  18.036  -2.480  1.00 20.00     0.042 C 
ENDBRANCH   2   6
TORSDOF 1
ENDMDL
MODEL 5
REMARK VINA RESULT:      -4.1      0.959      4.189
REMARK  1 active torsions:
REMARK  status: ('A' for Active; 'I' for Inactive)
REMARK    1  A    between atoms: C1_1  and  C4_4 
ROOT
HETATM    1  C3  UNL     1     -31.805   7.265   4.076  1.00 20.00     0.018 A 
HETATM    2  C4  UNL     1     -33.286   7.161   3.819  1.00 20.00     0.017 A 
HETATM    3  C5  UNL     1     -32.305   7.089   2.662  1.00 20.00    -0.040 A 
HETATM    4  C8  UNL     1     -32.241   8.279   1.740  1.00 20.00     0.015 C 
HETATM    5  C9  UNL     1     -32.023   5.774   1.980  1.00 20.00     0.015 C 
ENDROOT
BRANCH   2   6
HETATM    6  C1  UNL     1     -34.000   5.976   4.273  1.00 20.00    -0.019 C 
HETATM    7  C2  UNL     1     -34.366   5.667   5.532  1.00 20.00    -0.091 C 
HETATM    8  C6  UNL     1     -35.104   4.393   5.837  1.00 20.00     0.042 C 
HETATM    9  C7  UNL     1     -34.082   6.537   6.723  1.00 20.00     0.042 C 
ENDBRANCH   2   6
TORSDOF 1
ENDMDL
MODEL 6
REMARK VINA RESULT:      -4.1     10.982     12.042
REMARK  1 active torsions:
REMARK  status: ('A' for Active; 'I' for Inactive)
REMARK    1  A    between atoms: C1_1  and  C4_4 
ROOT
HETATM    1  C3  UNL     1     -33.788  17.256  -2.040  1.00 20.00     0.018 A 
HETATM    2  C4  UNL     1     -34.491  15.936  -1.855  1.00 20.00     0.017 A 
HETATM    3  C5  UNL     1     -35.076  17.203  -1.253  1.00 20.00    -0.040 A 
HETATM    4  C8  UNL     1     -34.993  17.355   0.244  1.00 20.00     0.015 C 
HETATM    5  C9  UNL     1     -36.294  17.847  -1.864  1.00 20.00     0.015 C 
ENDROOT
BRANCH   2   6
HETATM    6  C1  UNL     1     -35.109  15.298  -3.008  1.00 20.00    -0.019 C 
HETATM    7  C2  UNL     1     -34.576  14.361  -3.815  1.00 20.00    -0.091 C 
HETATM    8  C6  UNL     1     -35.352  13.799  -4.974  1.00 20.00     0.042 C 
HETATM    9  C7  UNL     1     -33.193  13.801  -3.646  1.00 20.00     0.042 C 
ENDBRANCH   2   6
TORSDOF 1
ENDMDL
MODEL 7
REMARK VINA RESULT:      -4.0     11.161     12.875
REMARK  1 active torsions:
REMARK  status: ('A' for Active; 'I' for Inactive)
REMARK    1  A    between atoms: C1_1  and  C4_4 
ROOT
HETATM    1  C3  UNL     1     -33.140  14.178  -3.525  1.00 20.00     0.018 A 
HETATM    2  C4  UNL     1     -34.496  14.248  -4.176  1.00 20.00     0.017 A 
HETATM    3  C5  UNL     1     -33.926  15.466  -3.471  1.00 20.00    -0.040 A 
HETATM    4  C8  UNL     1     -34.549  15.856  -2.156  1.00 20.00     0.015 C 
HETATM    5  C9  UNL     1     -33.405  16.635  -4.268  1.00 20.00     0.015 C 
ENDROOT
BRANCH   2   6
HETATM    6  C1  UNL     1     -34.587  14.193  -5.628  1.00 20.00    -0.019 C 
HETATM    7  C2  UNL     1     -35.601  14.616  -6.406  1.00 20.00    -0.091 C 
HETATM    8  C6  UNL     1     -35.539  14.486  -7.903  1.00 20.00     0.042 C 
HETATM    9  C7  UNL     1     -36.859  15.239  -5.874  1.00 20.00     0.042 C 
ENDBRANCH   2   6
TORSDOF 1
ENDMDL
MODEL 8
REMARK VINA RESULT:      -4.0      8.830     10.938
REMARK  1 active torsions:
REMARK  status: ('A' for Active; 'I' for Inactive)
REMARK    1  A    between atoms: C1_1  and  C4_4 
ROOT
HETATM    1  C3  UNL     1     -40.715   5.922  -0.408  1.00 20.00     0.018 A 
HETATM    2  C4  UNL     1     -41.641   4.840  -0.899  1.00 20.00     0.017 A 
HETATM    3  C5  UNL     1     -41.981   6.301  -1.137  1.00 20.00    -0.040 A 
HETATM    4  C8  UNL     1     -43.110   6.886  -0.329  1.00 20.00     0.015 C 
HETATM    5  C9  UNL     1     -41.841   6.903  -2.513  1.00 20.00     0.015 C 
ENDROOT
BRANCH   2   6
HETATM    6  C1  UNL     1     -41.209   3.982  -1.991  1.00 20.00    -0.019 C 
HETATM    7  C2  UNL     1     -41.909   3.004  -2.597  1.00 20.00    -0.091 C 
HETATM    8  C6  UNL     1     -41.312   2.201  -3.721  1.00 20.00     0.042 C 
HETATM    9  C7  UNL     1     -43.313   2.626  -2.223  1.00 20.00     0.042 C 
ENDBRANCH   2   6
TORSDOF 1
ENDMDL
MODEL 9
REMARK VINA RESULT:      -4.0     11.171     12.547
REMARK  1 active torsions:
REMARK  status: ('A' for Active; 'I' for Inactive)
REMARK    1  A    between atoms: C1_1  and  C4_4 
ROOT
HETATM    1  C3  UNL     1     -34.640  18.154  -2.309  1.00 20.00     0.018 A 
HETATM    2  C4  UNL     1     -33.702  16.976  -2.339  1.00 20.00     0.017 A 
HETATM    3  C5  UNL     1     -33.996  17.683  -1.027  1.00 20.00    -0.040 A 
HETATM    4  C8  UNL     1     -32.896  18.529  -0.440  1.00 20.00     0.015 C 
HETATM    5  C9  UNL     1     -34.885  17.038   0.005  1.00 20.00     0.015 C 
ENDROOT
BRANCH   2   6
HETATM    6  C1  UNL     1     -34.240  15.651  -2.616  1.00 20.00    -0.019 C 
HETATM    7  C2  UNL     1     -34.325  15.029  -3.807  1.00 20.00    -0.091 C 
HETATM    8  C6  UNL     1     -34.912  13.650  -3.924  1.00 20.00     0.042 C 
HETATM    9  C7  UNL     1     -33.857  15.632  -5.100  1.00 20.00     0.042 C 
ENDBRANCH   2   6
TORSDOF 1
ENDMDL
