MODEL 1
REMARK VINA RESULT:      -5.3      0.000      0.000
REMARK  0 active torsions:
REMARK  status: ('A' for Active; 'I' for Inactive)
ROOT
HETATM    1  C1  UNL     1     -33.228   6.854   5.001  1.00 20.00    -0.019 A 
HETATM    2  C2  UNL     1     -33.066   6.507   3.717  1.00 20.00    -0.086 A 
HETATM    3  C3  UNL     1     -34.885   4.258   5.229  1.00 20.00     0.132 C 
HETATM    4  C4  UNL     1     -34.215   5.711   3.160  1.00 20.00     0.046 A 
HETATM    5  C5  UNL     1     -34.447   5.103   6.437  1.00 20.00     0.088 C 
HETATM    6  C6  UNL     1     -34.519   6.349   5.518  1.00 20.00     0.027 A 
HETATM    7  C7  UNL     1     -35.141   5.509   4.359  1.00 20.00     0.067 A 
HETATM    8  C8  UNL     1     -31.898   6.840   2.860  1.00 20.00     0.043 C 
HETATM    9  O9  UNL     1     -34.981   3.065   5.033  1.00 20.00    -0.298 OA
ENDROOT
TORSDOF 0
ENDMDL
MODEL 2
REMARK VINA RESULT:      -5.2      1.864      3.625
REMARK  0 active torsions:
REMARK  status: ('A' for Active; 'I' for Inactive)
ROOT
HETATM    1  C1  UNL     1     -35.338   4.666   4.414  1.00 20.00    -0.019 A 
HETATM    2  C2  UNL     1     -34.877   5.018   5.621  1.00 20.00    -0.086 A 
HETATM    3  C3  UNL     1     -32.890   6.193   3.314  1.00 20.00     0.132 C 
HETATM    4  C4  UNL     1     -34.119   6.318   5.619  1.00 20.00     0.046 A 
HETATM    5  C5  UNL     1     -33.799   5.299   2.454  1.00 20.00     0.088 C 
HETATM    6  C6  UNL     1     -34.967   5.676   3.399  1.00 20.00     0.027 A 
HETATM    7  C7  UNL     1     -34.079   6.720   4.145  1.00 20.00     0.067 A 
HETATM    8  C8  UNL     1     -35.058   4.256   6.885  1.00 20.00     0.043 C 
HETATM    9  O9  UNL     1     -31.694   6.395   3.337  1.00 20.00    -0.298 OA
ENDROOT
TORSDOF 0
ENDMDL
MODEL 3
REMARK VINA RESULT:      -4.8     11.875     12.526
REMARK  0 active torsions:
REMARK  status: ('A' for Active; 'I' for Inactive)
ROOT
HETATM    1  C1  UNL     1     -35.764  15.716  -2.714  1.00 20.00    -0.019 A 
HETATM    2  C2  UNL     1     -34.711  16.191  -2.035  1.00 20.00    -0.086 A 
HETATM    3  C3  UNL     1     -33.751  13.723  -3.943  1.00 20.00     0.132 C 
HETATM    4  C4  UNL     1     -33.404  16.032  -2.764  1.00 20.00     0.046 A 
HETATM    5  C5  UNL     1     -35.275  13.616  -4.115  1.00 20.00     0.088 C 
HETATM    6  C6  UNL     1     -35.336  15.161  -4.017  1.00 20.00     0.027 A 
HETATM    7  C7  UNL     1     -33.779  15.264  -4.032  1.00 20.00     0.067 A 
HETATM    8  C8  UNL     1     -34.749  16.828  -0.692  1.00 20.00     0.043 C 
HETATM    9  O9  UNL     1     -32.867  12.907  -3.785  1.00 20.00    -0.298 OA
ENDROOT
TORSDOF 0
ENDMDL
MODEL 4
REMARK VINA RESULT:      -4.5     12.145     12.788
REMARK  0 active torsions:
REMARK  status: ('A' for Active; 'I' for Inactive)
ROOT
HETATM    1  C1  UNL     1     -36.019  16.438  -2.829  1.00 20.00    -0.019 A 
HETATM    2  C2  UNL     1     -34.866  16.231  -2.179  1.00 20.00    -0.086 A 
HETATM    3  C3  UNL     1     -35.358  13.814  -4.317  1.00 20.00     0.132 C 
HETATM    4  C4  UNL     1     -33.843  15.487  -2.994  1.00 20.00     0.046 A 
HETATM    5  C5  UNL     1     -36.715  14.531  -4.407  1.00 20.00     0.088 C 
HETATM    6  C6  UNL     1     -35.960  15.866  -4.193  1.00 20.00     0.027 A 
HETATM    7  C7  UNL     1     -34.578  15.147  -4.290  1.00 20.00     0.067 A 
HETATM    8  C8  UNL     1     -34.551  16.667  -0.794  1.00 20.00     0.043 C 
HETATM    9  O9  UNL     1     -35.028  12.648  -4.271  1.00 20.00    -0.298 OA
ENDROOT
TORSDOF 0
ENDMDL
MODEL 5
REMARK VINA RESULT:      -4.5     11.871     13.243
REMARK  0 active torsions:
REMARK  status: ('A' for Active; 'I' for Inactive)
ROOT
HETATM    1  C1  UNL     1     -33.102  16.186  -4.604  1.00 20.00    -0.019 A 
HETATM    2  C2  UNL     1     -34.196  16.496  -5.313  1.00 20.00    -0.086 A 
HETATM    3  C3  UNL     1     -34.574  13.547  -3.965  1.00 20.00     0.132 C 
HETATM    4  C4  UNL     1     -35.456  15.873  -4.776  1.00 20.00     0.046 A 
HETATM    5  C5  UNL     1     -33.094  13.803  -3.637  1.00 20.00     0.088 C 
HETATM    6  C6  UNL     1     -33.449  15.301  -3.469  1.00 20.00     0.027 A 
HETATM    7  C7  UNL     1     -34.973  14.999  -3.619  1.00 20.00     0.067 A 
HETATM    8  C8  UNL     1     -34.242  17.366  -6.517  1.00 20.00     0.043 C 
HETATM    9  O9  UNL     1     -35.190  12.579  -4.358  1.00 20.00    -0.298 OA
ENDROOT
TORSDOF 0
ENDMDL
MODEL 6
REMARK VINA RESULT:      -4.3     12.607     13.590
REMARK  0 active torsions:
REMARK  status: ('A' for Active; 'I' for Inactive)
ROOT
HETATM    1  C1  UNL     1     -34.485  16.637  -0.901  1.00 20.00    -0.019 A 
HETATM    2  C2  UNL     1     -33.773  17.770  -0.961  1.00 20.00    -0.086 A 
HETATM    3  C3  UNL     1     -33.618  16.237  -3.838  1.00 20.00     0.132 C 
HETATM    4  C4  UNL     1     -33.724  18.377  -2.337  1.00 20.00     0.046 A 
HETATM    5  C5  UNL     1     -34.315  15.155  -2.996  1.00 20.00     0.088 C 
HETATM    6  C6  UNL     1     -35.034  16.295  -2.232  1.00 20.00     0.027 A 
HETATM    7  C7  UNL     1     -34.465  17.367  -3.213  1.00 20.00     0.067 A 
HETATM    8  C8  UNL     1     -33.076  18.429   0.175  1.00 20.00     0.043 C 
HETATM    9  O9  UNL     1     -32.732  16.211  -4.667  1.00 20.00    -0.298 OA
ENDROOT
TORSDOF 0
ENDMDL
MODEL 7
REMARK VINA RESULT:      -4.2     12.428     13.124
REMARK  0 active torsions:
REMARK  status: ('A' for Active; 'I' for Inactive)
ROOT
HETATM    1  C1  UNL     1     -34.056  14.454  -3.314  1.00 20.00    -0.019 A 
HETATM    2  C2  UNL     1     -34.747  15.434  -2.716  1.00 20.00    -0.086 A 
HETATM    3  C3  UNL     1     -36.098  14.762  -5.610  1.00 20.00     0.132 C 
HETATM    4  C4  UNL     1     -36.204  15.456  -3.090  1.00 20.00     0.046 A 
HETATM    5  C5  UNL     1     -34.816  13.919  -5.711  1.00 20.00     0.088 C 
HETATM    6  C6  UNL     1     -34.939  13.653  -4.190  1.00 20.00     0.027 A 
HETATM    7  C7  UNL     1     -36.333  14.352  -4.140  1.00 20.00     0.067 A 
HETATM    8  C8  UNL     1     -34.201  16.435  -1.762  1.00 20.00     0.043 C 
HETATM    9  O9  UNL     1     -36.690  15.483  -6.386  1.00 20.00    -0.298 OA
ENDROOT
TORSDOF 0
ENDMDL
MODEL 8
REMARK VINA RESULT:      -4.2      9.366     10.280
REMARK  0 active torsions:
REMARK  status: ('A' for Active; 'I' for Inactive)
ROOT
HETATM    1  C1  UNL     1     -42.151   7.775  -1.644  1.00 20.00    -0.019 A 
HETATM    2  C2  UNL     1     -42.442   7.329  -2.873  1.00 20.00    -0.086 A 
HETATM    3  C3  UNL     1     -41.028   4.940  -1.156  1.00 20.00     0.132 C 
HETATM    4  C4  UNL     1     -42.727   5.852  -2.924  1.00 20.00     0.046 A 
HETATM    5  C5  UNL     1     -40.825   6.120  -0.190  1.00 20.00     0.088 C 
HETATM    6  C6  UNL     1     -42.195   6.668  -0.663  1.00 20.00     0.027 A 
HETATM    7  C7  UNL     1     -42.471   5.376  -1.494  1.00 20.00     0.067 A 
HETATM    8  C8  UNL     1     -42.503   8.148  -4.112  1.00 20.00     0.043 C 
HETATM    9  O9  UNL     1     -40.320   4.025  -1.520  1.00 20.00    -0.298 OA
ENDROOT
TORSDOF 0
ENDMDL
MODEL 9
REMARK VINA RESULT:      -4.1     12.276     13.380
REMARK  0 active torsions:
REMARK  status: ('A' for Active; 'I' for Inactive)
ROOT
HETATM    1  C1  UNL     1     -34.847  16.737  -4.731  1.00 20.00    -0.019 A 
HETATM    2  C2  UNL     1     -35.111  16.601  -3.424  1.00 20.00    -0.086 A 
HETATM    3  C3  UNL     1     -34.553  13.663  -4.731  1.00 20.00     0.132 C 
HETATM    4  C4  UNL     1     -34.429  15.416  -2.794  1.00 20.00     0.046 A 
HETATM    5  C5  UNL     1     -34.598  14.519  -6.008  1.00 20.00     0.088 C 
HETATM    6  C6  UNL     1     -33.942  15.663  -5.195  1.00 20.00     0.027 A 
HETATM    7  C7  UNL     1     -33.733  14.724  -3.965  1.00 20.00     0.067 A 
HETATM    8  C8  UNL     1     -35.975  17.492  -2.606  1.00 20.00     0.043 C 
HETATM    9  O9  UNL     1     -35.002  12.575  -4.437  1.00 20.00    -0.298 OA
ENDROOT
TORSDOF 0
ENDMDL
