MODEL 1
REMARK VINA RESULT:      -4.5      0.000      0.000
REMARK  0 active torsions:
REMARK  status: ('A' for Active; 'I' for Inactive)
ROOT
HETATM    1  C1  UNL     1     -34.430  15.299  -6.125  1.00 20.00     0.006 C 
HETATM    2  C2  UNL     1     -34.013  16.176  -4.926  1.00 20.00     0.009 C 
HETATM    3  C3  UNL     1     -35.643  14.952  -3.454  1.00 20.00     0.014 C 
HETATM    4  C4  UNL     1     -33.380  14.114  -3.634  1.00 20.00     0.014 C 
HETATM    5  C5  UNL     1     -34.904  13.934  -5.713  1.00 20.00    -0.006 A 
HETATM    6  C6  UNL     1     -35.653  13.793  -4.413  1.00 20.00    -0.005 A 
HETATM    7  C7  UNL     1     -34.255  13.276  -4.525  1.00 20.00    -0.005 A 
HETATM    8  C8  UNL     1     -34.174  15.447  -3.567  1.00 20.00    -0.043 C 
HETATM    9  C9  UNL     1     -33.757  16.329  -2.401  1.00 20.00     0.015 C 
ENDROOT
TORSDOF 0
ENDMDL
MODEL 2
REMARK VINA RESULT:      -4.5      1.055      2.883
REMARK  0 active torsions:
REMARK  status: ('A' for Active; 'I' for Inactive)
ROOT
HETATM    1  C1  UNL     1     -33.321  13.696  -3.807  1.00 20.00     0.006 C 
HETATM    2  C2  UNL     1     -34.860  13.598  -3.867  1.00 20.00     0.009 C 
HETATM    3  C3  UNL     1     -35.054  15.659  -2.441  1.00 20.00     0.014 C 
HETATM    4  C4  UNL     1     -34.974  15.911  -4.846  1.00 20.00     0.014 C 
HETATM    5  C5  UNL     1     -32.833  15.108  -3.642  1.00 20.00    -0.006 A 
HETATM    6  C6  UNL     1     -33.655  16.063  -2.817  1.00 20.00    -0.005 A 
HETATM    7  C7  UNL     1     -33.606  16.218  -4.304  1.00 20.00    -0.005 A 
HETATM    8  C8  UNL     1     -35.553  14.979  -3.746  1.00 20.00    -0.043 C 
HETATM    9  C9  UNL     1     -37.067  14.858  -3.808  1.00 20.00     0.015 C 
ENDROOT
TORSDOF 0
ENDMDL
MODEL 3
REMARK VINA RESULT:      -4.4     10.832     12.221
REMARK  0 active torsions:
REMARK  status: ('A' for Active; 'I' for Inactive)
ROOT
HETATM    1  C1  UNL     1     -41.921   4.675  -2.280  1.00 20.00     0.006 C 
HETATM    2  C2  UNL     1     -42.779   5.958  -2.267  1.00 20.00     0.009 C 
HETATM    3  C3  UNL     1     -42.830   5.907   0.246  1.00 20.00     0.014 C 
HETATM    4  C4  UNL     1     -41.043   7.108  -0.858  1.00 20.00     0.014 C 
HETATM    5  C5  UNL     1     -41.068   4.532  -1.051  1.00 20.00    -0.006 A 
HETATM    6  C6  UNL     1     -41.606   5.033   0.263  1.00 20.00    -0.005 A 
HETATM    7  C7  UNL     1     -40.502   5.775  -0.419  1.00 20.00    -0.005 A 
HETATM    8  C8  UNL     1     -42.562   6.810  -0.990  1.00 20.00    -0.043 C 
HETATM    9  C9  UNL     1     -43.415   8.068  -1.000  1.00 20.00     0.015 C 
ENDROOT
TORSDOF 0
ENDMDL
MODEL 4
REMARK VINA RESULT:      -4.4     10.771     12.296
REMARK  0 active torsions:
REMARK  status: ('A' for Active; 'I' for Inactive)
ROOT
HETATM    1  C1  UNL     1     -42.992   5.486   0.528  1.00 20.00     0.006 C 
HETATM    2  C2  UNL     1     -43.416   6.553  -0.503  1.00 20.00     0.009 C 
HETATM    3  C3  UNL     1     -41.005   7.145  -0.893  1.00 20.00     0.014 C 
HETATM    4  C4  UNL     1     -42.015   5.421  -2.257  1.00 20.00     0.014 C 
HETATM    5  C5  UNL     1     -41.632   4.912   0.247  1.00 20.00    -0.006 A 
HETATM    6  C6  UNL     1     -40.579   5.811  -0.344  1.00 20.00    -0.005 A 
HETATM    7  C7  UNL     1     -41.203   4.746  -1.187  1.00 20.00    -0.005 A 
HETATM    8  C8  UNL     1     -42.344   6.788  -1.597  1.00 20.00    -0.043 C 
HETATM    9  C9  UNL     1     -42.783   7.841  -2.601  1.00 20.00     0.015 C 
ENDROOT
TORSDOF 0
ENDMDL
MODEL 5
REMARK VINA RESULT:      -4.4     12.131     13.231
REMARK  0 active torsions:
REMARK  status: ('A' for Active; 'I' for Inactive)
ROOT
HETATM    1  C1  UNL     1     -34.399   6.081   6.554  1.00 20.00     0.006 C 
HETATM    2  C2  UNL     1     -33.553   6.775   5.466  1.00 20.00     0.009 C 
HETATM    3  C3  UNL     1     -33.191   4.564   4.326  1.00 20.00     0.014 C 
HETATM    4  C4  UNL     1     -35.107   5.899   3.693  1.00 20.00     0.014 C 
HETATM    5  C5  UNL     1     -35.093   4.846   6.053  1.00 20.00    -0.006 A 
HETATM    6  C6  UNL     1     -34.399   3.998   5.020  1.00 20.00    -0.005 A 
HETATM    7  C7  UNL     1     -35.583   4.823   4.629  1.00 20.00    -0.005 A 
HETATM    8  C8  UNL     1     -33.615   6.042   4.102  1.00 20.00    -0.043 C 
HETATM    9  C9  UNL     1     -32.775   6.744   3.046  1.00 20.00     0.015 C 
ENDROOT
TORSDOF 0
ENDMDL
MODEL 6
REMARK VINA RESULT:      -4.3     11.537     13.111
REMARK  0 active torsions:
REMARK  status: ('A' for Active; 'I' for Inactive)
ROOT
HETATM    1  C1  UNL     1     -42.998   5.059   0.375  1.00 20.00     0.006 C 
HETATM    2  C2  UNL     1     -43.016   3.948  -0.696  1.00 20.00     0.009 C 
HETATM    3  C3  UNL     1     -42.218   5.591  -2.424  1.00 20.00     0.014 C 
HETATM    4  C4  UNL     1     -40.577   4.346  -1.156  1.00 20.00     0.014 C 
HETATM    5  C5  UNL     1     -41.976   6.123   0.094  1.00 20.00    -0.006 A 
HETATM    6  C6  UNL     1     -41.692   6.490  -1.339  1.00 20.00    -0.005 A 
HETATM    7  C7  UNL     1     -40.678   5.721  -0.555  1.00 20.00    -0.005 A 
HETATM    8  C8  UNL     1     -41.972   4.181  -1.818  1.00 20.00    -0.043 C 
HETATM    9  C9  UNL     1     -42.007   3.076  -2.861  1.00 20.00     0.015 C 
ENDROOT
TORSDOF 0
ENDMDL
MODEL 7
REMARK VINA RESULT:      -4.3      0.908      2.960
REMARK  0 active torsions:
REMARK  status: ('A' for Active; 'I' for Inactive)
ROOT
HETATM    1  C1  UNL     1     -35.905  15.371  -3.277  1.00 20.00     0.006 C 
HETATM    2  C2  UNL     1     -36.260  15.123  -4.758  1.00 20.00     0.009 C 
HETATM    3  C3  UNL     1     -33.892  15.646  -5.420  1.00 20.00     0.014 C 
HETATM    4  C4  UNL     1     -34.475  13.357  -4.894  1.00 20.00     0.014 C 
HETATM    5  C5  UNL     1     -34.465  15.077  -2.965  1.00 20.00    -0.006 A 
HETATM    6  C6  UNL     1     -33.427  15.360  -4.019  1.00 20.00    -0.005 A 
HETATM    7  C7  UNL     1     -33.788  13.946  -3.693  1.00 20.00    -0.005 A 
HETATM    8  C8  UNL     1     -35.050  14.623  -5.588  1.00 20.00    -0.043 C 
HETATM    9  C9  UNL     1     -35.423  14.385  -7.042  1.00 20.00     0.015 C 
ENDROOT
TORSDOF 0
ENDMDL
MODEL 8
REMARK VINA RESULT:      -4.3      0.953      2.845
REMARK  0 active torsions:
REMARK  status: ('A' for Active; 'I' for Inactive)
ROOT
HETATM    1  C1  UNL     1     -33.277  16.115  -4.292  1.00 20.00     0.006 C 
HETATM    2  C2  UNL     1     -33.807  15.789  -5.705  1.00 20.00     0.009 C 
HETATM    3  C3  UNL     1     -34.382  13.458  -4.959  1.00 20.00     0.014 C 
HETATM    4  C4  UNL     1     -36.049  15.197  -4.732  1.00 20.00     0.014 C 
HETATM    5  C5  UNL     1     -33.959  15.319  -3.216  1.00 20.00    -0.006 A 
HETATM    6  C6  UNL     1     -34.388  13.908  -3.524  1.00 20.00    -0.005 A 
HETATM    7  C7  UNL     1     -35.417  14.983  -3.384  1.00 20.00    -0.005 A 
HETATM    8  C8  UNL     1     -34.926  14.716  -5.691  1.00 20.00    -0.043 C 
HETATM    9  C9  UNL     1     -35.432  14.412  -7.092  1.00 20.00     0.015 C 
ENDROOT
TORSDOF 0
ENDMDL
MODEL 9
REMARK VINA RESULT:      -4.3     11.033     12.662
REMARK  0 active torsions:
REMARK  status: ('A' for Active; 'I' for Inactive)
ROOT
HETATM    1  C1  UNL     1     -41.139   7.125  -1.216  1.00 20.00     0.006 C 
HETATM    2  C2  UNL     1     -42.044   6.542  -2.321  1.00 20.00     0.009 C 
HETATM    3  C3  UNL     1     -41.140   4.242  -1.859  1.00 20.00     0.014 C 
HETATM    4  C4  UNL     1     -43.096   4.990  -0.645  1.00 20.00     0.014 C 
HETATM    5  C5  UNL     1     -40.839   6.136  -0.126  1.00 20.00    -0.006 A 
HETATM    6  C6  UNL     1     -40.696   4.682  -0.491  1.00 20.00    -0.005 A 
HETATM    7  C7  UNL     1     -41.904   5.144   0.259  1.00 20.00    -0.005 A 
HETATM    8  C8  UNL     1     -42.443   5.068  -2.052  1.00 20.00    -0.043 C 
HETATM    9  C9  UNL     1     -43.335   4.515  -3.152  1.00 20.00     0.015 C 
ENDROOT
TORSDOF 0
ENDMDL
