MODEL 1
REMARK VINA RESULT:      -5.6      0.000      0.000
REMARK  0 active torsions:
REMARK  status: ('A' for Active; 'I' for Inactive)
ROOT
HETATM    1  C1  UNL     1     -33.661  14.220  -3.639  1.00 20.00    -0.019 A 
HETATM    2  C2  UNL     1     -32.749  15.144  -3.993  1.00 20.00    -0.019 A 
HETATM    3  C3  UNL     1     -34.896  16.233  -1.598  1.00 20.00    -0.023 C 
HETATM    4  C4  UNL     1     -33.980  17.156  -1.937  1.00 20.00    -0.086 C 
HETATM    5  C5  UNL     1     -35.678  15.442  -2.601  1.00 20.00     0.042 C 
HETATM    6  C6  UNL     1     -33.673  17.469  -3.379  1.00 20.00     0.048 C 
HETATM    7  C7  UNL     1     -35.054  14.431  -6.322  1.00 20.00     0.001 C 
HETATM    8  C8  UNL     1     -34.018  15.483  -6.725  1.00 20.00     0.001 C 
HETATM    9  C9  UNL     1     -35.798  14.731  -5.021  1.00 20.00     0.015 C 
HETATM   10  C10 UNL     1     -33.892  16.662  -5.762  1.00 20.00     0.015 C 
HETATM   11  C11 UNL     1     -34.860  15.149  -3.873  1.00 20.00    -0.009 A 
HETATM   12  C12 UNL     1     -33.793  16.228  -4.286  1.00 20.00    -0.008 A 
HETATM   13  C13 UNL     1     -33.238  17.954  -0.907  1.00 20.00     0.043 C 
ENDROOT
TORSDOF 0
ENDMDL
MODEL 2
REMARK VINA RESULT:      -5.5      0.574      4.299
REMARK  0 active torsions:
REMARK  status: ('A' for Active; 'I' for Inactive)
ROOT
HETATM    1  C1  UNL     1     -32.759  15.382  -3.842  1.00 20.00    -0.019 A 
HETATM    2  C2  UNL     1     -33.762  14.514  -3.620  1.00 20.00    -0.019 A 
HETATM    3  C3  UNL     1     -34.045  16.151  -6.580  1.00 20.00    -0.023 C 
HETATM    4  C4  UNL     1     -35.043  15.276  -6.370  1.00 20.00    -0.086 C 
HETATM    5  C5  UNL     1     -33.578  17.132  -5.548  1.00 20.00     0.042 C 
HETATM    6  C6  UNL     1     -35.780  15.221  -5.057  1.00 20.00     0.048 C 
HETATM    7  C7  UNL     1     -33.743  17.226  -1.647  1.00 20.00     0.001 C 
HETATM    8  C8  UNL     1     -34.885  16.238  -1.394  1.00 20.00     0.001 C 
HETATM    9  C9  UNL     1     -33.626  17.712  -3.091  1.00 20.00     0.015 C 
HETATM   10  C10 UNL     1     -35.722  15.896  -2.624  1.00 20.00     0.015 C 
HETATM   11  C11 UNL     1     -33.695  16.567  -4.120  1.00 20.00    -0.009 A 
HETATM   12  C12 UNL     1     -34.866  15.550  -3.859  1.00 20.00    -0.008 A 
HETATM   13  C13 UNL     1     -35.506  14.330  -7.438  1.00 20.00     0.043 C 
ENDROOT
TORSDOF 0
ENDMDL
MODEL 3
REMARK VINA RESULT:      -5.4      1.011      2.437
REMARK  0 active torsions:
REMARK  status: ('A' for Active; 'I' for Inactive)
ROOT
HETATM    1  C1  UNL     1     -36.119  16.419  -4.442  1.00 20.00    -0.019 A 
HETATM    2  C2  UNL     1     -36.142  15.646  -3.342  1.00 20.00    -0.019 A 
HETATM    3  C3  UNL     1     -33.888  18.177  -3.147  1.00 20.00    -0.023 C 
HETATM    4  C4  UNL     1     -33.915  17.417  -2.040  1.00 20.00    -0.086 C 
HETATM    5  C5  UNL     1     -33.836  17.612  -4.534  1.00 20.00     0.042 C 
HETATM    6  C6  UNL     1     -33.891  15.912  -2.117  1.00 20.00     0.048 C 
HETATM    7  C7  UNL     1     -34.896  14.193  -6.096  1.00 20.00     0.001 C 
HETATM    8  C8  UNL     1     -34.922  13.313  -4.844  1.00 20.00     0.001 C 
HETATM    9  C9  UNL     1     -34.179  15.531  -5.922  1.00 20.00     0.015 C 
HETATM   10  C10 UNL     1     -34.229  13.913  -3.623  1.00 20.00     0.015 C 
HETATM   11  C11 UNL     1     -34.604  16.282  -4.645  1.00 20.00    -0.009 A 
HETATM   12  C12 UNL     1     -34.633  15.377  -3.359  1.00 20.00    -0.008 A 
HETATM   13  C13 UNL     1     -33.934  18.016  -0.666  1.00 20.00     0.043 C 
ENDROOT
TORSDOF 0
ENDMDL
MODEL 4
REMARK VINA RESULT:      -5.3      1.262      2.591
REMARK  0 active torsions:
REMARK  status: ('A' for Active; 'I' for Inactive)
ROOT
HETATM    1  C1  UNL     1     -34.491  17.169  -5.518  1.00 20.00    -0.019 A 
HETATM    2  C2  UNL     1     -35.688  17.353  -4.933  1.00 20.00    -0.019 A 
HETATM    3  C3  UNL     1     -33.424  15.850  -2.897  1.00 20.00    -0.023 C 
HETATM    4  C4  UNL     1     -34.613  16.042  -2.303  1.00 20.00    -0.086 C 
HETATM    5  C5  UNL     1     -33.273  15.270  -4.271  1.00 20.00     0.042 C 
HETATM    6  C6  UNL     1     -35.905  15.677  -2.988  1.00 20.00     0.048 C 
HETATM    7  C7  UNL     1     -35.621  15.067  -7.386  1.00 20.00     0.001 C 
HETATM    8  C8  UNL     1     -36.983  15.275  -6.720  1.00 20.00     0.001 C 
HETATM    9  C9  UNL     1     -34.482  14.735  -6.423  1.00 20.00     0.015 C 
HETATM   10  C10 UNL     1     -36.986  15.120  -5.201  1.00 20.00     0.015 C 
HETATM   11  C11 UNL     1     -34.437  15.669  -5.198  1.00 20.00    -0.009 A 
HETATM   12  C12 UNL     1     -35.837  15.885  -4.515  1.00 20.00    -0.008 A 
HETATM   13  C13 UNL     1     -34.726  16.595  -0.914  1.00 20.00     0.043 C 
ENDROOT
TORSDOF 0
ENDMDL
MODEL 5
REMARK VINA RESULT:      -5.2      1.516      4.504
REMARK  0 active torsions:
REMARK  status: ('A' for Active; 'I' for Inactive)
ROOT
HETATM    1  C1  UNL     1     -34.625  13.659  -4.787  1.00 20.00    -0.019 A 
HETATM    2  C2  UNL     1     -35.859  13.893  -4.305  1.00 20.00    -0.019 A 
HETATM    3  C3  UNL     1     -35.436  14.998  -7.488  1.00 20.00    -0.023 C 
HETATM    4  C4  UNL     1     -36.674  15.224  -7.017  1.00 20.00    -0.086 C 
HETATM    5  C5  UNL     1     -34.191  15.313  -6.715  1.00 20.00     0.042 C 
HETATM    6  C6  UNL     1     -36.902  15.825  -5.654  1.00 20.00     0.048 C 
HETATM    7  C7  UNL     1     -33.402  15.700  -2.910  1.00 20.00     0.001 C 
HETATM    8  C8  UNL     1     -34.805  15.968  -2.362  1.00 20.00     0.001 C 
HETATM    9  C9  UNL     1     -33.269  15.844  -4.426  1.00 20.00     0.015 C 
HETATM   10  C10 UNL     1     -35.848  16.333  -3.416  1.00 20.00     0.015 C 
HETATM   11  C11 UNL     1     -34.386  15.118  -5.200  1.00 20.00    -0.009 A 
HETATM   12  C12 UNL     1     -35.828  15.390  -4.636  1.00 20.00    -0.008 A 
HETATM   13  C13 UNL     1     -37.898  14.927  -7.831  1.00 20.00     0.043 C 
ENDROOT
TORSDOF 0
ENDMDL
MODEL 6
REMARK VINA RESULT:      -5.1      1.118      4.091
REMARK  0 active torsions:
REMARK  status: ('A' for Active; 'I' for Inactive)
ROOT
HETATM    1  C1  UNL     1     -36.283  15.987  -3.461  1.00 20.00    -0.019 A 
HETATM    2  C2  UNL     1     -36.132  16.897  -4.440  1.00 20.00    -0.019 A 
HETATM    3  C3  UNL     1     -35.068  13.797  -5.324  1.00 20.00    -0.023 C 
HETATM    4  C4  UNL     1     -34.926  14.698  -6.310  1.00 20.00    -0.086 C 
HETATM    5  C5  UNL     1     -34.644  14.049  -3.909  1.00 20.00     0.042 C 
HETATM    6  C6  UNL     1     -34.314  16.052  -6.058  1.00 20.00     0.048 C 
HETATM    7  C7  UNL     1     -34.115  17.285  -1.787  1.00 20.00     0.001 C 
HETATM    8  C8  UNL     1     -33.942  18.321  -2.901  1.00 20.00     0.001 C 
HETATM    9  C9  UNL     1     -33.995  15.831  -2.242  1.00 20.00     0.015 C 
HETATM   10  C10 UNL     1     -33.679  17.736  -4.287  1.00 20.00     0.015 C 
HETATM   11  C11 UNL     1     -34.820  15.526  -3.508  1.00 20.00    -0.009 A 
HETATM   12  C12 UNL     1     -34.644  16.591  -4.651  1.00 20.00    -0.008 A 
HETATM   13  C13 UNL     1     -35.331  14.400  -7.722  1.00 20.00     0.043 C 
ENDROOT
TORSDOF 0
ENDMDL
MODEL 7
REMARK VINA RESULT:      -4.9      1.781      4.137
REMARK  0 active torsions:
REMARK  status: ('A' for Active; 'I' for Inactive)
ROOT
HETATM    1  C1  UNL     1     -35.059  13.961  -5.503  1.00 20.00    -0.019 A 
HETATM    2  C2  UNL     1     -35.475  13.636  -4.265  1.00 20.00    -0.019 A 
HETATM    3  C3  UNL     1     -37.788  15.380  -6.036  1.00 20.00    -0.023 C 
HETATM    4  C4  UNL     1     -38.214  15.048  -4.807  1.00 20.00    -0.086 C 
HETATM    5  C5  UNL     1     -36.442  15.981  -6.308  1.00 20.00     0.042 C 
HETATM    6  C6  UNL     1     -37.353  15.265  -3.589  1.00 20.00     0.048 C 
HETATM    7  C7  UNL     1     -33.030  15.928  -4.408  1.00 20.00     0.001 C 
HETATM    8  C8  UNL     1     -33.503  15.560  -2.999  1.00 20.00     0.001 C 
HETATM    9  C9  UNL     1     -34.138  16.384  -5.356  1.00 20.00     0.015 C 
HETATM   10  C10 UNL     1     -35.005  15.705  -2.768  1.00 20.00     0.015 C 
HETATM   11  C11 UNL     1     -35.368  15.455  -5.338  1.00 20.00    -0.009 A 
HETATM   12  C12 UNL     1     -35.853  15.074  -3.891  1.00 20.00    -0.008 A 
HETATM   13  C13 UNL     1     -39.580  14.478  -4.567  1.00 20.00     0.043 C 
ENDROOT
TORSDOF 0
ENDMDL
MODEL 8
REMARK VINA RESULT:      -4.9      1.656      4.120
REMARK  0 active torsions:
REMARK  status: ('A' for Active; 'I' for Inactive)
ROOT
HETATM    1  C1  UNL     1     -34.074  15.752  -6.374  1.00 20.00    -0.019 A 
HETATM    2  C2  UNL     1     -34.771  14.603  -6.405  1.00 20.00    -0.019 A 
HETATM    3  C3  UNL     1     -36.713  17.328  -5.832  1.00 20.00    -0.023 C 
HETATM    4  C4  UNL     1     -37.417  16.185  -5.874  1.00 20.00    -0.086 C 
HETATM    5  C5  UNL     1     -35.445  17.486  -5.049  1.00 20.00     0.042 C 
HETATM    6  C6  UNL     1     -36.975  14.959  -5.119  1.00 20.00     0.048 C 
HETATM    7  C7  UNL     1     -32.737  14.982  -3.765  1.00 20.00     0.001 C 
HETATM    8  C8  UNL     1     -33.531  13.674  -3.799  1.00 20.00     0.001 C 
HETATM    9  C9  UNL     1     -33.585  16.248  -3.872  1.00 20.00     0.015 C 
HETATM   10  C10 UNL     1     -35.042  13.844  -3.937  1.00 20.00     0.015 C 
HETATM   11  C11 UNL     1     -34.625  16.183  -5.008  1.00 20.00    -0.009 A 
HETATM   12  C12 UNL     1     -35.439  14.838  -5.045  1.00 20.00    -0.008 A 
HETATM   13  C13 UNL     1     -38.700  16.072  -6.642  1.00 20.00     0.043 C 
ENDROOT
TORSDOF 0
ENDMDL
MODEL 9
REMARK VINA RESULT:      -4.8      1.497      2.237
REMARK  0 active torsions:
REMARK  status: ('A' for Active; 'I' for Inactive)
ROOT
HETATM    1  C1  UNL     1     -33.377  16.213  -4.132  1.00 20.00    -0.019 A 
HETATM    2  C2  UNL     1     -34.229  16.770  -5.011  1.00 20.00    -0.019 A 
HETATM    3  C3  UNL     1     -35.119  17.289  -1.776  1.00 20.00    -0.023 C 
HETATM    4  C4  UNL     1     -35.966  17.859  -2.648  1.00 20.00    -0.086 C 
HETATM    5  C5  UNL     1     -34.629  15.878  -1.905  1.00 20.00     0.042 C 
HETATM    6  C6  UNL     1     -36.499  17.103  -3.839  1.00 20.00     0.048 C 
HETATM    7  C7  UNL     1     -34.250  13.418  -4.914  1.00 20.00     0.001 C 
HETATM    8  C8  UNL     1     -35.220  14.051  -5.914  1.00 20.00     0.001 C 
HETATM    9  C9  UNL     1     -34.396  13.916  -3.477  1.00 20.00     0.015 C 
HETATM   10  C10 UNL     1     -36.176  15.081  -5.316  1.00 20.00     0.015 C 
HETATM   11  C11 UNL     1     -34.475  15.452  -3.377  1.00 20.00    -0.009 A 
HETATM   12  C12 UNL     1     -35.470  16.104  -4.405  1.00 20.00    -0.008 A 
HETATM   13  C13 UNL     1     -36.462  19.263  -2.471  1.00 20.00     0.043 C 
ENDROOT
TORSDOF 0
ENDMDL
