MODEL 1
REMARK VINA RESULT:      -5.0      0.000      0.000
REMARK  0 active torsions:
REMARK  status: ('A' for Active; 'I' for Inactive)
ROOT
HETATM    1  C1  UNL     1     -34.909  13.736  -5.090  1.00 20.00     0.131 C 
HETATM    2  C2  UNL     1     -35.152  14.248  -6.541  1.00 20.00     0.083 C 
HETATM    3  C3  UNL     1     -33.905  15.311  -3.037  1.00 20.00     0.013 C 
HETATM    4  C4  UNL     1     -33.721  16.865  -3.268  1.00 20.00     0.006 C 
HETATM    5  C5  UNL     1     -34.336  16.884  -7.102  1.00 20.00     0.006 C 
HETATM    6  C6  UNL     1     -33.832  17.853  -5.917  1.00 20.00     0.005 C 
HETATM    7  C7  UNL     1     -34.941  14.883  -4.080  1.00 20.00     0.060 C 
HETATM    8  C8  UNL     1     -34.341  15.509  -6.427  1.00 20.00    -0.002 C 
HETATM    9  C9  UNL     1     -33.616  16.868  -4.768  1.00 20.00    -0.009 C 
HETATM   10  C10 UNL     1     -34.794  15.988  -5.077  1.00 20.00     0.005 C 
HETATM   11  O11 UNL     1     -34.782  12.557  -4.788  1.00 20.00    -0.298 OA
ENDROOT
TORSDOF 0
ENDMDL
MODEL 2
REMARK VINA RESULT:      -4.9      1.799      3.048
REMARK  0 active torsions:
REMARK  status: ('A' for Active; 'I' for Inactive)
ROOT
HETATM    1  C1  UNL     1     -33.656  16.697  -3.579  1.00 20.00     0.131 C 
HETATM    2  C2  UNL     1     -33.607  17.553  -4.879  1.00 20.00     0.083 C 
HETATM    3  C3  UNL     1     -34.398  14.023  -3.511  1.00 20.00     0.013 C 
HETATM    4  C4  UNL     1     -34.622  13.244  -4.869  1.00 20.00     0.006 C 
HETATM    5  C5  UNL     1     -34.508  16.315  -7.241  1.00 20.00     0.006 C 
HETATM    6  C6  UNL     1     -34.862  14.743  -7.256  1.00 20.00     0.005 C 
HETATM    7  C7  UNL     1     -33.502  15.207  -3.885  1.00 20.00     0.060 C 
HETATM    8  C8  UNL     1     -34.405  16.618  -5.743  1.00 20.00    -0.002 C 
HETATM    9  C9  UNL     1     -34.919  14.414  -5.765  1.00 20.00    -0.009 C 
HETATM   10  C10 UNL     1     -33.785  15.308  -5.351  1.00 20.00     0.005 C 
HETATM   11  O11 UNL     1     -33.734  17.162  -2.450  1.00 20.00    -0.298 OA
ENDROOT
TORSDOF 0
ENDMDL
MODEL 3
REMARK VINA RESULT:      -4.8      0.886      2.642
REMARK  0 active torsions:
REMARK  status: ('A' for Active; 'I' for Inactive)
ROOT
HETATM    1  C1  UNL     1     -34.560  13.714  -4.805  1.00 20.00     0.131 C 
HETATM    2  C2  UNL     1     -33.643  14.620  -3.929  1.00 20.00     0.083 C 
HETATM    3  C3  UNL     1     -35.802  14.561  -7.138  1.00 20.00     0.013 C 
HETATM    4  C4  UNL     1     -35.445  15.980  -7.738  1.00 20.00     0.006 C 
HETATM    5  C5  UNL     1     -33.415  17.315  -4.709  1.00 20.00     0.006 C 
HETATM    6  C6  UNL     1     -34.050  17.819  -6.102  1.00 20.00     0.005 C 
HETATM    7  C7  UNL     1     -34.605  14.201  -6.253  1.00 20.00     0.060 C 
HETATM    8  C8  UNL     1     -34.052  15.933  -4.535  1.00 20.00    -0.002 C 
HETATM    9  C9  UNL     1     -34.956  16.649  -6.483  1.00 20.00    -0.009 C 
HETATM   10  C10 UNL     1     -34.044  15.562  -5.990  1.00 20.00     0.005 C 
HETATM   11  O11 UNL     1     -35.113  12.701  -4.402  1.00 20.00    -0.298 OA
ENDROOT
TORSDOF 0
ENDMDL
MODEL 4
REMARK VINA RESULT:      -4.8      1.984      3.110
REMARK  0 active torsions:
REMARK  status: ('A' for Active; 'I' for Inactive)
ROOT
HETATM    1  C1  UNL     1     -34.747  13.637  -4.425  1.00 20.00     0.131 C 
HETATM    2  C2  UNL     1     -33.461  14.252  -3.797  1.00 20.00     0.083 C 
HETATM    3  C3  UNL     1     -37.274  14.762  -4.197  1.00 20.00     0.013 C 
HETATM    4  C4  UNL     1     -37.431  16.196  -3.551  1.00 20.00     0.006 C 
HETATM    5  C5  UNL     1     -33.809  16.541  -2.195  1.00 20.00     0.006 C 
HETATM    6  C6  UNL     1     -35.245  17.270  -2.112  1.00 20.00     0.005 C 
HETATM    7  C7  UNL     1     -35.817  14.702  -4.663  1.00 20.00     0.060 C 
HETATM    8  C8  UNL     1     -34.153  15.207  -2.864  1.00 20.00    -0.002 C 
HETATM    9  C9  UNL     1     -36.171  16.224  -2.732  1.00 20.00    -0.009 C 
HETATM   10  C10 UNL     1     -35.209  15.749  -3.784  1.00 20.00     0.005 C 
HETATM   11  O11 UNL     1     -34.859  12.464  -4.754  1.00 20.00    -0.298 OA
ENDROOT
TORSDOF 0
ENDMDL
MODEL 5
REMARK VINA RESULT:      -4.8      1.395      3.128
REMARK  0 active torsions:
REMARK  status: ('A' for Active; 'I' for Inactive)
ROOT
HETATM    1  C1  UNL     1     -34.162  14.815  -4.837  1.00 20.00     0.131 C 
HETATM    2  C2  UNL     1     -34.474  14.322  -3.392  1.00 20.00     0.083 C 
HETATM    3  C3  UNL     1     -33.620  17.458  -5.488  1.00 20.00     0.013 C 
HETATM    4  C4  UNL     1     -33.436  18.522  -4.333  1.00 20.00     0.006 C 
HETATM    5  C5  UNL     1     -34.664  16.298  -1.396  1.00 20.00     0.006 C 
HETATM    6  C6  UNL     1     -34.271  17.827  -1.720  1.00 20.00     0.005 C 
HETATM    7  C7  UNL     1     -33.346  16.108  -4.821  1.00 20.00     0.060 C 
HETATM    8  C8  UNL     1     -34.745  15.673  -2.793  1.00 20.00    -0.002 C 
HETATM    9  C9  UNL     1     -34.209  17.825  -3.247  1.00 20.00    -0.009 C 
HETATM   10  C10 UNL     1     -33.610  16.455  -3.390  1.00 20.00     0.005 C 
HETATM   11  O11 UNL     1     -34.467  14.207  -5.853  1.00 20.00    -0.298 OA
ENDROOT
TORSDOF 0
ENDMDL
MODEL 6
REMARK VINA RESULT:      -4.8      1.912      3.129
REMARK  0 active torsions:
REMARK  status: ('A' for Active; 'I' for Inactive)
ROOT
HETATM    1  C1  UNL     1     -34.151  16.639  -6.578  1.00 20.00     0.131 C 
HETATM    2  C2  UNL     1     -34.377  15.172  -7.051  1.00 20.00     0.083 C 
HETATM    3  C3  UNL     1     -33.827  17.379  -3.922  1.00 20.00     0.013 C 
HETATM    4  C4  UNL     1     -33.685  16.259  -2.815  1.00 20.00     0.006 C 
HETATM    5  C5  UNL     1     -34.648  13.224  -5.037  1.00 20.00     0.006 C 
HETATM    6  C6  UNL     1     -34.380  13.602  -3.493  1.00 20.00     0.005 C 
HETATM    7  C7  UNL     1     -33.432  16.686  -5.229  1.00 20.00     0.060 C 
HETATM    8  C8  UNL     1     -34.728  14.600  -5.706  1.00 20.00    -0.002 C 
HETATM    9  C9  UNL     1     -34.368  15.129  -3.535  1.00 20.00    -0.009 C 
HETATM   10  C10 UNL     1     -33.674  15.256  -4.861  1.00 20.00     0.005 C 
HETATM   11  O11 UNL     1     -34.444  17.628  -7.235  1.00 20.00    -0.298 OA
ENDROOT
TORSDOF 0
ENDMDL
MODEL 7
REMARK VINA RESULT:      -4.7     11.702     13.365
REMARK  0 active torsions:
REMARK  status: ('A' for Active; 'I' for Inactive)
ROOT
HETATM    1  C1  UNL     1     -43.080   6.872  -3.417  1.00 20.00     0.131 C 
HETATM    2  C2  UNL     1     -42.358   7.750  -2.352  1.00 20.00     0.083 C 
HETATM    3  C3  UNL     1     -43.042   4.097  -3.423  1.00 20.00     0.013 C 
HETATM    4  C4  UNL     1     -42.408   3.325  -2.196  1.00 20.00     0.006 C 
HETATM    5  C5  UNL     1     -40.786   6.392  -0.452  1.00 20.00     0.006 C 
HETATM    6  C6  UNL     1     -40.810   4.783  -0.372  1.00 20.00     0.005 C 
HETATM    7  C7  UNL     1     -43.397   5.480  -2.871  1.00 20.00     0.060 C 
HETATM    8  C8  UNL     1     -41.479   6.668  -1.790  1.00 20.00    -0.002 C 
HETATM    9  C9  UNL     1     -41.497   4.407  -1.684  1.00 20.00    -0.009 C 
HETATM   10  C10 UNL     1     -42.475   5.548  -1.695  1.00 20.00     0.005 C 
HETATM   11  O11 UNL     1     -43.417   7.269  -4.524  1.00 20.00    -0.298 OA
ENDROOT
TORSDOF 0
ENDMDL
MODEL 8
REMARK VINA RESULT:      -4.7      2.007      4.014
REMARK  0 active torsions:
REMARK  status: ('A' for Active; 'I' for Inactive)
ROOT
HETATM    1  C1  UNL     1     -33.819  17.408  -4.787  1.00 20.00     0.131 C 
HETATM    2  C2  UNL     1     -33.741  16.646  -3.431  1.00 20.00     0.083 C 
HETATM    3  C3  UNL     1     -34.565  16.230  -7.187  1.00 20.00     0.013 C 
HETATM    4  C4  UNL     1     -35.116  14.748  -7.188  1.00 20.00     0.006 C 
HETATM    5  C5  UNL     1     -34.219  13.873  -3.512  1.00 20.00     0.006 C 
HETATM    6  C6  UNL     1     -34.738  13.173  -4.868  1.00 20.00     0.005 C 
HETATM    7  C7  UNL     1     -34.786  16.727  -5.756  1.00 20.00     0.060 C 
HETATM    8  C8  UNL     1     -33.778  15.256  -4.002  1.00 20.00    -0.002 C 
HETATM    9  C9  UNL     1     -34.492  14.265  -5.907  1.00 20.00    -0.009 C 
HETATM   10  C10 UNL     1     -34.863  15.423  -5.026  1.00 20.00     0.005 C 
HETATM   11  O11 UNL     1     -33.238  18.459  -5.021  1.00 20.00    -0.298 OA
ENDROOT
TORSDOF 0
ENDMDL
MODEL 9
REMARK VINA RESULT:      -4.7      1.073      1.962
REMARK  0 active torsions:
REMARK  status: ('A' for Active; 'I' for Inactive)
ROOT
HETATM    1  C1  UNL     1     -34.004  13.836  -4.254  1.00 20.00     0.131 C 
HETATM    2  C2  UNL     1     -34.977  13.135  -5.248  1.00 20.00     0.083 C 
HETATM    3  C3  UNL     1     -33.113  16.450  -4.539  1.00 20.00     0.013 C 
HETATM    4  C4  UNL     1     -33.742  17.367  -5.664  1.00 20.00     0.006 C 
HETATM    5  C5  UNL     1     -35.699  14.592  -7.547  1.00 20.00     0.006 C 
HETATM    6  C6  UNL     1     -35.272  16.138  -7.702  1.00 20.00     0.005 C 
HETATM    7  C7  UNL     1     -34.158  15.357  -4.300  1.00 20.00     0.060 C 
HETATM    8  C8  UNL     1     -34.836  14.126  -6.370  1.00 20.00    -0.002 C 
HETATM    9  C9  UNL     1     -34.225  16.293  -6.599  1.00 20.00    -0.009 C 
HETATM   10  C10 UNL     1     -34.907  15.410  -5.594  1.00 20.00     0.005 C 
HETATM   11  O11 UNL     1     -33.263  13.243  -3.482  1.00 20.00    -0.298 OA
ENDROOT
TORSDOF 0
ENDMDL
