MODEL 1
REMARK VINA RESULT:      -5.8      0.000      0.000
REMARK  0 active torsions:
REMARK  status: ('A' for Active; 'I' for Inactive)
ROOT
HETATM    1  C1  UNL     1     -34.391   5.758   6.596  1.00 20.00     0.003 C 
HETATM    2  C2  UNL     1     -33.663   6.695   5.978  1.00 20.00     0.050 C 
HETATM    3  C3  UNL     1     -34.887   4.517   6.051  1.00 20.00    -0.004 C 
HETATM    4  C4  UNL     1     -35.288   4.299   4.792  1.00 20.00    -0.021 C 
HETATM    5  C5  UNL     1     -33.292   6.672   4.547  1.00 20.00     0.154 C 
HETATM    6  C6  UNL     1     -34.231   5.198   2.658  1.00 20.00     0.022 A 
HETATM    7  C7  UNL     1     -35.334   5.248   3.681  1.00 20.00     0.020 A 
HETATM    8  C8  UNL     1     -34.364   6.392   3.565  1.00 20.00     0.068 A 
HETATM    9  O9  UNL     1     -32.170   6.992   4.174  1.00 20.00    -0.293 OA
ENDROOT
TORSDOF 0
ENDMDL
MODEL 2
REMARK VINA RESULT:      -5.2      1.228      2.716
REMARK  0 active torsions:
REMARK  status: ('A' for Active; 'I' for Inactive)
ROOT
HETATM    1  C1  UNL     1     -33.632   6.220   3.562  1.00 20.00     0.003 C 
HETATM    2  C2  UNL     1     -33.142   6.716   4.705  1.00 20.00     0.050 C 
HETATM    3  C3  UNL     1     -34.821   5.425   3.378  1.00 20.00    -0.004 C 
HETATM    4  C4  UNL     1     -35.321   4.521   4.230  1.00 20.00    -0.021 C 
HETATM    5  C5  UNL     1     -33.704   6.459   6.049  1.00 20.00     0.154 C 
HETATM    6  C6  UNL     1     -35.424   4.685   6.769  1.00 20.00     0.022 A 
HETATM    7  C7  UNL     1     -34.788   4.113   5.530  1.00 20.00     0.020 A 
HETATM    8  C8  UNL     1     -34.010   5.056   6.406  1.00 20.00     0.068 A 
HETATM    9  O9  UNL     1     -33.799   7.353   6.881  1.00 20.00    -0.293 OA
ENDROOT
TORSDOF 0
ENDMDL
MODEL 3
REMARK VINA RESULT:      -4.7     12.178     13.502
REMARK  0 active torsions:
REMARK  status: ('A' for Active; 'I' for Inactive)
ROOT
HETATM    1  C1  UNL     1     -32.887  14.985  -3.725  1.00 20.00     0.003 C 
HETATM    2  C2  UNL     1     -33.502  13.803  -3.855  1.00 20.00     0.050 C 
HETATM    3  C3  UNL     1     -33.278  16.255  -4.286  1.00 20.00    -0.004 C 
HETATM    4  C4  UNL     1     -33.879  16.459  -5.465  1.00 20.00    -0.021 C 
HETATM    5  C5  UNL     1     -34.691  13.556  -4.698  1.00 20.00     0.154 C 
HETATM    6  C6  UNL     1     -35.713  15.050  -6.528  1.00 20.00     0.022 A 
HETATM    7  C7  UNL     1     -34.268  15.465  -6.465  1.00 20.00     0.020 A 
HETATM    8  C8  UNL     1     -34.663  14.064  -6.088  1.00 20.00     0.068 A 
HETATM    9  O9  UNL     1     -35.615  12.854  -4.306  1.00 20.00    -0.293 OA
ENDROOT
TORSDOF 0
ENDMDL
MODEL 4
REMARK VINA RESULT:      -4.6      1.579      2.640
REMARK  0 active torsions:
REMARK  status: ('A' for Active; 'I' for Inactive)
ROOT
HETATM    1  C1  UNL     1     -34.815   5.087   6.173  1.00 20.00     0.003 C 
HETATM    2  C2  UNL     1     -35.297   4.725   4.979  1.00 20.00     0.050 C 
HETATM    3  C3  UNL     1     -34.056   6.269   6.501  1.00 20.00    -0.004 C 
HETATM    4  C4  UNL     1     -33.168   6.895   5.717  1.00 20.00    -0.021 C 
HETATM    5  C5  UNL     1     -35.058   5.451   3.713  1.00 20.00     0.154 C 
HETATM    6  C6  UNL     1     -33.337   7.298   3.210  1.00 20.00     0.022 A 
HETATM    7  C7  UNL     1     -32.746   6.535   4.364  1.00 20.00     0.020 A 
HETATM    8  C8  UNL     1     -33.665   5.840   3.398  1.00 20.00     0.068 A 
HETATM    9  O9  UNL     1     -35.956   5.620   2.896  1.00 20.00    -0.293 OA
ENDROOT
TORSDOF 0
ENDMDL
MODEL 5
REMARK VINA RESULT:      -4.5     12.121     13.565
REMARK  0 active torsions:
REMARK  status: ('A' for Active; 'I' for Inactive)
ROOT
HETATM    1  C1  UNL     1     -35.475  15.738  -6.004  1.00 20.00     0.003 C 
HETATM    2  C2  UNL     1     -35.829  14.635  -5.334  1.00 20.00     0.050 C 
HETATM    3  C3  UNL     1     -34.166  16.341  -6.092  1.00 20.00    -0.004 C 
HETATM    4  C4  UNL     1     -33.230  16.366  -5.135  1.00 20.00    -0.021 C 
HETATM    5  C5  UNL     1     -34.931  13.851  -4.458  1.00 20.00     0.154 C 
HETATM    6  C6  UNL     1     -32.623  14.495  -3.519  1.00 20.00     0.022 A 
HETATM    7  C7  UNL     1     -33.303  15.811  -3.784  1.00 20.00     0.020 A 
HETATM    8  C8  UNL     1     -34.124  14.593  -3.463  1.00 20.00     0.068 A 
HETATM    9  O9  UNL     1     -34.941  12.626  -4.469  1.00 20.00    -0.293 OA
ENDROOT
TORSDOF 0
ENDMDL
MODEL 6
REMARK VINA RESULT:      -4.5     12.149     12.685
REMARK  0 active torsions:
REMARK  status: ('A' for Active; 'I' for Inactive)
ROOT
HETATM    1  C1  UNL     1     -33.390  15.384  -3.136  1.00 20.00     0.003 C 
HETATM    2  C2  UNL     1     -33.580  14.362  -3.979  1.00 20.00     0.050 C 
HETATM    3  C3  UNL     1     -34.375  16.063  -2.330  1.00 20.00    -0.004 C 
HETATM    4  C4  UNL     1     -35.655  16.291  -2.651  1.00 20.00    -0.021 C 
HETATM    5  C5  UNL     1     -34.895  13.777  -4.318  1.00 20.00     0.154 C 
HETATM    6  C6  UNL     1     -37.248  14.714  -3.858  1.00 20.00     0.022 A 
HETATM    7  C7  UNL     1     -36.356  15.926  -3.882  1.00 20.00     0.020 A 
HETATM    8  C8  UNL     1     -35.987  14.707  -4.681  1.00 20.00     0.068 A 
HETATM    9  O9  UNL     1     -35.047  12.564  -4.413  1.00 20.00    -0.293 OA
ENDROOT
TORSDOF 0
ENDMDL
MODEL 7
REMARK VINA RESULT:      -4.4     11.952     13.304
REMARK  0 active torsions:
REMARK  status: ('A' for Active; 'I' for Inactive)
ROOT
HETATM    1  C1  UNL     1     -33.562  13.698  -3.841  1.00 20.00     0.003 C 
HETATM    2  C2  UNL     1     -34.826  13.328  -4.077  1.00 20.00     0.050 C 
HETATM    3  C3  UNL     1     -33.041  15.036  -3.695  1.00 20.00    -0.004 C 
HETATM    4  C4  UNL     1     -33.467  16.135  -4.331  1.00 20.00    -0.021 C 
HETATM    5  C5  UNL     1     -35.948  14.259  -4.326  1.00 20.00     0.154 C 
HETATM    6  C6  UNL     1     -35.872  16.773  -4.869  1.00 20.00     0.022 A 
HETATM    7  C7  UNL     1     -34.536  16.248  -5.322  1.00 20.00     0.020 A 
HETATM    8  C8  UNL     1     -35.735  15.341  -5.313  1.00 20.00     0.068 A 
HETATM    9  O9  UNL     1     -37.052  14.073  -3.829  1.00 20.00    -0.293 OA
ENDROOT
TORSDOF 0
ENDMDL
MODEL 8
REMARK VINA RESULT:      -4.4     11.976     13.323
REMARK  0 active torsions:
REMARK  status: ('A' for Active; 'I' for Inactive)
ROOT
HETATM    1  C1  UNL     1     -33.310  16.551  -5.252  1.00 20.00     0.003 C 
HETATM    2  C2  UNL     1     -33.361  16.410  -3.922  1.00 20.00     0.050 C 
HETATM    3  C3  UNL     1     -34.115  15.884  -6.246  1.00 20.00    -0.004 C 
HETATM    4  C4  UNL     1     -34.591  14.634  -6.185  1.00 20.00    -0.021 C 
HETATM    5  C5  UNL     1     -34.224  15.447  -3.206  1.00 20.00     0.154 C 
HETATM    6  C6  UNL     1     -35.530  13.437  -4.144  1.00 20.00     0.022 A 
HETATM    7  C7  UNL     1     -34.405  13.647  -5.122  1.00 20.00     0.020 A 
HETATM    8  C8  UNL     1     -34.232  14.046  -3.683  1.00 20.00     0.068 A 
HETATM    9  O9  UNL     1     -34.818  15.763  -2.181  1.00 20.00    -0.293 OA
ENDROOT
TORSDOF 0
ENDMDL
MODEL 9
REMARK VINA RESULT:      -4.3      1.742      3.569
REMARK  0 active torsions:
REMARK  status: ('A' for Active; 'I' for Inactive)
ROOT
HETATM    1  C1  UNL     1     -33.938   5.824   2.707  1.00 20.00     0.003 C 
HETATM    2  C2  UNL     1     -34.869   5.003   3.205  1.00 20.00     0.050 C 
HETATM    3  C3  UNL     1     -32.816   6.415   3.395  1.00 20.00    -0.004 C 
HETATM    4  C4  UNL     1     -32.776   6.805   4.676  1.00 20.00    -0.021 C 
HETATM    5  C5  UNL     1     -34.973   4.604   4.625  1.00 20.00     0.154 C 
HETATM    6  C6  UNL     1     -33.810   5.625   6.681  1.00 20.00     0.022 A 
HETATM    7  C7  UNL     1     -33.844   6.742   5.673  1.00 20.00     0.020 A 
HETATM    8  C8  UNL     1     -34.902   5.673   5.645  1.00 20.00     0.068 A 
HETATM    9  O9  UNL     1     -35.231   3.449   4.945  1.00 20.00    -0.293 OA
ENDROOT
TORSDOF 0
ENDMDL
