MODEL 1
REMARK VINA RESULT:      -4.4      0.000      0.000
REMARK  0 active torsions:
REMARK  status: ('A' for Active; 'I' for Inactive)
ROOT
HETATM    1  C1  UNL     1     -34.818  13.285  -4.371  1.00 20.00    -0.020 A 
HETATM    2  C2  UNL     1     -33.689  13.778  -3.829  1.00 20.00    -0.020 A 
HETATM    3  C3  UNL     1     -34.115  15.602  -6.274  1.00 20.00     0.002 C 
HETATM    4  C4  UNL     1     -35.553  15.237  -5.922  1.00 20.00     0.014 C 
HETATM    5  C5  UNL     1     -33.542  16.115  -4.958  1.00 20.00     0.014 C 
HETATM    6  C6  UNL     1     -35.487  14.653  -4.500  1.00 20.00    -0.016 A 
HETATM    7  C7  UNL     1     -34.172  15.227  -3.868  1.00 20.00    -0.016 A 
HETATM    8  C8  UNL     1     -36.807  14.779  -3.753  1.00 20.00     0.020 C 
HETATM    9  C9  UNL     1     -34.215  15.912  -2.510  1.00 20.00     0.020 C 
ENDROOT
TORSDOF 0
ENDMDL
MODEL 2
REMARK VINA RESULT:      -4.3      1.100      3.138
REMARK  0 active torsions:
REMARK  status: ('A' for Active; 'I' for Inactive)
ROOT
HETATM    1  C1  UNL     1     -32.681  14.763  -3.708  1.00 20.00    -0.020 A 
HETATM    2  C2  UNL     1     -33.702  13.886  -3.694  1.00 20.00    -0.020 A 
HETATM    3  C3  UNL     1     -34.708  16.119  -1.827  1.00 20.00     0.002 C 
HETATM    4  C4  UNL     1     -33.820  16.909  -2.782  1.00 20.00     0.014 C 
HETATM    5  C5  UNL     1     -35.637  15.347  -2.757  1.00 20.00     0.014 C 
HETATM    6  C6  UNL     1     -33.576  15.971  -3.979  1.00 20.00    -0.016 A 
HETATM    7  C7  UNL     1     -34.765  14.949  -3.963  1.00 20.00    -0.016 A 
HETATM    8  C8  UNL     1     -33.240  16.727  -5.256  1.00 20.00     0.020 C 
HETATM    9  C9  UNL     1     -35.584  14.714  -5.224  1.00 20.00     0.020 C 
ENDROOT
TORSDOF 0
ENDMDL
MODEL 3
REMARK VINA RESULT:      -4.2      0.855      2.876
REMARK  0 active torsions:
REMARK  status: ('A' for Active; 'I' for Inactive)
ROOT
HETATM    1  C1  UNL     1     -34.000  13.600  -3.724  1.00 20.00    -0.020 A 
HETATM    2  C2  UNL     1     -34.589  13.175  -4.857  1.00 20.00    -0.020 A 
HETATM    3  C3  UNL     1     -36.761  14.957  -3.595  1.00 20.00     0.002 C 
HETATM    4  C4  UNL     1     -35.492  15.630  -3.084  1.00 20.00     0.014 C 
HETATM    5  C5  UNL     1     -36.542  14.873  -5.102  1.00 20.00     0.014 C 
HETATM    6  C6  UNL     1     -34.355  15.067  -3.957  1.00 20.00    -0.016 A 
HETATM    7  C7  UNL     1     -35.041  14.573  -5.277  1.00 20.00    -0.016 A 
HETATM    8  C8  UNL     1     -33.154  16.000  -4.027  1.00 20.00     0.020 C 
HETATM    9  C9  UNL     1     -34.508  15.026  -6.629  1.00 20.00     0.020 C 
ENDROOT
TORSDOF 0
ENDMDL
MODEL 4
REMARK VINA RESULT:      -4.2      1.061      2.674
REMARK  0 active torsions:
REMARK  status: ('A' for Active; 'I' for Inactive)
ROOT
HETATM    1  C1  UNL     1     -33.016  15.873  -4.207  1.00 20.00    -0.020 A 
HETATM    2  C2  UNL     1     -33.650  16.245  -5.334  1.00 20.00    -0.020 A 
HETATM    3  C3  UNL     1     -34.558  13.323  -4.987  1.00 20.00     0.002 C 
HETATM    4  C4  UNL     1     -34.347  13.743  -3.536  1.00 20.00     0.014 C 
HETATM    5  C5  UNL     1     -35.475  14.406  -5.544  1.00 20.00     0.014 C 
HETATM    6  C6  UNL     1     -34.269  15.280  -3.565  1.00 20.00    -0.016 A 
HETATM    7  C7  UNL     1     -35.008  15.715  -4.878  1.00 20.00    -0.016 A 
HETATM    8  C8  UNL     1     -34.651  15.911  -2.234  1.00 20.00     0.020 C 
HETATM    9  C9  UNL     1     -36.106  16.766  -4.822  1.00 20.00     0.020 C 
ENDROOT
TORSDOF 0
ENDMDL
MODEL 5
REMARK VINA RESULT:      -4.2     10.938     12.645
REMARK  0 active torsions:
REMARK  status: ('A' for Active; 'I' for Inactive)
ROOT
HETATM    1  C1  UNL     1     -40.843   6.888  -0.734  1.00 20.00    -0.020 A 
HETATM    2  C2  UNL     1     -40.471   5.629  -0.440  1.00 20.00    -0.020 A 
HETATM    3  C3  UNL     1     -43.288   5.804   0.793  1.00 20.00     0.002 C 
HETATM    4  C4  UNL     1     -43.415   6.774  -0.376  1.00 20.00     0.014 C 
HETATM    5  C5  UNL     1     -42.753   4.531   0.147  1.00 20.00     0.014 C 
HETATM    6  C6  UNL     1     -42.207   6.477  -1.283  1.00 20.00    -0.016 A 
HETATM    7  C7  UNL     1     -41.774   5.010  -0.942  1.00 20.00    -0.016 A 
HETATM    8  C8  UNL     1     -42.449   6.882  -2.730  1.00 20.00     0.020 C 
HETATM    9  C9  UNL     1     -41.597   3.989  -2.057  1.00 20.00     0.020 C 
ENDROOT
TORSDOF 0
ENDMDL
MODEL 6
REMARK VINA RESULT:      -4.2      1.509      2.500
REMARK  0 active torsions:
REMARK  status: ('A' for Active; 'I' for Inactive)
ROOT
HETATM    1  C1  UNL     1     -34.902  15.960  -1.897  1.00 20.00    -0.020 A 
HETATM    2  C2  UNL     1     -33.739  16.601  -2.115  1.00 20.00    -0.020 A 
HETATM    3  C3  UNL     1     -33.321  13.929  -3.589  1.00 20.00     0.002 C 
HETATM    4  C4  UNL     1     -34.830  14.107  -3.719  1.00 20.00     0.014 C 
HETATM    5  C5  UNL     1     -32.758  15.248  -4.106  1.00 20.00     0.014 C 
HETATM    6  C6  UNL     1     -35.097  15.581  -3.364  1.00 20.00    -0.016 A 
HETATM    7  C7  UNL     1     -33.742  16.328  -3.618  1.00 20.00    -0.016 A 
HETATM    8  C8  UNL     1     -36.383  16.109  -3.983  1.00 20.00     0.020 C 
HETATM    9  C9  UNL     1     -33.712  17.580  -4.483  1.00 20.00     0.020 C 
ENDROOT
TORSDOF 0
ENDMDL
MODEL 7
REMARK VINA RESULT:      -4.2     10.859     12.410
REMARK  0 active torsions:
REMARK  status: ('A' for Active; 'I' for Inactive)
ROOT
HETATM    1  C1  UNL     1     -40.824   5.973   0.010  1.00 20.00    -0.020 A 
HETATM    2  C2  UNL     1     -40.912   7.008  -0.845  1.00 20.00    -0.020 A 
HETATM    3  C3  UNL     1     -42.111   4.686  -2.474  1.00 20.00     0.002 C 
HETATM    4  C4  UNL     1     -42.476   4.271  -1.053  1.00 20.00     0.014 C 
HETATM    5  C5  UNL     1     -42.632   6.114  -2.576  1.00 20.00     0.014 C 
HETATM    6  C6  UNL     1     -42.272   5.534  -0.196  1.00 20.00    -0.016 A 
HETATM    7  C7  UNL     1     -42.375   6.740  -1.193  1.00 20.00    -0.016 A 
HETATM    8  C8  UNL     1     -43.111   5.522   1.073  1.00 20.00     0.020 C 
HETATM    9  C9  UNL     1     -43.315   7.899  -0.891  1.00 20.00     0.020 C 
ENDROOT
TORSDOF 0
ENDMDL
MODEL 8
REMARK VINA RESULT:      -4.1      0.893      2.294
REMARK  0 active torsions:
REMARK  status: ('A' for Active; 'I' for Inactive)
ROOT
HETATM    1  C1  UNL     1     -34.512  13.654  -5.289  1.00 20.00    -0.020 A 
HETATM    2  C2  UNL     1     -35.118  13.332  -4.132  1.00 20.00    -0.020 A 
HETATM    3  C3  UNL     1     -33.310  15.687  -3.312  1.00 20.00     0.002 C 
HETATM    4  C4  UNL     1     -33.610  16.035  -4.766  1.00 20.00     0.014 C 
HETATM    5  C5  UNL     1     -34.690  15.462  -2.704  1.00 20.00     0.014 C 
HETATM    6  C6  UNL     1     -34.805  15.147  -5.158  1.00 20.00    -0.016 A 
HETATM    7  C7  UNL     1     -35.512  14.772  -3.809  1.00 20.00    -0.016 A 
HETATM    8  C8  UNL     1     -35.617  15.731  -6.305  1.00 20.00     0.020 C 
HETATM    9  C9  UNL     1     -37.009  14.992  -3.647  1.00 20.00     0.020 C 
ENDROOT
TORSDOF 0
ENDMDL
MODEL 9
REMARK VINA RESULT:      -4.1     11.078     12.507
REMARK  0 active torsions:
REMARK  status: ('A' for Active; 'I' for Inactive)
ROOT
HETATM    1  C1  UNL     1     -40.782   4.677  -1.109  1.00 20.00    -0.020 A 
HETATM    2  C2  UNL     1     -40.802   5.557  -0.091  1.00 20.00    -0.020 A 
HETATM    3  C3  UNL     1     -42.100   7.152  -2.384  1.00 20.00     0.002 C 
HETATM    4  C4  UNL     1     -42.507   5.727  -2.745  1.00 20.00     0.014 C 
HETATM    5  C5  UNL     1     -42.543   7.295  -0.932  1.00 20.00     0.014 C 
HETATM    6  C6  UNL     1     -42.248   4.897  -1.475  1.00 20.00    -0.016 A 
HETATM    7  C7  UNL     1     -42.272   5.922  -0.289  1.00 20.00    -0.016 A 
HETATM    8  C8  UNL     1     -43.106   3.641  -1.412  1.00 20.00     0.020 C 
HETATM    9  C9  UNL     1     -43.152   5.662   0.925  1.00 20.00     0.020 C 
ENDROOT
TORSDOF 0
ENDMDL
