MODEL 1
REMARK VINA RESULT:      -3.5      0.000      0.000
REMARK  1 active torsions:
REMARK  status: ('A' for Active; 'I' for Inactive)
REMARK    1  A    between atoms: C4_4  and  C5_5 
ROOT
HETATM    1  C1  UNL     1     -34.619  13.771  -4.157  1.00 20.00     0.069 C 
HETATM    2  C2  UNL     1     -34.709  15.617  -2.546  1.00 20.00     0.032 C 
HETATM    3  C3  UNL     1     -32.547  15.002  -3.637  1.00 20.00     0.032 C 
HETATM    4  C5  UNL     1     -34.066  15.110  -3.851  1.00 20.00     0.054 C 
HETATM    5  N6  UNL     1     -35.052  12.721  -4.397  1.00 20.00    -0.196 NA
ENDROOT
BRANCH   4   6
HETATM    6  C4  UNL     1     -34.413  16.106  -4.978  1.00 20.00     0.138 C 
HETATM    7 CL7  UNL     1     -34.146  15.457  -6.621  1.00 20.00    -0.129 Cl
ENDBRANCH   4   6
TORSDOF 1
ENDMDL
MODEL 2
REMARK VINA RESULT:      -3.5      2.016      2.517
REMARK  1 active torsions:
REMARK  status: ('A' for Active; 'I' for Inactive)
REMARK    1  A    between atoms: C4_4  and  C5_5 
ROOT
HETATM    1  C1  UNL     1     -34.670  13.727  -4.417  1.00 20.00     0.069 C 
HETATM    2  C2  UNL     1     -32.979  15.259  -3.521  1.00 20.00     0.032 C 
HETATM    3  C3  UNL     1     -34.506  16.001  -5.353  1.00 20.00     0.032 C 
HETATM    4  C5  UNL     1     -34.409  15.145  -4.080  1.00 20.00     0.054 C 
HETATM    5  N6  UNL     1     -34.875  12.615  -4.681  1.00 20.00    -0.196 NA
ENDROOT
BRANCH   4   6
HETATM    6  C4  UNL     1     -35.392  15.630  -2.992  1.00 20.00     0.138 C 
HETATM    7 CL7  UNL     1     -34.592  16.193  -1.497  1.00 20.00    -0.129 Cl
ENDBRANCH   4   6
TORSDOF 1
ENDMDL
MODEL 3
REMARK VINA RESULT:      -3.5     12.399     13.007
REMARK  1 active torsions:
REMARK  status: ('A' for Active; 'I' for Inactive)
REMARK    1  A    between atoms: C4_4  and  C5_5 
ROOT
HETATM    1  C1  UNL     1     -34.208   6.156   5.624  1.00 20.00     0.069 C 
HETATM    2  C2  UNL     1     -34.782   3.880   4.917  1.00 20.00     0.032 C 
HETATM    3  C3  UNL     1     -35.863   5.850   3.824  1.00 20.00     0.032 C 
HETATM    4  C5  UNL     1     -34.557   5.329   4.447  1.00 20.00     0.054 C 
HETATM    5  N6  UNL     1     -33.934   6.804   6.548  1.00 20.00    -0.196 NA
ENDROOT
BRANCH   4   6
HETATM    6  C4  UNL     1     -33.399   5.331   3.425  1.00 20.00     0.138 C 
HETATM    7 CL7  UNL     1     -32.444   6.840   3.421  1.00 20.00    -0.129 Cl
ENDBRANCH   4   6
TORSDOF 1
ENDMDL
MODEL 4
REMARK VINA RESULT:      -3.4      1.621      1.956
REMARK  1 active torsions:
REMARK  status: ('A' for Active; 'I' for Inactive)
REMARK    1  A    between atoms: C4_4  and  C5_5 
ROOT
HETATM    1  C1  UNL     1     -36.677  14.444  -3.999  1.00 20.00     0.069 C 
HETATM    2  C2  UNL     1     -34.566  15.174  -2.989  1.00 20.00     0.032 C 
HETATM    3  C3  UNL     1     -34.599  13.254  -4.586  1.00 20.00     0.032 C 
HETATM    4  C5  UNL     1     -35.230  14.618  -4.262  1.00 20.00     0.054 C 
HETATM    5  N6  UNL     1     -37.811  14.306  -3.793  1.00 20.00    -0.196 NA
ENDROOT
BRANCH   4   6
HETATM    6  C4  UNL     1     -35.009  15.633  -5.404  1.00 20.00     0.138 C 
HETATM    7 CL7  UNL     1     -34.411  14.896  -6.918  1.00 20.00    -0.129 Cl
ENDBRANCH   4   6
TORSDOF 1
ENDMDL
MODEL 5
REMARK VINA RESULT:      -3.4      1.970      2.784
REMARK  1 active torsions:
REMARK  status: ('A' for Active; 'I' for Inactive)
REMARK    1  A    between atoms: C4_4  and  C5_5 
ROOT
HETATM    1  C1  UNL     1     -34.698  13.814  -5.014  1.00 20.00     0.069 C 
HETATM    2  C2  UNL     1     -34.306  15.145  -7.035  1.00 20.00     0.032 C 
HETATM    3  C3  UNL     1     -35.984  15.891  -5.342  1.00 20.00     0.032 C 
HETATM    4  C5  UNL     1     -34.624  15.200  -5.529  1.00 20.00     0.054 C 
HETATM    5  N6  UNL     1     -34.757  12.727  -4.611  1.00 20.00    -0.196 NA
ENDROOT
BRANCH   4   6
HETATM    6  C4  UNL     1     -33.490  15.976  -4.825  1.00 20.00     0.138 C 
HETATM    7 CL7  UNL     1     -33.481  15.785  -3.049  1.00 20.00    -0.129 Cl
ENDBRANCH   4   6
TORSDOF 1
ENDMDL
MODEL 6
REMARK VINA RESULT:      -3.4     12.731     13.337
REMARK  1 active torsions:
REMARK  status: ('A' for Active; 'I' for Inactive)
REMARK    1  A    between atoms: C4_4  and  C5_5 
ROOT
HETATM    1  C1  UNL     1     -33.410   5.767   4.111  1.00 20.00     0.069 C 
HETATM    2  C2  UNL     1     -35.855   5.619   4.039  1.00 20.00     0.032 C 
HETATM    3  C3  UNL     1     -34.501   3.684   4.852  1.00 20.00     0.032 C 
HETATM    4  C5  UNL     1     -34.589   5.219   4.818  1.00 20.00     0.054 C 
HETATM    5  N6  UNL     1     -32.485   6.196   3.555  1.00 20.00    -0.196 NA
ENDROOT
BRANCH   4   6
HETATM    6  C4  UNL     1     -34.689   5.815   6.240  1.00 20.00     0.138 C 
HETATM    7 CL7  UNL     1     -33.466   7.071   6.581  1.00 20.00    -0.129 Cl
ENDBRANCH   4   6
TORSDOF 1
ENDMDL
MODEL 7
REMARK VINA RESULT:      -3.4      2.458      2.789
REMARK  1 active torsions:
REMARK  status: ('A' for Active; 'I' for Inactive)
REMARK    1  A    between atoms: C4_4  and  C5_5 
ROOT
HETATM    1  C1  UNL     1     -36.399  14.498  -3.996  1.00 20.00     0.069 C 
HETATM    2  C2  UNL     1     -34.129  13.644  -3.635  1.00 20.00     0.032 C 
HETATM    3  C3  UNL     1     -34.705  14.831  -5.756  1.00 20.00     0.032 C 
HETATM    4  C5  UNL     1     -34.967  14.785  -4.242  1.00 20.00     0.054 C 
HETATM    5  N6  UNL     1     -37.521  14.273  -3.804  1.00 20.00    -0.196 NA
ENDROOT
BRANCH   4   6
HETATM    6  C4  UNL     1     -34.556  16.104  -3.553  1.00 20.00     0.138 C 
HETATM    7 CL7  UNL     1     -34.676  16.054  -1.771  1.00 20.00    -0.129 Cl
ENDBRANCH   4   6
TORSDOF 1
ENDMDL
MODEL 8
REMARK VINA RESULT:      -3.3      2.711      3.161
REMARK  1 active torsions:
REMARK  status: ('A' for Active; 'I' for Inactive)
REMARK    1  A    between atoms: C4_4  and  C5_5 
ROOT
HETATM    1  C1  UNL     1     -33.597  15.904  -4.759  1.00 20.00     0.069 C 
HETATM    2  C2  UNL     1     -35.008  14.039  -5.493  1.00 20.00     0.032 C 
HETATM    3  C3  UNL     1     -33.292  13.694  -3.711  1.00 20.00     0.032 C 
HETATM    4  C5  UNL     1     -34.308  14.693  -4.288  1.00 20.00     0.054 C 
HETATM    5  N6  UNL     1     -33.039  16.853  -5.129  1.00 20.00    -0.196 NA
ENDROOT
BRANCH   4   6
HETATM    6  C4  UNL     1     -35.387  15.072  -3.250  1.00 20.00     0.138 C 
HETATM    7 CL7  UNL     1     -34.752  15.986  -1.853  1.00 20.00    -0.129 Cl
ENDBRANCH   4   6
TORSDOF 1
ENDMDL
MODEL 9
REMARK VINA RESULT:      -3.3      2.098      2.689
REMARK  1 active torsions:
REMARK  status: ('A' for Active; 'I' for Inactive)
REMARK    1  A    between atoms: C4_4  and  C5_5 
ROOT
HETATM    1  C1  UNL     1     -36.624  14.676  -3.683  1.00 20.00     0.069 C 
HETATM    2  C2  UNL     1     -34.889  16.019  -4.775  1.00 20.00     0.032 C 
HETATM    3  C3  UNL     1     -35.030  15.930  -2.283  1.00 20.00     0.032 C 
HETATM    4  C5  UNL     1     -35.214  15.114  -3.572  1.00 20.00     0.054 C 
HETATM    5  N6  UNL     1     -37.729  14.332  -3.769  1.00 20.00    -0.196 NA
ENDROOT
BRANCH   4   6
HETATM    6  C4  UNL     1     -34.266  13.896  -3.615  1.00 20.00     0.138 C 
HETATM    7 CL7  UNL     1     -32.533  14.329  -3.566  1.00 20.00    -0.129 Cl
ENDBRANCH   4   6
TORSDOF 1
ENDMDL
