MODEL 1
REMARK VINA RESULT:      -4.3      0.000      0.000
REMARK  0 active torsions:
REMARK  status: ('A' for Active; 'I' for Inactive)
ROOT
HETATM    1  C1  UNL     1     -34.891   4.338   5.870  1.00 20.00    -0.025 C 
HETATM    2  C2  UNL     1     -34.609   3.809   4.670  1.00 20.00    -0.025 C 
HETATM    3  C3  UNL     1     -35.558   5.877   4.280  1.00 20.00     0.017 C 
HETATM    4  C4  UNL     1     -33.537   6.364   5.428  1.00 20.00     0.013 C 
HETATM    5  C5  UNL     1     -34.965   5.836   5.691  1.00 20.00     0.009 C 
HETATM    6  C6  UNL     1     -34.480   4.958   3.694  1.00 20.00     0.012 C 
HETATM    7  C7  UNL     1     -33.174   5.715   4.055  1.00 20.00    -0.010 C 
HETATM    8  C8  UNL     1     -32.778   6.752   3.010  1.00 20.00     0.010 C 
ENDROOT
TORSDOF 0
ENDMDL
MODEL 2
REMARK VINA RESULT:      -4.2      1.024      2.859
REMARK  0 active torsions:
REMARK  status: ('A' for Active; 'I' for Inactive)
ROOT
HETATM    1  C1  UNL     1     -33.515   5.496   2.704  1.00 20.00    -0.025 C 
HETATM    2  C2  UNL     1     -32.770   6.079   3.655  1.00 20.00    -0.025 C 
HETATM    3  C3  UNL     1     -34.940   6.800   3.972  1.00 20.00     0.017 C 
HETATM    4  C4  UNL     1     -35.034   4.460   4.363  1.00 20.00     0.013 C 
HETATM    5  C5  UNL     1     -34.941   5.476   3.204  1.00 20.00     0.009 C 
HETATM    6  C6  UNL     1     -33.700   6.435   4.795  1.00 20.00     0.012 C 
HETATM    7  C7  UNL     1     -34.130   5.102   5.462  1.00 20.00    -0.010 C 
HETATM    8  C8  UNL     1     -34.872   5.306   6.778  1.00 20.00     0.010 C 
ENDROOT
TORSDOF 0
ENDMDL
MODEL 3
REMARK VINA RESULT:      -4.1     11.957     12.955
REMARK  0 active torsions:
REMARK  status: ('A' for Active; 'I' for Inactive)
ROOT
HETATM    1  C1  UNL     1     -33.721  16.705  -2.146  1.00 20.00    -0.025 C 
HETATM    2  C2  UNL     1     -34.854  16.075  -1.803  1.00 20.00    -0.025 C 
HETATM    3  C3  UNL     1     -34.966  16.456  -4.077  1.00 20.00     0.017 C 
HETATM    4  C4  UNL     1     -33.126  14.978  -3.819  1.00 20.00     0.013 C 
HETATM    5  C5  UNL     1     -33.505  16.463  -3.622  1.00 20.00     0.009 C 
HETATM    6  C6  UNL     1     -35.384  15.400  -3.049  1.00 20.00     0.012 C 
HETATM    7  C7  UNL     1     -34.421  14.227  -3.375  1.00 20.00    -0.010 C 
HETATM    8  C8  UNL     1     -34.956  13.301  -4.461  1.00 20.00     0.010 C 
ENDROOT
TORSDOF 0
ENDMDL
MODEL 4
REMARK VINA RESULT:      -4.1      1.067      2.140
REMARK  0 active torsions:
REMARK  status: ('A' for Active; 'I' for Inactive)
ROOT
HETATM    1  C1  UNL     1     -35.186   5.347   6.680  1.00 20.00    -0.025 C 
HETATM    2  C2  UNL     1     -34.194   6.212   6.421  1.00 20.00    -0.025 C 
HETATM    3  C3  UNL     1     -33.594   4.202   5.457  1.00 20.00     0.017 C 
HETATM    4  C4  UNL     1     -35.547   4.860   4.278  1.00 20.00     0.013 C 
HETATM    5  C5  UNL     1     -35.113   4.259   5.634  1.00 20.00     0.009 C 
HETATM    6  C6  UNL     1     -33.469   5.706   5.192  1.00 20.00     0.012 C 
HETATM    7  C7  UNL     1     -34.426   5.907   3.987  1.00 20.00    -0.010 C 
HETATM    8  C8  UNL     1     -33.748   5.672   2.642  1.00 20.00     0.010 C 
ENDROOT
TORSDOF 0
ENDMDL
MODEL 5
REMARK VINA RESULT:      -4.1     11.832     12.813
REMARK  0 active torsions:
REMARK  status: ('A' for Active; 'I' for Inactive)
ROOT
HETATM    1  C1  UNL     1     -34.770  13.445  -4.359  1.00 20.00    -0.025 C 
HETATM    2  C2  UNL     1     -33.545  13.582  -3.830  1.00 20.00    -0.025 C 
HETATM    3  C3  UNL     1     -34.032  15.565  -4.905  1.00 20.00     0.017 C 
HETATM    4  C4  UNL     1     -35.639  15.432  -3.162  1.00 20.00     0.013 C 
HETATM    5  C5  UNL     1     -35.330  14.834  -4.553  1.00 20.00     0.009 C 
HETATM    6  C6  UNL     1     -33.296  15.065  -3.658  1.00 20.00     0.012 C 
HETATM    7  C7  UNL     1     -34.224  15.550  -2.513  1.00 20.00    -0.010 C 
HETATM    8  C8  UNL     1     -33.913  16.971  -2.056  1.00 20.00     0.010 C 
ENDROOT
TORSDOF 0
ENDMDL
MODEL 6
REMARK VINA RESULT:      -4.0      8.361      9.641
REMARK  0 active torsions:
REMARK  status: ('A' for Active; 'I' for Inactive)
ROOT
HETATM    1  C1  UNL     1     -40.743   4.682  -1.093  1.00 20.00    -0.025 C 
HETATM    2  C2  UNL     1     -41.943   4.553  -1.678  1.00 20.00    -0.025 C 
HETATM    3  C3  UNL     1     -42.308   5.523   0.384  1.00 20.00     0.017 C 
HETATM    4  C4  UNL     1     -41.017   7.126  -0.799  1.00 20.00     0.013 C 
HETATM    5  C5  UNL     1     -40.866   5.778  -0.060  1.00 20.00     0.009 C 
HETATM    6  C6  UNL     1     -42.862   5.574  -1.044  1.00 20.00     0.012 C 
HETATM    7  C7  UNL     1     -42.389   6.971  -1.528  1.00 20.00    -0.010 C 
HETATM    8  C8  UNL     1     -43.364   8.087  -1.170  1.00 20.00     0.010 C 
ENDROOT
TORSDOF 0
ENDMDL
MODEL 7
REMARK VINA RESULT:      -3.9     11.988     13.171
REMARK  0 active torsions:
REMARK  status: ('A' for Active; 'I' for Inactive)
ROOT
HETATM    1  C1  UNL     1     -34.034  14.813  -3.199  1.00 20.00    -0.025 C 
HETATM    2  C2  UNL     1     -33.622  13.745  -3.898  1.00 20.00    -0.025 C 
HETATM    3  C3  UNL     1     -35.907  13.890  -4.190  1.00 20.00     0.017 C 
HETATM    4  C4  UNL     1     -35.060  15.868  -5.191  1.00 20.00     0.013 C 
HETATM    5  C5  UNL     1     -35.346  15.259  -3.801  1.00 20.00     0.009 C 
HETATM    6  C6  UNL     1     -34.654  13.490  -4.975  1.00 20.00     0.012 C 
HETATM    7  C7  UNL     1     -34.530  14.645  -6.004  1.00 20.00    -0.010 C 
HETATM    8  C8  UNL     1     -35.335  14.401  -7.275  1.00 20.00     0.010 C 
ENDROOT
TORSDOF 0
ENDMDL
MODEL 8
REMARK VINA RESULT:      -3.9      8.305      9.773
REMARK  0 active torsions:
REMARK  status: ('A' for Active; 'I' for Inactive)
ROOT
HETATM    1  C1  UNL     1     -41.195   6.894  -1.111  1.00 20.00    -0.025 C 
HETATM    2  C2  UNL     1     -41.903   6.322  -2.096  1.00 20.00    -0.025 C 
HETATM    3  C3  UNL     1     -40.662   4.646  -1.106  1.00 20.00     0.017 C 
HETATM    4  C4  UNL     1     -42.134   5.378   0.607  1.00 20.00     0.013 C 
HETATM    5  C5  UNL     1     -40.843   5.806  -0.124  1.00 20.00     0.009 C 
HETATM    6  C6  UNL     1     -42.034   4.853  -1.756  1.00 20.00     0.012 C 
HETATM    7  C7  UNL     1     -42.992   4.754  -0.539  1.00 20.00    -0.010 C 
HETATM    8  C8  UNL     1     -43.417   3.322  -0.230  1.00 20.00     0.010 C 
ENDROOT
TORSDOF 0
ENDMDL
MODEL 9
REMARK VINA RESULT:      -3.9     11.720     12.959
REMARK  0 active torsions:
REMARK  status: ('A' for Active; 'I' for Inactive)
ROOT
HETATM    1  C1  UNL     1     -34.858  13.822  -5.741  1.00 20.00    -0.025 C 
HETATM    2  C2  UNL     1     -35.045  15.150  -5.782  1.00 20.00    -0.025 C 
HETATM    3  C3  UNL     1     -36.317  14.352  -4.029  1.00 20.00     0.017 C 
HETATM    4  C4  UNL     1     -34.078  13.885  -3.391  1.00 20.00     0.013 C 
HETATM    5  C5  UNL     1     -35.185  13.369  -4.337  1.00 20.00     0.009 C 
HETATM    6  C6  UNL     1     -35.482  15.582  -4.399  1.00 20.00     0.012 C 
HETATM    7  C7  UNL     1     -34.250  15.435  -3.468  1.00 20.00    -0.010 C 
HETATM    8  C8  UNL     1     -34.462  16.063  -2.095  1.00 20.00     0.010 C 
ENDROOT
TORSDOF 0
ENDMDL
