MODEL 1
REMARK VINA RESULT:      -5.8      0.000      0.000
REMARK  1 active torsions:
REMARK  status: ('A' for Active; 'I' for Inactive)
REMARK    1  A    between atoms: C7_7  and  O9_9 
ROOT
HETATM    1  C1  UNL     1     -33.864   5.253   3.020  1.00 20.00    -0.019 A 
HETATM    2  C2  UNL     1     -33.326   6.340   3.607  1.00 20.00    -0.080 A 
HETATM    3  C3  UNL     1     -35.270   4.237   4.963  1.00 20.00     0.012 C 
HETATM    4  C4  UNL     1     -34.292   4.673   6.047  1.00 20.00     0.033 C 
HETATM    5  C5  UNL     1     -35.125   5.289   3.860  1.00 20.00     0.019 A 
HETATM    6  C6  UNL     1     -34.523   6.549   4.528  1.00 20.00     0.050 A 
HETATM    7  C7  UNL     1     -34.383   6.195   6.010  1.00 20.00     0.127 C 
HETATM    8  C8  UNL     1     -32.001   7.101   3.418  1.00 20.00     0.043 C 
ENDROOT
BRANCH   7   9
HETATM    9  O9  UNL     1     -33.231   6.805   6.564  1.00 20.00    -0.395 OA
HETATM   10  H21 UNL     1     -33.531   7.360   7.305  1.00 20.00     0.210 HD
ENDBRANCH   7   9
TORSDOF 1
ENDMDL
MODEL 2
REMARK VINA RESULT:      -4.6      1.447      2.728
REMARK  1 active torsions:
REMARK  status: ('A' for Active; 'I' for Inactive)
REMARK    1  A    between atoms: C7_7  and  O9_9 
ROOT
HETATM    1  C1  UNL     1     -34.934   5.365   6.665  1.00 20.00    -0.019 A 
HETATM    2  C2  UNL     1     -33.932   6.200   6.326  1.00 20.00    -0.080 A 
HETATM    3  C3  UNL     1     -35.570   4.331   4.361  1.00 20.00     0.012 C 
HETATM    4  C4  UNL     1     -35.261   5.603   3.580  1.00 20.00     0.033 C 
HETATM    5  C5  UNL     1     -34.624   4.371   5.564  1.00 20.00     0.019 A 
HETATM    6  C6  UNL     1     -33.460   5.316   5.178  1.00 20.00     0.050 A 
HETATM    7  C7  UNL     1     -33.752   5.755   3.741  1.00 20.00     0.127 C 
HETATM    8  C8  UNL     1     -33.435   7.544   6.889  1.00 20.00     0.043 C 
ENDROOT
BRANCH   7   9
HETATM    9  O9  UNL     1     -33.332   7.091   3.530  1.00 20.00    -0.395 OA
HETATM   10  H21 UNL     1     -32.510   7.052   3.011  1.00 20.00     0.210 HD
ENDBRANCH   7   9
TORSDOF 1
ENDMDL
MODEL 3
REMARK VINA RESULT:      -4.4     12.061     12.759
REMARK  1 active torsions:
REMARK  status: ('A' for Active; 'I' for Inactive)
REMARK    1  A    between atoms: C7_7  and  O9_9 
ROOT
HETATM    1  C1  UNL     1     -33.274  15.444  -3.262  1.00 20.00    -0.019 A 
HETATM    2  C2  UNL     1     -34.342  15.996  -2.654  1.00 20.00    -0.080 A 
HETATM    3  C3  UNL     1     -34.403  13.950  -5.072  1.00 20.00     0.012 C 
HETATM    4  C4  UNL     1     -35.611  13.618  -4.204  1.00 20.00     0.033 C 
HETATM    5  C5  UNL     1     -33.959  15.340  -4.610  1.00 20.00     0.019 A 
HETATM    6  C6  UNL     1     -35.185  15.989  -3.923  1.00 20.00     0.050 A 
HETATM    7  C7  UNL     1     -36.314  14.964  -4.053  1.00 20.00     0.127 C 
HETATM    8  C8  UNL     1     -34.615  16.469  -1.214  1.00 20.00     0.043 C 
ENDROOT
BRANCH   7   9
HETATM    9  O9  UNL     1     -37.153  14.995  -2.912  1.00 20.00    -0.395 OA
HETATM   10  H21 UNL     1     -37.066  15.881  -2.519  1.00 20.00     0.210 HD
ENDBRANCH   7   9
TORSDOF 1
ENDMDL
MODEL 4
REMARK VINA RESULT:      -4.3      9.602     10.775
REMARK  1 active torsions:
REMARK  status: ('A' for Active; 'I' for Inactive)
REMARK    1  A    between atoms: C7_7  and  O9_9 
ROOT
HETATM    1  C1  UNL     1     -40.651   4.524  -1.075  1.00 20.00    -0.019 A 
HETATM    2  C2  UNL     1     -41.606   4.058  -1.902  1.00 20.00    -0.080 A 
HETATM    3  C3  UNL     1     -41.240   7.057  -0.949  1.00 20.00     0.012 C 
HETATM    4  C4  UNL     1     -41.740   7.126  -2.387  1.00 20.00     0.033 C 
HETATM    5  C5  UNL     1     -41.526   5.621  -0.503  1.00 20.00     0.019 A 
HETATM    6  C6  UNL     1     -42.636   5.082  -1.439  1.00 20.00     0.050 A 
HETATM    7  C7  UNL     1     -42.986   6.248  -2.367  1.00 20.00     0.127 C 
HETATM    8  C8  UNL     1     -41.654   2.913  -2.930  1.00 20.00     0.043 C 
ENDROOT
BRANCH   7   9
HETATM    9  O9  UNL     1     -43.319   5.776  -3.660  1.00 20.00    -0.395 OA
HETATM   10  H21 UNL     1     -42.751   6.251  -4.292  1.00 20.00     0.210 HD
ENDBRANCH   7   9
TORSDOF 1
ENDMDL
MODEL 5
REMARK VINA RESULT:      -4.3     11.780     13.158
REMARK  1 active torsions:
REMARK  status: ('A' for Active; 'I' for Inactive)
REMARK    1  A    between atoms: C7_7  and  O9_9 
ROOT
HETATM    1  C1  UNL     1     -34.180  16.205  -5.595  1.00 20.00    -0.019 A 
HETATM    2  C2  UNL     1     -34.480  14.943  -5.961  1.00 20.00    -0.080 A 
HETATM    3  C3  UNL     1     -34.015  15.985  -3.005  1.00 20.00     0.012 C 
HETATM    4  C4  UNL     1     -35.102  14.920  -2.914  1.00 20.00     0.033 C 
HETATM    5  C5  UNL     1     -33.378  15.778  -4.382  1.00 20.00     0.019 A 
HETATM    6  C6  UNL     1     -33.703  14.325  -4.804  1.00 20.00     0.050 A 
HETATM    7  C7  UNL     1     -34.481  13.725  -3.631  1.00 20.00     0.127 C 
HETATM    8  C8  UNL     1     -35.295  14.340  -7.120  1.00 20.00     0.043 C 
ENDROOT
BRANCH   7   9
HETATM    9  O9  UNL     1     -35.467  12.819  -4.094  1.00 20.00    -0.395 OA
HETATM   10  H21 UNL     1     -36.285  13.329  -4.222  1.00 20.00     0.210 HD
ENDBRANCH   7   9
TORSDOF 1
ENDMDL
MODEL 6
REMARK VINA RESULT:      -4.3     12.330     13.534
REMARK  1 active torsions:
REMARK  status: ('A' for Active; 'I' for Inactive)
REMARK    1  A    between atoms: C7_7  and  O9_9 
ROOT
HETATM    1  C1  UNL     1     -35.014  14.333  -3.474  1.00 20.00    -0.019 A 
HETATM    2  C2  UNL     1     -34.369  15.386  -2.934  1.00 20.00    -0.080 A 
HETATM    3  C3  UNL     1     -34.487  14.625  -6.007  1.00 20.00     0.012 C 
HETATM    4  C4  UNL     1     -34.487  16.147  -5.946  1.00 20.00     0.033 C 
HETATM    5  C5  UNL     1     -34.030  14.177  -4.616  1.00 20.00     0.019 A 
HETATM    6  C6  UNL     1     -33.273  15.375  -3.994  1.00 20.00     0.050 A 
HETATM    7  C7  UNL     1     -33.279  16.463  -5.070  1.00 20.00     0.127 C 
HETATM    8  C8  UNL     1     -34.628  16.270  -1.701  1.00 20.00     0.043 C 
ENDROOT
BRANCH   7   9
HETATM    9  O9  UNL     1     -33.375  17.748  -4.483  1.00 20.00    -0.395 OA
HETATM   10  H21 UNL     1     -33.733  17.626  -3.587  1.00 20.00     0.210 HD
ENDBRANCH   7   9
TORSDOF 1
ENDMDL
MODEL 7
REMARK VINA RESULT:      -4.3     11.829     13.110
REMARK  1 active torsions:
REMARK  status: ('A' for Active; 'I' for Inactive)
REMARK    1  A    between atoms: C7_7  and  O9_9 
ROOT
HETATM    1  C1  UNL     1     -35.612  16.415  -4.043  1.00 20.00    -0.019 A 
HETATM    2  C2  UNL     1     -36.348  15.319  -4.313  1.00 20.00    -0.080 A 
HETATM    3  C3  UNL     1     -33.188  15.470  -4.150  1.00 20.00     0.012 C 
HETATM    4  C4  UNL     1     -33.577  14.103  -3.600  1.00 20.00     0.033 C 
HETATM    5  C5  UNL     1     -34.435  15.966  -4.885  1.00 20.00     0.019 A 
HETATM    6  C6  UNL     1     -35.281  14.712  -5.215  1.00 20.00     0.050 A 
HETATM    7  C7  UNL     1     -34.465  13.525  -4.696  1.00 20.00     0.127 C 
HETATM    8  C8  UNL     1     -37.751  14.851  -3.883  1.00 20.00     0.043 C 
ENDROOT
BRANCH   7   9
HETATM    9  O9  UNL     1     -35.319  12.509  -4.201  1.00 20.00    -0.395 OA
HETATM   10  H21 UNL     1     -36.014  12.371  -4.868  1.00 20.00     0.210 HD
ENDBRANCH   7   9
TORSDOF 1
ENDMDL
MODEL 8
REMARK VINA RESULT:      -4.2     11.886     12.815
REMARK  1 active torsions:
REMARK  status: ('A' for Active; 'I' for Inactive)
REMARK    1  A    between atoms: C7_7  and  O9_9 
ROOT
HETATM    1  C1  UNL     1     -36.050  15.992  -3.079  1.00 20.00    -0.019 A 
HETATM    2  C2  UNL     1     -34.837  15.844  -2.511  1.00 20.00    -0.080 A 
HETATM    3  C3  UNL     1     -35.776  14.639  -5.287  1.00 20.00     0.012 C 
HETATM    4  C4  UNL     1     -34.304  14.999  -5.455  1.00 20.00     0.033 C 
HETATM    5  C5  UNL     1     -36.010  14.646  -3.775  1.00 20.00     0.019 A 
HETATM    6  C6  UNL     1     -34.623  14.459  -3.113  1.00 20.00     0.050 A 
HETATM    7  C7  UNL     1     -33.637  14.305  -4.273  1.00 20.00     0.127 C 
HETATM    8  C8  UNL     1     -33.982  16.732  -1.589  1.00 20.00     0.043 C 
ENDROOT
BRANCH   7   9
HETATM    9  O9  UNL     1     -32.389  14.894  -3.952  1.00 20.00    -0.395 OA
HETATM   10  H21 UNL     1     -31.787  14.170  -3.709  1.00 20.00     0.210 HD
ENDBRANCH   7   9
TORSDOF 1
ENDMDL
MODEL 9
REMARK VINA RESULT:      -4.1      9.133     10.228
REMARK  1 active torsions:
REMARK  status: ('A' for Active; 'I' for Inactive)
REMARK    1  A    between atoms: C7_7  and  O9_9 
ROOT
HETATM    1  C1  UNL     1     -42.588   5.783  -2.810  1.00 20.00    -0.019 A 
HETATM    2  C2  UNL     1     -41.907   4.742  -2.293  1.00 20.00    -0.080 A 
HETATM    3  C3  UNL     1     -42.882   7.317  -0.726  1.00 20.00     0.012 C 
HETATM    4  C4  UNL     1     -42.999   6.154   0.252  1.00 20.00     0.033 C 
HETATM    5  C5  UNL     1     -41.988   6.793  -1.852  1.00 20.00     0.019 A 
HETATM    6  C6  UNL     1     -41.187   5.606  -1.263  1.00 20.00     0.050 A 
HETATM    7  C7  UNL     1     -41.616   5.514   0.203  1.00 20.00     0.127 C 
HETATM    8  C8  UNL     1     -41.858   3.239  -2.621  1.00 20.00     0.043 C 
ENDROOT
BRANCH   7   9
HETATM    9  O9  UNL     1     -41.643   4.165   0.634  1.00 20.00    -0.395 OA
HETATM   10  H21 UNL     1     -40.898   4.047   1.247  1.00 20.00     0.210 HD
ENDBRANCH   7   9
TORSDOF 1
ENDMDL
