MODEL 1
REMARK VINA RESULT:      -6.0      0.000      0.000
REMARK  3 active torsions:
REMARK  status: ('A' for Active; 'I' for Inactive)
REMARK    1  A    between atoms: C2_2  and  C5_5 
REMARK    2  A    between atoms: C4_4  and  C5_5 
REMARK    3  A    between atoms: C4_4  and  C6_6 
ROOT
HETATM    1  C4  UNL     1     -33.737   5.676   4.702  1.00 20.00     0.353 C 
HETATM    2  F7  UNL     1     -33.936   6.901   5.275  1.00 20.00    -0.233 F 
ENDROOT
BRANCH   1   3
HETATM    3  C5  UNL     1     -33.191   5.919   3.298  1.00 20.00     0.300 C 
HETATM    4  F8  UNL     1     -33.880   5.134   2.423  1.00 20.00    -0.198 F 
HETATM    5  F9  UNL     1     -31.906   5.462   3.270  1.00 20.00    -0.198 F 
BRANCH   3   6
HETATM    6  C2  UNL     1     -33.206   7.360   2.883  1.00 20.00     0.050 C 
HETATM    7  C1  UNL     1     -32.251   7.947   2.147  1.00 20.00    -0.029 C 
HETATM    8  C3  UNL     1     -32.280   9.385   1.745  1.00 20.00     0.036 C 
ENDBRANCH   3   6
ENDBRANCH   1   3
BRANCH   1   9
HETATM    9  C6  UNL     1     -35.058   4.941   4.757  1.00 20.00     0.424 C 
HETATM   10  F10 UNL     1     -35.974   5.490   3.932  1.00 20.00    -0.168 F 
HETATM   11  F11 UNL     1     -34.916   3.643   4.418  1.00 20.00    -0.168 F 
HETATM   12  F12 UNL     1     -35.567   4.985   6.009  1.00 20.00    -0.168 F 
ENDBRANCH   1   9
TORSDOF 3
ENDMDL
MODEL 2
REMARK VINA RESULT:      -5.8      1.064      1.628
REMARK  3 active torsions:
REMARK  status: ('A' for Active; 'I' for Inactive)
REMARK    1  A    between atoms: C2_2  and  C5_5 
REMARK    2  A    between atoms: C4_4  and  C5_5 
REMARK    3  A    between atoms: C4_4  and  C6_6 
ROOT
HETATM    1  C4  UNL     1     -33.919   5.496   5.105  1.00 20.00     0.353 C 
HETATM    2  F7  UNL     1     -34.105   6.663   5.793  1.00 20.00    -0.233 F 
ENDROOT
BRANCH   1   3
HETATM    3  C5  UNL     1     -34.426   5.725   3.684  1.00 20.00     0.300 C 
HETATM    4  F8  UNL     1     -35.785   5.811   3.717  1.00 20.00    -0.198 F 
HETATM    5  F9  UNL     1     -34.145   4.603   2.960  1.00 20.00    -0.198 F 
BRANCH   3   6
HETATM    6  C2  UNL     1     -33.809   6.911   3.005  1.00 20.00     0.050 C 
HETATM    7  C1  UNL     1     -32.493   7.073   2.809  1.00 20.00    -0.029 C 
HETATM    8  C3  UNL     1     -31.895   8.263   2.133  1.00 20.00     0.036 C 
ENDBRANCH   3   6
ENDBRANCH   1   3
BRANCH   1   9
HETATM    9  C6  UNL     1     -34.639   4.409   5.873  1.00 20.00     0.424 C 
HETATM   10  F10 UNL     1     -35.697   4.892   6.557  1.00 20.00    -0.168 F 
HETATM   11  F11 UNL     1     -35.082   3.434   5.053  1.00 20.00    -0.168 F 
HETATM   12  F12 UNL     1     -33.804   3.841   6.773  1.00 20.00    -0.168 F 
ENDBRANCH   1   9
TORSDOF 3
ENDMDL
MODEL 3
REMARK VINA RESULT:      -5.8      1.008      1.988
REMARK  3 active torsions:
REMARK  status: ('A' for Active; 'I' for Inactive)
REMARK    1  A    between atoms: C2_2  and  C5_5 
REMARK    2  A    between atoms: C4_4  and  C5_5 
REMARK    3  A    between atoms: C4_4  and  C6_6 
ROOT
HETATM    1  C4  UNL     1     -33.956   6.182   3.505  1.00 20.00     0.353 C 
HETATM    2  F7  UNL     1     -34.177   5.205   2.575  1.00 20.00    -0.233 F 
ENDROOT
BRANCH   1   3
HETATM    3  C5  UNL     1     -32.482   6.564   3.416  1.00 20.00     0.300 C 
HETATM    4  F8  UNL     1     -31.738   5.423   3.384  1.00 20.00    -0.198 F 
HETATM    5  F9  UNL     1     -32.146   7.189   4.582  1.00 20.00    -0.198 F 
BRANCH   3   6
HETATM    6  C2  UNL     1     -32.160   7.471   2.266  1.00 20.00     0.050 C 
HETATM    7  C1  UNL     1     -32.548   8.751   2.178  1.00 20.00    -0.029 C 
HETATM    8  C3  UNL     1     -32.221   9.640   1.023  1.00 20.00     0.036 C 
ENDBRANCH   3   6
ENDBRANCH   1   3
BRANCH   1   9
HETATM    9  C6  UNL     1     -34.393   5.627   4.843  1.00 20.00     0.424 C 
HETATM   10  F10 UNL     1     -33.625   4.589   5.233  1.00 20.00    -0.168 F 
HETATM   11  F11 UNL     1     -34.345   6.568   5.809  1.00 20.00    -0.168 F 
HETATM   12  F12 UNL     1     -35.667   5.178   4.770  1.00 20.00    -0.168 F 
ENDBRANCH   1   9
TORSDOF 3
ENDMDL
MODEL 4
REMARK VINA RESULT:      -5.7      1.014      1.884
REMARK  3 active torsions:
REMARK  status: ('A' for Active; 'I' for Inactive)
REMARK    1  A    between atoms: C2_2  and  C5_5 
REMARK    2  A    between atoms: C4_4  and  C5_5 
REMARK    3  A    between atoms: C4_4  and  C6_6 
ROOT
HETATM    1  C4  UNL     1     -33.945   6.178   3.511  1.00 20.00     0.353 C 
HETATM    2  F7  UNL     1     -34.158   5.174   2.607  1.00 20.00    -0.233 F 
ENDROOT
BRANCH   1   3
HETATM    3  C5  UNL     1     -32.474   6.568   3.413  1.00 20.00     0.300 C 
HETATM    4  F8  UNL     1     -31.724   5.431   3.380  1.00 20.00    -0.198 F 
HETATM    5  F9  UNL     1     -32.136   7.197   4.576  1.00 20.00    -0.198 F 
BRANCH   3   6
HETATM    6  C2  UNL     1     -32.163   7.474   2.259  1.00 20.00     0.050 C 
HETATM    7  C1  UNL     1     -32.546   8.756   2.177  1.00 20.00    -0.029 C 
HETATM    8  C3  UNL     1     -32.230   9.644   1.018  1.00 20.00     0.036 C 
ENDBRANCH   3   6
ENDBRANCH   1   3
BRANCH   1   9
HETATM    9  C6  UNL     1     -34.381   5.656   4.863  1.00 20.00     0.424 C 
HETATM   10  F10 UNL     1     -34.269   6.595   5.824  1.00 20.00    -0.168 F 
HETATM   11  F11 UNL     1     -35.661   5.232   4.840  1.00 20.00    -0.168 F 
HETATM   12  F12 UNL     1     -33.608   4.610   5.232  1.00 20.00    -0.168 F 
ENDBRANCH   1   9
TORSDOF 3
ENDMDL
MODEL 5
REMARK VINA RESULT:      -5.1     10.682     11.998
REMARK  3 active torsions:
REMARK  status: ('A' for Active; 'I' for Inactive)
REMARK    1  A    between atoms: C2_2  and  C5_5 
REMARK    2  A    between atoms: C4_4  and  C5_5 
REMARK    3  A    between atoms: C4_4  and  C6_6 
ROOT
HETATM    1  C4  UNL     1     -34.621  15.162  -4.367  1.00 20.00     0.353 C 
HETATM    2  F7  UNL     1     -34.640  15.379  -5.717  1.00 20.00    -0.233 F 
ENDROOT
BRANCH   1   3
HETATM    3  C5  UNL     1     -33.361  15.829  -3.821  1.00 20.00     0.300 C 
HETATM    4  F8  UNL     1     -32.913  16.728  -4.742  1.00 20.00    -0.198 F 
HETATM    5  F9  UNL     1     -32.391  14.873  -3.738  1.00 20.00    -0.198 F 
BRANCH   3   6
HETATM    6  C2  UNL     1     -33.544  16.457  -2.472  1.00 20.00     0.050 C 
HETATM    7  C1  UNL     1     -34.630  16.297  -1.702  1.00 20.00    -0.029 C 
HETATM    8  C3  UNL     1     -34.798  16.933  -0.361  1.00 20.00     0.036 C 
ENDBRANCH   3   6
ENDBRANCH   1   3
BRANCH   1   9
HETATM    9  C6  UNL     1     -34.695  13.666  -4.157  1.00 20.00     0.424 C 
HETATM   10  F10 UNL     1     -34.068  12.987  -5.140  1.00 20.00    -0.168 F 
HETATM   11  F11 UNL     1     -34.141  13.303  -2.981  1.00 20.00    -0.168 F 
HETATM   12  F12 UNL     1     -35.984  13.258  -4.146  1.00 20.00    -0.168 F 
ENDBRANCH   1   9
TORSDOF 3
ENDMDL
MODEL 6
REMARK VINA RESULT:      -5.0     11.247     12.548
REMARK  3 active torsions:
REMARK  status: ('A' for Active; 'I' for Inactive)
REMARK    1  A    between atoms: C2_2  and  C5_5 
REMARK    2  A    between atoms: C4_4  and  C5_5 
REMARK    3  A    between atoms: C4_4  and  C6_6 
ROOT
HETATM    1  C4  UNL     1     -34.064  15.698  -4.788  1.00 20.00     0.353 C 
HETATM    2  F7  UNL     1     -32.980  16.271  -5.393  1.00 20.00    -0.233 F 
ENDROOT
BRANCH   1   3
HETATM    3  C5  UNL     1     -33.628  15.273  -3.390  1.00 20.00     0.300 C 
HETATM    4  F8  UNL     1     -32.357  14.786  -3.461  1.00 20.00    -0.198 F 
HETATM    5  F9  UNL     1     -34.406  14.215  -3.018  1.00 20.00    -0.198 F 
BRANCH   3   6
HETATM    6  C2  UNL     1     -33.752  16.356  -2.360  1.00 20.00     0.050 C 
HETATM    7  C1  UNL     1     -34.610  16.328  -1.330  1.00 20.00    -0.029 C 
HETATM    8  C3  UNL     1     -34.723  17.418  -0.315  1.00 20.00     0.036 C 
ENDBRANCH   3   6
ENDBRANCH   1   3
BRANCH   1   9
HETATM    9  C6  UNL     1     -34.528  14.571  -5.685  1.00 20.00     0.424 C 
HETATM   10  F10 UNL     1     -34.042  13.377  -5.285  1.00 20.00    -0.168 F 
HETATM   11  F11 UNL     1     -35.874  14.485  -5.715  1.00 20.00    -0.168 F 
HETATM   12  F12 UNL     1     -34.101  14.774  -6.952  1.00 20.00    -0.168 F 
ENDBRANCH   1   9
TORSDOF 3
ENDMDL
MODEL 7
REMARK VINA RESULT:      -5.0     11.255     12.512
REMARK  3 active torsions:
REMARK  status: ('A' for Active; 'I' for Inactive)
REMARK    1  A    between atoms: C2_2  and  C5_5 
REMARK    2  A    between atoms: C4_4  and  C5_5 
REMARK    3  A    between atoms: C4_4  and  C6_6 
ROOT
HETATM    1  C4  UNL     1     -34.062  15.719  -4.779  1.00 20.00     0.353 C 
HETATM    2  F7  UNL     1     -32.969  16.294  -5.364  1.00 20.00    -0.233 F 
ENDROOT
BRANCH   1   3
HETATM    3  C5  UNL     1     -33.649  15.295  -3.372  1.00 20.00     0.300 C 
HETATM    4  F8  UNL     1     -32.382  14.797  -3.424  1.00 20.00    -0.198 F 
HETATM    5  F9  UNL     1     -34.442  14.246  -3.008  1.00 20.00    -0.198 F 
BRANCH   3   6
HETATM    6  C2  UNL     1     -33.779  16.383  -2.349  1.00 20.00     0.050 C 
HETATM    7  C1  UNL     1     -34.606  16.339  -1.295  1.00 20.00    -0.029 C 
HETATM    8  C3  UNL     1     -34.724  17.434  -0.286  1.00 20.00     0.036 C 
ENDBRANCH   3   6
ENDBRANCH   1   3
BRANCH   1   9
HETATM    9  C6  UNL     1     -34.507  14.590  -5.682  1.00 20.00     0.424 C 
HETATM   10  F10 UNL     1     -34.099  14.773  -6.955  1.00 20.00    -0.168 F 
HETATM   11  F11 UNL     1     -34.032  13.400  -5.259  1.00 20.00    -0.168 F 
HETATM   12  F12 UNL     1     -35.857  14.509  -5.701  1.00 20.00    -0.168 F 
ENDBRANCH   1   9
TORSDOF 3
ENDMDL
MODEL 8
REMARK VINA RESULT:      -5.0     11.278     12.572
REMARK  3 active torsions:
REMARK  status: ('A' for Active; 'I' for Inactive)
REMARK    1  A    between atoms: C2_2  and  C5_5 
REMARK    2  A    between atoms: C4_4  and  C5_5 
REMARK    3  A    between atoms: C4_4  and  C6_6 
ROOT
HETATM    1  C4  UNL     1     -34.056  14.103  -4.816  1.00 20.00     0.353 C 
HETATM    2  F7  UNL     1     -35.030  13.475  -4.090  1.00 20.00    -0.233 F 
ENDROOT
BRANCH   1   3
HETATM    3  C5  UNL     1     -33.339  15.063  -3.873  1.00 20.00     0.300 C 
HETATM    4  F8  UNL     1     -32.952  16.160  -4.582  1.00 20.00    -0.198 F 
HETATM    5  F9  UNL     1     -32.183  14.460  -3.470  1.00 20.00    -0.198 F 
BRANCH   3   6
HETATM    6  C2  UNL     1     -34.142  15.438  -2.663  1.00 20.00     0.050 C 
HETATM    7  C1  UNL     1     -33.929  16.534  -1.921  1.00 20.00    -0.029 C 
HETATM    8  C3  UNL     1     -34.737  16.890  -0.716  1.00 20.00     0.036 C 
ENDBRANCH   3   6
ENDBRANCH   1   3
BRANCH   1   9
HETATM    9  C6  UNL     1     -34.737  14.756  -5.998  1.00 20.00     0.424 C 
HETATM   10  F10 UNL     1     -35.496  15.807  -5.625  1.00 20.00    -0.168 F 
HETATM   11  F11 UNL     1     -33.840  15.192  -6.907  1.00 20.00    -0.168 F 
HETATM   12  F12 UNL     1     -35.552  13.872  -6.617  1.00 20.00    -0.168 F 
ENDBRANCH   1   9
TORSDOF 3
ENDMDL
MODEL 9
REMARK VINA RESULT:      -4.9      1.836      4.416
REMARK  3 active torsions:
REMARK  status: ('A' for Active; 'I' for Inactive)
REMARK    1  A    between atoms: C2_2  and  C5_5 
REMARK    2  A    between atoms: C4_4  and  C5_5 
REMARK    3  A    between atoms: C4_4  and  C6_6 
ROOT
HETATM    1  C4  UNL     1     -33.424   7.353   2.594  1.00 20.00     0.353 C 
HETATM    2  F7  UNL     1     -34.168   8.011   3.533  1.00 20.00    -0.233 F 
ENDROOT
BRANCH   1   3
HETATM    3  C5  UNL     1     -33.255   5.916   3.079  1.00 20.00     0.300 C 
HETATM    4  F8  UNL     1     -31.963   5.536   2.867  1.00 20.00    -0.198 F 
HETATM    5  F9  UNL     1     -34.011   5.117   2.273  1.00 20.00    -0.198 F 
BRANCH   3   6
HETATM    6  C2  UNL     1     -33.670   5.705   4.504  1.00 20.00     0.050 C 
HETATM    7  C1  UNL     1     -34.701   4.939   4.888  1.00 20.00    -0.029 C 
HETATM    8  C3  UNL     1     -35.103   4.742   6.313  1.00 20.00     0.036 C 
ENDBRANCH   3   6
ENDBRANCH   1   3
BRANCH   1   9
HETATM    9  C6  UNL     1     -32.135   8.128   2.426  1.00 20.00     0.424 C 
HETATM   10  F10 UNL     1     -31.311   7.970   3.483  1.00 20.00    -0.168 F 
HETATM   11  F11 UNL     1     -31.469   7.746   1.317  1.00 20.00    -0.168 F 
HETATM   12  F12 UNL     1     -32.395   9.450   2.314  1.00 20.00    -0.168 F 
ENDBRANCH   1   9
TORSDOF 3
ENDMDL
