MODEL 1
REMARK VINA RESULT:      -5.6      0.000      0.000
REMARK  0 active torsions:
REMARK  status: ('A' for Active; 'I' for Inactive)
ROOT
HETATM    1  C1  UNL     1     -33.364   6.694   6.263  1.00 20.00    -0.018 C 
HETATM    2  C2  UNL     1     -34.143   4.881   2.939  1.00 20.00    -0.018 C 
HETATM    3  C3  UNL     1     -34.540   6.031   6.100  1.00 20.00    -0.078 C 
HETATM    4  C4  UNL     1     -33.570   6.099   2.928  1.00 20.00    -0.078 C 
HETATM    5  C5  UNL     1     -34.866   4.663   6.604  1.00 20.00     0.035 C 
HETATM    6  C6  UNL     1     -32.205   6.638   2.564  1.00 20.00     0.035 C 
HETATM    7  C7  UNL     1     -34.762   3.829   5.291  1.00 20.00     0.013 C 
HETATM    8  C8  UNL     1     -31.803   7.390   3.914  1.00 20.00     0.013 C 
HETATM    9  C9  UNL     1     -32.786   6.739   4.884  1.00 20.00     0.017 C 
HETATM   10  C10 UNL     1     -35.146   4.748   4.100  1.00 20.00     0.017 C 
HETATM   11  C11 UNL     1     -35.139   6.141   4.729  1.00 20.00     0.030 C 
HETATM   12  C12 UNL     1     -34.057   6.903   4.054  1.00 20.00     0.030 C 
ENDROOT
TORSDOF 0
ENDMDL
MODEL 2
REMARK VINA RESULT:      -5.3     12.016     13.670
REMARK  0 active torsions:
REMARK  status: ('A' for Active; 'I' for Inactive)
ROOT
HETATM    1  C1  UNL     1     -36.204  14.462  -4.030  1.00 20.00    -0.018 C 
HETATM    2  C2  UNL     1     -33.390  16.560  -5.647  1.00 20.00    -0.018 C 
HETATM    3  C3  UNL     1     -35.037  14.674  -3.366  1.00 20.00    -0.078 C 
HETATM    4  C4  UNL     1     -34.076  15.666  -6.384  1.00 20.00    -0.078 C 
HETATM    5  C5  UNL     1     -34.796  15.685  -2.292  1.00 20.00     0.035 C 
HETATM    6  C6  UNL     1     -35.081  15.751  -7.510  1.00 20.00     0.035 C 
HETATM    7  C7  UNL     1     -33.996  16.769  -3.077  1.00 20.00     0.013 C 
HETATM    8  C8  UNL     1     -36.297  14.915  -6.897  1.00 20.00     0.013 C 
HETATM    9  C9  UNL     1     -35.916  14.935  -5.419  1.00 20.00     0.017 C 
HETATM   10  C10 UNL     1     -33.196  16.062  -4.204  1.00 20.00     0.017 C 
HETATM   11  C11 UNL     1     -33.811  14.662  -4.231  1.00 20.00     0.030 C 
HETATM   12  C12 UNL     1     -34.456  14.512  -5.561  1.00 20.00     0.030 C 
ENDROOT
TORSDOF 0
ENDMDL
MODEL 3
REMARK VINA RESULT:      -5.2     12.031     13.540
REMARK  0 active torsions:
REMARK  status: ('A' for Active; 'I' for Inactive)
ROOT
HETATM    1  C1  UNL     1     -33.292  16.972  -5.125  1.00 20.00    -0.018 C 
HETATM    2  C2  UNL     1     -35.967  14.764  -3.418  1.00 20.00    -0.018 C 
HETATM    3  C3  UNL     1     -33.780  15.871  -5.756  1.00 20.00    -0.078 C 
HETATM    4  C4  UNL     1     -34.927  15.239  -2.707  1.00 20.00    -0.078 C 
HETATM    5  C5  UNL     1     -34.834  15.848  -6.816  1.00 20.00     0.035 C 
HETATM    6  C6  UNL     1     -34.759  16.263  -1.607  1.00 20.00     0.035 C 
HETATM    7  C7  UNL     1     -36.063  15.342  -6.002  1.00 20.00     0.013 C 
HETATM    8  C8  UNL     1     -33.671  17.235  -2.257  1.00 20.00     0.013 C 
HETATM    9  C9  UNL     1     -33.801  16.835  -3.725  1.00 20.00     0.017 C 
HETATM   10  C10 UNL     1     -35.547  14.425  -4.860  1.00 20.00     0.017 C 
HETATM   11  C11 UNL     1     -34.043  14.697  -4.860  1.00 20.00     0.030 C 
HETATM   12  C12 UNL     1     -33.728  15.320  -3.548  1.00 20.00     0.030 C 
ENDROOT
TORSDOF 0
ENDMDL
MODEL 4
REMARK VINA RESULT:      -5.1     11.853     13.588
REMARK  0 active torsions:
REMARK  status: ('A' for Active; 'I' for Inactive)
ROOT
HETATM    1  C1  UNL     1     -33.307  16.689  -5.322  1.00 20.00    -0.018 C 
HETATM    2  C2  UNL     1     -35.118  13.275  -5.326  1.00 20.00    -0.018 C 
HETATM    3  C3  UNL     1     -33.568  16.048  -4.152  1.00 20.00    -0.078 C 
HETATM    4  C4  UNL     1     -35.533  14.262  -6.141  1.00 20.00    -0.078 C 
HETATM    5  C5  UNL     1     -32.606  15.226  -3.355  1.00 20.00     0.035 C 
HETATM    6  C6  UNL     1     -35.515  14.497  -7.635  1.00 20.00     0.035 C 
HETATM    7  C7  UNL     1     -33.087  13.785  -3.703  1.00 20.00     0.013 C 
HETATM    8  C8  UNL     1     -34.752  15.898  -7.714  1.00 20.00     0.013 C 
HETATM    9  C9  UNL     1     -34.104  15.926  -6.332  1.00 20.00     0.017 C 
HETATM   10  C10 UNL     1     -34.613  13.835  -3.984  1.00 20.00     0.017 C 
HETATM   11  C11 UNL     1     -34.887  15.335  -4.106  1.00 20.00     0.030 C 
HETATM   12  C12 UNL     1     -35.335  15.567  -5.503  1.00 20.00     0.030 C 
ENDROOT
TORSDOF 0
ENDMDL
MODEL 5
REMARK VINA RESULT:      -5.1     11.837     13.593
REMARK  0 active torsions:
REMARK  status: ('A' for Active; 'I' for Inactive)
ROOT
HETATM    1  C1  UNL     1     -34.102  16.051  -6.253  1.00 20.00    -0.018 C 
HETATM    2  C2  UNL     1     -34.702  15.740  -2.448  1.00 20.00    -0.018 C 
HETATM    3  C3  UNL     1     -34.189  14.827  -5.668  1.00 20.00    -0.078 C 
HETATM    4  C4  UNL     1     -33.842  16.659  -2.924  1.00 20.00    -0.078 C 
HETATM    5  C5  UNL     1     -35.387  13.934  -5.652  1.00 20.00     0.035 C 
HETATM    6  C6  UNL     1     -33.828  18.168  -3.016  1.00 20.00     0.035 C 
HETATM    7  C7  UNL     1     -35.893  14.141  -4.192  1.00 20.00     0.013 C 
HETATM    8  C8  UNL     1     -33.604  18.376  -4.584  1.00 20.00     0.013 C 
HETATM    9  C9  UNL     1     -33.999  16.993  -5.095  1.00 20.00     0.017 C 
HETATM   10  C10 UNL     1     -34.667  14.454  -3.292  1.00 20.00     0.017 C 
HETATM   11  C11 UNL     1     -33.561  14.732  -4.309  1.00 20.00     0.030 C 
HETATM   12  C12 UNL     1     -33.170  16.154  -4.125  1.00 20.00     0.030 C 
ENDROOT
TORSDOF 0
ENDMDL
MODEL 6
REMARK VINA RESULT:      -5.0     11.808     13.513
REMARK  0 active torsions:
REMARK  status: ('A' for Active; 'I' for Inactive)
ROOT
HETATM    1  C1  UNL     1     -34.737  15.524  -2.306  1.00 20.00    -0.018 C 
HETATM    2  C2  UNL     1     -34.064  16.111  -6.066  1.00 20.00    -0.018 C 
HETATM    3  C3  UNL     1     -33.825  16.452  -2.704  1.00 20.00    -0.078 C 
HETATM    4  C4  UNL     1     -34.206  14.859  -5.591  1.00 20.00    -0.078 C 
HETATM    5  C5  UNL     1     -34.041  17.927  -2.795  1.00 20.00     0.035 C 
HETATM    6  C6  UNL     1     -35.250  13.774  -5.726  1.00 20.00     0.035 C 
HETATM    7  C7  UNL     1     -34.197  18.112  -4.335  1.00 20.00     0.013 C 
HETATM    8  C8  UNL     1     -35.598  13.492  -4.193  1.00 20.00     0.013 C 
HETATM    9  C9  UNL     1     -35.043  14.764  -3.556  1.00 20.00     0.017 C 
HETATM   10  C10 UNL     1     -33.354  17.017  -5.044  1.00 20.00     0.017 C 
HETATM   11  C11 UNL     1     -33.013  16.059  -3.903  1.00 20.00     0.030 C 
HETATM   12  C12 UNL     1     -33.672  14.767  -4.228  1.00 20.00     0.030 C 
ENDROOT
TORSDOF 0
ENDMDL
MODEL 7
REMARK VINA RESULT:      -5.0     12.171     13.913
REMARK  0 active torsions:
REMARK  status: ('A' for Active; 'I' for Inactive)
ROOT
HETATM    1  C1  UNL     1     -34.408  15.143  -6.363  1.00 20.00    -0.018 C 
HETATM    2  C2  UNL     1     -34.340  16.976  -2.961  1.00 20.00    -0.018 C 
HETATM    3  C3  UNL     1     -34.321  14.437  -5.204  1.00 20.00    -0.078 C 
HETATM    4  C4  UNL     1     -33.629  17.452  -4.001  1.00 20.00    -0.078 C 
HETATM    5  C5  UNL     1     -35.442  13.747  -4.498  1.00 20.00     0.035 C 
HETATM    6  C6  UNL     1     -33.724  18.666  -4.897  1.00 20.00     0.035 C 
HETATM    7  C7  UNL     1     -35.708  14.735  -3.322  1.00 20.00     0.013 C 
HETATM    8  C8  UNL     1     -33.780  17.978  -6.338  1.00 20.00     0.013 C 
HETATM    9  C9  UNL     1     -34.170  16.557  -5.939  1.00 20.00     0.017 C 
HETATM   10  C10 UNL     1     -34.369  15.437  -2.965  1.00 20.00     0.017 C 
HETATM   11  C11 UNL     1     -33.469  15.072  -4.145  1.00 20.00     0.030 C 
HETATM   12  C12 UNL     1     -33.139  16.347  -4.832  1.00 20.00     0.030 C 
ENDROOT
TORSDOF 0
ENDMDL
MODEL 8
REMARK VINA RESULT:      -4.9     11.504     13.093
REMARK  0 active torsions:
REMARK  status: ('A' for Active; 'I' for Inactive)
ROOT
HETATM    1  C1  UNL     1     -34.111  13.950  -3.398  1.00 20.00    -0.018 C 
HETATM    2  C2  UNL     1     -36.436  16.725  -4.751  1.00 20.00    -0.018 C 
HETATM    3  C3  UNL     1     -35.033  13.667  -4.357  1.00 20.00    -0.078 C 
HETATM    4  C4  UNL     1     -36.177  16.642  -3.432  1.00 20.00    -0.078 C 
HETATM    5  C5  UNL     1     -34.780  13.546  -5.825  1.00 20.00     0.035 C 
HETATM    6  C6  UNL     1     -35.402  17.477  -2.437  1.00 20.00     0.035 C 
HETATM    7  C7  UNL     1     -35.357  14.900  -6.339  1.00 20.00     0.013 C 
HETATM    8  C8  UNL     1     -34.392  16.389  -1.847  1.00 20.00     0.013 C 
HETATM    9  C9  UNL     1     -34.488  15.320  -2.933  1.00 20.00     0.017 C 
HETATM   10  C10 UNL     1     -36.511  15.329  -5.393  1.00 20.00     0.017 C 
HETATM   11  C11 UNL     1     -36.341  14.386  -4.201  1.00 20.00     0.030 C 
HETATM   12  C12 UNL     1     -36.009  15.241  -3.033  1.00 20.00     0.030 C 
ENDROOT
TORSDOF 0
ENDMDL
MODEL 9
REMARK VINA RESULT:      -4.9      9.291     10.599
REMARK  0 active torsions:
REMARK  status: ('A' for Active; 'I' for Inactive)
ROOT
HETATM    1  C1  UNL     1     -42.866   4.684  -3.104  1.00 20.00    -0.018 C 
HETATM    2  C2  UNL     1     -42.025   5.838   0.487  1.00 20.00    -0.018 C 
HETATM    3  C3  UNL     1     -42.501   3.778  -2.159  1.00 20.00    -0.078 C 
HETATM    4  C4  UNL     1     -41.584   6.544  -0.571  1.00 20.00    -0.078 C 
HETATM    5  C5  UNL     1     -43.417   2.902  -1.367  1.00 20.00     0.035 C 
HETATM    6  C6  UNL     1     -41.901   7.899  -1.164  1.00 20.00     0.035 C 
HETATM    7  C7  UNL     1     -43.412   3.632   0.010  1.00 20.00     0.013 C 
HETATM    8  C8  UNL     1     -42.284   7.495  -2.661  1.00 20.00     0.013 C 
HETATM    9  C9  UNL     1     -42.553   6.004  -2.474  1.00 20.00     0.017 C 
HETATM   10  C10 UNL     1     -42.035   4.329   0.185  1.00 20.00     0.017 C 
HETATM   11  C11 UNL     1     -41.432   4.248  -1.217  1.00 20.00     0.030 C 
HETATM   12  C12 UNL     1     -41.289   5.648  -1.694  1.00 20.00     0.030 C 
ENDROOT
TORSDOF 0
ENDMDL
