MODEL 1
REMARK VINA RESULT:      -4.5      0.000      0.000
REMARK  0 active torsions:
REMARK  status: ('A' for Active; 'I' for Inactive)
ROOT
HETATM    1  C1  UNL     1     -35.675   4.925   4.280  1.00 20.00     0.006 C 
HETATM    2  C2  UNL     1     -34.514   5.202   3.324  1.00 20.00     0.009 C 
HETATM    3  C3  UNL     1     -35.198   4.820   5.706  1.00 20.00    -0.005 A 
HETATM    4  C4  UNL     1     -33.740   4.732   6.037  1.00 20.00    -0.000 A 
HETATM    5  C5  UNL     1     -34.541   6.005   6.327  1.00 20.00    -0.000 A 
HETATM    6  C6  UNL     1     -33.357   6.037   5.410  1.00 20.00     0.003 A 
HETATM    7  C7  UNL     1     -33.529   6.247   3.901  1.00 20.00    -0.043 C 
HETATM    8  C8  UNL     1     -32.164   6.078   3.208  1.00 20.00     0.015 C 
HETATM    9  C9  UNL     1     -34.036   7.673   3.621  1.00 20.00     0.015 C 
ENDROOT
TORSDOF 0
ENDMDL
MODEL 2
REMARK VINA RESULT:      -4.4      8.622     10.313
REMARK  0 active torsions:
REMARK  status: ('A' for Active; 'I' for Inactive)
ROOT
HETATM    1  C1  UNL     1     -40.677   6.107  -0.163  1.00 20.00     0.006 C 
HETATM    2  C2  UNL     1     -40.717   4.760  -0.885  1.00 20.00     0.009 C 
HETATM    3  C3  UNL     1     -41.361   7.182  -0.968  1.00 20.00    -0.005 A 
HETATM    4  C4  UNL     1     -41.759   6.955  -2.394  1.00 20.00    -0.000 A 
HETATM    5  C5  UNL     1     -42.810   7.024  -1.282  1.00 20.00    -0.000 A 
HETATM    6  C6  UNL     1     -42.664   5.792  -2.122  1.00 20.00     0.003 A 
HETATM    7  C7  UNL     1     -42.097   4.495  -1.535  1.00 20.00    -0.043 C 
HETATM    8  C8  UNL     1     -41.923   3.461  -2.664  1.00 20.00     0.015 C 
HETATM    9  C9  UNL     1     -43.074   3.913  -0.498  1.00 20.00     0.015 C 
ENDROOT
TORSDOF 0
ENDMDL
MODEL 3
REMARK VINA RESULT:      -4.3     11.789     13.380
REMARK  0 active torsions:
REMARK  status: ('A' for Active; 'I' for Inactive)
ROOT
HETATM    1  C1  UNL     1     -34.796  13.250  -5.240  1.00 20.00     0.006 C 
HETATM    2  C2  UNL     1     -34.771  13.755  -3.796  1.00 20.00     0.009 C 
HETATM    3  C3  UNL     1     -35.118  14.362  -6.205  1.00 20.00    -0.005 A 
HETATM    4  C4  UNL     1     -35.608  15.694  -5.726  1.00 20.00    -0.000 A 
HETATM    5  C5  UNL     1     -34.192  15.527  -6.284  1.00 20.00    -0.000 A 
HETATM    6  C6  UNL     1     -34.411  16.009  -4.883  1.00 20.00     0.003 A 
HETATM    7  C7  UNL     1     -34.063  15.127  -3.679  1.00 20.00    -0.043 C 
HETATM    8  C8  UNL     1     -34.539  15.821  -2.388  1.00 20.00     0.015 C 
HETATM    9  C9  UNL     1     -32.538  14.936  -3.586  1.00 20.00     0.015 C 
ENDROOT
TORSDOF 0
ENDMDL
MODEL 4
REMARK VINA RESULT:      -4.3      0.721      2.310
REMARK  0 active torsions:
REMARK  status: ('A' for Active; 'I' for Inactive)
ROOT
HETATM    1  C1  UNL     1     -34.017   5.817   6.086  1.00 20.00     0.006 C 
HETATM    2  C2  UNL     1     -33.482   6.878   5.123  1.00 20.00     0.009 C 
HETATM    3  C3  UNL     1     -35.124   5.011   5.455  1.00 20.00    -0.005 A 
HETATM    4  C4  UNL     1     -35.752   5.428   4.161  1.00 20.00    -0.000 A 
HETATM    5  C5  UNL     1     -34.818   4.216   4.231  1.00 20.00    -0.000 A 
HETATM    6  C6  UNL     1     -34.492   5.384   3.352  1.00 20.00     0.003 A 
HETATM    7  C7  UNL     1     -33.330   6.326   3.685  1.00 20.00    -0.043 C 
HETATM    8  C8  UNL     1     -33.337   7.508   2.697  1.00 20.00     0.015 C 
HETATM    9  C9  UNL     1     -31.989   5.584   3.535  1.00 20.00     0.015 C 
ENDROOT
TORSDOF 0
ENDMDL
MODEL 5
REMARK VINA RESULT:      -4.2     11.616     13.294
REMARK  0 active torsions:
REMARK  status: ('A' for Active; 'I' for Inactive)
ROOT
HETATM    1  C1  UNL     1     -34.923  13.280  -4.558  1.00 20.00     0.006 C 
HETATM    2  C2  UNL     1     -34.855  14.115  -5.837  1.00 20.00     0.009 C 
HETATM    3  C3  UNL     1     -34.052  13.864  -3.474  1.00 20.00    -0.005 A 
HETATM    4  C4  UNL     1     -33.070  14.956  -3.766  1.00 20.00    -0.000 A 
HETATM    5  C5  UNL     1     -34.354  15.239  -2.982  1.00 20.00    -0.000 A 
HETATM    6  C6  UNL     1     -34.076  15.942  -4.274  1.00 20.00     0.003 A 
HETATM    7  C7  UNL     1     -34.890  15.633  -5.536  1.00 20.00    -0.043 C 
HETATM    8  C8  UNL     1     -34.278  16.390  -6.731  1.00 20.00     0.015 C 
HETATM    9  C9  UNL     1     -36.342  16.112  -5.358  1.00 20.00     0.015 C 
ENDROOT
TORSDOF 0
ENDMDL
MODEL 6
REMARK VINA RESULT:      -4.2     11.663     13.076
REMARK  0 active torsions:
REMARK  status: ('A' for Active; 'I' for Inactive)
ROOT
HETATM    1  C1  UNL     1     -33.452  16.848  -4.572  1.00 20.00     0.006 C 
HETATM    2  C2  UNL     1     -34.063  15.530  -5.051  1.00 20.00     0.009 C 
HETATM    3  C3  UNL     1     -34.098  17.320  -3.294  1.00 20.00    -0.005 A 
HETATM    4  C4  UNL     1     -35.348  16.684  -2.770  1.00 20.00    -0.000 A 
HETATM    5  C5  UNL     1     -33.999  16.456  -2.084  1.00 20.00    -0.000 A 
HETATM    6  C6  UNL     1     -34.780  15.304  -2.638  1.00 20.00     0.003 A 
HETATM    7  C7  UNL     1     -34.300  14.546  -3.880  1.00 20.00    -0.043 C 
HETATM    8  C8  UNL     1     -35.377  13.527  -4.299  1.00 20.00     0.015 C 
HETATM    9  C9  UNL     1     -33.007  13.773  -3.561  1.00 20.00     0.015 C 
ENDROOT
TORSDOF 0
ENDMDL
MODEL 7
REMARK VINA RESULT:      -4.2     11.547     12.841
REMARK  0 active torsions:
REMARK  status: ('A' for Active; 'I' for Inactive)
ROOT
HETATM    1  C1  UNL     1     -36.547  14.760  -3.726  1.00 20.00     0.006 C 
HETATM    2  C2  UNL     1     -36.042  16.201  -3.645  1.00 20.00     0.009 C 
HETATM    3  C3  UNL     1     -35.492  13.839  -4.285  1.00 20.00    -0.005 A 
HETATM    4  C4  UNL     1     -34.242  14.375  -4.914  1.00 20.00    -0.000 A 
HETATM    5  C5  UNL     1     -34.207  13.693  -3.543  1.00 20.00    -0.000 A 
HETATM    6  C6  UNL     1     -33.761  15.114  -3.703  1.00 20.00     0.003 A 
HETATM    7  C7  UNL     1     -34.584  16.273  -3.129  1.00 20.00    -0.043 C 
HETATM    8  C8  UNL     1     -33.964  17.608  -3.582  1.00 20.00     0.015 C 
HETATM    9  C9  UNL     1     -34.558  16.229  -1.591  1.00 20.00     0.015 C 
ENDROOT
TORSDOF 0
ENDMDL
MODEL 8
REMARK VINA RESULT:      -4.2     11.833     13.046
REMARK  0 active torsions:
REMARK  status: ('A' for Active; 'I' for Inactive)
ROOT
HETATM    1  C1  UNL     1     -34.413  15.452  -5.827  1.00 20.00     0.006 C 
HETATM    2  C2  UNL     1     -33.993  16.386  -4.690  1.00 20.00     0.009 C 
HETATM    3  C3  UNL     1     -34.421  14.012  -5.381  1.00 20.00    -0.005 A 
HETATM    4  C4  UNL     1     -33.821  13.598  -4.072  1.00 20.00    -0.000 A 
HETATM    5  C5  UNL     1     -35.339  13.614  -4.276  1.00 20.00    -0.000 A 
HETATM    6  C6  UNL     1     -34.700  14.458  -3.217  1.00 20.00     0.003 A 
HETATM    7  C7  UNL     1     -34.646  15.984  -3.345  1.00 20.00    -0.043 C 
HETATM    8  C8  UNL     1     -33.800  16.560  -2.193  1.00 20.00     0.015 C 
HETATM    9  C9  UNL     1     -36.064  16.574  -3.240  1.00 20.00     0.015 C 
ENDROOT
TORSDOF 0
ENDMDL
MODEL 9
REMARK VINA RESULT:      -4.2     11.958     13.530
REMARK  0 active torsions:
REMARK  status: ('A' for Active; 'I' for Inactive)
ROOT
HETATM    1  C1  UNL     1     -33.220  16.283  -4.889  1.00 20.00     0.006 C 
HETATM    2  C2  UNL     1     -34.646  16.443  -5.420  1.00 20.00     0.009 C 
HETATM    3  C3  UNL     1     -33.178  15.362  -3.696  1.00 20.00    -0.005 A 
HETATM    4  C4  UNL     1     -34.432  14.919  -3.008  1.00 20.00    -0.000 A 
HETATM    5  C5  UNL     1     -33.620  13.949  -3.871  1.00 20.00    -0.000 A 
HETATM    6  C6  UNL     1     -35.046  14.262  -4.206  1.00 20.00     0.003 A 
HETATM    7  C7  UNL     1     -35.406  15.094  -5.442  1.00 20.00    -0.043 C 
HETATM    8  C8  UNL     1     -36.920  15.379  -5.437  1.00 20.00     0.015 C 
HETATM    9  C9  UNL     1     -35.069  14.310  -6.723  1.00 20.00     0.015 C 
ENDROOT
TORSDOF 0
ENDMDL
