MODEL 1
REMARK VINA RESULT:      -6.6      0.000      0.000
REMARK  1 active torsions:
REMARK  status: ('A' for Active; 'I' for Inactive)
REMARK    1  A    between atoms: C2_2  and  C10_10 
ROOT
HETATM    1  C1  UNL     1     -33.898   5.365   2.826  1.00 20.00    -0.018 A 
HETATM    2  C2  UNL     1     -33.236   6.407   3.367  1.00 20.00    -0.075 A 
HETATM    3  C3  UNL     1     -34.916   5.102   6.215  1.00 20.00     0.001 C 
HETATM    4  C4  UNL     1     -35.057   4.324   4.912  1.00 20.00     0.009 C 
HETATM    5  C5  UNL     1     -33.887   6.174   5.882  1.00 20.00     0.010 C 
HETATM    6  C6  UNL     1     -35.022   5.411   3.839  1.00 20.00     0.016 A 
HETATM    7  C7  UNL     1     -34.266   6.609   4.467  1.00 20.00     0.022 A 
ENDROOT
BRANCH   2   8
HETATM    8  C10 UNL     1     -31.923   7.130   3.015  1.00 20.00     0.006 C 
HETATM    9  C8  UNL     1     -32.205   8.159   1.944  1.00 20.00     0.014 C 
HETATM   10  C9  UNL     1     -31.338   7.744   4.267  1.00 20.00     0.014 C 
ENDBRANCH   2   8
TORSDOF 1
ENDMDL
MODEL 2
REMARK VINA RESULT:      -4.7     11.578     12.835
REMARK  1 active torsions:
REMARK  status: ('A' for Active; 'I' for Inactive)
REMARK    1  A    between atoms: C2_2  and  C10_10 
ROOT
HETATM    1  C1  UNL     1     -35.019  15.187  -2.852  1.00 20.00    -0.018 A 
HETATM    2  C2  UNL     1     -34.008  16.052  -2.639  1.00 20.00    -0.075 A 
HETATM    3  C3  UNL     1     -33.956  15.789  -6.183  1.00 20.00     0.001 C 
HETATM    4  C4  UNL     1     -35.074  15.057  -5.452  1.00 20.00     0.009 C 
HETATM    5  C5  UNL     1     -33.274  16.591  -5.082  1.00 20.00     0.010 C 
HETATM    6  C6  UNL     1     -34.426  14.638  -4.132  1.00 20.00     0.016 A 
HETATM    7  C7  UNL     1     -33.261  15.631  -3.894  1.00 20.00     0.022 A 
ENDROOT
BRANCH   2   8
HETATM    8  C10 UNL     1     -33.710  17.088  -1.539  1.00 20.00     0.006 C 
HETATM    9  C8  UNL     1     -33.768  18.472  -2.145  1.00 20.00     0.014 C 
HETATM   10  C9  UNL     1     -34.694  16.912  -0.405  1.00 20.00     0.014 C 
ENDBRANCH   2   8
TORSDOF 1
ENDMDL
MODEL 3
REMARK VINA RESULT:      -4.6     11.243     12.241
REMARK  1 active torsions:
REMARK  status: ('A' for Active; 'I' for Inactive)
REMARK    1  A    between atoms: C2_2  and  C10_10 
ROOT
HETATM    1  C1  UNL     1     -36.128  16.001  -3.007  1.00 20.00    -0.018 A 
HETATM    2  C2  UNL     1     -34.892  15.878  -2.483  1.00 20.00    -0.075 A 
HETATM    3  C3  UNL     1     -34.569  13.976  -5.469  1.00 20.00     0.001 C 
HETATM    4  C4  UNL     1     -35.890  14.703  -5.252  1.00 20.00     0.009 C 
HETATM    5  C5  UNL     1     -33.693  14.477  -4.327  1.00 20.00     0.010 C 
HETATM    6  C6  UNL     1     -36.071  14.674  -3.734  1.00 20.00     0.016 A 
HETATM    7  C7  UNL     1     -34.649  14.527  -3.136  1.00 20.00     0.022 A 
ENDROOT
BRANCH   2   8
HETATM    8  C10 UNL     1     -34.033  16.769  -1.567  1.00 20.00     0.006 C 
HETATM    9  C8  UNL     1     -33.739  18.067  -2.284  1.00 20.00     0.014 C 
HETATM   10  C9  UNL     1     -34.757  16.984  -0.256  1.00 20.00     0.014 C 
ENDBRANCH   2   8
TORSDOF 1
ENDMDL
MODEL 4
REMARK VINA RESULT:      -4.6      0.881      3.842
REMARK  1 active torsions:
REMARK  status: ('A' for Active; 'I' for Inactive)
REMARK    1  A    between atoms: C2_2  and  C10_10 
ROOT
HETATM    1  C1  UNL     1     -34.213   5.676   2.817  1.00 20.00    -0.018 A 
HETATM    2  C2  UNL     1     -33.960   5.700   4.141  1.00 20.00    -0.075 A 
HETATM    3  C3  UNL     1     -31.550   8.017   2.935  1.00 20.00     0.001 C 
HETATM    4  C4  UNL     1     -32.529   7.446   1.917  1.00 20.00     0.009 C 
HETATM    5  C5  UNL     1     -32.072   7.494   4.267  1.00 20.00     0.010 C 
HETATM    6  C6  UNL     1     -32.793   6.030   2.428  1.00 20.00     0.016 A 
HETATM    7  C7  UNL     1     -32.496   6.061   3.948  1.00 20.00     0.022 A 
ENDROOT
BRANCH   2   8
HETATM    8  C10 UNL     1     -34.825   5.459   5.392  1.00 20.00     0.006 C 
HETATM    9  C8  UNL     1     -34.903   3.972   5.651  1.00 20.00     0.014 C 
HETATM   10  C9  UNL     1     -34.239   6.219   6.560  1.00 20.00     0.014 C 
ENDBRANCH   2   8
TORSDOF 1
ENDMDL
MODEL 5
REMARK VINA RESULT:      -4.4     11.159     12.266
REMARK  1 active torsions:
REMARK  status: ('A' for Active; 'I' for Inactive)
REMARK    1  A    between atoms: C2_2  and  C10_10 
ROOT
HETATM    1  C1  UNL     1     -33.386  15.864  -2.796  1.00 20.00    -0.018 A 
HETATM    2  C2  UNL     1     -34.657  16.294  -2.678  1.00 20.00    -0.075 A 
HETATM    3  C3  UNL     1     -35.116  13.277  -4.500  1.00 20.00     0.001 C 
HETATM    4  C4  UNL     1     -33.700  13.597  -4.037  1.00 20.00     0.009 C 
HETATM    5  C5  UNL     1     -35.962  14.355  -3.835  1.00 20.00     0.010 C 
HETATM    6  C6  UNL     1     -33.641  15.123  -4.092  1.00 20.00     0.016 A 
HETATM    7  C7  UNL     1     -35.104  15.613  -3.962  1.00 20.00     0.022 A 
ENDROOT
BRANCH   2   8
HETATM    8  C10 UNL     1     -35.396  17.153  -1.635  1.00 20.00     0.006 C 
HETATM    9  C8  UNL     1     -34.695  17.013  -0.303  1.00 20.00     0.014 C 
HETATM   10  C9  UNL     1     -35.448  18.587  -2.113  1.00 20.00     0.014 C 
ENDBRANCH   2   8
TORSDOF 1
ENDMDL
MODEL 6
REMARK VINA RESULT:      -4.4     11.706     12.940
REMARK  1 active torsions:
REMARK  status: ('A' for Active; 'I' for Inactive)
REMARK    1  A    between atoms: C2_2  and  C10_10 
ROOT
HETATM    1  C1  UNL     1     -34.591  17.745   0.887  1.00 20.00    -0.018 A 
HETATM    2  C2  UNL     1     -33.838  17.957  -0.210  1.00 20.00    -0.075 A 
HETATM    3  C3  UNL     1     -31.725  19.250   2.340  1.00 20.00     0.001 C 
HETATM    4  C4  UNL     1     -33.022  18.588   2.787  1.00 20.00     0.009 C 
HETATM    5  C5  UNL     1     -31.678  18.971   0.843  1.00 20.00     0.010 C 
HETATM    6  C6  UNL     1     -33.998  18.908   1.654  1.00 20.00     0.016 A 
HETATM    7  C7  UNL     1     -33.127  19.156   0.397  1.00 20.00     0.022 A 
ENDROOT
BRANCH   2   8
HETATM    8  C10 UNL     1     -33.725  17.252  -1.574  1.00 20.00     0.006 C 
HETATM    9  C8  UNL     1     -34.765  16.157  -1.644  1.00 20.00     0.014 C 
HETATM   10  C9  UNL     1     -33.884  18.271  -2.679  1.00 20.00     0.014 C 
ENDBRANCH   2   8
TORSDOF 1
ENDMDL
MODEL 7
REMARK VINA RESULT:      -4.4     11.597     12.882
REMARK  1 active torsions:
REMARK  status: ('A' for Active; 'I' for Inactive)
REMARK    1  A    between atoms: C2_2  and  C10_10 
ROOT
HETATM    1  C1  UNL     1     -33.323  16.019  -4.850  1.00 20.00    -0.018 A 
HETATM    2  C2  UNL     1     -34.342  15.145  -4.970  1.00 20.00    -0.075 A 
HETATM    3  C3  UNL     1     -34.772  16.254  -1.620  1.00 20.00     0.001 C 
HETATM    4  C4  UNL     1     -33.677  16.928  -2.436  1.00 20.00     0.009 C 
HETATM    5  C5  UNL     1     -35.487  15.375  -2.638  1.00 20.00     0.010 C 
HETATM    6  C6  UNL     1     -33.178  15.815  -3.357  1.00 20.00     0.016 A 
HETATM    7  C7  UNL     1     -34.349  14.810  -3.487  1.00 20.00     0.022 A 
ENDROOT
BRANCH   2   8
HETATM    8  C10 UNL     1     -35.192  14.660  -6.158  1.00 20.00     0.006 C 
HETATM    9  C8  UNL     1     -36.548  15.325  -6.092  1.00 20.00     0.014 C 
HETATM   10  C9  UNL     1     -34.464  14.959  -7.450  1.00 20.00     0.014 C 
ENDBRANCH   2   8
TORSDOF 1
ENDMDL
MODEL 8
REMARK VINA RESULT:      -4.4      9.160     10.886
REMARK  1 active torsions:
REMARK  status: ('A' for Active; 'I' for Inactive)
REMARK    1  A    between atoms: C2_2  and  C10_10 
ROOT
HETATM    1  C1  UNL     1     -40.753   4.425  -1.226  1.00 20.00    -0.018 A 
HETATM    2  C2  UNL     1     -41.948   4.162  -1.790  1.00 20.00    -0.075 A 
HETATM    3  C3  UNL     1     -42.229   7.651  -1.172  1.00 20.00     0.001 C 
HETATM    4  C4  UNL     1     -40.888   6.999  -0.858  1.00 20.00     0.009 C 
HETATM    5  C5  UNL     1     -43.015   6.540  -1.856  1.00 20.00     0.010 C 
HETATM    6  C6  UNL     1     -41.271   5.589  -0.408  1.00 20.00     0.016 A 
HETATM    7  C7  UNL     1     -42.648   5.293  -1.054  1.00 20.00     0.022 A 
ENDROOT
BRANCH   2   8
HETATM    8  C10 UNL     1     -42.436   3.112  -2.806  1.00 20.00     0.006 C 
HETATM    9  C8  UNL     1     -41.236   2.393  -3.379  1.00 20.00     0.014 C 
HETATM   10  C9  UNL     1     -43.404   2.170  -2.126  1.00 20.00     0.014 C 
ENDBRANCH   2   8
TORSDOF 1
ENDMDL
MODEL 9
REMARK VINA RESULT:      -4.4     11.340     12.451
REMARK  1 active torsions:
REMARK  status: ('A' for Active; 'I' for Inactive)
REMARK    1  A    between atoms: C2_2  and  C10_10 
ROOT
HETATM    1  C1  UNL     1     -35.023  16.134  -1.590  1.00 20.00    -0.018 A 
HETATM    2  C2  UNL     1     -33.966  16.519  -2.331  1.00 20.00    -0.075 A 
HETATM    3  C3  UNL     1     -33.525  18.502   0.586  1.00 20.00     0.001 C 
HETATM    4  C4  UNL     1     -34.668  17.495   0.601  1.00 20.00     0.009 C 
HETATM    5  C5  UNL     1     -32.788  18.188  -0.710  1.00 20.00     0.010 C 
HETATM    6  C6  UNL     1     -35.129  17.454  -0.856  1.00 20.00     0.016 A 
HETATM    7  C7  UNL     1     -33.913  17.903  -1.703  1.00 20.00     0.022 A 
ENDROOT
BRANCH   2   8
HETATM    8  C10 UNL     1     -33.116  15.826  -3.412  1.00 20.00     0.006 C 
HETATM    9  C8  UNL     1     -33.552  14.383  -3.524  1.00 20.00     0.014 C 
HETATM   10  C9  UNL     1     -33.258  16.574  -4.718  1.00 20.00     0.014 C 
ENDBRANCH   2   8
TORSDOF 1
ENDMDL
