MODEL 1
REMARK VINA RESULT:      -4.3      0.000      0.000
REMARK  0 active torsions:
REMARK  status: ('A' for Active; 'I' for Inactive)
ROOT
HETATM    1  C1  UNL     1     -34.558  13.147  -4.915  1.00 20.00     0.147 A 
HETATM    2  C2  UNL     1     -33.933  14.556  -3.436  1.00 20.00     0.214 A 
HETATM    3  C3  UNL     1     -34.473  14.352  -5.569  1.00 20.00     0.057 A 
HETATM    4  C4  UNL     1     -34.686  14.837  -6.886  1.00 20.00     0.033 A 
HETATM    5  C5  UNL     1     -34.489  16.143  -7.149  1.00 20.00     0.023 A 
HETATM    6  C6  UNL     1     -33.861  16.613  -4.862  1.00 20.00     0.117 A 
HETATM    7  C7  UNL     1     -34.061  17.078  -6.109  1.00 20.00     0.027 A 
HETATM    8  N8  UNL     1     -34.221  13.281  -3.591  1.00 20.00    -0.253 NA
HETATM    9  N9  UNL     1     -34.067  15.261  -4.604  1.00 20.00    -0.314 N 
HETATM   10 BR10 UNL     1     -33.817  18.865  -6.569  1.00 20.00    -0.050 Br
ENDROOT
TORSDOF 0
ENDMDL
MODEL 2
REMARK VINA RESULT:      -4.2      0.952      2.049
REMARK  0 active torsions:
REMARK  status: ('A' for Active; 'I' for Inactive)
ROOT
HETATM    1  C1  UNL     1     -34.284  13.632  -3.592  1.00 20.00     0.147 A 
HETATM    2  C2  UNL     1     -34.865  13.674  -5.647  1.00 20.00     0.214 A 
HETATM    3  C3  UNL     1     -34.074  14.924  -4.006  1.00 20.00     0.057 A 
HETATM    4  C4  UNL     1     -33.601  16.134  -3.433  1.00 20.00     0.033 A 
HETATM    5  C5  UNL     1     -33.538  17.244  -4.194  1.00 20.00     0.023 A 
HETATM    6  C6  UNL     1     -34.392  16.085  -6.136  1.00 20.00     0.117 A 
HETATM    7  C7  UNL     1     -33.944  17.234  -5.598  1.00 20.00     0.027 A 
HETATM    8  N8  UNL     1     -34.775  12.861  -4.616  1.00 20.00    -0.253 NA
HETATM    9  N9  UNL     1     -34.453  14.945  -5.339  1.00 20.00    -0.314 N 
HETATM   10 BR10 UNL     1     -33.819  18.818  -6.569  1.00 20.00    -0.050 Br
ENDROOT
TORSDOF 0
ENDMDL
MODEL 3
REMARK VINA RESULT:      -4.2      2.894      3.421
REMARK  0 active torsions:
REMARK  status: ('A' for Active; 'I' for Inactive)
ROOT
HETATM    1  C1  UNL     1     -33.618  13.668  -3.898  1.00 20.00     0.147 A 
HETATM    2  C2  UNL     1     -35.707  13.589  -4.337  1.00 20.00     0.214 A 
HETATM    3  C3  UNL     1     -34.147  14.822  -3.375  1.00 20.00     0.057 A 
HETATM    4  C4  UNL     1     -33.668  15.958  -2.670  1.00 20.00     0.033 A 
HETATM    5  C5  UNL     1     -34.534  16.926  -2.312  1.00 20.00     0.023 A 
HETATM    6  C6  UNL     1     -36.406  15.758  -3.299  1.00 20.00     0.117 A 
HETATM    7  C7  UNL     1     -35.958  16.837  -2.631  1.00 20.00     0.027 A 
HETATM    8  N8  UNL     1     -34.593  12.906  -4.494  1.00 20.00    -0.253 NA
HETATM    9  N9  UNL     1     -35.502  14.765  -3.663  1.00 20.00    -0.314 N 
HETATM   10 BR10 UNL     1     -37.076  18.226  -2.096  1.00 20.00    -0.050 Br
ENDROOT
TORSDOF 0
ENDMDL
MODEL 4
REMARK VINA RESULT:      -4.1      2.831      3.149
REMARK  0 active torsions:
REMARK  status: ('A' for Active; 'I' for Inactive)
ROOT
HETATM    1  C1  UNL     1     -35.725  13.546  -4.395  1.00 20.00     0.147 A 
HETATM    2  C2  UNL     1     -33.635  13.639  -3.966  1.00 20.00     0.214 A 
HETATM    3  C3  UNL     1     -35.545  14.714  -3.694  1.00 20.00     0.057 A 
HETATM    4  C4  UNL     1     -36.358  15.781  -3.229  1.00 20.00     0.033 A 
HETATM    5  C5  UNL     1     -35.790  16.795  -2.547  1.00 20.00     0.023 A 
HETATM    6  C6  UNL     1     -33.589  15.809  -2.715  1.00 20.00     0.117 A 
HETATM    7  C7  UNL     1     -34.355  16.823  -2.272  1.00 20.00     0.027 A 
HETATM    8  N8  UNL     1     -34.533  12.884  -4.560  1.00 20.00    -0.253 NA
HETATM    9  N9  UNL     1     -34.188  14.768  -3.419  1.00 20.00    -0.314 N 
HETATM   10 BR10 UNL     1     -33.662  18.265  -1.320  1.00 20.00    -0.050 Br
ENDROOT
TORSDOF 0
ENDMDL
MODEL 5
REMARK VINA RESULT:      -3.9      2.299      3.458
REMARK  0 active torsions:
REMARK  status: ('A' for Active; 'I' for Inactive)
ROOT
HETATM    1  C1  UNL     1     -34.496  14.832  -7.029  1.00 20.00     0.147 A 
HETATM    2  C2  UNL     1     -34.765  16.906  -6.594  1.00 20.00     0.214 A 
HETATM    3  C3  UNL     1     -34.474  14.925  -5.659  1.00 20.00     0.057 A 
HETATM    4  C4  UNL     1     -34.327  14.038  -4.560  1.00 20.00     0.033 A 
HETATM    5  C5  UNL     1     -34.363  14.530  -3.306  1.00 20.00     0.023 A 
HETATM    6  C6  UNL     1     -34.688  16.792  -4.093  1.00 20.00     0.117 A 
HETATM    7  C7  UNL     1     -34.549  15.956  -3.048  1.00 20.00     0.027 A 
HETATM    8  N8  UNL     1     -34.677  16.066  -7.604  1.00 20.00    -0.253 NA
HETATM    9  N9  UNL     1     -34.650  16.272  -5.384  1.00 20.00    -0.314 N 
HETATM   10 BR10 UNL     1     -34.583  16.541  -1.281  1.00 20.00    -0.050 Br
ENDROOT
TORSDOF 0
ENDMDL
MODEL 6
REMARK VINA RESULT:      -3.9      2.341      3.273
REMARK  0 active torsions:
REMARK  status: ('A' for Active; 'I' for Inactive)
ROOT
HETATM    1  C1  UNL     1     -34.310  15.240  -6.716  1.00 20.00     0.147 A 
HETATM    2  C2  UNL     1     -35.392  13.958  -5.394  1.00 20.00     0.214 A 
HETATM    3  C3  UNL     1     -34.205  15.819  -5.474  1.00 20.00     0.057 A 
HETATM    4  C4  UNL     1     -33.595  16.973  -4.915  1.00 20.00     0.033 A 
HETATM    5  C5  UNL     1     -33.720  17.212  -3.595  1.00 20.00     0.023 A 
HETATM    6  C6  UNL     1     -35.045  15.218  -3.257  1.00 20.00     0.117 A 
HETATM    7  C7  UNL     1     -34.470  16.310  -2.722  1.00 20.00     0.027 A 
HETATM    8  N8  UNL     1     -35.050  14.084  -6.658  1.00 20.00    -0.253 NA
HETATM    9  N9  UNL     1     -34.908  14.983  -4.622  1.00 20.00    -0.314 N 
HETATM   10 BR10 UNL     1     -34.587  16.725  -0.911  1.00 20.00    -0.050 Br
ENDROOT
TORSDOF 0
ENDMDL
MODEL 7
REMARK VINA RESULT:      -3.9     12.419     13.591
REMARK  0 active torsions:
REMARK  status: ('A' for Active; 'I' for Inactive)
ROOT
HETATM    1  C1  UNL     1     -35.241   4.497   5.508  1.00 20.00     0.147 A 
HETATM    2  C2  UNL     1     -34.177   6.089   6.453  1.00 20.00     0.214 A 
HETATM    3  C3  UNL     1     -34.567   5.138   4.498  1.00 20.00     0.057 A 
HETATM    4  C4  UNL     1     -34.427   4.998   3.092  1.00 20.00     0.033 A 
HETATM    5  C5  UNL     1     -33.640   5.861   2.418  1.00 20.00     0.023 A 
HETATM    6  C6  UNL     1     -33.064   7.067   4.433  1.00 20.00     0.117 A 
HETATM    7  C7  UNL     1     -32.927   6.940   3.100  1.00 20.00     0.027 A 
HETATM    8  N8  UNL     1     -34.994   5.093   6.720  1.00 20.00    -0.253 NA
HETATM    9  N9  UNL     1     -33.879   6.169   5.117  1.00 20.00    -0.314 N 
HETATM   10 BR10 UNL     1     -31.866   8.082   2.084  1.00 20.00    -0.050 Br
ENDROOT
TORSDOF 0
ENDMDL
MODEL 8
REMARK VINA RESULT:      -3.8      1.393      2.113
REMARK  0 active torsions:
REMARK  status: ('A' for Active; 'I' for Inactive)
ROOT
HETATM    1  C1  UNL     1     -33.079  14.500  -3.727  1.00 20.00     0.147 A 
HETATM    2  C2  UNL     1     -34.665  13.357  -4.588  1.00 20.00     0.214 A 
HETATM    3  C3  UNL     1     -33.680  15.334  -4.638  1.00 20.00     0.057 A 
HETATM    4  C4  UNL     1     -33.505  16.665  -5.099  1.00 20.00     0.033 A 
HETATM    5  C5  UNL     1     -34.333  17.149  -6.046  1.00 20.00     0.023 A 
HETATM    6  C6  UNL     1     -35.568  15.075  -6.171  1.00 20.00     0.117 A 
HETATM    7  C7  UNL     1     -35.408  16.336  -6.613  1.00 20.00     0.027 A 
HETATM    8  N8  UNL     1     -33.697  13.273  -3.701  1.00 20.00    -0.253 NA
HETATM    9  N9  UNL     1     -34.708  14.587  -5.192  1.00 20.00    -0.314 N 
HETATM   10 BR10 UNL     1     -36.498  17.092  -7.918  1.00 20.00    -0.050 Br
ENDROOT
TORSDOF 0
ENDMDL
MODEL 9
REMARK VINA RESULT:      -3.8     12.623     13.712
REMARK  0 active torsions:
REMARK  status: ('A' for Active; 'I' for Inactive)
ROOT
HETATM    1  C1  UNL     1     -41.921   7.559  -1.057  1.00 20.00     0.147 A 
HETATM    2  C2  UNL     1     -43.413   7.104  -2.516  1.00 20.00     0.214 A 
HETATM    3  C3  UNL     1     -41.714   6.244  -1.396  1.00 20.00     0.057 A 
HETATM    4  C4  UNL     1     -40.815   5.208  -1.032  1.00 20.00     0.033 A 
HETATM    5  C5  UNL     1     -40.934   3.997  -1.611  1.00 20.00     0.023 A 
HETATM    6  C6  UNL     1     -42.818   4.709  -2.947  1.00 20.00     0.117 A 
HETATM    7  C7  UNL     1     -41.969   3.722  -2.606  1.00 20.00     0.027 A 
HETATM    8  N8  UNL     1     -42.978   8.087  -1.757  1.00 20.00    -0.253 NA
HETATM    9  N9  UNL     1     -42.684   5.956  -2.342  1.00 20.00    -0.314 N 
HETATM   10 BR10 UNL     1     -42.056   2.018  -3.349  1.00 20.00    -0.050 Br
ENDROOT
TORSDOF 0
ENDMDL
