MODEL 1
REMARK VINA RESULT:      -4.8      0.000      0.000
REMARK  1 active torsions:
REMARK  status: ('A' for Active; 'I' for Inactive)
REMARK    1  A    between atoms: C1_1  and  C4_4 
ROOT
HETATM    1  C1  UNL     1     -33.718   6.178   4.982  1.00 20.00     0.102 C 
HETATM    2  C2  UNL     1     -33.455   6.161   3.662  1.00 20.00    -0.015 C 
HETATM    3  C3  UNL     1     -34.062   5.210   2.671  1.00 20.00     0.055 C 
HETATM    4  I8  UNL     1     -32.100   7.547   2.873  1.00 20.00    -0.050 I 
ENDROOT
BRANCH   1   5
HETATM    5  C4  UNL     1     -34.652   5.262   5.694  1.00 20.00     0.408 C 
HETATM    6  F5  UNL     1     -35.790   5.041   4.991  1.00 20.00    -0.167 F 
HETATM    7  F6  UNL     1     -35.016   5.743   6.909  1.00 20.00    -0.167 F 
HETATM    8  F7  UNL     1     -34.086   4.046   5.911  1.00 20.00    -0.167 F 
ENDBRANCH   1   5
TORSDOF 1
ENDMDL
MODEL 2
REMARK VINA RESULT:      -4.8      0.016      1.340
REMARK  1 active torsions:
REMARK  status: ('A' for Active; 'I' for Inactive)
REMARK    1  A    between atoms: C1_1  and  C4_4 
ROOT
HETATM    1  C1  UNL     1     -33.716   6.170   4.982  1.00 20.00     0.102 C 
HETATM    2  C2  UNL     1     -33.461   6.162   3.661  1.00 20.00    -0.015 C 
HETATM    3  C3  UNL     1     -34.072   5.218   2.667  1.00 20.00     0.055 C 
HETATM    4  I8  UNL     1     -32.111   7.555   2.875  1.00 20.00    -0.050 I 
ENDROOT
BRANCH   1   5
HETATM    5  C4  UNL     1     -34.647   5.249   5.693  1.00 20.00     0.408 C 
HETATM    6  F5  UNL     1     -34.084   4.040   5.939  1.00 20.00    -0.167 F 
HETATM    7  F6  UNL     1     -35.786   5.027   4.991  1.00 20.00    -0.167 F 
HETATM    8  F7  UNL     1     -35.023   5.754   6.897  1.00 20.00    -0.167 F 
ENDBRANCH   1   5
TORSDOF 1
ENDMDL
MODEL 3
REMARK VINA RESULT:      -4.5      3.588      3.944
REMARK  1 active torsions:
REMARK  status: ('A' for Active; 'I' for Inactive)
REMARK    1  A    between atoms: C1_1  and  C4_4 
ROOT
HETATM    1  C1  UNL     1     -32.925   6.440   4.375  1.00 20.00     0.102 C 
HETATM    2  C2  UNL     1     -33.999   5.644   4.226  1.00 20.00    -0.015 C 
HETATM    3  C3  UNL     1     -34.668   5.328   2.920  1.00 20.00     0.055 C 
HETATM    4  I8  UNL     1     -34.848   4.749   5.918  1.00 20.00    -0.050 I 
ENDROOT
BRANCH   1   5
HETATM    5  C4  UNL     1     -32.209   7.148   3.277  1.00 20.00     0.408 C 
HETATM    6  F5  UNL     1     -32.991   8.073   2.667  1.00 20.00    -0.167 F 
HETATM    7  F6  UNL     1     -31.770   6.296   2.318  1.00 20.00    -0.167 F 
HETATM    8  F7  UNL     1     -31.117   7.809   3.741  1.00 20.00    -0.167 F 
ENDBRANCH   1   5
TORSDOF 1
ENDMDL
MODEL 4
REMARK VINA RESULT:      -4.0      8.925      9.785
REMARK  1 active torsions:
REMARK  status: ('A' for Active; 'I' for Inactive)
REMARK    1  A    between atoms: C1_1  and  C4_4 
ROOT
HETATM    1  C1  UNL     1     -41.412   6.750  -1.366  1.00 20.00     0.102 C 
HETATM    2  C2  UNL     1     -42.192   6.440  -2.417  1.00 20.00    -0.015 C 
HETATM    3  C3  UNL     1     -42.693   5.063  -2.748  1.00 20.00     0.055 C 
HETATM    4  I8  UNL     1     -42.786   7.958  -3.729  1.00 20.00    -0.050 I 
ENDROOT
BRANCH   1   5
HETATM    5  C4  UNL     1     -40.906   5.789  -0.346  1.00 20.00     0.408 C 
HETATM    6  F5  UNL     1     -40.180   4.786  -0.900  1.00 20.00    -0.167 F 
HETATM    7  F6  UNL     1     -41.910   5.216   0.363  1.00 20.00    -0.167 F 
HETATM    8  F7  UNL     1     -40.095   6.403   0.555  1.00 20.00    -0.167 F 
ENDBRANCH   1   5
TORSDOF 1
ENDMDL
MODEL 5
REMARK VINA RESULT:      -4.0      1.080      1.732
REMARK  1 active torsions:
REMARK  status: ('A' for Active; 'I' for Inactive)
REMARK    1  A    between atoms: C1_1  and  C4_4 
ROOT
HETATM    1  C1  UNL     1     -33.982   5.189   4.512  1.00 20.00     0.102 C 
HETATM    2  C2  UNL     1     -33.369   6.365   4.740  1.00 20.00    -0.015 C 
HETATM    3  C3  UNL     1     -33.338   7.085   6.057  1.00 20.00     0.055 C 
HETATM    4  I8  UNL     1     -32.364   7.313   3.168  1.00 20.00    -0.050 I 
ENDROOT
BRANCH   1   5
HETATM    5  C4  UNL     1     -34.737   4.393   5.520  1.00 20.00     0.408 C 
HETATM    6  F5  UNL     1     -35.344   3.312   4.971  1.00 20.00    -0.167 F 
HETATM    7  F6  UNL     1     -35.697   5.124   6.137  1.00 20.00    -0.167 F 
HETATM    8  F7  UNL     1     -33.917   3.924   6.496  1.00 20.00    -0.167 F 
ENDBRANCH   1   5
TORSDOF 1
ENDMDL
MODEL 6
REMARK VINA RESULT:      -3.9     12.079     12.608
REMARK  1 active torsions:
REMARK  status: ('A' for Active; 'I' for Inactive)
REMARK    1  A    between atoms: C1_1  and  C4_4 
ROOT
HETATM    1  C1  UNL     1     -34.179  14.719  -3.237  1.00 20.00     0.102 C 
HETATM    2  C2  UNL     1     -35.088  15.622  -2.825  1.00 20.00    -0.015 C 
HETATM    3  C3  UNL     1     -36.464  15.789  -3.400  1.00 20.00     0.055 C 
HETATM    4  I8  UNL     1     -34.596  16.924  -1.261  1.00 20.00    -0.050 I 
ENDROOT
BRANCH   1   5
HETATM    5  C4  UNL     1     -34.373  13.728  -4.332  1.00 20.00     0.408 C 
HETATM    6  F5  UNL     1     -34.507  14.322  -5.544  1.00 20.00    -0.167 F 
HETATM    7  F6  UNL     1     -35.472  12.958  -4.138  1.00 20.00    -0.167 F 
HETATM    8  F7  UNL     1     -33.316  12.881  -4.428  1.00 20.00    -0.167 F 
ENDBRANCH   1   5
TORSDOF 1
ENDMDL
MODEL 7
REMARK VINA RESULT:      -3.8     12.082     12.633
REMARK  1 active torsions:
REMARK  status: ('A' for Active; 'I' for Inactive)
REMARK    1  A    between atoms: C1_1  and  C4_4 
ROOT
HETATM    1  C1  UNL     1     -34.179  14.702  -3.261  1.00 20.00     0.102 C 
HETATM    2  C2  UNL     1     -35.091  15.593  -2.834  1.00 20.00    -0.015 C 
HETATM    3  C3  UNL     1     -36.483  15.736  -3.378  1.00 20.00     0.055 C 
HETATM    4  I8  UNL     1     -34.584  16.912  -1.289  1.00 20.00    -0.050 I 
ENDROOT
BRANCH   1   5
HETATM    5  C4  UNL     1     -34.383  13.702  -4.346  1.00 20.00     0.408 C 
HETATM    6  F5  UNL     1     -35.496  12.953  -4.151  1.00 20.00    -0.167 F 
HETATM    7  F6  UNL     1     -33.337  12.846  -4.458  1.00 20.00    -0.167 F 
HETATM    8  F7  UNL     1     -34.526  14.303  -5.555  1.00 20.00    -0.167 F 
ENDBRANCH   1   5
TORSDOF 1
ENDMDL
MODEL 8
REMARK VINA RESULT:      -3.8     12.280     12.960
REMARK  1 active torsions:
REMARK  status: ('A' for Active; 'I' for Inactive)
REMARK    1  A    between atoms: C1_1  and  C4_4 
ROOT
HETATM    1  C1  UNL     1     -33.892  15.074  -4.746  1.00 20.00     0.102 C 
HETATM    2  C2  UNL     1     -33.828  16.226  -4.055  1.00 20.00    -0.015 C 
HETATM    3  C3  UNL     1     -33.732  16.336  -2.561  1.00 20.00     0.055 C 
HETATM    4  I8  UNL     1     -33.861  18.042  -5.095  1.00 20.00    -0.050 I 
ENDROOT
BRANCH   1   5
HETATM    5  C4  UNL     1     -33.880  13.705  -4.156  1.00 20.00     0.408 C 
HETATM    6  F5  UNL     1     -34.805  13.560  -3.176  1.00 20.00    -0.167 F 
HETATM    7  F6  UNL     1     -32.675  13.387  -3.623  1.00 20.00    -0.167 F 
HETATM    8  F7  UNL     1     -34.153  12.759  -5.092  1.00 20.00    -0.167 F 
ENDBRANCH   1   5
TORSDOF 1
ENDMDL
MODEL 9
REMARK VINA RESULT:      -3.8     12.004     12.573
REMARK  1 active torsions:
REMARK  status: ('A' for Active; 'I' for Inactive)
REMARK    1  A    between atoms: C1_1  and  C4_4 
ROOT
HETATM    1  C1  UNL     1     -34.018  14.810  -3.060  1.00 20.00     0.102 C 
HETATM    2  C2  UNL     1     -34.992  15.667  -2.703  1.00 20.00    -0.015 C 
HETATM    3  C3  UNL     1     -36.355  15.738  -3.327  1.00 20.00     0.055 C 
HETATM    4  I8  UNL     1     -34.631  17.036  -1.161  1.00 20.00    -0.050 I 
ENDROOT
BRANCH   1   5
HETATM    5  C4  UNL     1     -34.117  13.782  -4.133  1.00 20.00     0.408 C 
HETATM    6  F5  UNL     1     -33.042  12.954  -4.153  1.00 20.00    -0.167 F 
HETATM    7  F6  UNL     1     -34.221  14.335  -5.367  1.00 20.00    -0.167 F 
HETATM    8  F7  UNL     1     -35.211  12.993  -3.966  1.00 20.00    -0.167 F 
ENDBRANCH   1   5
TORSDOF 1
ENDMDL
