MODEL 1
REMARK VINA RESULT:      -4.1      0.000      0.000
REMARK  1 active torsions:
REMARK  status: ('A' for Active; 'I' for Inactive)
REMARK    1  A    between atoms: C2_2  and  C4_4 
ROOT
HETATM    1  C1  UNL     1     -35.227   4.632   4.699  1.00 20.00    -0.034 C 
HETATM    2  C2  UNL     1     -34.749   5.417   3.722  1.00 20.00    -0.016 C 
HETATM    3  C3  UNL     1     -34.813   4.738   6.129  1.00 20.00     0.036 C 
ENDROOT
BRANCH   2   4
HETATM    4  C4  UNL     1     -33.741   6.496   3.948  1.00 20.00     0.141 C 
HETATM    5 CL5  UNL     1     -32.226   6.094   3.111  1.00 20.00    -0.126 Cl
ENDBRANCH   2   4
TORSDOF 1
ENDMDL
MODEL 2
REMARK VINA RESULT:      -4.1      1.093      1.659
REMARK  1 active torsions:
REMARK  status: ('A' for Active; 'I' for Inactive)
REMARK    1  A    between atoms: C2_2  and  C4_4 
ROOT
HETATM    1  C1  UNL     1     -34.586   4.982   6.139  1.00 20.00    -0.034 C 
HETATM    2  C2  UNL     1     -35.075   4.563   4.963  1.00 20.00    -0.016 C 
HETATM    3  C3  UNL     1     -34.126   6.377   6.399  1.00 20.00     0.036 C 
ENDROOT
BRANCH   2   4
HETATM    4  C4  UNL     1     -35.220   5.445   3.766  1.00 20.00     0.141 C 
HETATM    5 CL5  UNL     1     -33.643   5.661   2.978  1.00 20.00    -0.126 Cl
ENDBRANCH   2   4
TORSDOF 1
ENDMDL
MODEL 3
REMARK VINA RESULT:      -4.0      0.866      1.323
REMARK  1 active torsions:
REMARK  status: ('A' for Active; 'I' for Inactive)
REMARK    1  A    between atoms: C2_2  and  C4_4 
ROOT
HETATM    1  C1  UNL     1     -34.468   5.497   6.232  1.00 20.00    -0.034 C 
HETATM    2  C2  UNL     1     -33.921   6.359   5.363  1.00 20.00    -0.016 C 
HETATM    3  C3  UNL     1     -35.032   4.171   5.844  1.00 20.00     0.036 C 
ENDROOT
BRANCH   2   4
HETATM    4  C4  UNL     1     -33.809   6.097   3.897  1.00 20.00     0.141 C 
HETATM    5 CL5  UNL     1     -32.164   6.470   3.339  1.00 20.00    -0.126 Cl
ENDBRANCH   2   4
TORSDOF 1
ENDMDL
MODEL 4
REMARK VINA RESULT:      -3.9      1.859      2.770
REMARK  1 active torsions:
REMARK  status: ('A' for Active; 'I' for Inactive)
REMARK    1  A    between atoms: C2_2  and  C4_4 
ROOT
HETATM    1  C1  UNL     1     -34.738   5.469   3.431  1.00 20.00    -0.034 C 
HETATM    2  C2  UNL     1     -35.252   4.931   4.547  1.00 20.00    -0.016 C 
HETATM    3  C3  UNL     1     -33.336   5.966   3.317  1.00 20.00     0.036 C 
ENDROOT
BRANCH   2   4
HETATM    4  C4  UNL     1     -34.480   4.763   5.815  1.00 20.00     0.141 C 
HETATM    5 CL5  UNL     1     -34.215   6.346   6.576  1.00 20.00    -0.126 Cl
ENDBRANCH   2   4
TORSDOF 1
ENDMDL
MODEL 5
REMARK VINA RESULT:      -3.7      2.297      3.107
REMARK  1 active torsions:
REMARK  status: ('A' for Active; 'I' for Inactive)
REMARK    1  A    between atoms: C2_2  and  C4_4 
ROOT
HETATM    1  C1  UNL     1     -33.593   5.891   2.946  1.00 20.00    -0.034 C 
HETATM    2  C2  UNL     1     -34.532   5.541   3.836  1.00 20.00    -0.016 C 
HETATM    3  C3  UNL     1     -32.243   6.407   3.320  1.00 20.00     0.036 C 
ENDROOT
BRANCH   2   4
HETATM    4  C4  UNL     1     -34.342   5.625   5.315  1.00 20.00     0.141 C 
HETATM    5 CL5  UNL     1     -35.073   4.209   6.101  1.00 20.00    -0.126 Cl
ENDBRANCH   2   4
TORSDOF 1
ENDMDL
MODEL 6
REMARK VINA RESULT:      -3.5      1.880      2.614
REMARK  1 active torsions:
REMARK  status: ('A' for Active; 'I' for Inactive)
REMARK    1  A    between atoms: C2_2  and  C4_4 
ROOT
HETATM    1  C1  UNL     1     -34.936   4.309   4.542  1.00 20.00    -0.034 C 
HETATM    2  C2  UNL     1     -34.619   4.373   5.843  1.00 20.00    -0.016 C 
HETATM    3  C3  UNL     1     -35.494   5.453   3.764  1.00 20.00     0.036 C 
ENDROOT
BRANCH   2   4
HETATM    4  C4  UNL     1     -34.786   5.603   6.674  1.00 20.00     0.141 C 
HETATM    5 CL5  UNL     1     -33.452   6.733   6.359  1.00 20.00    -0.126 Cl
ENDBRANCH   2   4
TORSDOF 1
ENDMDL
MODEL 7
REMARK VINA RESULT:      -3.2      2.466      3.742
REMARK  1 active torsions:
REMARK  status: ('A' for Active; 'I' for Inactive)
REMARK    1  A    between atoms: C2_2  and  C4_4 
ROOT
HETATM    1  C1  UNL     1     -31.920   7.222   3.366  1.00 20.00    -0.034 C 
HETATM    2  C2  UNL     1     -32.717   6.218   3.761  1.00 20.00    -0.016 C 
HETATM    3  C3  UNL     1     -32.152   8.034   2.137  1.00 20.00     0.036 C 
ENDROOT
BRANCH   2   4
HETATM    4  C4  UNL     1     -33.939   5.791   3.016  1.00 20.00     0.141 C 
HETATM    5 CL5  UNL     1     -35.169   5.204   4.155  1.00 20.00    -0.126 Cl
ENDBRANCH   2   4
TORSDOF 1
ENDMDL
MODEL 8
REMARK VINA RESULT:      -3.1      2.817      3.610
REMARK  1 active torsions:
REMARK  status: ('A' for Active; 'I' for Inactive)
REMARK    1  A    between atoms: C2_2  and  C4_4 
ROOT
HETATM    1  C1  UNL     1     -32.534   6.627   3.671  1.00 20.00    -0.034 C 
HETATM    2  C2  UNL     1     -31.856   7.643   3.119  1.00 20.00    -0.016 C 
HETATM    3  C3  UNL     1     -33.560   5.820   2.947  1.00 20.00     0.036 C 
ENDROOT
BRANCH   2   4
HETATM    4  C4  UNL     1     -32.046   8.093   1.707  1.00 20.00     0.141 C 
HETATM    5 CL5  UNL     1     -32.534   9.800   1.676  1.00 20.00    -0.126 Cl
ENDBRANCH   2   4
TORSDOF 1
ENDMDL
MODEL 9
REMARK VINA RESULT:      -2.8     11.888     12.333
REMARK  1 active torsions:
REMARK  status: ('A' for Active; 'I' for Inactive)
REMARK    1  A    between atoms: C2_2  and  C4_4 
ROOT
HETATM    1  C1  UNL     1     -33.624  13.727  -3.925  1.00 20.00    -0.034 C 
HETATM    2  C2  UNL     1     -33.158  14.925  -3.542  1.00 20.00    -0.016 C 
HETATM    3  C3  UNL     1     -35.068  13.432  -4.157  1.00 20.00     0.036 C 
ENDROOT
BRANCH   2   4
HETATM    4  C4  UNL     1     -34.030  16.113  -3.301  1.00 20.00     0.141 C 
HETATM    5 CL5  UNL     1     -34.560  16.140  -1.605  1.00 20.00    -0.126 Cl
ENDBRANCH   2   4
TORSDOF 1
ENDMDL
