MODEL 1
REMARK VINA RESULT:      -4.7      0.000      0.000
REMARK  1 active torsions:
REMARK  status: ('A' for Active; 'I' for Inactive)
REMARK    1  A    between atoms: C8_8  and  O12_12 
ROOT
HETATM    1  C1  UNL     1     -36.402  15.413  -4.856  1.00 20.00    -0.049 C 
HETATM    2  C2  UNL     1     -34.726  13.589  -4.284  1.00 20.00     0.135 C 
HETATM    3  C3  UNL     1     -37.337  15.139  -5.771  1.00 20.00     0.017 C 
HETATM    4  C4  UNL     1     -33.327  13.711  -3.712  1.00 20.00     0.079 C 
HETATM    5  C5  UNL     1     -32.904  15.171  -3.603  1.00 20.00     0.008 C 
HETATM    6  C6  UNL     1     -33.839  15.970  -2.697  1.00 20.00     0.009 C 
HETATM    7  C7  UNL     1     -35.782  14.589  -3.746  1.00 20.00     0.092 C 
HETATM    8  C8  UNL     1     -35.587  16.656  -4.560  1.00 20.00     0.155 C 
HETATM    9  C9  UNL     1     -35.280  15.953  -3.206  1.00 20.00     0.034 C 
HETATM   10  O11 UNL     1     -34.980  12.684  -5.088  1.00 20.00    -0.297 OA
ENDROOT
BRANCH   8  11
HETATM   11  O12 UNL     1     -36.344  17.875  -4.464  1.00 20.00    -0.386 OA
HETATM   12  C10 UNL     1     -35.699  18.926  -5.158  1.00 20.00     0.202 C 
ENDBRANCH   8  11
TORSDOF 1
ENDMDL
MODEL 2
REMARK VINA RESULT:      -4.6      2.010      3.297
REMARK  1 active torsions:
REMARK  status: ('A' for Active; 'I' for Inactive)
REMARK    1  A    between atoms: C8_8  and  O12_12 
ROOT
HETATM    1  C1  UNL     1     -35.187  14.403  -3.948  1.00 20.00    -0.049 C 
HETATM    2  C2  UNL     1     -33.569  16.366  -3.904  1.00 20.00     0.135 C 
HETATM    3  C3  UNL     1     -34.797  13.286  -4.567  1.00 20.00     0.017 C 
HETATM    4  C4  UNL     1     -33.856  17.846  -3.747  1.00 20.00     0.079 C 
HETATM    5  C5  UNL     1     -35.355  18.117  -3.735  1.00 20.00     0.008 C 
HETATM    6  C6  UNL     1     -36.057  17.392  -2.588  1.00 20.00     0.009 C 
HETATM    7  C7  UNL     1     -34.452  15.400  -3.072  1.00 20.00     0.092 C 
HETATM    8  C8  UNL     1     -36.517  15.125  -3.871  1.00 20.00     0.155 C 
HETATM    9  C9  UNL     1     -35.872  15.878  -2.671  1.00 20.00     0.034 C 
HETATM   10  O11 UNL     1     -32.631  15.998  -4.620  1.00 20.00    -0.297 OA
ENDROOT
BRANCH   8  11
HETATM   11  O12 UNL     1     -37.645  14.295  -3.543  1.00 20.00    -0.386 OA
HETATM   12  C10 UNL     1     -38.795  14.699  -4.262  1.00 20.00     0.202 C 
ENDBRANCH   8  11
TORSDOF 1
ENDMDL
MODEL 3
REMARK VINA RESULT:      -4.6      1.574      2.803
REMARK  1 active torsions:
REMARK  status: ('A' for Active; 'I' for Inactive)
REMARK    1  A    between atoms: C8_8  and  O12_12 
ROOT
HETATM    1  C1  UNL     1     -34.051  16.312  -3.216  1.00 20.00    -0.049 C 
HETATM    2  C2  UNL     1     -34.139  13.994  -4.258  1.00 20.00     0.135 C 
HETATM    3  C3  UNL     1     -34.087  16.400  -1.883  1.00 20.00     0.017 C 
HETATM    4  C4  UNL     1     -34.598  13.577  -5.641  1.00 20.00     0.079 C 
HETATM    5  C5  UNL     1     -35.180  14.759  -6.406  1.00 20.00     0.008 C 
HETATM    6  C6  UNL     1     -34.159  15.881  -6.584  1.00 20.00     0.009 C 
HETATM    7  C7  UNL     1     -33.374  15.339  -4.161  1.00 20.00     0.092 C 
HETATM    8  C8  UNL     1     -34.672  17.146  -4.318  1.00 20.00     0.155 C 
HETATM    9  C9  UNL     1     -33.656  16.414  -5.243  1.00 20.00     0.034 C 
HETATM   10  O11 UNL     1     -34.331  13.240  -3.297  1.00 20.00    -0.297 OA
ENDROOT
BRANCH   8  11
HETATM   11  O12 UNL     1     -34.478  18.566  -4.194  1.00 20.00    -0.386 OA
HETATM   12  C10 UNL     1     -35.719  19.247  -4.189  1.00 20.00     0.202 C 
ENDBRANCH   8  11
TORSDOF 1
ENDMDL
MODEL 4
REMARK VINA RESULT:      -4.5      2.082      2.821
REMARK  1 active torsions:
REMARK  status: ('A' for Active; 'I' for Inactive)
REMARK    1  A    between atoms: C8_8  and  O12_12 
ROOT
HETATM    1  C1  UNL     1     -36.489  14.967  -5.755  1.00 20.00    -0.049 C 
HETATM    2  C2  UNL     1     -34.083  15.789  -5.813  1.00 20.00     0.135 C 
HETATM    3  C3  UNL     1     -37.264  15.226  -6.812  1.00 20.00     0.017 C 
HETATM    4  C4  UNL     1     -33.142  16.094  -4.665  1.00 20.00     0.079 C 
HETATM    5  C5  UNL     1     -33.856  15.976  -3.324  1.00 20.00     0.008 C 
HETATM    6  C6  UNL     1     -34.412  14.571  -3.096  1.00 20.00     0.009 C 
HETATM    7  C7  UNL     1     -35.030  14.575  -5.625  1.00 20.00     0.092 C 
HETATM    8  C8  UNL     1     -36.754  14.958  -4.263  1.00 20.00     0.155 C 
HETATM    9  C9  UNL     1     -35.414  14.171  -4.178  1.00 20.00     0.034 C 
HETATM   10  O11 UNL     1     -34.020  16.460  -6.850  1.00 20.00    -0.297 OA
ENDROOT
BRANCH   8  11
HETATM   11  O12 UNL     1     -37.924  14.228  -3.854  1.00 20.00    -0.386 OA
HETATM   12  C10 UNL     1     -38.948  15.110  -3.432  1.00 20.00     0.202 C 
ENDBRANCH   8  11
TORSDOF 1
ENDMDL
MODEL 5
REMARK VINA RESULT:      -4.4      1.698      2.201
REMARK  1 active torsions:
REMARK  status: ('A' for Active; 'I' for Inactive)
REMARK    1  A    between atoms: C8_8  and  O12_12 
ROOT
HETATM    1  C1  UNL     1     -35.928  16.907  -3.380  1.00 20.00    -0.049 C 
HETATM    2  C2  UNL     1     -36.254  14.403  -3.690  1.00 20.00     0.135 C 
HETATM    3  C3  UNL     1     -37.018  17.676  -3.317  1.00 20.00     0.017 C 
HETATM    4  C4  UNL     1     -35.305  13.374  -4.271  1.00 20.00     0.079 C 
HETATM    5  C5  UNL     1     -34.050  14.035  -4.827  1.00 20.00     0.008 C 
HETATM    6  C6  UNL     1     -33.286  14.803  -3.751  1.00 20.00     0.009 C 
HETATM    7  C7  UNL     1     -35.613  15.527  -2.835  1.00 20.00     0.092 C 
HETATM    8  C8  UNL     1     -34.569  17.101  -4.021  1.00 20.00     0.155 C 
HETATM    9  C9  UNL     1     -34.137  15.906  -3.122  1.00 20.00     0.034 C 
HETATM   10  O11 UNL     1     -37.472  14.278  -3.863  1.00 20.00    -0.297 OA
ENDROOT
BRANCH   8  11
HETATM   11  O12 UNL     1     -33.928  18.355  -3.728  1.00 20.00    -0.386 OA
HETATM   12  C10 UNL     1     -33.498  18.992  -4.916  1.00 20.00     0.202 C 
ENDBRANCH   8  11
TORSDOF 1
ENDMDL
MODEL 6
REMARK VINA RESULT:      -4.4      2.133      3.333
REMARK  1 active torsions:
REMARK  status: ('A' for Active; 'I' for Inactive)
REMARK    1  A    between atoms: C8_8  and  O12_12 
ROOT
HETATM    1  C1  UNL     1     -35.318  16.332  -6.589  1.00 20.00    -0.049 C 
HETATM    2  C2  UNL     1     -33.437  16.012  -4.907  1.00 20.00     0.135 C 
HETATM    3  C3  UNL     1     -35.489  17.549  -7.111  1.00 20.00     0.017 C 
HETATM    4  C4  UNL     1     -33.289  14.971  -3.815  1.00 20.00     0.079 C 
HETATM    5  C5  UNL     1     -34.539  14.107  -3.706  1.00 20.00     0.008 C 
HETATM    6  C6  UNL     1     -34.834  13.364  -5.008  1.00 20.00     0.009 C 
HETATM    7  C7  UNL     1     -34.079  15.533  -6.235  1.00 20.00     0.092 C 
HETATM    8  C8  UNL     1     -36.290  15.260  -6.139  1.00 20.00     0.155 C 
HETATM    9  C9  UNL     1     -35.048  14.323  -6.177  1.00 20.00     0.034 C 
HETATM   10  O11 UNL     1     -32.998  17.154  -4.726  1.00 20.00    -0.297 OA
ENDROOT
BRANCH   8  11
HETATM   11  O12 UNL     1     -37.330  14.943  -7.082  1.00 20.00    -0.386 OA
HETATM   12  C10 UNL     1     -38.605  15.247  -6.549  1.00 20.00     0.202 C 
ENDBRANCH   8  11
TORSDOF 1
ENDMDL
MODEL 7
REMARK VINA RESULT:      -4.3      2.031      3.159
REMARK  1 active torsions:
REMARK  status: ('A' for Active; 'I' for Inactive)
REMARK    1  A    between atoms: C8_8  and  O12_12 
ROOT
HETATM    1  C1  UNL     1     -35.497  15.106  -5.096  1.00 20.00    -0.049 C 
HETATM    2  C2  UNL     1     -33.727  16.834  -4.503  1.00 20.00     0.135 C 
HETATM    3  C3  UNL     1     -35.681  14.819  -6.387  1.00 20.00     0.017 C 
HETATM    4  C4  UNL     1     -33.612  17.710  -3.271  1.00 20.00     0.079 C 
HETATM    5  C5  UNL     1     -34.829  17.552  -2.368  1.00 20.00     0.008 C 
HETATM    6  C6  UNL     1     -35.000  16.112  -1.889  1.00 20.00     0.009 C 
HETATM    7  C7  UNL     1     -34.253  15.392  -4.277  1.00 20.00     0.092 C 
HETATM    8  C8  UNL     1     -36.452  15.261  -3.930  1.00 20.00     0.155 C 
HETATM    9  C9  UNL     1     -35.172  15.138  -3.054  1.00 20.00     0.034 C 
HETATM   10  O11 UNL     1     -33.351  17.267  -5.598  1.00 20.00    -0.297 OA
ENDROOT
BRANCH   8  11
HETATM   11  O12 UNL     1     -37.408  14.198  -3.777  1.00 20.00    -0.386 OA
HETATM   12  C10 UNL     1     -38.729  14.676  -3.951  1.00 20.00     0.202 C 
ENDBRANCH   8  11
TORSDOF 1
ENDMDL
MODEL 8
REMARK VINA RESULT:      -4.3      2.174      3.708
REMARK  1 active torsions:
REMARK  status: ('A' for Active; 'I' for Inactive)
REMARK    1  A    between atoms: C8_8  and  O12_12 
ROOT
HETATM    1  C1  UNL     1     -33.464  15.305  -3.985  1.00 20.00    -0.049 C 
HETATM    2  C2  UNL     1     -34.218  15.867  -6.348  1.00 20.00     0.135 C 
HETATM    3  C3  UNL     1     -33.203  14.026  -3.700  1.00 20.00     0.017 C 
HETATM    4  C4  UNL     1     -35.028  17.049  -6.845  1.00 20.00     0.079 C 
HETATM    5  C5  UNL     1     -35.514  17.908  -5.684  1.00 20.00     0.008 C 
HETATM    6  C6  UNL     1     -34.353  18.464  -4.862  1.00 20.00     0.009 C 
HETATM    7  C7  UNL     1     -33.202  16.155  -5.213  1.00 20.00     0.092 C 
HETATM    8  C8  UNL     1     -34.126  16.419  -3.200  1.00 20.00     0.155 C 
HETATM    9  C9  UNL     1     -33.488  17.353  -4.269  1.00 20.00     0.034 C 
HETATM   10  O11 UNL     1     -34.349  14.765  -6.892  1.00 20.00    -0.297 OA
ENDROOT
BRANCH   8  11
HETATM   11  O12 UNL     1     -33.637  16.595  -1.858  1.00 20.00    -0.386 OA
HETATM   12  C10 UNL     1     -34.705  16.611  -0.930  1.00 20.00     0.202 C 
ENDBRANCH   8  11
TORSDOF 1
ENDMDL
MODEL 9
REMARK VINA RESULT:      -4.3      1.998      3.780
REMARK  1 active torsions:
REMARK  status: ('A' for Active; 'I' for Inactive)
REMARK    1  A    between atoms: C8_8  and  O12_12 
ROOT
HETATM    1  C1  UNL     1     -33.851  16.955  -5.628  1.00 20.00    -0.049 C 
HETATM    2  C2  UNL     1     -34.101  17.243  -3.113  1.00 20.00     0.135 C 
HETATM    3  C3  UNL     1     -33.773  18.057  -6.378  1.00 20.00     0.017 C 
HETATM    4  C4  UNL     1     -34.686  16.291  -2.089  1.00 20.00     0.079 C 
HETATM    5  C5  UNL     1     -35.290  15.064  -2.761  1.00 20.00     0.008 C 
HETATM    6  C6  UNL     1     -34.251  14.285  -3.565  1.00 20.00     0.009 C 
HETATM    7  C7  UNL     1     -33.286  16.600  -4.266  1.00 20.00     0.092 C 
HETATM    8  C8  UNL     1     -34.532  15.618  -5.833  1.00 20.00     0.155 C 
HETATM    9  C9  UNL     1     -33.622  15.140  -4.665  1.00 20.00     0.034 C 
HETATM   10  O11 UNL     1     -34.237  18.463  -2.962  1.00 20.00    -0.297 OA
ENDROOT
BRANCH   8  11
HETATM   11  O12 UNL     1     -34.283  14.992  -7.104  1.00 20.00    -0.386 OA
HETATM   12  C10 UNL     1     -35.480  14.485  -7.662  1.00 20.00     0.202 C 
ENDBRANCH   8  11
TORSDOF 1
ENDMDL
