MODEL 1
REMARK VINA RESULT:      -4.3      0.000      0.000
REMARK  0 active torsions:
REMARK  status: ('A' for Active; 'I' for Inactive)
ROOT
HETATM    1  C1  UNL     1     -34.493  16.850  -5.223  1.00 20.00    -0.020 C 
HETATM    2  C2  UNL     1     -33.257  16.485  -4.747  1.00 20.00    -0.020 C 
HETATM    3  C3  UNL     1     -35.160  13.308  -4.229  1.00 20.00     0.002 C 
HETATM    4  C4  UNL     1     -35.962  14.525  -4.781  1.00 20.00     0.014 C 
HETATM    5  C5  UNL     1     -33.695  13.820  -4.067  1.00 20.00     0.014 C 
HETATM    6  C6  UNL     1     -34.841  15.372  -5.349  1.00 20.00    -0.016 C 
HETATM    7  C7  UNL     1     -33.921  15.317  -4.026  1.00 20.00    -0.016 C 
HETATM    8  C8  UNL     1     -34.462  14.857  -6.763  1.00 20.00     0.020 C 
HETATM    9  C9  UNL     1     -34.334  15.745  -2.593  1.00 20.00     0.020 C 
ENDROOT
TORSDOF 0
ENDMDL
MODEL 2
REMARK VINA RESULT:      -4.3      0.019      2.531
REMARK  0 active torsions:
REMARK  status: ('A' for Active; 'I' for Inactive)
ROOT
HETATM    1  C1  UNL     1     -33.280  16.493  -4.743  1.00 20.00    -0.020 C 
HETATM    2  C2  UNL     1     -34.517  16.844  -5.226  1.00 20.00    -0.020 C 
HETATM    3  C3  UNL     1     -35.152  13.299  -4.222  1.00 20.00     0.002 C 
HETATM    4  C4  UNL     1     -33.695  13.827  -4.054  1.00 20.00     0.014 C 
HETATM    5  C5  UNL     1     -35.965  14.507  -4.782  1.00 20.00     0.014 C 
HETATM    6  C6  UNL     1     -33.935  15.322  -4.020  1.00 20.00    -0.016 C 
HETATM    7  C7  UNL     1     -34.850  15.361  -5.348  1.00 20.00    -0.016 C 
HETATM    8  C8  UNL     1     -34.360  15.752  -2.591  1.00 20.00     0.020 C 
HETATM    9  C9  UNL     1     -34.458  14.845  -6.757  1.00 20.00     0.020 C 
ENDROOT
TORSDOF 0
ENDMDL
MODEL 3
REMARK VINA RESULT:      -4.2      0.879      2.718
REMARK  0 active torsions:
REMARK  status: ('A' for Active; 'I' for Inactive)
ROOT
HETATM    1  C1  UNL     1     -34.962  16.929  -4.414  1.00 20.00    -0.020 C 
HETATM    2  C2  UNL     1     -36.007  16.075  -4.674  1.00 20.00    -0.020 C 
HETATM    3  C3  UNL     1     -33.351  13.635  -3.687  1.00 20.00     0.002 C 
HETATM    4  C4  UNL     1     -32.938  15.137  -3.747  1.00 20.00     0.014 C 
HETATM    5  C5  UNL     1     -34.864  13.609  -4.066  1.00 20.00     0.014 C 
HETATM    6  C6  UNL     1     -34.290  15.810  -3.628  1.00 20.00    -0.016 C 
HETATM    7  C7  UNL     1     -34.999  14.936  -4.784  1.00 20.00    -0.016 C 
HETATM    8  C8  UNL     1     -34.708  15.885  -2.136  1.00 20.00     0.020 C 
HETATM    9  C9  UNL     1     -34.527  14.787  -6.254  1.00 20.00     0.020 C 
ENDROOT
TORSDOF 0
ENDMDL
MODEL 4
REMARK VINA RESULT:      -4.2      0.880      1.360
REMARK  0 active torsions:
REMARK  status: ('A' for Active; 'I' for Inactive)
ROOT
HETATM    1  C1  UNL     1     -36.016  16.133  -4.667  1.00 20.00    -0.020 C 
HETATM    2  C2  UNL     1     -34.967  16.980  -4.405  1.00 20.00    -0.020 C 
HETATM    3  C3  UNL     1     -33.375  13.672  -3.697  1.00 20.00     0.002 C 
HETATM    4  C4  UNL     1     -34.887  13.657  -4.075  1.00 20.00     0.014 C 
HETATM    5  C5  UNL     1     -32.951  15.172  -3.753  1.00 20.00     0.014 C 
HETATM    6  C6  UNL     1     -35.016  14.989  -4.785  1.00 20.00    -0.016 C 
HETATM    7  C7  UNL     1     -34.299  15.852  -3.627  1.00 20.00    -0.016 C 
HETATM    8  C8  UNL     1     -34.548  14.845  -6.258  1.00 20.00     0.020 C 
HETATM    9  C9  UNL     1     -34.713  15.921  -2.133  1.00 20.00     0.020 C 
ENDROOT
TORSDOF 0
ENDMDL
MODEL 5
REMARK VINA RESULT:      -4.2      0.964      2.698
REMARK  0 active torsions:
REMARK  status: ('A' for Active; 'I' for Inactive)
ROOT
HETATM    1  C1  UNL     1     -34.840  13.838  -5.576  1.00 20.00    -0.020 C 
HETATM    2  C2  UNL     1     -35.236  13.399  -4.335  1.00 20.00    -0.020 C 
HETATM    3  C3  UNL     1     -33.692  16.685  -3.442  1.00 20.00     0.002 C 
HETATM    4  C4  UNL     1     -33.613  16.255  -4.938  1.00 20.00     0.014 C 
HETATM    5  C5  UNL     1     -34.465  15.536  -2.724  1.00 20.00     0.014 C 
HETATM    6  C6  UNL     1     -34.742  15.248  -5.006  1.00 20.00    -0.016 C 
HETATM    7  C7  UNL     1     -34.274  14.405  -3.713  1.00 20.00    -0.016 C 
HETATM    8  C8  UNL     1     -36.094  15.988  -5.188  1.00 20.00     0.020 C 
HETATM    9  C9  UNL     1     -32.888  13.744  -3.491  1.00 20.00     0.020 C 
ENDROOT
TORSDOF 0
ENDMDL
MODEL 6
REMARK VINA RESULT:      -4.2      0.970      3.006
REMARK  0 active torsions:
REMARK  status: ('A' for Active; 'I' for Inactive)
ROOT
HETATM    1  C1  UNL     1     -35.278  13.428  -4.345  1.00 20.00    -0.020 C 
HETATM    2  C2  UNL     1     -34.876  13.872  -5.581  1.00 20.00    -0.020 C 
HETATM    3  C3  UNL     1     -33.678  16.677  -3.418  1.00 20.00     0.002 C 
HETATM    4  C4  UNL     1     -34.468  15.534  -2.713  1.00 20.00     0.014 C 
HETATM    5  C5  UNL     1     -33.606  16.261  -4.920  1.00 20.00     0.014 C 
HETATM    6  C6  UNL     1     -34.298  14.409  -3.713  1.00 20.00    -0.016 C 
HETATM    7  C7  UNL     1     -34.753  15.274  -4.996  1.00 20.00    -0.016 C 
HETATM    8  C8  UNL     1     -32.923  13.722  -3.500  1.00 20.00     0.020 C 
HETATM    9  C9  UNL     1     -36.092  16.039  -5.170  1.00 20.00     0.020 C 
ENDROOT
TORSDOF 0
ENDMDL
MODEL 7
REMARK VINA RESULT:      -4.1      1.143      2.342
REMARK  0 active torsions:
REMARK  status: ('A' for Active; 'I' for Inactive)
ROOT
HETATM    1  C1  UNL     1     -34.042  16.641  -2.953  1.00 20.00    -0.020 C 
HETATM    2  C2  UNL     1     -34.718  15.744  -2.163  1.00 20.00    -0.020 C 
HETATM    3  C3  UNL     1     -34.768  13.949  -5.442  1.00 20.00     0.002 C 
HETATM    4  C4  UNL     1     -34.126  15.368  -5.428  1.00 20.00     0.014 C 
HETATM    5  C5  UNL     1     -35.210  13.682  -3.970  1.00 20.00     0.014 C 
HETATM    6  C6  UNL     1     -33.801  15.520  -3.957  1.00 20.00    -0.016 C 
HETATM    7  C7  UNL     1     -35.265  15.097  -3.431  1.00 20.00    -0.016 C 
HETATM    8  C8  UNL     1     -32.460  14.805  -3.641  1.00 20.00     0.020 C 
HETATM    9  C9  UNL     1     -36.615  15.754  -3.821  1.00 20.00     0.020 C 
ENDROOT
TORSDOF 0
ENDMDL
MODEL 8
REMARK VINA RESULT:      -4.1     11.734     13.388
REMARK  0 active torsions:
REMARK  status: ('A' for Active; 'I' for Inactive)
ROOT
HETATM    1  C1  UNL     1     -32.609   6.536   4.242  1.00 20.00    -0.020 C 
HETATM    2  C2  UNL     1     -33.626   7.087   3.500  1.00 20.00    -0.020 C 
HETATM    3  C3  UNL     1     -35.417   4.223   5.103  1.00 20.00     0.002 C 
HETATM    4  C4  UNL     1     -33.892   4.348   5.393  1.00 20.00     0.014 C 
HETATM    5  C5  UNL     1     -35.761   5.432   4.178  1.00 20.00     0.014 C 
HETATM    6  C6  UNL     1     -33.659   5.811   5.075  1.00 20.00    -0.016 C 
HETATM    7  C7  UNL     1     -34.388   5.773   3.637  1.00 20.00    -0.016 C 
HETATM    8  C8  UNL     1     -34.062   6.682   6.295  1.00 20.00     0.020 C 
HETATM    9  C9  UNL     1     -34.045   4.836   2.449  1.00 20.00     0.020 C 
ENDROOT
TORSDOF 0
ENDMDL
MODEL 9
REMARK VINA RESULT:      -4.1     11.721     13.140
REMARK  0 active torsions:
REMARK  status: ('A' for Active; 'I' for Inactive)
ROOT
HETATM    1  C1  UNL     1     -33.632   7.106   3.496  1.00 20.00    -0.020 C 
HETATM    2  C2  UNL     1     -32.607   6.556   4.227  1.00 20.00    -0.020 C 
HETATM    3  C3  UNL     1     -35.399   4.226   5.096  1.00 20.00     0.002 C 
HETATM    4  C4  UNL     1     -35.753   5.436   4.180  1.00 20.00     0.014 C 
HETATM    5  C5  UNL     1     -33.870   4.355   5.376  1.00 20.00     0.014 C 
HETATM    6  C6  UNL     1     -34.386   5.788   3.631  1.00 20.00    -0.016 C 
HETATM    7  C7  UNL     1     -33.648   5.821   5.064  1.00 20.00    -0.016 C 
HETATM    8  C8  UNL     1     -34.047   4.859   2.435  1.00 20.00     0.020 C 
HETATM    9  C9  UNL     1     -34.045   6.683   6.291  1.00 20.00     0.020 C 
ENDROOT
TORSDOF 0
ENDMDL
