MODEL 1
REMARK VINA RESULT:      -4.8      0.000      0.000
REMARK  1 active torsions:
REMARK  status: ('A' for Active; 'I' for Inactive)
REMARK    1  A    between atoms: C1_1  and  C2_2 
ROOT
HETATM    1  C2  UNL     1     -34.958   4.955   4.539  1.00 20.00     0.363 C 
HETATM    2  F4  UNL     1     -34.928   3.625   4.273  1.00 20.00    -0.183 F 
HETATM    3  F5  UNL     1     -36.170   5.406   4.122  1.00 20.00    -0.183 F 
HETATM    4 CL7  UNL     1     -33.693   5.781   3.613  1.00 20.00    -0.044 Cl
ENDROOT
BRANCH   1   5
HETATM    5  C1  UNL     1     -34.840   5.188   6.033  1.00 20.00     0.353 C 
HETATM    6  F3  UNL     1     -34.143   4.147   6.569  1.00 20.00    -0.225 F 
HETATM    7 CL6  UNL     1     -33.977   6.691   6.422  1.00 20.00    -0.082 Cl
ENDBRANCH   1   5
TORSDOF 1
ENDMDL
MODEL 2
REMARK VINA RESULT:      -4.7      0.882      2.745
REMARK  1 active torsions:
REMARK  status: ('A' for Active; 'I' for Inactive)
REMARK    1  A    between atoms: C1_1  and  C2_2 
ROOT
HETATM    1  C2  UNL     1     -34.595   4.932   5.771  1.00 20.00     0.363 C 
HETATM    2  F4  UNL     1     -35.744   4.590   6.407  1.00 20.00    -0.183 F 
HETATM    3  F5  UNL     1     -33.682   3.974   6.078  1.00 20.00    -0.183 F 
HETATM    4 CL7  UNL     1     -34.014   6.491   6.381  1.00 20.00    -0.044 Cl
ENDROOT
BRANCH   1   5
HETATM    5  C1  UNL     1     -34.814   4.933   4.270  1.00 20.00     0.353 C 
HETATM    6  F3  UNL     1     -36.069   5.404   4.027  1.00 20.00    -0.225 F 
HETATM    7 CL6  UNL     1     -33.656   5.972   3.413  1.00 20.00    -0.082 Cl
ENDBRANCH   1   5
TORSDOF 1
ENDMDL
MODEL 3
REMARK VINA RESULT:      -4.7      2.039      2.472
REMARK  1 active torsions:
REMARK  status: ('A' for Active; 'I' for Inactive)
REMARK    1  A    between atoms: C1_1  and  C2_2 
ROOT
HETATM    1  C2  UNL     1     -34.882   5.322   3.773  1.00 20.00     0.363 C 
HETATM    2  F4  UNL     1     -36.112   5.791   3.448  1.00 20.00    -0.183 F 
HETATM    3  F5  UNL     1     -34.353   4.800   2.636  1.00 20.00    -0.183 F 
HETATM    4 CL7  UNL     1     -35.032   4.030   4.978  1.00 20.00    -0.044 Cl
ENDROOT
BRANCH   1   5
HETATM    5  C1  UNL     1     -33.998   6.462   4.242  1.00 20.00     0.353 C 
HETATM    6  F3  UNL     1     -33.820   6.332   5.587  1.00 20.00    -0.225 F 
HETATM    7 CL6  UNL     1     -32.400   6.449   3.466  1.00 20.00    -0.082 Cl
ENDBRANCH   1   5
TORSDOF 1
ENDMDL
MODEL 4
REMARK VINA RESULT:      -4.5      1.999      1.999
REMARK  1 active torsions:
REMARK  status: ('A' for Active; 'I' for Inactive)
REMARK    1  A    between atoms: C1_1  and  C2_2 
ROOT
HETATM    1  C2  UNL     1     -33.944   5.923   3.999  1.00 20.00     0.363 C 
HETATM    2  F4  UNL     1     -34.647   5.019   3.272  1.00 20.00    -0.183 F 
HETATM    3  F5  UNL     1     -34.607   7.104   3.894  1.00 20.00    -0.183 F 
HETATM    4 CL7  UNL     1     -32.322   6.115   3.311  1.00 20.00    -0.044 Cl
ENDROOT
BRANCH   1   5
HETATM    5  C1  UNL     1     -33.919   5.508   5.458  1.00 20.00     0.353 C 
HETATM    6  F3  UNL     1     -34.307   6.578   6.207  1.00 20.00    -0.225 F 
HETATM    7 CL6  UNL     1     -35.024   4.160   5.802  1.00 20.00    -0.082 Cl
ENDBRANCH   1   5
TORSDOF 1
ENDMDL
MODEL 5
REMARK VINA RESULT:      -4.4      1.288      2.672
REMARK  1 active torsions:
REMARK  status: ('A' for Active; 'I' for Inactive)
REMARK    1  A    between atoms: C1_1  and  C2_2 
ROOT
HETATM    1  C2  UNL     1     -34.968   4.918   4.609  1.00 20.00     0.363 C 
HETATM    2  F4  UNL     1     -36.143   5.384   4.115  1.00 20.00    -0.183 F 
HETATM    3  F5  UNL     1     -35.121   3.578   4.773  1.00 20.00    -0.183 F 
HETATM    4 CL7  UNL     1     -34.650   5.654   6.190  1.00 20.00    -0.044 Cl
ENDROOT
BRANCH   1   5
HETATM    5  C1  UNL     1     -33.852   5.163   3.612  1.00 20.00     0.353 C 
HETATM    6  F3  UNL     1     -34.411   5.277   2.374  1.00 20.00    -0.225 F 
HETATM    7 CL6  UNL     1     -32.949   6.654   3.952  1.00 20.00    -0.082 Cl
ENDBRANCH   1   5
TORSDOF 1
ENDMDL
MODEL 6
REMARK VINA RESULT:      -4.3      1.913      2.406
REMARK  1 active torsions:
REMARK  status: ('A' for Active; 'I' for Inactive)
REMARK    1  A    between atoms: C1_1  and  C2_2 
ROOT
HETATM    1  C2  UNL     1     -34.625   5.038   6.040  1.00 20.00     0.363 C 
HETATM    2  F4  UNL     1     -33.657   4.332   6.677  1.00 20.00    -0.183 F 
HETATM    3  F5  UNL     1     -35.647   5.179   6.924  1.00 20.00    -0.183 F 
HETATM    4 CL7  UNL     1     -35.206   4.126   4.636  1.00 20.00    -0.044 Cl
ENDROOT
BRANCH   1   5
HETATM    5  C1  UNL     1     -34.106   6.415   5.673  1.00 20.00     0.353 C 
HETATM    6  F3  UNL     1     -33.322   6.856   6.696  1.00 20.00    -0.225 F 
HETATM    7 CL6  UNL     1     -33.126   6.400   4.191  1.00 20.00    -0.082 Cl
ENDBRANCH   1   5
TORSDOF 1
ENDMDL
MODEL 7
REMARK VINA RESULT:      -4.3      2.123      2.780
REMARK  1 active torsions:
REMARK  status: ('A' for Active; 'I' for Inactive)
REMARK    1  A    between atoms: C1_1  and  C2_2 
ROOT
HETATM    1  C2  UNL     1     -33.961   6.256   4.602  1.00 20.00     0.363 C 
HETATM    2  F4  UNL     1     -32.740   5.869   4.154  1.00 20.00    -0.183 F 
HETATM    3  F5  UNL     1     -34.286   7.383   3.917  1.00 20.00    -0.183 F 
HETATM    4 CL7  UNL     1     -33.869   6.644   6.329  1.00 20.00    -0.044 Cl
ENDROOT
BRANCH   1   5
HETATM    5  C1  UNL     1     -34.990   5.185   4.294  1.00 20.00     0.353 C 
HETATM    6  F3  UNL     1     -34.714   4.678   3.059  1.00 20.00    -0.225 F 
HETATM    7 CL6  UNL     1     -34.952   3.848   5.463  1.00 20.00    -0.082 Cl
ENDBRANCH   1   5
TORSDOF 1
ENDMDL
MODEL 8
REMARK VINA RESULT:      -4.3      1.941      2.836
REMARK  1 active torsions:
REMARK  status: ('A' for Active; 'I' for Inactive)
REMARK    1  A    between atoms: C1_1  and  C2_2 
ROOT
HETATM    1  C2  UNL     1     -34.715   5.380   4.533  1.00 20.00     0.363 C 
HETATM    2  F4  UNL     1     -34.503   6.427   5.368  1.00 20.00    -0.183 F 
HETATM    3  F5  UNL     1     -35.904   5.610   3.916  1.00 20.00    -0.183 F 
HETATM    4 CL7  UNL     1     -34.840   3.881   5.471  1.00 20.00    -0.044 Cl
ENDROOT
BRANCH   1   5
HETATM    5  C1  UNL     1     -33.624   5.326   3.481  1.00 20.00     0.353 C 
HETATM    6  F3  UNL     1     -34.219   5.189   2.263  1.00 20.00    -0.225 F 
HETATM    7 CL6  UNL     1     -32.633   6.800   3.452  1.00 20.00    -0.082 Cl
ENDBRANCH   1   5
TORSDOF 1
ENDMDL
MODEL 9
REMARK VINA RESULT:      -4.2      2.324      2.589
REMARK  1 active torsions:
REMARK  status: ('A' for Active; 'I' for Inactive)
REMARK    1  A    between atoms: C1_1  and  C2_2 
ROOT
HETATM    1  C2  UNL     1     -34.025   6.123   4.308  1.00 20.00     0.363 C 
HETATM    2  F4  UNL     1     -34.064   7.468   4.139  1.00 20.00    -0.183 F 
HETATM    3  F5  UNL     1     -32.884   5.689   3.710  1.00 20.00    -0.183 F 
HETATM    4 CL7  UNL     1     -35.413   5.376   3.498  1.00 20.00    -0.044 Cl
ENDROOT
BRANCH   1   5
HETATM    5  C1  UNL     1     -33.957   5.788   5.786  1.00 20.00     0.353 C 
HETATM    6  F3  UNL     1     -34.267   6.914   6.488  1.00 20.00    -0.225 F 
HETATM    7 CL6  UNL     1     -35.104   4.512   6.248  1.00 20.00    -0.082 Cl
ENDBRANCH   1   5
TORSDOF 1
ENDMDL
