MODEL 1
REMARK VINA RESULT:      -3.7      0.000      0.000
REMARK  1 active torsions:
REMARK  status: ('A' for Active; 'I' for Inactive)
REMARK    1  A    between atoms: C3_3  and  C5_5 
ROOT
HETATM    1  C1  UNL     1     -33.675  17.450  -3.713  1.00 20.00     0.144 A 
HETATM    2  C2  UNL     1     -34.080  16.746  -2.598  1.00 20.00     0.071 A 
HETATM    3  C3  UNL     1     -34.269  15.581  -4.698  1.00 20.00     0.103 A 
HETATM    4  N7  UNL     1     -33.783  16.782  -4.919  1.00 20.00    -0.251 NA
HETATM    5  S8  UNL     1     -34.621  15.187  -3.065  1.00 20.00    -0.061 SA
HETATM    6 BR9  UNL     1     -34.050  17.389  -0.819  1.00 20.00    -0.041 Br
ENDROOT
BRANCH   3   7
HETATM    7  C5  UNL     1     -34.529  14.582  -5.704  1.00 20.00    -0.035 C 
HETATM    8  C4  UNL     1     -34.818  13.335  -5.287  1.00 20.00     0.021 C 
HETATM    9  C6  UNL     1     -34.480  14.869  -7.186  1.00 20.00     0.050 C 
ENDBRANCH   3   7
TORSDOF 1
ENDMDL
MODEL 2
REMARK VINA RESULT:      -3.7      2.519      4.409
REMARK  1 active torsions:
REMARK  status: ('A' for Active; 'I' for Inactive)
REMARK    1  A    between atoms: C3_3  and  C5_5 
ROOT
HETATM    1  C1  UNL     1     -33.740  17.125  -4.769  1.00 20.00     0.144 A 
HETATM    2  C2  UNL     1     -34.248  15.849  -4.640  1.00 20.00     0.071 A 
HETATM    3  C3  UNL     1     -33.926  17.063  -2.585  1.00 20.00     0.103 A 
HETATM    4  N7  UNL     1     -33.556  17.822  -3.591  1.00 20.00    -0.251 NA
HETATM    5  S8  UNL     1     -34.506  15.497  -2.982  1.00 20.00    -0.061 SA
HETATM    6 BR9  UNL     1     -34.609  14.657  -6.063  1.00 20.00    -0.041 Br
ENDROOT
BRANCH   3   7
HETATM    7  C5  UNL     1     -33.884  17.434  -1.192  1.00 20.00    -0.035 C 
HETATM    8  C4  UNL     1     -34.761  16.842  -0.360  1.00 20.00     0.021 C 
HETATM    9  C6  UNL     1     -32.918  18.454  -0.637  1.00 20.00     0.050 C 
ENDBRANCH   3   7
TORSDOF 1
ENDMDL
MODEL 3
REMARK VINA RESULT:      -3.7     13.167     14.409
REMARK  1 active torsions:
REMARK  status: ('A' for Active; 'I' for Inactive)
REMARK    1  A    between atoms: C3_3  and  C5_5 
ROOT
HETATM    1  C1  UNL     1     -42.946   5.729  -2.963  1.00 20.00     0.144 A 
HETATM    2  C2  UNL     1     -41.985   5.809  -1.977  1.00 20.00     0.071 A 
HETATM    3  C3  UNL     1     -42.387   3.610  -2.875  1.00 20.00     0.103 A 
HETATM    4  N7  UNL     1     -43.177   4.468  -3.479  1.00 20.00    -0.251 NA
HETATM    5  S8  UNL     1     -41.340   4.249  -1.674  1.00 20.00    -0.061 SA
HETATM    6 BR9  UNL     1     -41.450   7.388  -1.084  1.00 20.00    -0.041 Br
ENDROOT
BRANCH   3   7
HETATM    7  C5  UNL     1     -42.330   2.193  -3.135  1.00 20.00    -0.035 C 
HETATM    8  C4  UNL     1     -41.359   1.746  -3.954  1.00 20.00     0.021 C 
HETATM    9  C6  UNL     1     -43.307   1.204  -2.544  1.00 20.00     0.050 C 
ENDBRANCH   3   7
TORSDOF 1
ENDMDL
MODEL 4
REMARK VINA RESULT:      -3.6      2.793      4.393
REMARK  1 active torsions:
REMARK  status: ('A' for Active; 'I' for Inactive)
REMARK    1  A    between atoms: C3_3  and  C5_5 
ROOT
HETATM    1  C1  UNL     1     -34.308  14.336  -4.351  1.00 20.00     0.144 A 
HETATM    2  C2  UNL     1     -34.428  15.279  -5.351  1.00 20.00     0.071 A 
HETATM    3  C3  UNL     1     -34.239  16.144  -3.111  1.00 20.00     0.103 A 
HETATM    4  N7  UNL     1     -34.199  14.831  -3.066  1.00 20.00    -0.251 NA
HETATM    5  S8  UNL     1     -34.408  16.851  -4.666  1.00 20.00    -0.061 SA
HETATM    6 BR9  UNL     1     -34.593  14.911  -7.199  1.00 20.00    -0.041 Br
ENDROOT
BRANCH   3   7
HETATM    7  C5  UNL     1     -34.156  17.027  -1.974  1.00 20.00    -0.035 C 
HETATM    8  C4  UNL     1     -34.640  16.581  -0.800  1.00 20.00     0.021 C 
HETATM    9  C6  UNL     1     -33.566  18.415  -2.047  1.00 20.00     0.050 C 
ENDBRANCH   3   7
TORSDOF 1
ENDMDL
MODEL 5
REMARK VINA RESULT:      -3.5      1.556      1.677
REMARK  1 active torsions:
REMARK  status: ('A' for Active; 'I' for Inactive)
REMARK    1  A    between atoms: C3_3  and  C5_5 
ROOT
HETATM    1  C1  UNL     1     -34.193  16.440  -2.092  1.00 20.00     0.144 A 
HETATM    2  C2  UNL     1     -33.836  17.544  -2.838  1.00 20.00     0.071 A 
HETATM    3  C3  UNL     1     -34.251  15.526  -4.085  1.00 20.00     0.103 A 
HETATM    4  N7  UNL     1     -34.432  15.282  -2.806  1.00 20.00    -0.251 NA
HETATM    5  S8  UNL     1     -33.793  17.126  -4.501  1.00 20.00    -0.061 SA
HETATM    6 BR9  UNL     1     -33.450  19.263  -2.148  1.00 20.00    -0.041 Br
ENDROOT
BRANCH   3   7
HETATM    7  C5  UNL     1     -34.404  14.569  -5.152  1.00 20.00    -0.035 C 
HETATM    8  C4  UNL     1     -34.523  13.270  -4.816  1.00 20.00     0.021 C 
HETATM    9  C6  UNL     1     -34.424  14.954  -6.612  1.00 20.00     0.050 C 
ENDBRANCH   3   7
TORSDOF 1
ENDMDL
MODEL 6
REMARK VINA RESULT:      -3.5      1.596      1.936
REMARK  1 active torsions:
REMARK  status: ('A' for Active; 'I' for Inactive)
REMARK    1  A    between atoms: C3_3  and  C5_5 
ROOT
HETATM    1  C1  UNL     1     -34.216  14.658  -3.302  1.00 20.00     0.144 A 
HETATM    2  C2  UNL     1     -34.564  15.939  -2.928  1.00 20.00     0.071 A 
HETATM    3  C3  UNL     1     -34.614  15.488  -5.294  1.00 20.00     0.103 A 
HETATM    4  N7  UNL     1     -34.245  14.398  -4.660  1.00 20.00    -0.251 NA
HETATM    5  S8  UNL     1     -34.942  16.864  -4.322  1.00 20.00    -0.061 SA
HETATM    6 BR9  UNL     1     -34.620  16.592  -1.154  1.00 20.00    -0.041 Br
ENDROOT
BRANCH   3   7
HETATM    7  C5  UNL     1     -34.762  15.619  -6.722  1.00 20.00    -0.035 C 
HETATM    8  C4  UNL     1     -35.103  14.519  -7.419  1.00 20.00     0.021 C 
HETATM    9  C6  UNL     1     -34.542  16.918  -7.460  1.00 20.00     0.050 C 
ENDBRANCH   3   7
TORSDOF 1
ENDMDL
MODEL 7
REMARK VINA RESULT:      -3.5      1.244      1.295
REMARK  1 active torsions:
REMARK  status: ('A' for Active; 'I' for Inactive)
REMARK    1  A    between atoms: C3_3  and  C5_5 
ROOT
HETATM    1  C1  UNL     1     -36.000  16.888  -3.024  1.00 20.00     0.144 A 
HETATM    2  C2  UNL     1     -34.993  16.481  -2.174  1.00 20.00     0.071 A 
HETATM    3  C3  UNL     1     -35.043  15.408  -4.330  1.00 20.00     0.103 A 
HETATM    4  N7  UNL     1     -36.030  16.273  -4.261  1.00 20.00    -0.251 NA
HETATM    5  S8  UNL     1     -34.040  15.280  -2.943  1.00 20.00    -0.061 SA
HETATM    6 BR9  UNL     1     -34.694  17.136  -0.425  1.00 20.00    -0.041 Br
ENDROOT
BRANCH   3   7
HETATM    7  C5  UNL     1     -34.740  14.568  -5.461  1.00 20.00    -0.035 C 
HETATM    8  C4  UNL     1     -34.703  13.237  -5.260  1.00 20.00     0.021 C 
HETATM    9  C6  UNL     1     -34.455  15.110  -6.841  1.00 20.00     0.050 C 
ENDBRANCH   3   7
TORSDOF 1
ENDMDL
MODEL 8
REMARK VINA RESULT:      -3.4      4.265      4.876
REMARK  1 active torsions:
REMARK  status: ('A' for Active; 'I' for Inactive)
REMARK    1  A    between atoms: C3_3  and  C5_5 
ROOT
HETATM    1  C1  UNL     1     -38.994  14.693  -4.418  1.00 20.00     0.144 A 
HETATM    2  C2  UNL     1     -38.688  15.288  -5.624  1.00 20.00     0.071 A 
HETATM    3  C3  UNL     1     -36.807  14.685  -4.246  1.00 20.00     0.103 A 
HETATM    4  N7  UNL     1     -37.915  14.347  -3.627  1.00 20.00    -0.251 NA
HETATM    5  S8  UNL     1     -36.986  15.425  -5.784  1.00 20.00    -0.061 SA
HETATM    6 BR9  UNL     1     -39.941  15.869  -6.916  1.00 20.00    -0.041 Br
ENDROOT
BRANCH   3   7
HETATM    7  C5  UNL     1     -35.470  14.487  -3.743  1.00 20.00    -0.035 C 
HETATM    8  C4  UNL     1     -34.813  13.379  -4.133  1.00 20.00     0.021 C 
HETATM    9  C6  UNL     1     -34.790  15.452  -2.801  1.00 20.00     0.050 C 
ENDBRANCH   3   7
TORSDOF 1
ENDMDL
MODEL 9
REMARK VINA RESULT:      -3.4      3.577      4.125
REMARK  1 active torsions:
REMARK  status: ('A' for Active; 'I' for Inactive)
REMARK    1  A    between atoms: C3_3  and  C5_5 
ROOT
HETATM    1  C1  UNL     1     -38.312  14.827  -3.836  1.00 20.00     0.144 A 
HETATM    2  C2  UNL     1     -38.370  16.179  -3.571  1.00 20.00     0.071 A 
HETATM    3  C3  UNL     1     -36.184  15.176  -3.433  1.00 20.00     0.103 A 
HETATM    4  N7  UNL     1     -37.058  14.251  -3.758  1.00 20.00    -0.251 NA
HETATM    5  S8  UNL     1     -36.799  16.763  -3.205  1.00 20.00    -0.061 SA
HETATM    6 BR9  UNL     1     -39.934  17.243  -3.599  1.00 20.00    -0.041 Br
ENDROOT
BRANCH   3   7
HETATM    7  C5  UNL     1     -34.769  14.969  -3.254  1.00 20.00    -0.035 C 
HETATM    8  C4  UNL     1     -34.261  13.775  -3.613  1.00 20.00     0.021 C 
HETATM    9  C6  UNL     1     -33.846  16.016  -2.678  1.00 20.00     0.050 C 
ENDBRANCH   3   7
TORSDOF 1
ENDMDL
