MODEL 1
REMARK VINA RESULT:      -4.0      0.000      0.000
REMARK  1 active torsions:
REMARK  status: ('A' for Active; 'I' for Inactive)
REMARK    1  A    between atoms: C4_4  and  C5_5 
ROOT
HETATM    1  C1  UNL     1     -32.441   7.099   2.834  1.00 20.00     0.059 C 
HETATM    2  C5  UNL     1     -32.876   5.812   3.369  1.00 20.00     0.132 C 
HETATM    3  N6  UNL     1     -32.079   8.111   2.397  1.00 20.00    -0.197 NA
ENDROOT
BRANCH   2   4
HETATM    4  C4  UNL     1     -34.134   6.125   4.151  1.00 20.00     0.046 C 
HETATM    5  C2  UNL     1     -33.990   6.223   5.675  1.00 20.00     0.175 C 
HETATM    6  O7  UNL     1     -35.059   5.267   5.875  1.00 20.00    -0.390 OA
HETATM    7  C3  UNL     1     -35.062   4.945   4.462  1.00 20.00     0.175 C 
ENDBRANCH   2   4
TORSDOF 1
ENDMDL
MODEL 2
REMARK VINA RESULT:      -3.5     11.138     11.526
REMARK  1 active torsions:
REMARK  status: ('A' for Active; 'I' for Inactive)
REMARK    1  A    between atoms: C4_4  and  C5_5 
ROOT
HETATM    1  C1  UNL     1     -34.456  16.192  -1.864  1.00 20.00     0.059 C 
HETATM    2  C5  UNL     1     -34.228  15.755  -3.239  1.00 20.00     0.132 C 
HETATM    3  N6  UNL     1     -34.632  16.560  -0.778  1.00 20.00    -0.197 NA
ENDROOT
BRANCH   2   4
HETATM    4  C4  UNL     1     -34.513  14.269  -3.222  1.00 20.00     0.046 C 
HETATM    5  C2  UNL     1     -33.578  13.379  -4.050  1.00 20.00     0.175 C 
HETATM    6  O7  UNL     1     -34.699  12.779  -4.742  1.00 20.00    -0.390 OA
HETATM    7  C3  UNL     1     -35.599  13.766  -4.181  1.00 20.00     0.175 C 
ENDBRANCH   2   4
TORSDOF 1
ENDMDL
MODEL 3
REMARK VINA RESULT:      -3.5      2.903      3.723
REMARK  1 active torsions:
REMARK  status: ('A' for Active; 'I' for Inactive)
REMARK    1  A    between atoms: C4_4  and  C5_5 
ROOT
HETATM    1  C1  UNL     1     -34.691   4.815   5.859  1.00 20.00     0.059 C 
HETATM    2  C5  UNL     1     -34.056   6.130   5.874  1.00 20.00     0.132 C 
HETATM    3  N6  UNL     1     -35.194   3.770   5.869  1.00 20.00    -0.197 NA
ENDROOT
BRANCH   2   4
HETATM    4  C4  UNL     1     -34.048   6.570   4.426  1.00 20.00     0.046 C 
HETATM    5  C2  UNL     1     -34.426   5.511   3.383  1.00 20.00     0.175 C 
HETATM    6  O7  UNL     1     -33.210   5.758   2.635  1.00 20.00    -0.390 OA
HETATM    7  C3  UNL     1     -32.689   6.571   3.715  1.00 20.00     0.175 C 
ENDBRANCH   2   4
TORSDOF 1
ENDMDL
MODEL 4
REMARK VINA RESULT:      -3.4     11.634     12.047
REMARK  1 active torsions:
REMARK  status: ('A' for Active; 'I' for Inactive)
REMARK    1  A    between atoms: C4_4  and  C5_5 
ROOT
HETATM    1  C1  UNL     1     -35.167  13.687  -4.173  1.00 20.00     0.059 C 
HETATM    2  C5  UNL     1     -35.622  14.889  -3.480  1.00 20.00     0.132 C 
HETATM    3  N6  UNL     1     -34.827  12.729  -4.733  1.00 20.00    -0.197 NA
ENDROOT
BRANCH   2   4
HETATM    4  C4  UNL     1     -34.395  15.403  -2.757  1.00 20.00     0.046 C 
HETATM    5  C2  UNL     1     -34.641  16.330  -1.560  1.00 20.00     0.175 C 
HETATM    6  O7  UNL     1     -33.759  17.338  -2.110  1.00 20.00    -0.390 OA
HETATM    7  C3  UNL     1     -33.697  16.623  -3.369  1.00 20.00     0.175 C 
ENDBRANCH   2   4
TORSDOF 1
ENDMDL
MODEL 5
REMARK VINA RESULT:      -3.4     11.418     11.981
REMARK  1 active torsions:
REMARK  status: ('A' for Active; 'I' for Inactive)
REMARK    1  A    between atoms: C4_4  and  C5_5 
ROOT
HETATM    1  C1  UNL     1     -37.163  14.825  -3.595  1.00 20.00     0.059 C 
HETATM    2  C5  UNL     1     -35.862  15.420  -3.299  1.00 20.00     0.132 C 
HETATM    3  N6  UNL     1     -38.205  14.366  -3.815  1.00 20.00    -0.197 NA
ENDROOT
BRANCH   2   4
HETATM    4  C4  UNL     1     -34.905  14.749  -4.260  1.00 20.00     0.046 C 
HETATM    5  C2  UNL     1     -34.979  13.219  -4.351  1.00 20.00     0.175 C 
HETATM    6  O7  UNL     1     -33.558  13.097  -4.100  1.00 20.00    -0.390 OA
HETATM    7  C3  UNL     1     -33.479  14.501  -3.751  1.00 20.00     0.175 C 
ENDBRANCH   2   4
TORSDOF 1
ENDMDL
MODEL 6
REMARK VINA RESULT:      -3.3     11.812     12.787
REMARK  1 active torsions:
REMARK  status: ('A' for Active; 'I' for Inactive)
REMARK    1  A    between atoms: C4_4  and  C5_5 
ROOT
HETATM    1  C1  UNL     1     -34.770  13.801  -3.845  1.00 20.00     0.059 C 
HETATM    2  C5  UNL     1     -34.845  15.034  -3.068  1.00 20.00     0.132 C 
HETATM    3  N6  UNL     1     -34.731  12.813  -4.453  1.00 20.00    -0.197 NA
ENDROOT
BRANCH   2   4
HETATM    4  C4  UNL     1     -33.640  15.839  -3.506  1.00 20.00     0.046 C 
HETATM    5  C2  UNL     1     -33.751  17.364  -3.388  1.00 20.00     0.175 C 
HETATM    6  O7  UNL     1     -33.373  17.536  -4.776  1.00 20.00    -0.390 OA
HETATM    7  C3  UNL     1     -33.505  16.112  -5.009  1.00 20.00     0.175 C 
ENDBRANCH   2   4
TORSDOF 1
ENDMDL
MODEL 7
REMARK VINA RESULT:      -3.3     11.630     12.412
REMARK  1 active torsions:
REMARK  status: ('A' for Active; 'I' for Inactive)
REMARK    1  A    between atoms: C4_4  and  C5_5 
ROOT
HETATM    1  C1  UNL     1     -34.197  13.589  -4.114  1.00 20.00     0.059 C 
HETATM    2  C5  UNL     1     -33.255  14.612  -3.669  1.00 20.00     0.132 C 
HETATM    3  N6  UNL     1     -34.928  12.760  -4.468  1.00 20.00    -0.197 NA
ENDROOT
BRANCH   2   4
HETATM    4  C4  UNL     1     -34.110  15.834  -3.407  1.00 20.00     0.046 C 
HETATM    5  C2  UNL     1     -33.663  17.141  -4.072  1.00 20.00     0.175 C 
HETATM    6  O7  UNL     1     -33.684  17.839  -2.803  1.00 20.00    -0.390 OA
HETATM    7  C3  UNL     1     -33.852  16.586  -2.096  1.00 20.00     0.175 C 
ENDBRANCH   2   4
TORSDOF 1
ENDMDL
MODEL 8
REMARK VINA RESULT:      -3.2      2.828      3.604
REMARK  1 active torsions:
REMARK  status: ('A' for Active; 'I' for Inactive)
REMARK    1  A    between atoms: C4_4  and  C5_5 
ROOT
HETATM    1  C1  UNL     1     -35.051   4.664   5.107  1.00 20.00     0.059 C 
HETATM    2  C5  UNL     1     -34.959   5.103   3.717  1.00 20.00     0.132 C 
HETATM    3  N6  UNL     1     -35.135   4.295   6.204  1.00 20.00    -0.197 NA
ENDROOT
BRANCH   2   4
HETATM    4  C4  UNL     1     -34.202   6.413   3.778  1.00 20.00     0.046 C 
HETATM    5  C2  UNL     1     -32.924   6.508   2.935  1.00 20.00     0.175 C 
HETATM    6  O7  UNL     1     -32.151   6.926   4.086  1.00 20.00    -0.390 OA
HETATM    7  C3  UNL     1     -33.255   6.606   4.968  1.00 20.00     0.175 C 
ENDBRANCH   2   4
TORSDOF 1
ENDMDL
MODEL 9
REMARK VINA RESULT:      -3.2      2.336      3.091
REMARK  1 active torsions:
REMARK  status: ('A' for Active; 'I' for Inactive)
REMARK    1  A    between atoms: C4_4  and  C5_5 
ROOT
HETATM    1  C1  UNL     1     -34.115   6.304   6.519  1.00 20.00     0.059 C 
HETATM    2  C5  UNL     1     -34.889   5.085   6.299  1.00 20.00     0.132 C 
HETATM    3  N6  UNL     1     -33.507   7.272   6.716  1.00 20.00    -0.197 NA
ENDROOT
BRANCH   2   4
HETATM    4  C4  UNL     1     -34.663   4.744   4.841  1.00 20.00     0.046 C 
HETATM    5  C2  UNL     1     -33.584   5.549   4.106  1.00 20.00     0.175 C 
HETATM    6  O7  UNL     1     -34.513   5.905   3.054  1.00 20.00    -0.390 OA
HETATM    7  C3  UNL     1     -35.620   5.383   3.828  1.00 20.00     0.175 C 
ENDBRANCH   2   4
TORSDOF 1
ENDMDL
