MODEL 1
REMARK VINA RESULT:      -4.6      0.000      0.000
REMARK  1 active torsions:
REMARK  status: ('A' for Active; 'I' for Inactive)
REMARK    1  A    between atoms: C3_3  and  C9_9 
ROOT
HETATM    1  C1  UNL     1     -34.160  14.198  -3.567  1.00 20.00     0.017 A 
HETATM    2  C2  UNL     1     -34.567  13.726  -4.847  1.00 20.00     0.028 A 
HETATM    3  C3  UNL     1     -34.139  15.574  -3.505  1.00 20.00    -0.012 A 
HETATM    4  C4  UNL     1     -34.843  14.759  -5.716  1.00 20.00     0.051 A 
HETATM    5  S10 UNL     1     -34.610  16.291  -4.988  1.00 20.00    -0.087 SA
HETATM    6 BR11 UNL     1     -35.414  14.529  -7.513  1.00 20.00    -0.043 Br
ENDROOT
BRANCH   3   7
HETATM    7  C9  UNL     1     -33.768  16.457  -2.341  1.00 20.00     0.026 C 
HETATM    8  C7  UNL     1     -34.722  16.316  -1.141  1.00 20.00     0.010 C 
HETATM    9  C5  UNL     1     -34.804  17.713  -0.546  1.00 20.00     0.001 C 
HETATM   10  C6  UNL     1     -34.779  18.609  -1.772  1.00 20.00     0.001 C 
HETATM   11  C8  UNL     1     -33.733  17.963  -2.673  1.00 20.00     0.010 C 
ENDBRANCH   3   7
TORSDOF 1
ENDMDL
MODEL 2
REMARK VINA RESULT:      -4.5      3.157      4.939
REMARK  1 active torsions:
REMARK  status: ('A' for Active; 'I' for Inactive)
REMARK    1  A    between atoms: C3_3  and  C9_9 
ROOT
HETATM    1  C1  UNL     1     -34.385  16.492  -1.241  1.00 20.00     0.017 A 
HETATM    2  C2  UNL     1     -34.978  17.383  -0.302  1.00 20.00     0.028 A 
HETATM    3  C3  UNL     1     -35.071  16.465  -2.435  1.00 20.00    -0.012 A 
HETATM    4  C4  UNL     1     -36.095  18.006  -0.815  1.00 20.00     0.051 A 
HETATM    5  S10 UNL     1     -36.424  17.514  -2.422  1.00 20.00    -0.087 SA
HETATM    6 BR11 UNL     1     -37.156  19.263   0.134  1.00 20.00    -0.043 Br
ENDROOT
BRANCH   3   7
HETATM    7  C9  UNL     1     -34.770  15.660  -3.673  1.00 20.00     0.026 C 
HETATM    8  C7  UNL     1     -35.653  14.407  -3.816  1.00 20.00     0.010 C 
HETATM    9  C5  UNL     1     -34.744  13.363  -4.447  1.00 20.00     0.001 C 
HETATM   10  C6  UNL     1     -33.402  13.636  -3.792  1.00 20.00     0.001 C 
HETATM   11  C8  UNL     1     -33.314  15.158  -3.765  1.00 20.00     0.010 C 
ENDBRANCH   3   7
TORSDOF 1
ENDMDL
MODEL 3
REMARK VINA RESULT:      -4.4      1.493      1.920
REMARK  1 active torsions:
REMARK  status: ('A' for Active; 'I' for Inactive)
REMARK    1  A    between atoms: C3_3  and  C9_9 
ROOT
HETATM    1  C1  UNL     1     -33.519  17.861  -4.371  1.00 20.00     0.017 A 
HETATM    2  C2  UNL     1     -33.777  17.327  -5.666  1.00 20.00     0.028 A 
HETATM    3  C3  UNL     1     -33.741  16.937  -3.375  1.00 20.00    -0.012 A 
HETATM    4  C4  UNL     1     -34.185  16.012  -5.610  1.00 20.00     0.051 A 
HETATM    5  S10 UNL     1     -34.257  15.429  -4.002  1.00 20.00    -0.087 SA
HETATM    6 BR11 UNL     1     -34.621  14.957  -7.128  1.00 20.00    -0.043 Br
ENDROOT
BRANCH   3   7
HETATM    7  C9  UNL     1     -33.585  17.106  -1.885  1.00 20.00     0.026 C 
HETATM    8  C7  UNL     1     -34.700  16.421  -1.074  1.00 20.00     0.010 C 
HETATM    9  C5  UNL     1     -34.928  17.338   0.118  1.00 20.00     0.001 C 
HETATM   10  C6  UNL     1     -34.758  18.723  -0.477  1.00 20.00     0.001 C 
HETATM   11  C8  UNL     1     -33.564  18.574  -1.412  1.00 20.00     0.010 C 
ENDBRANCH   3   7
TORSDOF 1
ENDMDL
MODEL 4
REMARK VINA RESULT:      -4.4      2.585      3.753
REMARK  1 active torsions:
REMARK  status: ('A' for Active; 'I' for Inactive)
REMARK    1  A    between atoms: C3_3  and  C9_9 
ROOT
HETATM    1  C1  UNL     1     -34.454  16.745  -0.773  1.00 20.00     0.017 A 
HETATM    2  C2  UNL     1     -34.817  16.070  -1.973  1.00 20.00     0.028 A 
HETATM    3  C3  UNL     1     -33.910  17.986  -1.021  1.00 20.00    -0.012 A 
HETATM    4  C4  UNL     1     -34.537  16.822  -3.094  1.00 20.00     0.051 A 
HETATM    5  S10 UNL     1     -33.839  18.333  -2.696  1.00 20.00    -0.087 SA
HETATM    6 BR11 UNL     1     -34.878  16.261  -4.877  1.00 20.00    -0.043 Br
ENDROOT
BRANCH   3   7
HETATM    7  C9  UNL     1     -33.403  19.004  -0.031  1.00 20.00     0.026 C 
HETATM    8  C7  UNL     1     -31.885  18.920   0.207  1.00 20.00     0.010 C 
HETATM    9  C5  UNL     1     -31.705  19.263   1.678  1.00 20.00     0.001 C 
HETATM   10  C6  UNL     1     -32.911  18.612   2.332  1.00 20.00     0.001 C 
HETATM   11  C8  UNL     1     -34.052  18.907   1.365  1.00 20.00     0.010 C 
ENDBRANCH   3   7
TORSDOF 1
ENDMDL
MODEL 5
REMARK VINA RESULT:      -4.3      3.406      5.173
REMARK  1 active torsions:
REMARK  status: ('A' for Active; 'I' for Inactive)
REMARK    1  A    between atoms: C3_3  and  C9_9 
ROOT
HETATM    1  C1  UNL     1     -33.668  18.342  -2.629  1.00 20.00     0.017 A 
HETATM    2  C2  UNL     1     -33.630  18.981  -1.357  1.00 20.00     0.028 A 
HETATM    3  C3  UNL     1     -34.170  17.062  -2.551  1.00 20.00    -0.012 A 
HETATM    4  C4  UNL     1     -34.105  18.165  -0.354  1.00 20.00     0.051 A 
HETATM    5  S10 UNL     1     -34.594  16.635  -0.947  1.00 20.00    -0.087 SA
HETATM    6 BR11 UNL     1     -34.212  18.662   1.476  1.00 20.00    -0.043 Br
ENDROOT
BRANCH   3   7
HETATM    7  C9  UNL     1     -34.372  16.063  -3.662  1.00 20.00     0.026 C 
HETATM    8  C7  UNL     1     -35.467  15.024  -3.356  1.00 20.00     0.010 C 
HETATM    9  C5  UNL     1     -34.968  13.738  -3.996  1.00 20.00     0.001 C 
HETATM   10  C6  UNL     1     -33.470  13.792  -3.753  1.00 20.00     0.001 C 
HETATM   11  C8  UNL     1     -33.111  15.249  -4.019  1.00 20.00     0.010 C 
ENDBRANCH   3   7
TORSDOF 1
ENDMDL
MODEL 6
REMARK VINA RESULT:      -4.3      2.369      3.647
REMARK  1 active torsions:
REMARK  status: ('A' for Active; 'I' for Inactive)
REMARK    1  A    between atoms: C3_3  and  C9_9 
ROOT
HETATM    1  C1  UNL     1     -34.638  16.374  -1.145  1.00 20.00     0.017 A 
HETATM    2  C2  UNL     1     -34.342  15.962  -2.475  1.00 20.00     0.028 A 
HETATM    3  C3  UNL     1     -34.430  17.722  -0.961  1.00 20.00    -0.012 A 
HETATM    4  C4  UNL     1     -33.920  17.013  -3.260  1.00 20.00     0.051 A 
HETATM    5  S10 UNL     1     -33.881  18.488  -2.391  1.00 20.00    -0.087 SA
HETATM    6 BR11 UNL     1     -33.434  16.861  -5.090  1.00 20.00    -0.043 Br
ENDROOT
BRANCH   3   7
HETATM    7  C9  UNL     1     -34.625  18.542   0.289  1.00 20.00     0.026 C 
HETATM    8  C7  UNL     1     -33.383  18.571   1.199  1.00 20.00     0.010 C 
HETATM    9  C5  UNL     1     -33.942  18.593   2.614  1.00 20.00     0.001 C 
HETATM   10  C6  UNL     1     -35.155  17.686   2.517  1.00 20.00     0.001 C 
HETATM   11  C8  UNL     1     -35.788  18.066   1.184  1.00 20.00     0.010 C 
ENDBRANCH   3   7
TORSDOF 1
ENDMDL
MODEL 7
REMARK VINA RESULT:      -4.3      2.965      4.851
REMARK  1 active torsions:
REMARK  status: ('A' for Active; 'I' for Inactive)
REMARK    1  A    between atoms: C3_3  and  C9_9 
ROOT
HETATM    1  C1  UNL     1     -35.012  15.910  -2.231  1.00 20.00     0.017 A 
HETATM    2  C2  UNL     1     -34.367  16.625  -1.183  1.00 20.00     0.028 A 
HETATM    3  C3  UNL     1     -34.894  16.550  -3.445  1.00 20.00    -0.012 A 
HETATM    4  C4  UNL     1     -33.778  17.787  -1.635  1.00 20.00     0.051 A 
HETATM    5  S10 UNL     1     -34.007  18.010  -3.317  1.00 20.00    -0.087 SA
HETATM    6 BR11 UNL     1     -32.825  19.007  -0.535  1.00 20.00    -0.043 Br
ENDROOT
BRANCH   3   7
HETATM    7  C9  UNL     1     -35.431  16.125  -4.788  1.00 20.00     0.026 C 
HETATM    8  C7  UNL     1     -35.418  14.600  -4.995  1.00 20.00     0.010 C 
HETATM    9  C5  UNL     1     -35.106  14.414  -6.472  1.00 20.00     0.001 C 
HETATM   10  C6  UNL     1     -34.110  15.524  -6.755  1.00 20.00     0.001 C 
HETATM   11  C8  UNL     1     -34.670  16.718  -5.991  1.00 20.00     0.010 C 
ENDBRANCH   3   7
TORSDOF 1
ENDMDL
MODEL 8
REMARK VINA RESULT:      -4.2      2.784      4.879
REMARK  1 active torsions:
REMARK  status: ('A' for Active; 'I' for Inactive)
REMARK    1  A    between atoms: C3_3  and  C9_9 
ROOT
HETATM    1  C1  UNL     1     -34.108  16.410  -1.590  1.00 20.00     0.017 A 
HETATM    2  C2  UNL     1     -34.895  17.265  -0.768  1.00 20.00     0.028 A 
HETATM    3  C3  UNL     1     -34.652  16.254  -2.846  1.00 20.00    -0.012 A 
HETATM    4  C4  UNL     1     -36.011  17.733  -1.427  1.00 20.00     0.051 A 
HETATM    5  S10 UNL     1     -36.106  17.139  -3.030  1.00 20.00    -0.087 SA
HETATM    6 BR11 UNL     1     -37.302  18.898  -0.663  1.00 20.00    -0.043 Br
ENDROOT
BRANCH   3   7
HETATM    7  C9  UNL     1     -34.130  15.437  -4.001  1.00 20.00     0.026 C 
HETATM    8  C7  UNL     1     -35.029  15.502  -5.249  1.00 20.00     0.010 C 
HETATM    9  C5  UNL     1     -34.933  14.116  -5.866  1.00 20.00     0.001 C 
HETATM   10  C6  UNL     1     -34.880  13.203  -4.654  1.00 20.00     0.001 C 
HETATM   11  C8  UNL     1     -33.956  13.937  -3.688  1.00 20.00     0.010 C 
ENDBRANCH   3   7
TORSDOF 1
ENDMDL
MODEL 9
REMARK VINA RESULT:      -4.2      2.811      4.936
REMARK  1 active torsions:
REMARK  status: ('A' for Active; 'I' for Inactive)
REMARK    1  A    between atoms: C3_3  and  C9_9 
ROOT
HETATM    1  C1  UNL     1     -34.628  15.518  -2.475  1.00 20.00     0.017 A 
HETATM    2  C2  UNL     1     -34.831  16.464  -1.430  1.00 20.00     0.028 A 
HETATM    3  C3  UNL     1     -34.078  16.096  -3.598  1.00 20.00    -0.012 A 
HETATM    4  C4  UNL     1     -34.427  17.730  -1.793  1.00 20.00     0.051 A 
HETATM    5  S10 UNL     1     -33.808  17.775  -3.389  1.00 20.00    -0.087 SA
HETATM    6 BR11 UNL     1     -34.539  19.258  -0.670  1.00 20.00    -0.043 Br
ENDROOT
BRANCH   3   7
HETATM    7  C9  UNL     1     -33.713  15.445  -4.907  1.00 20.00     0.026 C 
HETATM    8  C7  UNL     1     -34.085  16.294  -6.136  1.00 20.00     0.010 C 
HETATM    9  C5  UNL     1     -34.496  15.282  -7.195  1.00 20.00     0.001 C 
HETATM   10  C6  UNL     1     -35.222  14.220  -6.390  1.00 20.00     0.001 C 
HETATM   11  C8  UNL     1     -34.370  14.068  -5.135  1.00 20.00     0.010 C 
ENDBRANCH   3   7
TORSDOF 1
ENDMDL
