MODEL 1
REMARK VINA RESULT:      -4.4      0.000      0.000
REMARK  0 active torsions:
REMARK  status: ('A' for Active; 'I' for Inactive)
ROOT
HETATM    1  C1  UNL     1     -35.048  13.702  -4.771  1.00 20.00     0.136 C 
HETATM    2  C2  UNL     1     -34.937  14.454  -3.461  1.00 20.00     0.088 C 
HETATM    3  C3  UNL     1     -35.446  14.495  -5.985  1.00 20.00     0.152 C 
HETATM    4  C4  UNL     1     -34.148  16.544  -4.684  1.00 20.00     0.083 C 
HETATM    5  C5  UNL     1     -33.881  15.575  -3.511  1.00 20.00    -0.033 C 
HETATM    6  C6  UNL     1     -32.464  14.972  -3.595  1.00 20.00     0.016 C 
HETATM    7  C7  UNL     1     -33.971  16.380  -2.197  1.00 20.00     0.016 C 
HETATM    8  O8  UNL     1     -34.876  12.483  -4.826  1.00 20.00    -0.297 OA
HETATM    9  S9  UNL     1     -34.190  15.746  -6.323  1.00 20.00    -0.161 SA
ENDROOT
TORSDOF 0
ENDMDL
MODEL 2
REMARK VINA RESULT:      -4.2      1.723      2.935
REMARK  0 active torsions:
REMARK  status: ('A' for Active; 'I' for Inactive)
ROOT
HETATM    1  C1  UNL     1     -34.429  13.570  -4.669  1.00 20.00     0.136 C 
HETATM    2  C2  UNL     1     -34.538  14.259  -6.013  1.00 20.00     0.088 C 
HETATM    3  C3  UNL     1     -33.293  13.986  -3.776  1.00 20.00     0.152 C 
HETATM    4  C4  UNL     1     -33.615  16.418  -5.024  1.00 20.00     0.083 C 
HETATM    5  C5  UNL     1     -34.732  15.783  -5.883  1.00 20.00    -0.033 C 
HETATM    6  C6  UNL     1     -36.127  16.097  -5.306  1.00 20.00     0.016 C 
HETATM    7  C7  UNL     1     -34.658  16.400  -7.295  1.00 20.00     0.016 C 
HETATM    8  O8  UNL     1     -35.204  12.668  -4.347  1.00 20.00    -0.297 OA
HETATM    9  S9  UNL     1     -33.477  15.728  -3.342  1.00 20.00    -0.161 SA
ENDROOT
TORSDOF 0
ENDMDL
MODEL 3
REMARK VINA RESULT:      -4.0      1.758      2.369
REMARK  0 active torsions:
REMARK  status: ('A' for Active; 'I' for Inactive)
ROOT
HETATM    1  C1  UNL     1     -35.327  13.858  -4.270  1.00 20.00     0.136 C 
HETATM    2  C2  UNL     1     -34.220  14.887  -4.354  1.00 20.00     0.088 C 
HETATM    3  C3  UNL     1     -36.717  14.367  -4.003  1.00 20.00     0.152 C 
HETATM    4  C4  UNL     1     -35.826  16.589  -5.362  1.00 20.00     0.083 C 
HETATM    5  C5  UNL     1     -34.445  15.907  -5.488  1.00 20.00    -0.033 C 
HETATM    6  C6  UNL     1     -34.283  15.225  -6.861  1.00 20.00     0.016 C 
HETATM    7  C7  UNL     1     -33.361  16.999  -5.375  1.00 20.00     0.016 C 
HETATM    8  O8  UNL     1     -35.090  12.653  -4.359  1.00 20.00    -0.297 OA
HETATM    9  S9  UNL     1     -37.237  15.434  -5.362  1.00 20.00    -0.161 SA
ENDROOT
TORSDOF 0
ENDMDL
MODEL 4
REMARK VINA RESULT:      -4.0      1.817      1.954
REMARK  0 active torsions:
REMARK  status: ('A' for Active; 'I' for Inactive)
ROOT
HETATM    1  C1  UNL     1     -37.026  14.841  -4.217  1.00 20.00     0.136 C 
HETATM    2  C2  UNL     1     -35.959  15.442  -3.327  1.00 20.00     0.088 C 
HETATM    3  C3  UNL     1     -37.037  15.268  -5.659  1.00 20.00     0.152 C 
HETATM    4  C4  UNL     1     -34.322  15.518  -5.278  1.00 20.00     0.083 C 
HETATM    5  C5  UNL     1     -34.532  15.104  -3.804  1.00 20.00    -0.033 C 
HETATM    6  C6  UNL     1     -34.241  13.604  -3.598  1.00 20.00     0.016 C 
HETATM    7  C7  UNL     1     -33.534  15.899  -2.937  1.00 20.00     0.016 C 
HETATM    8  O8  UNL     1     -37.884  14.081  -3.765  1.00 20.00    -0.297 OA
HETATM    9  S9  UNL     1     -35.496  14.757  -6.446  1.00 20.00    -0.161 SA
ENDROOT
TORSDOF 0
ENDMDL
MODEL 5
REMARK VINA RESULT:      -4.0      1.842      2.254
REMARK  0 active torsions:
REMARK  status: ('A' for Active; 'I' for Inactive)
ROOT
HETATM    1  C1  UNL     1     -36.113  14.507  -4.151  1.00 20.00     0.136 C 
HETATM    2  C2  UNL     1     -35.764  15.980  -4.170  1.00 20.00     0.088 C 
HETATM    3  C3  UNL     1     -35.102  13.556  -4.732  1.00 20.00     0.152 C 
HETATM    4  C4  UNL     1     -33.295  15.439  -3.857  1.00 20.00     0.083 C 
HETATM    5  C5  UNL     1     -34.485  16.296  -3.371  1.00 20.00    -0.033 C 
HETATM    6  C6  UNL     1     -34.735  16.098  -1.861  1.00 20.00     0.016 C 
HETATM    7  C7  UNL     1     -34.130  17.780  -3.596  1.00 20.00     0.016 C 
HETATM    8  O8  UNL     1     -37.201  14.111  -3.732  1.00 20.00    -0.297 OA
HETATM    9  S9  UNL     1     -33.578  13.641  -3.770  1.00 20.00    -0.161 SA
ENDROOT
TORSDOF 0
ENDMDL
MODEL 6
REMARK VINA RESULT:      -4.0      1.498      1.753
REMARK  0 active torsions:
REMARK  status: ('A' for Active; 'I' for Inactive)
ROOT
HETATM    1  C1  UNL     1     -33.985  13.760  -3.862  1.00 20.00     0.136 C 
HETATM    2  C2  UNL     1     -34.402  15.033  -3.157  1.00 20.00     0.088 C 
HETATM    3  C3  UNL     1     -34.945  13.188  -4.869  1.00 20.00     0.152 C 
HETATM    4  C4  UNL     1     -35.638  15.826  -5.239  1.00 20.00     0.083 C 
HETATM    5  C5  UNL     1     -34.627  16.204  -4.134  1.00 20.00    -0.033 C 
HETATM    6  C6  UNL     1     -33.283  16.660  -4.740  1.00 20.00     0.016 C 
HETATM    7  C7  UNL     1     -35.209  17.391  -3.338  1.00 20.00     0.016 C 
HETATM    8  O8  UNL     1     -32.932  13.187  -3.580  1.00 20.00    -0.297 OA
HETATM    9  S9  UNL     1     -35.168  14.363  -6.220  1.00 20.00    -0.161 SA
ENDROOT
TORSDOF 0
ENDMDL
MODEL 7
REMARK VINA RESULT:      -3.7      2.036      3.300
REMARK  0 active torsions:
REMARK  status: ('A' for Active; 'I' for Inactive)
ROOT
HETATM    1  C1  UNL     1     -33.232  15.466  -3.783  1.00 20.00     0.136 C 
HETATM    2  C2  UNL     1     -33.239  16.394  -4.979  1.00 20.00     0.088 C 
HETATM    3  C3  UNL     1     -34.361  15.608  -2.799  1.00 20.00     0.152 C 
HETATM    4  C4  UNL     1     -35.786  16.380  -5.023  1.00 20.00     0.083 C 
HETATM    5  C5  UNL     1     -34.494  16.220  -5.856  1.00 20.00    -0.033 C 
HETATM    6  C6  UNL     1     -34.459  14.855  -6.575  1.00 20.00     0.016 C 
HETATM    7  C7  UNL     1     -34.483  17.320  -6.938  1.00 20.00     0.016 C 
HETATM    8  O8  UNL     1     -32.311  14.671  -3.595  1.00 20.00    -0.297 OA
HETATM    9  S9  UNL     1     -35.922  15.227  -3.618  1.00 20.00    -0.161 SA
ENDROOT
TORSDOF 0
ENDMDL
MODEL 8
REMARK VINA RESULT:      -3.7      2.182      3.394
REMARK  0 active torsions:
REMARK  status: ('A' for Active; 'I' for Inactive)
ROOT
HETATM    1  C1  UNL     1     -34.254  16.142  -2.407  1.00 20.00     0.136 C 
HETATM    2  C2  UNL     1     -34.151  14.774  -3.049  1.00 20.00     0.088 C 
HETATM    3  C3  UNL     1     -33.875  17.326  -3.253  1.00 20.00     0.152 C 
HETATM    4  C4  UNL     1     -34.787  15.748  -5.315  1.00 20.00     0.083 C 
HETATM    5  C5  UNL     1     -35.061  14.630  -4.284  1.00 20.00    -0.033 C 
HETATM    6  C6  UNL     1     -36.543  14.615  -3.857  1.00 20.00     0.016 C 
HETATM    7  C7  UNL     1     -34.752  13.275  -4.954  1.00 20.00     0.016 C 
HETATM    8  O8  UNL     1     -34.578  16.272  -1.226  1.00 20.00    -0.297 OA
HETATM    9  S9  UNL     1     -34.994  17.438  -4.664  1.00 20.00    -0.161 SA
ENDROOT
TORSDOF 0
ENDMDL
MODEL 9
REMARK VINA RESULT:      -3.6     11.934     13.252
REMARK  0 active torsions:
REMARK  status: ('A' for Active; 'I' for Inactive)
ROOT
HETATM    1  C1  UNL     1     -41.065   5.787  -0.922  1.00 20.00     0.136 C 
HETATM    2  C2  UNL     1     -40.962   4.421  -1.568  1.00 20.00     0.088 C 
HETATM    3  C3  UNL     1     -41.522   6.924  -1.794  1.00 20.00     0.152 C 
HETATM    4  C4  UNL     1     -42.935   4.948  -3.090  1.00 20.00     0.083 C 
HETATM    5  C5  UNL     1     -42.312   3.922  -2.117  1.00 20.00    -0.033 C 
HETATM    6  C6  UNL     1     -43.275   3.599  -0.955  1.00 20.00     0.016 C 
HETATM    7  C7  UNL     1     -42.062   2.614  -2.896  1.00 20.00     0.016 C 
HETATM    8  O8  UNL     1     -40.733   5.968   0.250  1.00 20.00    -0.297 OA
HETATM    9  S9  UNL     1     -43.202   6.601  -2.369  1.00 20.00    -0.161 SA
ENDROOT
TORSDOF 0
ENDMDL
