MODEL 1
REMARK VINA RESULT:      -3.8      0.000      0.000
REMARK  1 active torsions:
REMARK  status: ('A' for Active; 'I' for Inactive)
REMARK    1  A    between atoms: C2_2  and  C6_6 
ROOT
HETATM    1  C1  UNL     1     -34.139  16.734  -6.468  1.00 20.00     0.167 A 
HETATM    2  C2  UNL     1     -33.899  16.145  -4.145  1.00 20.00     0.024 A 
HETATM    3  C3  UNL     1     -34.350  15.141  -4.976  1.00 20.00     0.116 A 
HETATM    4  N7  UNL     1     -34.489  15.477  -6.308  1.00 20.00    -0.245 NA
HETATM    5  S8  UNL     1     -33.633  17.572  -5.059  1.00 20.00    -0.084 SA
HETATM    6 BR9  UNL     1     -34.773  13.383  -4.396  1.00 20.00    -0.028 Br
ENDROOT
BRANCH   2   7
HETATM    7  C6  UNL     1     -33.658  16.041  -2.629  1.00 20.00     0.028 A 
HETATM    8  C4  UNL     1     -34.826  16.257  -1.696  1.00 20.00     0.010 A 
HETATM    9  C5  UNL     1     -33.755  17.296  -1.794  1.00 20.00     0.010 A 
ENDBRANCH   2   7
TORSDOF 1
ENDMDL
MODEL 2
REMARK VINA RESULT:      -3.8      2.463      3.214
REMARK  1 active torsions:
REMARK  status: ('A' for Active; 'I' for Inactive)
REMARK    1  A    between atoms: C2_2  and  C6_6 
ROOT
HETATM    1  C1  UNL     1     -33.658  18.100  -4.853  1.00 20.00     0.167 A 
HETATM    2  C2  UNL     1     -34.205  15.926  -3.973  1.00 20.00     0.024 A 
HETATM    3  C3  UNL     1     -34.147  16.950  -3.051  1.00 20.00     0.116 A 
HETATM    4  N7  UNL     1     -33.833  18.198  -3.554  1.00 20.00    -0.245 NA
HETATM    5  S8  UNL     1     -33.856  16.539  -5.536  1.00 20.00    -0.084 SA
HETATM    6 BR9  UNL     1     -34.466  16.734  -1.192  1.00 20.00    -0.028 Br
ENDROOT
BRANCH   2   7
HETATM    7  C6  UNL     1     -34.530  14.451  -3.684  1.00 20.00     0.028 A 
HETATM    8  C4  UNL     1     -33.403  13.444  -3.708  1.00 20.00     0.010 A 
HETATM    9  C5  UNL     1     -34.415  13.450  -4.810  1.00 20.00     0.010 A 
ENDBRANCH   2   7
TORSDOF 1
ENDMDL
MODEL 3
REMARK VINA RESULT:      -3.6      2.682      3.376
REMARK  1 active torsions:
REMARK  status: ('A' for Active; 'I' for Inactive)
REMARK    1  A    between atoms: C2_2  and  C6_6 
ROOT
HETATM    1  C1  UNL     1     -35.942  17.796  -4.758  1.00 20.00     0.167 A 
HETATM    2  C2  UNL     1     -35.233  15.673  -3.868  1.00 20.00     0.024 A 
HETATM    3  C3  UNL     1     -35.183  16.739  -2.993  1.00 20.00     0.116 A 
HETATM    4  N7  UNL     1     -35.589  17.957  -3.502  1.00 20.00    -0.245 NA
HETATM    5  S8  UNL     1     -35.812  16.207  -5.391  1.00 20.00    -0.084 SA
HETATM    6 BR9  UNL     1     -34.603  16.615  -1.189  1.00 20.00    -0.028 Br
ENDROOT
BRANCH   2   7
HETATM    7  C6  UNL     1     -34.840  14.218  -3.562  1.00 20.00     0.028 A 
HETATM    8  C4  UNL     1     -33.416  13.784  -3.823  1.00 20.00     0.010 A 
HETATM    9  C5  UNL     1     -34.514  13.299  -4.716  1.00 20.00     0.010 A 
ENDBRANCH   2   7
TORSDOF 1
ENDMDL
MODEL 4
REMARK VINA RESULT:      -3.6      2.448      2.529
REMARK  1 active torsions:
REMARK  status: ('A' for Active; 'I' for Inactive)
REMARK    1  A    between atoms: C2_2  and  C6_6 
ROOT
HETATM    1  C1  UNL     1     -34.169  13.331  -4.726  1.00 20.00     0.167 A 
HETATM    2  C2  UNL     1     -34.861  15.044  -3.179  1.00 20.00     0.024 A 
HETATM    3  C3  UNL     1     -35.867  14.465  -3.924  1.00 20.00     0.116 A 
HETATM    4  N7  UNL     1     -35.472  13.483  -4.812  1.00 20.00    -0.245 NA
HETATM    5  S8  UNL     1     -33.356  14.337  -3.598  1.00 20.00    -0.084 SA
HETATM    6 BR9  UNL     1     -37.702  14.936  -3.792  1.00 20.00    -0.028 Br
ENDROOT
BRANCH   2   7
HETATM    7  C6  UNL     1     -35.023  16.153  -2.126  1.00 20.00     0.028 A 
HETATM    8  C4  UNL     1     -34.787  17.586  -2.544  1.00 20.00     0.010 A 
HETATM    9  C5  UNL     1     -33.793  16.897  -1.664  1.00 20.00     0.010 A 
ENDBRANCH   2   7
TORSDOF 1
ENDMDL
MODEL 5
REMARK VINA RESULT:      -3.5      2.609      2.831
REMARK  1 active torsions:
REMARK  status: ('A' for Active; 'I' for Inactive)
REMARK    1  A    between atoms: C2_2  and  C6_6 
ROOT
HETATM    1  C1  UNL     1     -37.823  14.768  -3.950  1.00 20.00     0.167 A 
HETATM    2  C2  UNL     1     -35.876  15.865  -3.052  1.00 20.00     0.024 A 
HETATM    3  C3  UNL     1     -35.659  14.630  -3.627  1.00 20.00     0.116 A 
HETATM    4  N7  UNL     1     -36.775  14.000  -4.143  1.00 20.00    -0.245 NA
HETATM    5  S8  UNL     1     -37.540  16.263  -3.157  1.00 20.00    -0.084 SA
HETATM    6 BR9  UNL     1     -33.961  13.787  -3.740  1.00 20.00    -0.028 Br
ENDROOT
BRANCH   2   7
HETATM    7  C6  UNL     1     -34.816  16.774  -2.407  1.00 20.00     0.028 A 
HETATM    8  C4  UNL     1     -34.538  16.624  -0.930  1.00 20.00     0.010 A 
HETATM    9  C5  UNL     1     -35.269  17.831  -1.427  1.00 20.00     0.010 A 
ENDBRANCH   2   7
TORSDOF 1
ENDMDL
MODEL 6
REMARK VINA RESULT:      -3.4      2.184      2.350
REMARK  1 active torsions:
REMARK  status: ('A' for Active; 'I' for Inactive)
REMARK    1  A    between atoms: C2_2  and  C6_6 
ROOT
HETATM    1  C1  UNL     1     -34.804  13.926  -5.521  1.00 20.00     0.167 A 
HETATM    2  C2  UNL     1     -34.096  15.474  -3.817  1.00 20.00     0.024 A 
HETATM    3  C3  UNL     1     -34.141  15.974  -5.103  1.00 20.00     0.116 A 
HETATM    4  N7  UNL     1     -34.546  15.087  -6.081  1.00 20.00    -0.245 NA
HETATM    5  S8  UNL     1     -34.581  13.830  -3.823  1.00 20.00    -0.084 SA
HETATM    6 BR9  UNL     1     -33.688  17.756  -5.573  1.00 20.00    -0.028 Br
ENDROOT
BRANCH   2   7
HETATM    7  C6  UNL     1     -33.682  16.242  -2.550  1.00 20.00     0.028 A 
HETATM    8  C4  UNL     1     -34.659  16.316  -1.400  1.00 20.00     0.010 A 
HETATM    9  C5  UNL     1     -34.391  17.535  -2.224  1.00 20.00     0.010 A 
ENDBRANCH   2   7
TORSDOF 1
ENDMDL
MODEL 7
REMARK VINA RESULT:      -3.4      2.658      2.853
REMARK  1 active torsions:
REMARK  status: ('A' for Active; 'I' for Inactive)
REMARK    1  A    between atoms: C2_2  and  C6_6 
ROOT
HETATM    1  C1  UNL     1     -34.097  17.724  -5.986  1.00 20.00     0.167 A 
HETATM    2  C2  UNL     1     -34.315  15.349  -5.647  1.00 20.00     0.024 A 
HETATM    3  C3  UNL     1     -35.001  15.868  -6.725  1.00 20.00     0.116 A 
HETATM    4  N7  UNL     1     -34.878  17.229  -6.921  1.00 20.00    -0.245 NA
HETATM    5  S8  UNL     1     -33.476  16.608  -4.840  1.00 20.00    -0.084 SA
HETATM    6 BR9  UNL     1     -36.069  14.836  -7.909  1.00 20.00    -0.028 Br
ENDROOT
BRANCH   2   7
HETATM    7  C6  UNL     1     -34.281  13.876  -5.205  1.00 20.00     0.028 A 
HETATM    8  C4  UNL     1     -35.289  13.405  -4.182  1.00 20.00     0.010 A 
HETATM    9  C5  UNL     1     -33.852  13.555  -3.792  1.00 20.00     0.010 A 
ENDBRANCH   2   7
TORSDOF 1
ENDMDL
MODEL 8
REMARK VINA RESULT:      -3.4      5.449      6.712
REMARK  1 active torsions:
REMARK  status: ('A' for Active; 'I' for Inactive)
REMARK    1  A    between atoms: C2_2  and  C6_6 
ROOT
HETATM    1  C1  UNL     1     -31.792  19.154   2.368  1.00 20.00     0.167 A 
HETATM    2  C2  UNL     1     -33.516  18.498   0.819  1.00 20.00     0.024 A 
HETATM    3  C3  UNL     1     -33.860  18.456   2.154  1.00 20.00     0.116 A 
HETATM    4  N7  UNL     1     -32.872  18.831   3.044  1.00 20.00    -0.245 NA
HETATM    5  S8  UNL     1     -31.893  19.029   0.660  1.00 20.00    -0.084 SA
HETATM    6 BR9  UNL     1     -35.563  17.926   2.803  1.00 20.00    -0.028 Br
ENDROOT
BRANCH   2   7
HETATM    7  C6  UNL     1     -34.419  18.134  -0.372  1.00 20.00     0.028 A 
HETATM    8  C4  UNL     1     -34.578  16.677  -0.738  1.00 20.00     0.010 A 
HETATM    9  C5  UNL     1     -33.779  17.580  -1.623  1.00 20.00     0.010 A 
ENDBRANCH   2   7
TORSDOF 1
ENDMDL
MODEL 9
REMARK VINA RESULT:      -3.4     13.233     14.055
REMARK  1 active torsions:
REMARK  status: ('A' for Active; 'I' for Inactive)
REMARK    1  A    between atoms: C2_2  and  C6_6 
ROOT
HETATM    1  C1  UNL     1     -35.245   4.200   5.847  1.00 20.00     0.167 A 
HETATM    2  C2  UNL     1     -34.088   5.917   4.617  1.00 20.00     0.024 A 
HETATM    3  C3  UNL     1     -34.121   6.078   5.987  1.00 20.00     0.116 A 
HETATM    4  N7  UNL     1     -34.785   5.094   6.694  1.00 20.00    -0.245 NA
HETATM    5  S8  UNL     1     -34.916   4.479   4.187  1.00 20.00    -0.084 SA
HETATM    6 BR9  UNL     1     -33.328   7.534   6.912  1.00 20.00    -0.028 Br
ENDROOT
BRANCH   2   7
HETATM    7  C6  UNL     1     -33.420   6.859   3.600  1.00 20.00     0.028 A 
HETATM    8  C4  UNL     1     -32.496   6.264   2.563  1.00 20.00     0.010 A 
HETATM    9  C5  UNL     1     -31.927   7.074   3.685  1.00 20.00     0.010 A 
ENDBRANCH   2   7
TORSDOF 1
ENDMDL
