MODEL 1
REMARK VINA RESULT:      -4.3      0.000      0.000
REMARK  1 active torsions:
REMARK  status: ('A' for Active; 'I' for Inactive)
REMARK    1  A    between atoms: C3_3  and  C5_5 
ROOT
HETATM    1  C1  UNL     1     -34.632   4.999   3.464  1.00 20.00     0.022 A 
HETATM    2  C2  UNL     1     -33.846   5.755   2.546  1.00 20.00     0.028 A 
HETATM    3  C3  UNL     1     -34.456   5.420   4.764  1.00 20.00     0.048 A 
HETATM    4  C4  UNL     1     -33.100   6.724   3.179  1.00 20.00     0.052 A 
HETATM    5  S8  UNL     1     -33.347   6.721   4.874  1.00 20.00    -0.082 SA
HETATM    6 BR9  UNL     1     -31.930   7.930   2.295  1.00 20.00    -0.043 Br
ENDROOT
BRANCH   3   7
HETATM    7  C5  UNL     1     -35.086   4.895   5.995  1.00 20.00     0.393 C 
HETATM    8  F6  UNL     1     -34.973   5.780   7.026  1.00 20.00    -0.208 F 
HETATM    9  F7  UNL     1     -34.477   3.750   6.414  1.00 20.00    -0.208 F 
ENDBRANCH   3   7
TORSDOF 1
ENDMDL
MODEL 2
REMARK VINA RESULT:      -4.0      3.491      4.205
REMARK  1 active torsions:
REMARK  status: ('A' for Active; 'I' for Inactive)
REMARK    1  A    between atoms: C3_3  and  C5_5 
ROOT
HETATM    1  C1  UNL     1     -33.890   5.747   2.682  1.00 20.00     0.022 A 
HETATM    2  C2  UNL     1     -34.679   5.017   3.619  1.00 20.00     0.028 A 
HETATM    3  C3  UNL     1     -33.016   6.611   3.305  1.00 20.00     0.048 A 
HETATM    4  C4  UNL     1     -34.376   5.350   4.920  1.00 20.00     0.052 A 
HETATM    5  S8  UNL     1     -33.147   6.539   5.011  1.00 20.00    -0.082 SA
HETATM    6 BR9  UNL     1     -35.214   4.591   6.446  1.00 20.00    -0.043 Br
ENDROOT
BRANCH   3   7
HETATM    7  C5  UNL     1     -32.038   7.534   2.689  1.00 20.00     0.393 C 
HETATM    8  F6  UNL     1     -31.131   7.980   3.604  1.00 20.00    -0.208 F 
HETATM    9  F7  UNL     1     -32.651   8.647   2.195  1.00 20.00    -0.208 F 
ENDBRANCH   3   7
TORSDOF 1
ENDMDL
MODEL 3
REMARK VINA RESULT:      -3.9      9.978     10.436
REMARK  1 active torsions:
REMARK  status: ('A' for Active; 'I' for Inactive)
REMARK    1  A    between atoms: C3_3  and  C5_5 
ROOT
HETATM    1  C1  UNL     1     -40.787   5.487  -0.821  1.00 20.00     0.022 A 
HETATM    2  C2  UNL     1     -40.790   4.152  -1.321  1.00 20.00     0.028 A 
HETATM    3  C3  UNL     1     -41.717   6.280  -1.457  1.00 20.00     0.048 A 
HETATM    4  C4  UNL     1     -41.723   3.976  -2.319  1.00 20.00     0.052 A 
HETATM    5  S8  UNL     1     -42.589   5.415  -2.651  1.00 20.00    -0.082 SA
HETATM    6 BR9  UNL     1     -42.025   2.338  -3.231  1.00 20.00    -0.043 Br
ENDROOT
BRANCH   3   7
HETATM    7  C5  UNL     1     -42.019   7.709  -1.228  1.00 20.00     0.393 C 
HETATM    8  F6  UNL     1     -40.957   8.358  -0.673  1.00 20.00    -0.208 F 
HETATM    9  F7  UNL     1     -43.053   7.864  -0.354  1.00 20.00    -0.208 F 
ENDBRANCH   3   7
TORSDOF 1
ENDMDL
MODEL 4
REMARK VINA RESULT:      -3.9      1.292      1.688
REMARK  1 active torsions:
REMARK  status: ('A' for Active; 'I' for Inactive)
REMARK    1  A    between atoms: C3_3  and  C5_5 
ROOT
HETATM    1  C1  UNL     1     -33.710   6.356   5.656  1.00 20.00     0.022 A 
HETATM    2  C2  UNL     1     -32.908   7.238   4.874  1.00 20.00     0.028 A 
HETATM    3  C3  UNL     1     -34.354   5.418   4.879  1.00 20.00     0.048 A 
HETATM    4  C4  UNL     1     -32.969   6.939   3.531  1.00 20.00     0.052 A 
HETATM    5  S8  UNL     1     -33.991   5.602   3.216  1.00 20.00    -0.082 SA
HETATM    6 BR9  UNL     1     -32.037   7.887   2.175  1.00 20.00    -0.043 Br
ENDROOT
BRANCH   3   7
HETATM    7  C5  UNL     1     -35.269   4.338   5.309  1.00 20.00     0.393 C 
HETATM    8  F6  UNL     1     -35.620   4.477   6.619  1.00 20.00    -0.208 F 
HETATM    9  F7  UNL     1     -34.675   3.116   5.206  1.00 20.00    -0.208 F 
ENDBRANCH   3   7
TORSDOF 1
ENDMDL
MODEL 5
REMARK VINA RESULT:      -3.9     13.065     13.910
REMARK  1 active torsions:
REMARK  status: ('A' for Active; 'I' for Inactive)
REMARK    1  A    between atoms: C3_3  and  C5_5 
ROOT
HETATM    1  C1  UNL     1     -34.431  13.674  -4.827  1.00 20.00     0.022 A 
HETATM    2  C2  UNL     1     -34.459  14.068  -3.457  1.00 20.00     0.028 A 
HETATM    3  C3  UNL     1     -34.490  14.756  -5.678  1.00 20.00     0.048 A 
HETATM    4  C4  UNL     1     -34.536  15.435  -3.314  1.00 20.00     0.052 A 
HETATM    5  S8  UNL     1     -34.578  16.239  -4.825  1.00 20.00    -0.082 SA
HETATM    6 BR9  UNL     1     -34.593  16.340  -1.645  1.00 20.00    -0.043 Br
ENDROOT
BRANCH   3   7
HETATM    7  C5  UNL     1     -34.486  14.766  -7.157  1.00 20.00     0.393 C 
HETATM    8  F6  UNL     1     -34.656  16.028  -7.645  1.00 20.00    -0.208 F 
HETATM    9  F7  UNL     1     -35.516  14.027  -7.660  1.00 20.00    -0.208 F 
ENDBRANCH   3   7
TORSDOF 1
ENDMDL
MODEL 6
REMARK VINA RESULT:      -3.9     12.343     12.966
REMARK  1 active torsions:
REMARK  status: ('A' for Active; 'I' for Inactive)
REMARK    1  A    between atoms: C3_3  and  C5_5 
ROOT
HETATM    1  C1  UNL     1     -34.325  14.470  -3.193  1.00 20.00     0.022 A 
HETATM    2  C2  UNL     1     -34.400  14.036  -4.549  1.00 20.00     0.028 A 
HETATM    3  C3  UNL     1     -34.431  15.839  -3.082  1.00 20.00     0.048 A 
HETATM    4  C4  UNL     1     -34.561  15.090  -5.421  1.00 20.00     0.052 A 
HETATM    5  S8  UNL     1     -34.621  16.595  -4.607  1.00 20.00    -0.082 SA
HETATM    6 BR9  UNL     1     -34.702  14.913  -7.306  1.00 20.00    -0.043 Br
ENDROOT
BRANCH   3   7
HETATM    7  C5  UNL     1     -34.400  16.669  -1.857  1.00 20.00     0.393 C 
HETATM    8  F6  UNL     1     -33.128  17.044  -1.544  1.00 20.00    -0.208 F 
HETATM    9  F7  UNL     1     -34.864  15.976  -0.778  1.00 20.00    -0.208 F 
ENDBRANCH   3   7
TORSDOF 1
ENDMDL
MODEL 7
REMARK VINA RESULT:      -3.8     12.641     13.163
REMARK  1 active torsions:
REMARK  status: ('A' for Active; 'I' for Inactive)
REMARK    1  A    between atoms: C3_3  and  C5_5 
ROOT
HETATM    1  C1  UNL     1     -33.297  15.461  -4.168  1.00 20.00     0.022 A 
HETATM    2  C2  UNL     1     -33.241  16.138  -2.915  1.00 20.00     0.028 A 
HETATM    3  C3  UNL     1     -34.556  14.969  -4.434  1.00 20.00     0.048 A 
HETATM    4  C4  UNL     1     -34.459  16.138  -2.272  1.00 20.00     0.052 A 
HETATM    5  S8  UNL     1     -35.663  15.324  -3.177  1.00 20.00    -0.082 SA
HETATM    6 BR9  UNL     1     -34.782  16.940  -0.582  1.00 20.00    -0.043 Br
ENDROOT
BRANCH   3   7
HETATM    7  C5  UNL     1     -35.019  14.214  -5.619  1.00 20.00     0.393 C 
HETATM    8  F6  UNL     1     -34.935  12.869  -5.414  1.00 20.00    -0.208 F 
HETATM    9  F7  UNL     1     -34.242  14.477  -6.708  1.00 20.00    -0.208 F 
ENDBRANCH   3   7
TORSDOF 1
ENDMDL
MODEL 8
REMARK VINA RESULT:      -3.8     12.885     13.664
REMARK  1 active torsions:
REMARK  status: ('A' for Active; 'I' for Inactive)
REMARK    1  A    between atoms: C3_3  and  C5_5 
ROOT
HETATM    1  C1  UNL     1     -34.471  14.798  -6.087  1.00 20.00     0.022 A 
HETATM    2  C2  UNL     1     -34.408  16.038  -6.787  1.00 20.00     0.028 A 
HETATM    3  C3  UNL     1     -34.111  14.933  -4.764  1.00 20.00     0.048 A 
HETATM    4  C4  UNL     1     -34.002  17.072  -5.973  1.00 20.00     0.052 A 
HETATM    5  S8  UNL     1     -33.699  16.548  -4.371  1.00 20.00    -0.082 SA
HETATM    6 BR9  UNL     1     -33.797  18.872  -6.542  1.00 20.00    -0.043 Br
ENDROOT
BRANCH   3   7
HETATM    7  C5  UNL     1     -34.048  13.890  -3.717  1.00 20.00     0.393 C 
HETATM    8  F6  UNL     1     -32.823  13.294  -3.683  1.00 20.00    -0.208 F 
HETATM    9  F7  UNL     1     -34.946  12.893  -3.956  1.00 20.00    -0.208 F 
ENDBRANCH   3   7
TORSDOF 1
ENDMDL
MODEL 9
REMARK VINA RESULT:      -3.8     12.865     13.696
REMARK  1 active torsions:
REMARK  status: ('A' for Active; 'I' for Inactive)
REMARK    1  A    between atoms: C3_3  and  C5_5 
ROOT
HETATM    1  C1  UNL     1     -33.289  16.215  -4.266  1.00 20.00     0.022 A 
HETATM    2  C2  UNL     1     -33.467  17.158  -5.320  1.00 20.00     0.028 A 
HETATM    3  C3  UNL     1     -33.935  15.026  -4.521  1.00 20.00     0.048 A 
HETATM    4  C4  UNL     1     -34.241  16.652  -6.341  1.00 20.00     0.052 A 
HETATM    5  S8  UNL     1     -34.751  15.047  -6.027  1.00 20.00    -0.082 SA
HETATM    6 BR9  UNL     1     -34.699  17.606  -7.918  1.00 20.00    -0.043 Br
ENDROOT
BRANCH   3   7
HETATM    7  C5  UNL     1     -33.991  13.810  -3.681  1.00 20.00     0.393 C 
HETATM    8  F6  UNL     1     -32.785  13.176  -3.643  1.00 20.00    -0.208 F 
HETATM    9  F7  UNL     1     -34.878  12.902  -4.181  1.00 20.00    -0.208 F 
ENDBRANCH   3   7
TORSDOF 1
ENDMDL
