MODEL 1
REMARK VINA RESULT:      -4.2      0.000      0.000
REMARK  0 active torsions:
REMARK  status: ('A' for Active; 'I' for Inactive)
ROOT
HETATM    1  C1  UNL     1     -33.656  17.077  -3.623  1.00 20.00     0.014 C 
HETATM    2  C2  UNL     1     -33.394  16.777  -5.066  1.00 20.00     0.085 C 
HETATM    3  C3  UNL     1     -34.378  16.657  -1.491  1.00 20.00     0.034 C 
HETATM    4  C4  UNL     1     -33.924  18.096  -1.688  1.00 20.00     0.149 C 
HETATM    5  C5  UNL     1     -34.204  15.553  -5.495  1.00 20.00     0.277 C 
HETATM    6  C6  UNL     1     -34.515  14.778  -3.220  1.00 20.00     0.282 C 
HETATM    7  C7  UNL     1     -33.714  15.942  -2.650  1.00 20.00     0.063 C 
HETATM    8  C8  UNL     1     -34.725  13.240  -5.063  1.00 20.00     0.309 C 
HETATM    9  N9  UNL     1     -33.768  18.278  -3.147  1.00 20.00    -0.298 NA
HETATM   10  N10 UNL     1     -34.023  14.424  -4.564  1.00 20.00     0.085 N 
ENDROOT
TORSDOF 0
ENDMDL
MODEL 2
REMARK VINA RESULT:      -4.1     12.057     13.349
REMARK  0 active torsions:
REMARK  status: ('A' for Active; 'I' for Inactive)
ROOT
HETATM    1  C1  UNL     1     -34.663   4.999   4.255  1.00 20.00     0.014 C 
HETATM    2  C2  UNL     1     -34.475   5.105   2.774  1.00 20.00     0.085 C 
HETATM    3  C3  UNL     1     -34.276   5.484   6.459  1.00 20.00     0.034 C 
HETATM    4  C4  UNL     1     -35.255   4.336   6.271  1.00 20.00     0.149 C 
HETATM    5  C5  UNL     1     -33.148   5.803   2.470  1.00 20.00     0.277 C 
HETATM    6  C6  UNL     1     -32.996   6.797   4.675  1.00 20.00     0.282 C 
HETATM    7  C7  UNL     1     -34.318   6.176   5.112  1.00 20.00     0.063 C 
HETATM    8  C8  UNL     1     -31.779   7.754   2.829  1.00 20.00     0.309 C 
HETATM    9  N9  UNL     1     -35.179   3.963   4.842  1.00 20.00    -0.298 NA
HETATM   10  N10 UNL     1     -33.007   7.062   3.225  1.00 20.00     0.085 N 
ENDROOT
TORSDOF 0
ENDMDL
MODEL 3
REMARK VINA RESULT:      -4.0      1.385      4.179
REMARK  0 active torsions:
REMARK  status: ('A' for Active; 'I' for Inactive)
ROOT
HETATM    1  C1  UNL     1     -34.548  14.562  -5.183  1.00 20.00     0.014 C 
HETATM    2  C2  UNL     1     -34.564  14.000  -3.796  1.00 20.00     0.085 C 
HETATM    3  C3  UNL     1     -34.328  16.180  -6.788  1.00 20.00     0.034 C 
HETATM    4  C4  UNL     1     -34.792  14.847  -7.354  1.00 20.00     0.149 C 
HETATM    5  C5  UNL     1     -34.667  15.137  -2.778  1.00 20.00     0.277 C 
HETATM    6  C6  UNL     1     -33.890  16.812  -4.349  1.00 20.00     0.282 C 
HETATM    7  C7  UNL     1     -33.723  15.780  -5.458  1.00 20.00     0.063 C 
HETATM    8  C8  UNL     1     -33.724  17.206  -1.978  1.00 20.00     0.309 C 
HETATM    9  N9  UNL     1     -35.156  14.013  -6.188  1.00 20.00    -0.298 NA
HETATM   10  N10 UNL     1     -33.666  16.190  -3.031  1.00 20.00     0.085 N 
ENDROOT
TORSDOF 0
ENDMDL
MODEL 4
REMARK VINA RESULT:      -3.9      1.176      4.027
REMARK  0 active torsions:
REMARK  status: ('A' for Active; 'I' for Inactive)
ROOT
HETATM    1  C1  UNL     1     -34.087  15.060  -3.841  1.00 20.00     0.014 C 
HETATM    2  C2  UNL     1     -33.657  16.043  -2.797  1.00 20.00     0.085 C 
HETATM    3  C3  UNL     1     -34.740  14.360  -5.921  1.00 20.00     0.034 C 
HETATM    4  C4  UNL     1     -34.797  13.252  -4.880  1.00 20.00     0.149 C 
HETATM    5  C5  UNL     1     -33.971  17.465  -3.265  1.00 20.00     0.277 C 
HETATM    6  C6  UNL     1     -34.126  16.822  -5.597  1.00 20.00     0.282 C 
HETATM    7  C7  UNL     1     -33.806  15.365  -5.279  1.00 20.00     0.063 C 
HETATM    8  C8  UNL     1     -33.690  19.115  -5.000  1.00 20.00     0.309 C 
HETATM    9  N9  UNL     1     -34.631  13.914  -3.569  1.00 20.00    -0.298 NA
HETATM   10  N10 UNL     1     -33.467  17.716  -4.628  1.00 20.00     0.085 N 
ENDROOT
TORSDOF 0
ENDMDL
MODEL 5
REMARK VINA RESULT:      -3.8      2.308      3.781
REMARK  0 active torsions:
REMARK  status: ('A' for Active; 'I' for Inactive)
ROOT
HETATM    1  C1  UNL     1     -34.514  14.234  -5.342  1.00 20.00     0.014 C 
HETATM    2  C2  UNL     1     -35.323  14.201  -6.600  1.00 20.00     0.085 C 
HETATM    3  C3  UNL     1     -33.097  15.129  -3.781  1.00 20.00     0.034 C 
HETATM    4  C4  UNL     1     -33.443  13.675  -3.498  1.00 20.00     0.149 C 
HETATM    5  C5  UNL     1     -34.859  15.313  -7.542  1.00 20.00     0.277 C 
HETATM    6  C6  UNL     1     -33.803  16.579  -5.766  1.00 20.00     0.282 C 
HETATM    7  C7  UNL     1     -34.213  15.557  -4.712  1.00 20.00     0.063 C 
HETATM    8  C8  UNL     1     -34.451  17.673  -7.812  1.00 20.00     0.309 C 
HETATM    9  N9  UNL     1     -34.112  13.170  -4.717  1.00 20.00    -0.298 NA
HETATM   10  N10 UNL     1     -34.793  16.617  -6.857  1.00 20.00     0.085 N 
ENDROOT
TORSDOF 0
ENDMDL
MODEL 6
REMARK VINA RESULT:      -3.8      0.915      3.684
REMARK  0 active torsions:
REMARK  status: ('A' for Active; 'I' for Inactive)
ROOT
HETATM    1  C1  UNL     1     -34.560  15.491  -4.991  1.00 20.00     0.014 C 
HETATM    2  C2  UNL     1     -34.574  16.918  -5.440  1.00 20.00     0.085 C 
HETATM    3  C3  UNL     1     -34.280  13.756  -3.522  1.00 20.00     0.034 C 
HETATM    4  C4  UNL     1     -34.574  13.288  -4.939  1.00 20.00     0.149 C 
HETATM    5  C5  UNL     1     -33.799  17.781  -4.444  1.00 20.00     0.277 C 
HETATM    6  C6  UNL     1     -33.975  16.146  -2.664  1.00 20.00     0.282 C 
HETATM    7  C7  UNL     1     -34.773  15.189  -3.541  1.00 20.00     0.063 C 
HETATM    8  C8  UNL     1     -33.551  18.460  -2.145  1.00 20.00     0.309 C 
HETATM    9  N9  UNL     1     -34.443  14.483  -5.800  1.00 20.00    -0.298 NA
HETATM   10  N10 UNL     1     -34.237  17.543  -3.056  1.00 20.00     0.085 N 
ENDROOT
TORSDOF 0
ENDMDL
MODEL 7
REMARK VINA RESULT:      -3.8      1.599      4.118
REMARK  0 active torsions:
REMARK  status: ('A' for Active; 'I' for Inactive)
ROOT
HETATM    1  C1  UNL     1     -34.530  14.837  -3.550  1.00 20.00     0.014 C 
HETATM    2  C2  UNL     1     -34.454  15.741  -2.360  1.00 20.00     0.085 C 
HETATM    3  C3  UNL     1     -35.145  14.194  -5.661  1.00 20.00     0.034 C 
HETATM    4  C4  UNL     1     -34.426  13.094  -4.895  1.00 20.00     0.149 C 
HETATM    5  C5  UNL     1     -35.529  16.824  -2.463  1.00 20.00     0.277 C 
HETATM    6  C6  UNL     1     -35.805  16.530  -4.853  1.00 20.00     0.282 C 
HETATM    7  C7  UNL     1     -34.739  15.442  -4.903  1.00 20.00     0.063 C 
HETATM    8  C8  UNL     1     -36.474  18.592  -3.802  1.00 20.00     0.309 C 
HETATM    9  N9  UNL     1     -34.355  13.553  -3.491  1.00 20.00    -0.298 NA
HETATM   10  N10 UNL     1     -35.507  17.493  -3.778  1.00 20.00     0.085 N 
ENDROOT
TORSDOF 0
ENDMDL
MODEL 8
REMARK VINA RESULT:      -3.7      2.162      3.840
REMARK  0 active torsions:
REMARK  status: ('A' for Active; 'I' for Inactive)
ROOT
HETATM    1  C1  UNL     1     -35.272  14.353  -3.790  1.00 20.00     0.014 C 
HETATM    2  C2  UNL     1     -36.755  14.495  -3.935  1.00 20.00     0.085 C 
HETATM    3  C3  UNL     1     -33.102  15.066  -3.628  1.00 20.00     0.034 C 
HETATM    4  C4  UNL     1     -33.221  13.551  -3.699  1.00 20.00     0.149 C 
HETATM    5  C5  UNL     1     -37.092  15.894  -4.451  1.00 20.00     0.277 C 
HETATM    6  C6  UNL     1     -34.958  16.820  -3.771  1.00 20.00     0.282 C 
HETATM    7  C7  UNL     1     -34.493  15.485  -3.199  1.00 20.00     0.063 C 
HETATM    8  C8  UNL     1     -36.852  18.269  -4.113  1.00 20.00     0.309 C 
HETATM    9  N9  UNL     1     -34.621  13.269  -4.083  1.00 20.00    -0.298 NA
HETATM   10  N10 UNL     1     -36.422  16.945  -3.660  1.00 20.00     0.085 N 
ENDROOT
TORSDOF 0
ENDMDL
MODEL 9
REMARK VINA RESULT:      -3.7      2.744      4.196
REMARK  0 active torsions:
REMARK  status: ('A' for Active; 'I' for Inactive)
ROOT
HETATM    1  C1  UNL     1     -36.814  14.547  -4.259  1.00 20.00     0.014 C 
HETATM    2  C2  UNL     1     -35.517  13.842  -4.010  1.00 20.00     0.085 C 
HETATM    3  C3  UNL     1     -38.173  16.280  -4.889  1.00 20.00     0.034 C 
HETATM    4  C4  UNL     1     -38.944  15.111  -4.294  1.00 20.00     0.149 C 
HETATM    5  C5  UNL     1     -34.376  14.859  -3.969  1.00 20.00     0.277 C 
HETATM    6  C6  UNL     1     -35.643  16.552  -5.152  1.00 20.00     0.282 C 
HETATM    7  C7  UNL     1     -36.857  15.639  -5.281  1.00 20.00     0.063 C 
HETATM    8  C8  UNL     1     -33.236  16.644  -5.120  1.00 20.00     0.309 C 
HETATM    9  N9  UNL     1     -37.932  14.221  -3.686  1.00 20.00    -0.298 NA
HETATM   10  N10 UNL     1     -34.401  15.758  -5.138  1.00 20.00     0.085 N 
ENDROOT
TORSDOF 0
ENDMDL
