MODEL 1
REMARK VINA RESULT:      -4.9      0.000      0.000
REMARK  0 active torsions:
REMARK  status: ('A' for Active; 'I' for Inactive)
ROOT
HETATM    1  C1  UNL     1     -33.354  17.276  -4.914  1.00 20.00     0.050 A 
HETATM    2  C2  UNL     1     -34.551  16.949  -7.012  1.00 20.00     0.062 A 
HETATM    3  C3  UNL     1     -34.323  15.155  -5.478  1.00 20.00     0.034 A 
HETATM    4  C4  UNL     1     -33.607  15.953  -4.593  1.00 20.00    -0.040 A 
HETATM    5  C5  UNL     1     -33.830  17.774  -6.132  1.00 20.00     0.118 A 
HETATM    6  C6  UNL     1     -34.806  15.618  -6.688  1.00 20.00     0.028 A 
HETATM    7  C7  UNL     1     -34.443  13.828  -4.898  1.00 20.00     0.161 A 
HETATM    8  C8  UNL     1     -33.194  15.222  -3.357  1.00 20.00     0.047 A 
HETATM    9  C9  UNL     1     -33.750  13.801  -3.557  1.00 20.00     0.088 A 
HETATM   10  O10 UNL     1     -35.008  12.875  -5.403  1.00 20.00    -0.292 OA
HETATM   11  F11 UNL     1     -33.598  19.051  -6.463  1.00 20.00    -0.206 F 
HETATM   12 BR12 UNL     1     -35.783  14.563  -7.914  1.00 20.00    -0.050 Br
ENDROOT
TORSDOF 0
ENDMDL
MODEL 2
REMARK VINA RESULT:      -4.8      7.544      8.710
REMARK  0 active torsions:
REMARK  status: ('A' for Active; 'I' for Inactive)
ROOT
HETATM    1  C1  UNL     1     -35.489  17.734   1.732  1.00 20.00     0.050 A 
HETATM    2  C2  UNL     1     -33.955  18.316   3.534  1.00 20.00     0.062 A 
HETATM    3  C3  UNL     1     -33.269  18.519   1.274  1.00 20.00     0.034 A 
HETATM    4  C4  UNL     1     -34.502  18.069   0.819  1.00 20.00    -0.040 A 
HETATM    5  C5  UNL     1     -35.210  17.859   3.097  1.00 20.00     0.118 A 
HETATM    6  C6  UNL     1     -32.963  18.654   2.615  1.00 20.00     0.028 A 
HETATM    7  C7  UNL     1     -32.432  18.797   0.117  1.00 20.00     0.161 A 
HETATM    8  C8  UNL     1     -34.586  18.011  -0.672  1.00 20.00     0.047 A 
HETATM    9  C9  UNL     1     -33.204  18.495  -1.145  1.00 20.00     0.088 A 
HETATM   10  O10 UNL     1     -31.287  19.206   0.146  1.00 20.00    -0.292 OA
HETATM   11  F11 UNL     1     -36.149  17.542   3.998  1.00 20.00    -0.206 F 
HETATM   12 BR12 UNL     1     -31.298  19.263   3.268  1.00 20.00    -0.050 Br
ENDROOT
TORSDOF 0
ENDMDL
MODEL 3
REMARK VINA RESULT:      -4.8      2.628      3.371
REMARK  0 active torsions:
REMARK  status: ('A' for Active; 'I' for Inactive)
ROOT
HETATM    1  C1  UNL     1     -34.321  15.536  -2.233  1.00 20.00     0.050 A 
HETATM    2  C2  UNL     1     -33.833  17.728  -3.181  1.00 20.00     0.062 A 
HETATM    3  C3  UNL     1     -34.260  15.881  -4.606  1.00 20.00     0.034 A 
HETATM    4  C4  UNL     1     -34.443  15.036  -3.519  1.00 20.00    -0.040 A 
HETATM    5  C5  UNL     1     -34.014  16.891  -2.067  1.00 20.00     0.118 A 
HETATM    6  C6  UNL     1     -33.956  17.224  -4.475  1.00 20.00     0.028 A 
HETATM    7  C7  UNL     1     -34.444  15.105  -5.821  1.00 20.00     0.161 A 
HETATM    8  C8  UNL     1     -34.762  13.633  -3.922  1.00 20.00     0.047 A 
HETATM    9  C9  UNL     1     -34.763  13.674  -5.460  1.00 20.00     0.088 A 
HETATM   10  O10 UNL     1     -34.356  15.528  -6.960  1.00 20.00    -0.292 OA
HETATM   11  F11 UNL     1     -33.893  17.397  -0.832  1.00 20.00    -0.206 F 
HETATM   12 BR12 UNL     1     -33.702  18.402  -5.929  1.00 20.00    -0.050 Br
ENDROOT
TORSDOF 0
ENDMDL
MODEL 4
REMARK VINA RESULT:      -4.8      7.703      8.844
REMARK  0 active torsions:
REMARK  status: ('A' for Active; 'I' for Inactive)
ROOT
HETATM    1  C1  UNL     1     -34.218  18.166   3.904  1.00 20.00     0.050 A 
HETATM    2  C2  UNL     1     -35.285  17.901   1.729  1.00 20.00     0.062 A 
HETATM    3  C3  UNL     1     -33.025  18.604   1.870  1.00 20.00     0.034 A 
HETATM    4  C4  UNL     1     -33.055  18.551   3.257  1.00 20.00    -0.040 A 
HETATM    5  C5  UNL     1     -35.338  17.840   3.132  1.00 20.00     0.118 A 
HETATM    6  C6  UNL     1     -34.115  18.288   1.079  1.00 20.00     0.028 A 
HETATM    7  C7  UNL     1     -31.698  19.032   1.459  1.00 20.00     0.161 A 
HETATM    8  C8  UNL     1     -31.754  18.939   3.882  1.00 20.00     0.047 A 
HETATM    9  C9  UNL     1     -30.844  19.263   2.683  1.00 20.00     0.088 A 
HETATM   10  O10 UNL     1     -31.320  19.188   0.313  1.00 20.00    -0.292 OA
HETATM   11  F11 UNL     1     -36.473  17.464   3.736  1.00 20.00    -0.206 F 
HETATM   12 BR12 UNL     1     -34.110  18.347  -0.809  1.00 20.00    -0.050 Br
ENDROOT
TORSDOF 0
ENDMDL
MODEL 5
REMARK VINA RESULT:      -4.8      3.173      3.922
REMARK  0 active torsions:
REMARK  status: ('A' for Active; 'I' for Inactive)
ROOT
HETATM    1  C1  UNL     1     -34.404  14.335  -3.349  1.00 20.00     0.050 A 
HETATM    2  C2  UNL     1     -34.393  14.981  -5.699  1.00 20.00     0.062 A 
HETATM    3  C3  UNL     1     -34.358  16.642  -4.007  1.00 20.00     0.034 A 
HETATM    4  C4  UNL     1     -34.376  15.677  -3.007  1.00 20.00    -0.040 A 
HETATM    5  C5  UNL     1     -34.412  13.989  -4.704  1.00 20.00     0.118 A 
HETATM    6  C6  UNL     1     -34.365  16.331  -5.354  1.00 20.00     0.028 A 
HETATM    7  C7  UNL     1     -34.330  17.951  -3.375  1.00 20.00     0.161 A 
HETATM    8  C8  UNL     1     -34.364  16.265  -1.633  1.00 20.00     0.047 A 
HETATM    9  C9  UNL     1     -34.334  17.785  -1.874  1.00 20.00     0.088 A 
HETATM   10  O10 UNL     1     -34.310  19.022  -3.952  1.00 20.00    -0.292 OA
HETATM   11  F11 UNL     1     -34.437  12.697  -5.058  1.00 20.00    -0.206 F 
HETATM   12 BR12 UNL     1     -34.339  17.615  -6.740  1.00 20.00    -0.050 Br
ENDROOT
TORSDOF 0
ENDMDL
MODEL 6
REMARK VINA RESULT:      -4.8      2.698      3.843
REMARK  0 active torsions:
REMARK  status: ('A' for Active; 'I' for Inactive)
ROOT
HETATM    1  C1  UNL     1     -34.098  17.529  -2.532  1.00 20.00     0.050 A 
HETATM    2  C2  UNL     1     -34.610  15.148  -2.603  1.00 20.00     0.062 A 
HETATM    3  C3  UNL     1     -34.172  16.332  -4.609  1.00 20.00     0.034 A 
HETATM    4  C4  UNL     1     -33.977  17.518  -3.912  1.00 20.00    -0.040 A 
HETATM    5  C5  UNL     1     -34.417  16.335  -1.877  1.00 20.00     0.118 A 
HETATM    6  C6  UNL     1     -34.488  15.136  -3.991  1.00 20.00     0.028 A 
HETATM    7  C7  UNL     1     -33.986  16.602  -6.026  1.00 20.00     0.161 A 
HETATM    8  C8  UNL     1     -33.647  18.670  -4.805  1.00 20.00     0.047 A 
HETATM    9  C9  UNL     1     -33.653  18.062  -6.219  1.00 20.00     0.088 A 
HETATM   10  O10 UNL     1     -34.083  15.790  -6.927  1.00 20.00    -0.292 OA
HETATM   11  F11 UNL     1     -34.537  16.323  -0.543  1.00 20.00    -0.206 F 
HETATM   12 BR12 UNL     1     -34.758  13.507  -4.907  1.00 20.00    -0.050 Br
ENDROOT
TORSDOF 0
ENDMDL
MODEL 7
REMARK VINA RESULT:      -4.7      3.269      3.531
REMARK  0 active torsions:
REMARK  status: ('A' for Active; 'I' for Inactive)
ROOT
HETATM    1  C1  UNL     1     -33.472  16.263  -2.676  1.00 20.00     0.050 A 
HETATM    2  C2  UNL     1     -35.426  17.684  -2.358  1.00 20.00     0.062 A 
HETATM    3  C3  UNL     1     -35.668  15.515  -3.284  1.00 20.00     0.034 A 
HETATM    4  C4  UNL     1     -34.302  15.282  -3.194  1.00 20.00    -0.040 A 
HETATM    5  C5  UNL     1     -34.041  17.470  -2.257  1.00 20.00     0.118 A 
HETATM    6  C6  UNL     1     -36.261  16.697  -2.879  1.00 20.00     0.028 A 
HETATM    7  C7  UNL     1     -36.294  14.333  -3.856  1.00 20.00     0.161 A 
HETATM    8  C8  UNL     1     -33.908  13.931  -3.697  1.00 20.00     0.047 A 
HETATM    9  C9  UNL     1     -35.237  13.294  -4.141  1.00 20.00     0.088 A 
HETATM   10  O10 UNL     1     -37.482  14.190  -4.079  1.00 20.00    -0.292 OA
HETATM   11  F11 UNL     1     -33.258  18.433  -1.752  1.00 20.00    -0.206 F 
HETATM   12 BR12 UNL     1     -38.114  17.047  -2.987  1.00 20.00    -0.050 Br
ENDROOT
TORSDOF 0
ENDMDL
MODEL 8
REMARK VINA RESULT:      -4.7      3.702      4.314
REMARK  0 active torsions:
REMARK  status: ('A' for Active; 'I' for Inactive)
ROOT
HETATM    1  C1  UNL     1     -33.766  14.631  -3.471  1.00 20.00     0.050 A 
HETATM    2  C2  UNL     1     -35.964  13.986  -4.305  1.00 20.00     0.062 A 
HETATM    3  C3  UNL     1     -35.723  15.918  -2.951  1.00 20.00     0.034 A 
HETATM    4  C4  UNL     1     -34.353  15.717  -2.841  1.00 20.00    -0.040 A 
HETATM    5  C5  UNL     1     -34.580  13.762  -4.206  1.00 20.00     0.118 A 
HETATM    6  C6  UNL     1     -36.553  15.078  -3.670  1.00 20.00     0.028 A 
HETATM    7  C7  UNL     1     -36.069  17.115  -2.202  1.00 20.00     0.161 A 
HETATM    8  C8  UNL     1     -33.677  16.760  -2.011  1.00 20.00     0.047 A 
HETATM    9  C9  UNL     1     -34.821  17.696  -1.581  1.00 20.00     0.088 A 
HETATM   10  O10 UNL     1     -37.184  17.586  -2.082  1.00 20.00    -0.292 OA
HETATM   11  F11 UNL     1     -34.034  12.707  -4.825  1.00 20.00    -0.206 F 
HETATM   12 BR12 UNL     1     -38.419  15.321  -3.843  1.00 20.00    -0.050 Br
ENDROOT
TORSDOF 0
ENDMDL
MODEL 9
REMARK VINA RESULT:      -4.7      3.405      4.596
REMARK  0 active torsions:
REMARK  status: ('A' for Active; 'I' for Inactive)
ROOT
HETATM    1  C1  UNL     1     -34.480  14.783  -5.936  1.00 20.00     0.050 A 
HETATM    2  C2  UNL     1     -34.660  14.466  -3.526  1.00 20.00     0.062 A 
HETATM    3  C3  UNL     1     -34.267  16.628  -4.417  1.00 20.00     0.034 A 
HETATM    4  C4  UNL     1     -34.276  16.136  -5.716  1.00 20.00    -0.040 A 
HETATM    5  C5  UNL     1     -34.673  13.946  -4.831  1.00 20.00     0.118 A 
HETATM    6  C6  UNL     1     -34.455  15.827  -3.305  1.00 20.00     0.028 A 
HETATM    7  C7  UNL     1     -34.036  18.062  -4.475  1.00 20.00     0.161 A 
HETATM    8  C8  UNL     1     -34.050  17.199  -6.741  1.00 20.00     0.047 A 
HETATM    9  C9  UNL     1     -33.888  18.489  -5.916  1.00 20.00     0.088 A 
HETATM   10  O10 UNL     1     -33.966  18.814  -3.521  1.00 20.00    -0.292 OA
HETATM   11  F11 UNL     1     -34.873  12.636  -5.020  1.00 20.00    -0.206 F 
HETATM   12 BR12 UNL     1     -34.452  16.461  -1.526  1.00 20.00    -0.050 Br
ENDROOT
TORSDOF 0
ENDMDL
