MODEL 1
REMARK VINA RESULT:      -4.8      0.000      0.000
REMARK  1 active torsions:
REMARK  status: ('A' for Active; 'I' for Inactive)
REMARK    1  A    between atoms: C2_2  and  C3_3 
ROOT
HETATM    1  C1  UNL     1     -32.561   6.300   3.642  1.00 20.00     0.080 C 
HETATM    2  C2  UNL     1     -33.982   6.374   4.175  1.00 20.00     0.272 C 
HETATM    3  F4  UNL     1     -34.507   7.579   3.819  1.00 20.00    -0.216 F 
HETATM    4 CL8  UNL     1     -33.962   6.276   5.957  1.00 20.00    -0.073 Cl
ENDROOT
BRANCH   2   5
HETATM    5  C3  UNL     1     -34.869   5.288   3.603  1.00 20.00     0.437 C 
HETATM    6  F5  UNL     1     -36.123   5.741   3.384  1.00 20.00    -0.166 F 
HETATM    7  F6  UNL     1     -34.387   4.844   2.421  1.00 20.00    -0.166 F 
HETATM    8  F7  UNL     1     -34.954   4.224   4.433  1.00 20.00    -0.166 F 
ENDBRANCH   2   5
TORSDOF 1
ENDMDL
MODEL 2
REMARK VINA RESULT:      -4.5      1.546      2.076
REMARK  1 active torsions:
REMARK  status: ('A' for Active; 'I' for Inactive)
REMARK    1  A    between atoms: C2_2  and  C3_3 
ROOT
HETATM    1  C1  UNL     1     -33.292   5.714   4.002  1.00 20.00     0.080 C 
HETATM    2  C2  UNL     1     -34.410   5.695   5.031  1.00 20.00     0.272 C 
HETATM    3  F4  UNL     1     -35.536   6.185   4.443  1.00 20.00    -0.216 F 
HETATM    4 CL8  UNL     1     -33.985   6.758   6.400  1.00 20.00    -0.073 Cl
ENDROOT
BRANCH   2   5
HETATM    5  C3  UNL     1     -34.710   4.297   5.530  1.00 20.00     0.437 C 
HETATM    6  F5  UNL     1     -35.635   4.315   6.516  1.00 20.00    -0.166 F 
HETATM    7  F6  UNL     1     -35.195   3.523   4.534  1.00 20.00    -0.166 F 
HETATM    8  F7  UNL     1     -33.603   3.692   6.015  1.00 20.00    -0.166 F 
ENDBRANCH   2   5
TORSDOF 1
ENDMDL
MODEL 3
REMARK VINA RESULT:      -4.4      2.201      2.635
REMARK  1 active torsions:
REMARK  status: ('A' for Active; 'I' for Inactive)
REMARK    1  A    between atoms: C2_2  and  C3_3 
ROOT
HETATM    1  C1  UNL     1     -34.120   6.626   6.074  1.00 20.00     0.080 C 
HETATM    2  C2  UNL     1     -34.294   5.531   5.035  1.00 20.00     0.272 C 
HETATM    3  F4  UNL     1     -33.107   5.366   4.390  1.00 20.00    -0.216 F 
HETATM    4 CL8  UNL     1     -35.519   6.029   3.837  1.00 20.00    -0.073 Cl
ENDROOT
BRANCH   2   5
HETATM    5  C3  UNL     1     -34.680   4.205   5.656  1.00 20.00     0.437 C 
HETATM    6  F5  UNL     1     -35.646   4.361   6.589  1.00 20.00    -0.166 F 
HETATM    7  F6  UNL     1     -35.157   3.354   4.719  1.00 20.00    -0.166 F 
HETATM    8  F7  UNL     1     -33.625   3.606   6.251  1.00 20.00    -0.166 F 
ENDBRANCH   2   5
TORSDOF 1
ENDMDL
MODEL 4
REMARK VINA RESULT:      -4.4      1.346      2.306
REMARK  1 active torsions:
REMARK  status: ('A' for Active; 'I' for Inactive)
REMARK    1  A    between atoms: C2_2  and  C3_3 
ROOT
HETATM    1  C1  UNL     1     -35.227   4.204   5.890  1.00 20.00     0.080 C 
HETATM    2  C2  UNL     1     -34.295   5.219   5.250  1.00 20.00     0.272 C 
HETATM    3  F4  UNL     1     -33.093   4.617   5.038  1.00 20.00    -0.216 F 
HETATM    4 CL8  UNL     1     -34.046   6.591   6.364  1.00 20.00    -0.073 Cl
ENDROOT
BRANCH   2   5
HETATM    5  C3  UNL     1     -34.813   5.716   3.917  1.00 20.00     0.437 C 
HETATM    6  F5  UNL     1     -36.147   5.528   3.807  1.00 20.00    -0.166 F 
HETATM    7  F6  UNL     1     -34.579   7.040   3.771  1.00 20.00    -0.166 F 
HETATM    8  F7  UNL     1     -34.220   5.081   2.883  1.00 20.00    -0.166 F 
ENDBRANCH   2   5
TORSDOF 1
ENDMDL
MODEL 5
REMARK VINA RESULT:      -4.4      1.730      2.484
REMARK  1 active torsions:
REMARK  status: ('A' for Active; 'I' for Inactive)
REMARK    1  A    between atoms: C2_2  and  C3_3 
ROOT
HETATM    1  C1  UNL     1     -34.446   5.973   6.226  1.00 20.00     0.080 C 
HETATM    2  C2  UNL     1     -34.710   5.235   4.925  1.00 20.00     0.272 C 
HETATM    3  F4  UNL     1     -36.030   5.369   4.621  1.00 20.00    -0.216 F 
HETATM    4 CL8  UNL     1     -34.356   3.498   5.137  1.00 20.00    -0.073 Cl
ENDROOT
BRANCH   2   5
HETATM    5  C3  UNL     1     -33.903   5.794   3.772  1.00 20.00     0.437 C 
HETATM    6  F5  UNL     1     -34.228   5.191   2.606  1.00 20.00    -0.166 F 
HETATM    7  F6  UNL     1     -34.131   7.117   3.620  1.00 20.00    -0.166 F 
HETATM    8  F7  UNL     1     -32.576   5.629   3.965  1.00 20.00    -0.166 F 
ENDBRANCH   2   5
TORSDOF 1
ENDMDL
MODEL 6
REMARK VINA RESULT:      -4.3      2.127      2.977
REMARK  1 active torsions:
REMARK  status: ('A' for Active; 'I' for Inactive)
REMARK    1  A    between atoms: C2_2  and  C3_3 
ROOT
HETATM    1  C1  UNL     1     -33.433   5.759   3.855  1.00 20.00     0.080 C 
HETATM    2  C2  UNL     1     -34.643   5.100   4.496  1.00 20.00     0.272 C 
HETATM    3  F4  UNL     1     -34.627   3.777   4.173  1.00 20.00    -0.216 F 
HETATM    4 CL8  UNL     1     -36.137   5.820   3.839  1.00 20.00    -0.073 Cl
ENDROOT
BRANCH   2   5
HETATM    5  C3  UNL     1     -34.629   5.215   6.006  1.00 20.00     0.437 C 
HETATM    6  F5  UNL     1     -35.824   4.873   6.536  1.00 20.00    -0.166 F 
HETATM    7  F6  UNL     1     -33.698   4.396   6.544  1.00 20.00    -0.166 F 
HETATM    8  F7  UNL     1     -34.344   6.474   6.408  1.00 20.00    -0.166 F 
ENDBRANCH   2   5
TORSDOF 1
ENDMDL
MODEL 7
REMARK VINA RESULT:      -4.3      2.076      2.505
REMARK  1 active torsions:
REMARK  status: ('A' for Active; 'I' for Inactive)
REMARK    1  A    between atoms: C2_2  and  C3_3 
ROOT
HETATM    1  C1  UNL     1     -35.651   5.789   3.695  1.00 20.00     0.080 C 
HETATM    2  C2  UNL     1     -34.526   5.628   4.703  1.00 20.00     0.272 C 
HETATM    3  F4  UNL     1     -34.539   6.710   5.530  1.00 20.00    -0.216 F 
HETATM    4 CL8  UNL     1     -32.957   5.591   3.853  1.00 20.00    -0.073 Cl
ENDROOT
BRANCH   2   5
HETATM    5  C3  UNL     1     -34.688   4.385   5.553  1.00 20.00     0.437 C 
HETATM    6  F5  UNL     1     -35.599   4.575   6.533  1.00 20.00    -0.166 F 
HETATM    7  F6  UNL     1     -35.108   3.341   4.805  1.00 20.00    -0.166 F 
HETATM    8  F7  UNL     1     -33.524   4.025   6.137  1.00 20.00    -0.166 F 
ENDBRANCH   2   5
TORSDOF 1
ENDMDL
MODEL 8
REMARK VINA RESULT:      -4.3      2.263      3.137
REMARK  1 active torsions:
REMARK  status: ('A' for Active; 'I' for Inactive)
REMARK    1  A    between atoms: C2_2  and  C3_3 
ROOT
HETATM    1  C1  UNL     1     -34.739   3.620   4.611  1.00 20.00     0.080 C 
HETATM    2  C2  UNL     1     -34.720   5.122   4.840  1.00 20.00     0.272 C 
HETATM    3  F4  UNL     1     -35.906   5.632   4.408  1.00 20.00    -0.216 F 
HETATM    4 CL8  UNL     1     -33.409   5.860   3.879  1.00 20.00    -0.073 Cl
ENDROOT
BRANCH   2   5
HETATM    5  C3  UNL     1     -34.559   5.480   6.302  1.00 20.00     0.437 C 
HETATM    6  F5  UNL     1     -34.207   6.776   6.456  1.00 20.00    -0.166 F 
HETATM    7  F6  UNL     1     -35.716   5.292   6.975  1.00 20.00    -0.166 F 
HETATM    8  F7  UNL     1     -33.613   4.722   6.900  1.00 20.00    -0.166 F 
ENDBRANCH   2   5
TORSDOF 1
ENDMDL
MODEL 9
REMARK VINA RESULT:      -4.2      1.412      2.601
REMARK  1 active torsions:
REMARK  status: ('A' for Active; 'I' for Inactive)
REMARK    1  A    between atoms: C2_2  and  C3_3 
ROOT
HETATM    1  C1  UNL     1     -35.562   4.930   4.689  1.00 20.00     0.080 C 
HETATM    2  C2  UNL     1     -34.129   5.383   4.915  1.00 20.00     0.272 C 
HETATM    3  F4  UNL     1     -33.396   4.300   5.293  1.00 20.00    -0.216 F 
HETATM    4 CL8  UNL     1     -34.079   6.583   6.234  1.00 20.00    -0.073 Cl
ENDROOT
BRANCH   2   5
HETATM    5  C3  UNL     1     -33.504   5.959   3.662  1.00 20.00     0.437 C 
HETATM    6  F5  UNL     1     -33.981   5.355   2.551  1.00 20.00    -0.166 F 
HETATM    7  F6  UNL     1     -33.773   7.279   3.551  1.00 20.00    -0.166 F 
HETATM    8  F7  UNL     1     -32.160   5.816   3.663  1.00 20.00    -0.166 F 
ENDBRANCH   2   5
TORSDOF 1
ENDMDL
