MODEL 1
REMARK VINA RESULT:      -4.3      0.000      0.000
REMARK  0 active torsions:
REMARK  status: ('A' for Active; 'I' for Inactive)
ROOT
HETATM    1  C1  UNL     1     -33.540   5.707   2.620  1.00 20.00     0.034 A 
HETATM    2  C2  UNL     1     -33.691   6.432   6.060  1.00 20.00     0.027 A 
HETATM    3  C3  UNL     1     -32.554   6.772   2.863  1.00 20.00     0.118 A 
HETATM    4  C4  UNL     1     -35.027   4.640   4.370  1.00 20.00     0.124 A 
HETATM    5  C5  UNL     1     -34.003   5.551   3.855  1.00 20.00     0.011 A 
HETATM    6  C6  UNL     1     -33.360   6.439   4.769  1.00 20.00     0.066 A 
HETATM    7  C7  UNL     1     -34.746   5.492   6.587  1.00 20.00     0.178 A 
HETATM    8  N8  UNL     1     -32.445   7.195   4.089  1.00 20.00    -0.261 NA
HETATM    9  N9  UNL     1     -35.390   4.586   5.604  1.00 20.00    -0.297 NA
ENDROOT
TORSDOF 0
ENDMDL
MODEL 2
REMARK VINA RESULT:      -4.2      1.205      2.001
REMARK  0 active torsions:
REMARK  status: ('A' for Active; 'I' for Inactive)
ROOT
HETATM    1  C1  UNL     1     -32.573   7.067   3.915  1.00 20.00     0.034 A 
HETATM    2  C2  UNL     1     -35.035   4.635   4.553  1.00 20.00     0.027 A 
HETATM    3  C3  UNL     1     -32.834   6.395   2.633  1.00 20.00     0.118 A 
HETATM    4  C4  UNL     1     -33.702   6.539   6.119  1.00 20.00     0.124 A 
HETATM    5  C5  UNL     1     -33.421   6.399   4.689  1.00 20.00     0.011 A 
HETATM    6  C6  UNL     1     -34.134   5.410   3.948  1.00 20.00     0.066 A 
HETATM    7  C7  UNL     1     -35.322   4.781   6.027  1.00 20.00     0.178 A 
HETATM    8  N8  UNL     1     -33.726   5.447   2.643  1.00 20.00    -0.261 NA
HETATM    9  N9  UNL     1     -34.558   5.821   6.759  1.00 20.00    -0.297 NA
ENDROOT
TORSDOF 0
ENDMDL
MODEL 3
REMARK VINA RESULT:      -4.0      9.847     10.874
REMARK  0 active torsions:
REMARK  status: ('A' for Active; 'I' for Inactive)
ROOT
HETATM    1  C1  UNL     1     -42.223   3.208  -2.532  1.00 20.00     0.034 A 
HETATM    2  C2  UNL     1     -42.218   6.714  -2.231  1.00 20.00     0.027 A 
HETATM    3  C3  UNL     1     -43.251   3.705  -3.459  1.00 20.00     0.118 A 
HETATM    4  C4  UNL     1     -40.763   4.637  -1.036  1.00 20.00     0.124 A 
HETATM    5  C5  UNL     1     -41.798   4.364  -2.034  1.00 20.00     0.011 A 
HETATM    6  C6  UNL     1     -42.503   5.466  -2.605  1.00 20.00     0.066 A 
HETATM    7  C7  UNL     1     -41.150   6.992  -1.202  1.00 20.00     0.178 A 
HETATM    8  N8  UNL     1     -43.417   4.995  -3.506  1.00 20.00    -0.261 NA
HETATM    9  N9  UNL     1     -40.442   5.818  -0.635  1.00 20.00    -0.297 NA
ENDROOT
TORSDOF 0
ENDMDL
MODEL 4
REMARK VINA RESULT:      -4.0     11.495     13.129
REMARK  0 active torsions:
REMARK  status: ('A' for Active; 'I' for Inactive)
ROOT
HETATM    1  C1  UNL     1     -33.808  16.028  -2.675  1.00 20.00     0.034 A 
HETATM    2  C2  UNL     1     -34.562  15.045  -5.969  1.00 20.00     0.027 A 
HETATM    3  C3  UNL     1     -33.715  17.241  -3.502  1.00 20.00     0.118 A 
HETATM    4  C4  UNL     1     -34.398  13.711  -3.509  1.00 20.00     0.124 A 
HETATM    5  C5  UNL     1     -34.138  15.148  -3.614  1.00 20.00     0.011 A 
HETATM    6  C6  UNL     1     -34.239  15.767  -4.896  1.00 20.00     0.066 A 
HETATM    7  C7  UNL     1     -34.829  13.564  -5.858  1.00 20.00     0.178 A 
HETATM    8  N8  UNL     1     -33.960  17.101  -4.772  1.00 20.00    -0.261 NA
HETATM    9  N9  UNL     1     -34.714  12.961  -4.507  1.00 20.00    -0.297 NA
ENDROOT
TORSDOF 0
ENDMDL
MODEL 5
REMARK VINA RESULT:      -4.0     11.934     13.429
REMARK  0 active torsions:
REMARK  status: ('A' for Active; 'I' for Inactive)
ROOT
HETATM    1  C1  UNL     1     -34.721  15.796  -6.889  1.00 20.00     0.034 A 
HETATM    2  C2  UNL     1     -33.374  15.005  -3.736  1.00 20.00     0.027 A 
HETATM    3  C3  UNL     1     -34.026  17.005  -6.421  1.00 20.00     0.118 A 
HETATM    4  C4  UNL     1     -34.886  13.603  -5.634  1.00 20.00     0.124 A 
HETATM    5  C5  UNL     1     -34.484  14.993  -5.858  1.00 20.00     0.011 A 
HETATM    6  C6  UNL     1     -33.715  15.650  -4.852  1.00 20.00     0.066 A 
HETATM    7  C7  UNL     1     -33.790  13.573  -3.509  1.00 20.00     0.178 A 
HETATM    8  N8  UNL     1     -33.448  16.929  -5.257  1.00 20.00    -0.261 NA
HETATM    9  N9  UNL     1     -34.588  12.927  -4.579  1.00 20.00    -0.297 NA
ENDROOT
TORSDOF 0
ENDMDL
MODEL 6
REMARK VINA RESULT:      -4.0      1.236      3.069
REMARK  0 active torsions:
REMARK  status: ('A' for Active; 'I' for Inactive)
ROOT
HETATM    1  C1  UNL     1     -35.286   4.540   5.111  1.00 20.00     0.034 A 
HETATM    2  C2  UNL     1     -32.847   7.013   4.547  1.00 20.00     0.027 A 
HETATM    3  C3  UNL     1     -35.030   5.174   6.414  1.00 20.00     0.118 A 
HETATM    4  C4  UNL     1     -34.165   5.147   2.924  1.00 20.00     0.124 A 
HETATM    5  C5  UNL     1     -34.445   5.239   4.357  1.00 20.00     0.011 A 
HETATM    6  C6  UNL     1     -33.739   6.211   5.129  1.00 20.00     0.066 A 
HETATM    7  C7  UNL     1     -32.561   6.915   3.069  1.00 20.00     0.178 A 
HETATM    8  N8  UNL     1     -34.147   6.131   6.432  1.00 20.00    -0.261 NA
HETATM    9  N9  UNL     1     -33.316   5.892   2.305  1.00 20.00    -0.297 NA
ENDROOT
TORSDOF 0
ENDMDL
MODEL 7
REMARK VINA RESULT:      -3.9     11.692     12.486
REMARK  0 active torsions:
REMARK  status: ('A' for Active; 'I' for Inactive)
ROOT
HETATM    1  C1  UNL     1     -37.141  14.739  -3.927  1.00 20.00     0.034 A 
HETATM    2  C2  UNL     1     -33.785  15.492  -3.187  1.00 20.00     0.027 A 
HETATM    3  C3  UNL     1     -37.139  16.087  -3.338  1.00 20.00     0.118 A 
HETATM    4  C4  UNL     1     -35.102  13.288  -4.310  1.00 20.00     0.124 A 
HETATM    5  C5  UNL     1     -35.840  14.477  -3.881  1.00 20.00     0.011 A 
HETATM    6  C6  UNL     1     -35.110  15.566  -3.317  1.00 20.00     0.066 A 
HETATM    7  C7  UNL     1     -33.027  14.266  -3.630  1.00 20.00     0.178 A 
HETATM    8  N8  UNL     1     -35.982  16.567  -2.987  1.00 20.00    -0.261 NA
HETATM    9  N9  UNL     1     -33.824  13.157  -4.211  1.00 20.00    -0.297 NA
ENDROOT
TORSDOF 0
ENDMDL
MODEL 8
REMARK VINA RESULT:      -3.9     11.971     13.828
REMARK  0 active torsions:
REMARK  status: ('A' for Active; 'I' for Inactive)
ROOT
HETATM    1  C1  UNL     1     -33.548  14.715  -3.705  1.00 20.00     0.034 A 
HETATM    2  C2  UNL     1     -35.235  14.202  -6.750  1.00 20.00     0.027 A 
HETATM    3  C3  UNL     1     -34.104  13.354  -3.647  1.00 20.00     0.118 A 
HETATM    4  C4  UNL     1     -33.788  16.330  -5.640  1.00 20.00     0.124 A 
HETATM    5  C5  UNL     1     -33.975  15.075  -4.910  1.00 20.00     0.011 A 
HETATM    6  C6  UNL     1     -34.722  14.030  -5.532  1.00 20.00     0.066 A 
HETATM    7  C7  UNL     1     -35.041  15.497  -7.500  1.00 20.00     0.178 A 
HETATM    8  N8  UNL     1     -34.775  12.955  -4.688  1.00 20.00    -0.261 NA
HETATM    9  N9  UNL     1     -34.258  16.557  -6.817  1.00 20.00    -0.297 NA
ENDROOT
TORSDOF 0
ENDMDL
MODEL 9
REMARK VINA RESULT:      -3.9     12.173     13.833
REMARK  0 active torsions:
REMARK  status: ('A' for Active; 'I' for Inactive)
ROOT
HETATM    1  C1  UNL     1     -34.405  16.379  -6.917  1.00 20.00     0.034 A 
HETATM    2  C2  UNL     1     -34.445  13.489  -4.910  1.00 20.00     0.027 A 
HETATM    3  C3  UNL     1     -35.221  15.387  -7.635  1.00 20.00     0.118 A 
HETATM    4  C4  UNL     1     -33.273  16.025  -4.680  1.00 20.00     0.124 A 
HETATM    5  C5  UNL     1     -34.085  15.665  -5.844  1.00 20.00     0.011 A 
HETATM    6  C6  UNL     1     -34.654  14.357  -5.900  1.00 20.00     0.066 A 
HETATM    7  C7  UNL     1     -33.608  13.863  -3.712  1.00 20.00     0.178 A 
HETATM    8  N8  UNL     1     -35.369  14.229  -7.059  1.00 20.00    -0.261 NA
HETATM    9  N9  UNL     1     -33.036  15.232  -3.694  1.00 20.00    -0.297 NA
ENDROOT
TORSDOF 0
ENDMDL
