MODEL 1
REMARK VINA RESULT:      -4.6      0.000      0.000
REMARK  1 active torsions:
REMARK  status: ('A' for Active; 'I' for Inactive)
REMARK    1  A    between atoms: C4_4  and  C5_5 
ROOT
HETATM    1  C5  UNL     1     -34.710  15.651  -2.847  1.00 20.00     0.039 C 
HETATM    2  C6  UNL     1     -33.567  14.835  -3.431  1.00 20.00     0.060 C 
HETATM    3  C7  UNL     1     -33.995  13.963  -4.595  1.00 20.00     0.008 C 
HETATM    4  C8  UNL     1     -35.320  13.309  -4.261  1.00 20.00     0.022 C 
HETATM    5  C9  UNL     1     -36.364  14.389  -4.049  1.00 20.00     0.149 C 
HETATM    6  N10 UNL     1     -35.952  15.427  -3.110  1.00 20.00    -0.293 NA
ENDROOT
BRANCH   1   7
HETATM    7  C4  UNL     1     -34.369  16.753  -1.893  1.00 20.00    -0.005 A 
HETATM    8  C1  UNL     1     -34.646  16.753  -0.495  1.00 20.00     0.021 A 
HETATM    9  C2  UNL     1     -34.214  17.907   0.119  1.00 20.00     0.050 A 
HETATM   10  S11 UNL     1     -33.476  18.986  -0.988  1.00 20.00    -0.113 SA
HETATM   11  C3  UNL     1     -33.734  17.909  -2.293  1.00 20.00     0.063 A 
ENDBRANCH   1   7
TORSDOF 1
ENDMDL
MODEL 2
REMARK VINA RESULT:      -4.6      2.520      4.757
REMARK  1 active torsions:
REMARK  status: ('A' for Active; 'I' for Inactive)
REMARK    1  A    between atoms: C4_4  and  C5_5 
ROOT
HETATM    1  C5  UNL     1     -34.221  16.558  -2.724  1.00 20.00     0.039 C 
HETATM    2  C6  UNL     1     -34.611  16.235  -1.290  1.00 20.00     0.060 C 
HETATM    3  C7  UNL     1     -34.644  17.459  -0.395  1.00 20.00     0.008 C 
HETATM    4  C8  UNL     1     -33.434  18.320  -0.691  1.00 20.00     0.022 C 
HETATM    5  C9  UNL     1     -33.491  18.772  -2.138  1.00 20.00     0.149 C 
HETATM    6  N10 UNL     1     -33.700  17.680  -3.085  1.00 20.00    -0.293 NA
ENDROOT
BRANCH   1   7
HETATM    7  C4  UNL     1     -34.427  15.499  -3.762  1.00 20.00    -0.005 A 
HETATM    8  C1  UNL     1     -34.301  14.096  -3.549  1.00 20.00     0.021 A 
HETATM    9  C2  UNL     1     -34.549  13.373  -4.694  1.00 20.00     0.050 A 
HETATM   10  S11 UNL     1     -34.932  14.385  -6.022  1.00 20.00    -0.113 SA
HETATM   11  C3  UNL     1     -34.766  15.795  -5.065  1.00 20.00     0.063 A 
ENDBRANCH   1   7
TORSDOF 1
ENDMDL
MODEL 3
REMARK VINA RESULT:      -4.6      2.314      4.778
REMARK  1 active torsions:
REMARK  status: ('A' for Active; 'I' for Inactive)
REMARK    1  A    between atoms: C4_4  and  C5_5 
ROOT
HETATM    1  C5  UNL     1     -34.330  16.714  -2.130  1.00 20.00     0.039 C 
HETATM    2  C6  UNL     1     -34.632  16.613  -0.642  1.00 20.00     0.060 C 
HETATM    3  C7  UNL     1     -34.469  17.933   0.086  1.00 20.00     0.008 C 
HETATM    4  C8  UNL     1     -33.206  18.613  -0.401  1.00 20.00     0.022 C 
HETATM    5  C9  UNL     1     -33.336  18.888  -1.888  1.00 20.00     0.149 C 
HETATM    6  N10 UNL     1     -33.730  17.720  -2.668  1.00 20.00    -0.293 NA
ENDROOT
BRANCH   1   7
HETATM    7  C4  UNL     1     -34.726  15.565  -3.005  1.00 20.00    -0.005 A 
HETATM    8  C1  UNL     1     -36.062  15.210  -3.351  1.00 20.00     0.021 A 
HETATM    9  C2  UNL     1     -36.108  14.104  -4.170  1.00 20.00     0.050 A 
HETATM   10  S11 UNL     1     -34.545  13.498  -4.520  1.00 20.00    -0.113 SA
HETATM   11  C3  UNL     1     -33.802  14.716  -3.575  1.00 20.00     0.063 A 
ENDBRANCH   1   7
TORSDOF 1
ENDMDL
MODEL 4
REMARK VINA RESULT:      -4.5     12.774     14.871
REMARK  1 active torsions:
REMARK  status: ('A' for Active; 'I' for Inactive)
REMARK    1  A    between atoms: C4_4  and  C5_5 
ROOT
HETATM    1  C5  UNL     1     -41.900   4.397  -2.081  1.00 20.00     0.039 C 
HETATM    2  C6  UNL     1     -40.780   4.589  -1.069  1.00 20.00     0.060 C 
HETATM    3  C7  UNL     1     -40.833   5.937  -0.376  1.00 20.00     0.008 C 
HETATM    4  C8  UNL     1     -41.138   7.008  -1.402  1.00 20.00     0.022 C 
HETATM    5  C9  UNL     1     -42.493   6.725  -2.023  1.00 20.00     0.149 C 
HETATM    6  N10 UNL     1     -42.638   5.359  -2.517  1.00 20.00    -0.293 NA
ENDROOT
BRANCH   1   7
HETATM    7  C4  UNL     1     -42.130   3.019  -2.618  1.00 20.00    -0.005 A 
HETATM    8  C1  UNL     1     -41.250   2.312  -3.487  1.00 20.00     0.021 A 
HETATM    9  C2  UNL     1     -41.734   1.064  -3.813  1.00 20.00     0.050 A 
HETATM   10  S11 UNL     1     -43.246   0.749  -3.071  1.00 20.00    -0.113 SA
HETATM   11  C3  UNL     1     -43.255   2.283  -2.313  1.00 20.00     0.063 A 
ENDBRANCH   1   7
TORSDOF 1
ENDMDL
MODEL 5
REMARK VINA RESULT:      -4.5      1.326      1.513
REMARK  1 active torsions:
REMARK  status: ('A' for Active; 'I' for Inactive)
REMARK    1  A    between atoms: C4_4  and  C5_5 
ROOT
HETATM    1  C5  UNL     1     -34.346  15.693  -3.801  1.00 20.00     0.039 C 
HETATM    2  C6  UNL     1     -34.572  14.215  -3.515  1.00 20.00     0.060 C 
HETATM    3  C7  UNL     1     -34.374  13.340  -4.737  1.00 20.00     0.008 C 
HETATM    4  C8  UNL     1     -35.025  14.004  -5.932  1.00 20.00     0.022 C 
HETATM    5  C9  UNL     1     -34.357  15.344  -6.178  1.00 20.00     0.149 C 
HETATM    6  N10 UNL     1     -34.278  16.187  -4.989  1.00 20.00    -0.293 NA
ENDROOT
BRANCH   1   7
HETATM    7  C4  UNL     1     -34.230  16.622  -2.632  1.00 20.00    -0.005 A 
HETATM    8  C1  UNL     1     -34.602  16.316  -1.291  1.00 20.00     0.021 A 
HETATM    9  C2  UNL     1     -34.380  17.374  -0.438  1.00 20.00     0.050 A 
HETATM   10  S11 UNL     1     -33.725  18.731  -1.253  1.00 20.00    -0.113 SA
HETATM   11  C3  UNL     1     -33.738  17.904  -2.752  1.00 20.00     0.063 A 
ENDBRANCH   1   7
TORSDOF 1
ENDMDL
MODEL 6
REMARK VINA RESULT:      -4.5      0.712      1.229
REMARK  1 active torsions:
REMARK  status: ('A' for Active; 'I' for Inactive)
REMARK    1  A    between atoms: C4_4  and  C5_5 
ROOT
HETATM    1  C5  UNL     1     -34.683  15.709  -2.788  1.00 20.00     0.039 C 
HETATM    2  C6  UNL     1     -33.540  14.920  -3.409  1.00 20.00     0.060 C 
HETATM    3  C7  UNL     1     -33.981  14.060  -4.578  1.00 20.00     0.008 C 
HETATM    4  C8  UNL     1     -35.287  13.380  -4.226  1.00 20.00     0.022 C 
HETATM    5  C9  UNL     1     -36.343  14.439  -3.973  1.00 20.00     0.149 C 
HETATM    6  N10 UNL     1     -35.927  15.469  -3.026  1.00 20.00    -0.293 NA
ENDROOT
BRANCH   1   7
HETATM    7  C4  UNL     1     -34.338  16.801  -1.823  1.00 20.00    -0.005 A 
HETATM    8  C1  UNL     1     -33.610  17.985  -2.139  1.00 20.00     0.021 A 
HETATM    9  C2  UNL     1     -33.447  18.801  -1.042  1.00 20.00     0.050 A 
HETATM   10  S11 UNL     1     -34.171  18.141   0.363  1.00 20.00    -0.113 SA
HETATM   11  C3  UNL     1     -34.704  16.759  -0.495  1.00 20.00     0.063 A 
ENDBRANCH   1   7
TORSDOF 1
ENDMDL
MODEL 7
REMARK VINA RESULT:      -4.4      2.556      4.890
REMARK  1 active torsions:
REMARK  status: ('A' for Active; 'I' for Inactive)
REMARK    1  A    between atoms: C4_4  and  C5_5 
ROOT
HETATM    1  C5  UNL     1     -34.168  16.663  -2.639  1.00 20.00     0.039 C 
HETATM    2  C6  UNL     1     -34.597  16.296  -1.226  1.00 20.00     0.060 C 
HETATM    3  C7  UNL     1     -34.664  17.493  -0.298  1.00 20.00     0.008 C 
HETATM    4  C8  UNL     1     -33.451  18.369  -0.534  1.00 20.00     0.022 C 
HETATM    5  C9  UNL     1     -33.470  18.862  -1.969  1.00 20.00     0.149 C 
HETATM    6  N10 UNL     1     -33.645  17.798  -2.953  1.00 20.00    -0.293 NA
ENDROOT
BRANCH   1   7
HETATM    7  C4  UNL     1     -34.338  15.632  -3.712  1.00 20.00    -0.005 A 
HETATM    8  C1  UNL     1     -34.347  15.891  -5.114  1.00 20.00     0.021 A 
HETATM    9  C2  UNL     1     -34.524  14.742  -5.851  1.00 20.00     0.050 A 
HETATM   10  S11 UNL     1     -34.678  13.357  -4.856  1.00 20.00    -0.113 SA
HETATM   11  C3  UNL     1     -34.508  14.293  -3.433  1.00 20.00     0.063 A 
ENDBRANCH   1   7
TORSDOF 1
ENDMDL
MODEL 8
REMARK VINA RESULT:      -4.2      2.279      4.747
REMARK  1 active torsions:
REMARK  status: ('A' for Active; 'I' for Inactive)
REMARK    1  A    between atoms: C4_4  and  C5_5 
ROOT
HETATM    1  C5  UNL     1     -34.294  16.724  -1.844  1.00 20.00     0.039 C 
HETATM    2  C6  UNL     1     -33.672  18.013  -2.359  1.00 20.00     0.060 C 
HETATM    3  C7  UNL     1     -33.279  18.967  -1.247  1.00 20.00     0.008 C 
HETATM    4  C8  UNL     1     -34.386  19.002  -0.214  1.00 20.00     0.022 C 
HETATM    5  C9  UNL     1     -34.559  17.613   0.372  1.00 20.00     0.149 C 
HETATM    6  N10 UNL     1     -34.708  16.566  -0.634  1.00 20.00    -0.293 NA
ENDROOT
BRANCH   1   7
HETATM    7  C4  UNL     1     -34.459  15.591  -2.810  1.00 20.00    -0.005 A 
HETATM    8  C1  UNL     1     -33.399  14.844  -3.399  1.00 20.00     0.021 A 
HETATM    9  C2  UNL     1     -33.864  13.866  -4.249  1.00 20.00     0.050 A 
HETATM   10  S11 UNL     1     -35.575  13.850  -4.334  1.00 20.00    -0.113 SA
HETATM   11  C3  UNL     1     -35.696  15.154  -3.233  1.00 20.00     0.063 A 
ENDBRANCH   1   7
TORSDOF 1
ENDMDL
MODEL 9
REMARK VINA RESULT:      -4.2      2.535      4.915
REMARK  1 active torsions:
REMARK  status: ('A' for Active; 'I' for Inactive)
REMARK    1  A    between atoms: C4_4  and  C5_5 
ROOT
HETATM    1  C5  UNL     1     -33.899  17.638  -1.178  1.00 20.00     0.039 C 
HETATM    2  C6  UNL     1     -34.869  16.933  -0.241  1.00 20.00     0.060 C 
HETATM    3  C7  UNL     1     -35.165  17.731   1.014  1.00 20.00     0.008 C 
HETATM    4  C8  UNL     1     -33.873  18.321   1.540  1.00 20.00     0.022 C 
HETATM    5  C9  UNL     1     -33.295  19.255   0.493  1.00 20.00     0.149 C 
HETATM    6  N10 UNL     1     -33.186  18.653  -0.833  1.00 20.00    -0.293 NA
ENDROOT
BRANCH   1   7
HETATM    7  C4  UNL     1     -33.748  17.097  -2.566  1.00 20.00    -0.005 A 
HETATM    8  C1  UNL     1     -33.609  15.720  -2.907  1.00 20.00     0.021 A 
HETATM    9  C2  UNL     1     -33.486  15.533  -4.266  1.00 20.00     0.050 A 
HETATM   10  S11 UNL     1     -33.540  17.013  -5.126  1.00 20.00    -0.113 SA
HETATM   11  C3  UNL     1     -33.726  17.909  -3.679  1.00 20.00     0.063 A 
ENDBRANCH   1   7
TORSDOF 1
ENDMDL
