MODEL 1
REMARK VINA RESULT:      -4.7      0.000      0.000
REMARK  1 active torsions:
REMARK  status: ('A' for Active; 'I' for Inactive)
REMARK    1  A    between atoms: C9_9  and  S11_11 
ROOT
HETATM    1  C1  UNL     1     -35.175  14.169  -3.903  1.00 20.00     0.015 A 
HETATM    2  C2  UNL     1     -34.776  15.566  -1.930  1.00 20.00     0.016 A 
HETATM    3  C3  UNL     1     -35.112  13.995  -5.282  1.00 20.00     0.025 A 
HETATM    4  C4  UNL     1     -34.322  16.757  -1.382  1.00 20.00     0.039 A 
HETATM    5  C5  UNL     1     -34.152  16.198  -5.496  1.00 20.00     0.056 A 
HETATM    6  C6  UNL     1     -34.723  15.364  -3.316  1.00 20.00    -0.007 A 
HETATM    7  C7  UNL     1     -34.202  16.399  -4.119  1.00 20.00     0.070 A 
HETATM    8  C8  UNL     1     -34.600  15.011  -6.079  1.00 20.00     0.036 A 
HETATM    9  C9  UNL     1     -33.829  17.712  -2.248  1.00 20.00     0.091 A 
HETATM   10  N10 UNL     1     -33.762  17.556  -3.590  1.00 20.00    -0.242 NA
HETATM   11 CL12 UNL     1     -34.516  14.806  -7.787  1.00 20.00    -0.084 Cl
ENDROOT
BRANCH   9  12
HETATM   12  S11 UNL     1     -33.234  19.263  -1.598  1.00 20.00    -0.123 SA
HETATM   13  H18 UNL     1     -31.926  19.038  -1.795  1.00 20.00     0.108 HD
ENDBRANCH   9  12
TORSDOF 1
ENDMDL
MODEL 2
REMARK VINA RESULT:      -4.7      3.632      5.162
REMARK  1 active torsions:
REMARK  status: ('A' for Active; 'I' for Inactive)
REMARK    1  A    between atoms: C9_9  and  S11_11 
ROOT
HETATM    1  C1  UNL     1     -33.497  18.689  -2.605  1.00 20.00     0.015 A 
HETATM    2  C2  UNL     1     -33.579  17.197  -4.546  1.00 20.00     0.016 A 
HETATM    3  C3  UNL     1     -33.698  18.898  -1.243  1.00 20.00     0.025 A 
HETATM    4  C4  UNL     1     -33.859  15.949  -5.083  1.00 20.00     0.039 A 
HETATM    5  C5  UNL     1     -34.445  16.615  -1.023  1.00 20.00     0.056 A 
HETATM    6  C6  UNL     1     -33.772  17.435  -3.179  1.00 20.00    -0.007 A 
HETATM    7  C7  UNL     1     -34.253  16.377  -2.381  1.00 20.00     0.070 A 
HETATM    8  C8  UNL     1     -34.172  17.860  -0.452  1.00 20.00     0.036 A 
HETATM    9  C9  UNL     1     -34.327  14.975  -4.223  1.00 20.00     0.091 A 
HETATM   10  N10 UNL     1     -34.526  15.164  -2.898  1.00 20.00    -0.242 NA
HETATM   11 CL12 UNL     1     -34.422  18.107   1.234  1.00 20.00    -0.084 Cl
ENDROOT
BRANCH   9  12
HETATM   12  S11 UNL     1     -34.704  13.351  -4.859  1.00 20.00    -0.123 SA
HETATM   13  H18 UNL     1     -34.312  12.652  -3.783  1.00 20.00     0.108 HD
ENDBRANCH   9  12
TORSDOF 1
ENDMDL
MODEL 3
REMARK VINA RESULT:      -4.6      3.698      4.875
REMARK  1 active torsions:
REMARK  status: ('A' for Active; 'I' for Inactive)
REMARK    1  A    between atoms: C9_9  and  S11_11 
ROOT
HETATM    1  C1  UNL     1     -33.388  15.259  -4.317  1.00 20.00     0.015 A 
HETATM    2  C2  UNL     1     -34.531  14.844  -6.443  1.00 20.00     0.016 A 
HETATM    3  C3  UNL     1     -33.442  15.649  -2.982  1.00 20.00     0.025 A 
HETATM    4  C4  UNL     1     -35.702  14.827  -7.187  1.00 20.00     0.039 A 
HETATM    5  C5  UNL     1     -35.821  15.984  -3.197  1.00 20.00     0.056 A 
HETATM    6  C6  UNL     1     -34.557  15.231  -5.097  1.00 20.00    -0.007 A 
HETATM    7  C7  UNL     1     -35.797  15.598  -4.535  1.00 20.00     0.070 A 
HETATM    8  C8  UNL     1     -34.661  16.011  -2.422  1.00 20.00     0.036 A 
HETATM    9  C9  UNL     1     -36.868  15.202  -6.550  1.00 20.00     0.091 A 
HETATM   10  N10 UNL     1     -36.936  15.583  -5.253  1.00 20.00    -0.242 NA
HETATM   11 CL12 UNL     1     -34.740  16.493  -0.771  1.00 20.00    -0.084 Cl
ENDROOT
BRANCH   9  12
HETATM   12  S11 UNL     1     -38.404  15.200  -7.458  1.00 20.00    -0.123 SA
HETATM   13  H18 UNL     1     -38.673  16.509  -7.339  1.00 20.00     0.108 HD
ENDBRANCH   9  12
TORSDOF 1
ENDMDL
MODEL 4
REMARK VINA RESULT:      -4.6      1.908      2.690
REMARK  1 active torsions:
REMARK  status: ('A' for Active; 'I' for Inactive)
REMARK    1  A    between atoms: C9_9  and  S11_11 
ROOT
HETATM    1  C1  UNL     1     -33.503  17.068  -4.432  1.00 20.00     0.015 A 
HETATM    2  C2  UNL     1     -33.673  18.519  -2.466  1.00 20.00     0.016 A 
HETATM    3  C3  UNL     1     -33.689  15.821  -5.023  1.00 20.00     0.025 A 
HETATM    4  C4  UNL     1     -34.024  18.691  -1.134  1.00 20.00     0.039 A 
HETATM    5  C5  UNL     1     -34.561  14.985  -2.934  1.00 20.00     0.056 A 
HETATM    6  C6  UNL     1     -33.849  17.275  -3.085  1.00 20.00    -0.007 A 
HETATM    7  C7  UNL     1     -34.387  16.221  -2.318  1.00 20.00     0.070 A 
HETATM    8  C8  UNL     1     -34.219  14.779  -4.272  1.00 20.00     0.036 A 
HETATM    9  C9  UNL     1     -34.543  17.601  -0.465  1.00 20.00     0.091 A 
HETATM   10  N10 UNL     1     -34.729  16.384  -1.026  1.00 20.00    -0.242 NA
HETATM   11 CL12 UNL     1     -34.454  13.233  -4.993  1.00 20.00    -0.084 Cl
ENDROOT
BRANCH   9  12
HETATM   12  S11 UNL     1     -35.010  17.765   1.249  1.00 20.00    -0.123 SA
HETATM   13  H18 UNL     1     -36.002  18.651   1.070  1.00 20.00     0.108 HD
ENDBRANCH   9  12
TORSDOF 1
ENDMDL
MODEL 5
REMARK VINA RESULT:      -4.4      3.254      4.425
REMARK  1 active torsions:
REMARK  status: ('A' for Active; 'I' for Inactive)
REMARK    1  A    between atoms: C9_9  and  S11_11 
ROOT
HETATM    1  C1  UNL     1     -34.817  15.753  -1.871  1.00 20.00     0.015 A 
HETATM    2  C2  UNL     1     -35.412  14.398  -3.823  1.00 20.00     0.016 A 
HETATM    3  C3  UNL     1     -34.235  16.900  -1.339  1.00 20.00     0.025 A 
HETATM    4  C4  UNL     1     -35.412  14.220  -5.199  1.00 20.00     0.039 A 
HETATM    5  C5  UNL     1     -33.684  17.631  -3.571  1.00 20.00     0.056 A 
HETATM    6  C6  UNL     1     -34.833  15.544  -3.261  1.00 20.00    -0.007 A 
HETATM    7  C7  UNL     1     -34.260  16.494  -4.131  1.00 20.00     0.070 A 
HETATM    8  C8  UNL     1     -33.668  17.840  -2.190  1.00 20.00     0.036 A 
HETATM    9  C9  UNL     1     -34.827  15.205  -5.969  1.00 20.00     0.091 A 
HETATM   10  N10 UNL     1     -34.258  16.325  -5.467  1.00 20.00    -0.242 NA
HETATM   11 CL12 UNL     1     -32.946  19.263  -1.544  1.00 20.00    -0.084 Cl
ENDROOT
BRANCH   9  12
HETATM   12  S11 UNL     1     -34.798  15.028  -7.745  1.00 20.00    -0.123 SA
HETATM   13  H18 UNL     1     -33.508  15.351  -7.926  1.00 20.00     0.108 HD
ENDBRANCH   9  12
TORSDOF 1
ENDMDL
MODEL 6
REMARK VINA RESULT:      -4.3      2.071      2.532
REMARK  1 active torsions:
REMARK  status: ('A' for Active; 'I' for Inactive)
REMARK    1  A    between atoms: C9_9  and  S11_11 
ROOT
HETATM    1  C1  UNL     1     -34.458  14.810  -6.462  1.00 20.00     0.015 A 
HETATM    2  C2  UNL     1     -33.302  15.348  -4.370  1.00 20.00     0.016 A 
HETATM    3  C3  UNL     1     -35.638  14.737  -7.195  1.00 20.00     0.025 A 
HETATM    4  C4  UNL     1     -33.352  15.801  -3.059  1.00 20.00     0.039 A 
HETATM    5  C5  UNL     1     -36.854  15.566  -5.284  1.00 20.00     0.056 A 
HETATM    6  C6  UNL     1     -34.475  15.265  -5.131  1.00 20.00    -0.007 A 
HETATM    7  C7  UNL     1     -35.689  15.651  -4.526  1.00 20.00     0.070 A 
HETATM    8  C8  UNL     1     -36.838  15.116  -6.605  1.00 20.00     0.036 A 
HETATM    9  C9  UNL     1     -34.586  16.156  -2.554  1.00 20.00     0.091 A 
HETATM   10  N10 UNL     1     -35.741  16.090  -3.255  1.00 20.00    -0.242 NA
HETATM   11 CL12 UNL     1     -38.304  15.030  -7.504  1.00 20.00    -0.084 Cl
ENDROOT
BRANCH   9  12
HETATM   12  S11 UNL     1     -34.710  16.743  -0.873  1.00 20.00    -0.123 SA
HETATM   13  H18 UNL     1     -33.652  16.079  -0.383  1.00 20.00     0.108 HD
ENDBRANCH   9  12
TORSDOF 1
ENDMDL
MODEL 7
REMARK VINA RESULT:      -4.3      1.837      1.903
REMARK  1 active torsions:
REMARK  status: ('A' for Active; 'I' for Inactive)
REMARK    1  A    between atoms: C9_9  and  S11_11 
ROOT
HETATM    1  C1  UNL     1     -33.931  14.697  -3.313  1.00 20.00     0.015 A 
HETATM    2  C2  UNL     1     -34.473  16.257  -1.504  1.00 20.00     0.016 A 
HETATM    3  C3  UNL     1     -34.161  14.229  -4.604  1.00 20.00     0.025 A 
HETATM    4  C4  UNL     1     -35.234  17.315  -1.026  1.00 20.00     0.039 A 
HETATM    5  C5  UNL     1     -35.891  15.889  -4.874  1.00 20.00     0.056 A 
HETATM    6  C6  UNL     1     -34.684  15.767  -2.800  1.00 20.00    -0.007 A 
HETATM    7  C7  UNL     1     -35.682  16.378  -3.587  1.00 20.00     0.070 A 
HETATM    8  C8  UNL     1     -35.143  14.827  -5.385  1.00 20.00     0.036 A 
HETATM    9  C9  UNL     1     -36.187  17.848  -1.871  1.00 20.00     0.091 A 
HETATM   10  N10 UNL     1     -36.422  17.404  -3.127  1.00 20.00    -0.242 NA
HETATM   11 CL12 UNL     1     -35.436  14.258  -6.983  1.00 20.00    -0.084 Cl
ENDROOT
BRANCH   9  12
HETATM   12  S11 UNL     1     -37.194  19.209  -1.308  1.00 20.00    -0.123 SA
HETATM   13  H18 UNL     1     -38.245  18.483  -0.897  1.00 20.00     0.108 HD
ENDBRANCH   9  12
TORSDOF 1
ENDMDL
MODEL 8
REMARK VINA RESULT:      -4.3      6.566      8.554
REMARK  1 active torsions:
REMARK  status: ('A' for Active; 'I' for Inactive)
REMARK    1  A    between atoms: C9_9  and  S11_11 
ROOT
HETATM    1  C1  UNL     1     -31.079  19.263   3.215  1.00 20.00     0.015 A 
HETATM    2  C2  UNL     1     -31.774  18.973   0.884  1.00 20.00     0.016 A 
HETATM    3  C3  UNL     1     -31.383  19.217   4.572  1.00 20.00     0.025 A 
HETATM    4  C4  UNL     1     -32.758  18.644  -0.037  1.00 20.00     0.039 A 
HETATM    5  C5  UNL     1     -33.628  18.521   4.025  1.00 20.00     0.056 A 
HETATM    6  C6  UNL     1     -32.054  18.935   2.257  1.00 20.00    -0.007 A 
HETATM    7  C7  UNL     1     -33.351  18.558   2.661  1.00 20.00     0.070 A 
HETATM    8  C8  UNL     1     -32.660  18.846   4.977  1.00 20.00     0.036 A 
HETATM    9  C9  UNL     1     -33.998  18.287   0.454  1.00 20.00     0.091 A 
HETATM   10  N10 UNL     1     -34.308  18.238   1.770  1.00 20.00    -0.242 NA
HETATM   11 CL12 UNL     1     -33.047  18.785   6.654  1.00 20.00    -0.084 Cl
ENDROOT
BRANCH   9  12
HETATM   12  S11 UNL     1     -35.302  17.855  -0.686  1.00 20.00    -0.123 SA
HETATM   13  H18 UNL     1     -34.673  16.831  -1.282  1.00 20.00     0.108 HD
ENDBRANCH   9  12
TORSDOF 1
ENDMDL
MODEL 9
REMARK VINA RESULT:      -4.2     13.405     14.562
REMARK  1 active torsions:
REMARK  status: ('A' for Active; 'I' for Inactive)
REMARK    1  A    between atoms: C9_9  and  S11_11 
ROOT
HETATM    1  C1  UNL     1     -40.857   5.389  -0.881  1.00 20.00     0.015 A 
HETATM    2  C2  UNL     1     -40.842   3.339  -2.222  1.00 20.00     0.016 A 
HETATM    3  C3  UNL     1     -41.467   6.591  -0.535  1.00 20.00     0.025 A 
HETATM    4  C4  UNL     1     -41.435   2.537  -3.187  1.00 20.00     0.039 A 
HETATM    5  C5  UNL     1     -43.223   6.136  -2.126  1.00 20.00     0.056 A 
HETATM    6  C6  UNL     1     -41.434   4.554  -1.855  1.00 20.00    -0.007 A 
HETATM    7  C7  UNL     1     -42.636   4.927  -2.491  1.00 20.00     0.070 A 
HETATM    8  C8  UNL     1     -42.651   6.965  -1.159  1.00 20.00     0.036 A 
HETATM    9  C9  UNL     1     -42.611   2.986  -3.754  1.00 20.00     0.091 A 
HETATM   10  N10 UNL     1     -43.215   4.152  -3.428  1.00 20.00    -0.242 NA
HETATM   11 CL12 UNL     1     -43.414   8.449  -0.738  1.00 20.00    -0.084 Cl
ENDROOT
BRANCH   9  12
HETATM   12  S11 UNL     1     -43.417   1.996  -5.001  1.00 20.00    -0.123 SA
HETATM   13  H18 UNL     1     -42.957   2.663  -6.070  1.00 20.00     0.108 HD
ENDBRANCH   9  12
TORSDOF 1
ENDMDL
