MODEL 1
REMARK VINA RESULT:      -4.5      0.000      0.000
REMARK  0 active torsions:
REMARK  status: ('A' for Active; 'I' for Inactive)
ROOT
HETATM    1  C1  UNL     1     -31.802   7.511   2.423  1.00 20.00     0.012 C 
HETATM    2  C2  UNL     1     -32.720   7.168   3.116  1.00 20.00    -0.113 C 
HETATM    3  C3  UNL     1     -33.388   6.564   5.417  1.00 20.00     0.047 C 
HETATM    4  C4  UNL     1     -34.466   5.449   3.438  1.00 20.00     0.047 C 
HETATM    5  C5  UNL     1     -34.516   6.005   6.289  1.00 20.00     0.273 C 
HETATM    6  C6  UNL     1     -35.555   4.930   4.381  1.00 20.00     0.273 C 
HETATM    7  C7  UNL     1     -33.845   6.746   3.966  1.00 20.00     0.067 C 
HETATM    8  C8  UNL     1     -34.243   3.612   5.949  1.00 20.00     0.309 C 
HETATM    9  N9  UNL     1     -35.117   4.769   5.773  1.00 20.00     0.084 N 
ENDROOT
TORSDOF 0
ENDMDL
MODEL 2
REMARK VINA RESULT:      -4.3     12.328     13.474
REMARK  0 active torsions:
REMARK  status: ('A' for Active; 'I' for Inactive)
ROOT
HETATM    1  C1  UNL     1     -34.774  16.999  -0.395  1.00 20.00     0.012 C 
HETATM    2  C2  UNL     1     -34.326  16.580  -1.427  1.00 20.00    -0.113 C 
HETATM    3  C3  UNL     1     -33.754  17.168  -3.757  1.00 20.00     0.047 C 
HETATM    4  C4  UNL     1     -34.593  14.868  -3.188  1.00 20.00     0.047 C 
HETATM    5  C5  UNL     1     -33.305  16.618  -5.115  1.00 20.00     0.273 C 
HETATM    6  C6  UNL     1     -34.115  14.400  -4.565  1.00 20.00     0.273 C 
HETATM    7  C7  UNL     1     -33.779  16.067  -2.693  1.00 20.00     0.067 C 
HETATM    8  C8  UNL     1     -35.416  15.836  -6.037  1.00 20.00     0.309 C 
HETATM    9  N9  UNL     1     -34.079  15.461  -5.580  1.00 20.00     0.084 N 
ENDROOT
TORSDOF 0
ENDMDL
MODEL 3
REMARK VINA RESULT:      -4.3     12.111     13.047
REMARK  0 active torsions:
REMARK  status: ('A' for Active; 'I' for Inactive)
ROOT
HETATM    1  C1  UNL     1     -34.386  16.684  -1.153  1.00 20.00     0.012 C 
HETATM    2  C2  UNL     1     -34.789  15.956  -2.018  1.00 20.00    -0.113 C 
HETATM    3  C3  UNL     1     -34.134  14.235  -3.665  1.00 20.00     0.047 C 
HETATM    4  C4  UNL     1     -35.971  15.871  -4.186  1.00 20.00     0.047 C 
HETATM    5  C5  UNL     1     -34.607  13.395  -4.856  1.00 20.00     0.273 C 
HETATM    6  C6  UNL     1     -36.378  14.973  -5.358  1.00 20.00     0.273 C 
HETATM    7  C7  UNL     1     -35.281  15.065  -3.081  1.00 20.00     0.067 C 
HETATM    8  C8  UNL     1     -34.341  14.971  -6.689  1.00 20.00     0.309 C 
HETATM    9  N9  UNL     1     -35.279  14.168  -5.907  1.00 20.00     0.084 N 
ENDROOT
TORSDOF 0
ENDMDL
MODEL 4
REMARK VINA RESULT:      -4.0     11.987     12.882
REMARK  0 active torsions:
REMARK  status: ('A' for Active; 'I' for Inactive)
ROOT
HETATM    1  C1  UNL     1     -34.790  17.010  -0.045  1.00 20.00     0.012 C 
HETATM    2  C2  UNL     1     -34.799  16.800  -1.226  1.00 20.00    -0.113 C 
HETATM    3  C3  UNL     1     -36.005  15.662  -3.058  1.00 20.00     0.047 C 
HETATM    4  C4  UNL     1     -33.501  15.880  -3.117  1.00 20.00     0.047 C 
HETATM    5  C5  UNL     1     -35.961  15.279  -4.540  1.00 20.00     0.273 C 
HETATM    6  C6  UNL     1     -33.546  15.489  -4.597  1.00 20.00     0.273 C 
HETATM    7  C7  UNL     1     -34.810  16.541  -2.675  1.00 20.00     0.067 C 
HETATM    8  C8  UNL     1     -34.570  13.285  -4.479  1.00 20.00     0.309 C 
HETATM    9  N9  UNL     1     -34.700  14.658  -4.963  1.00 20.00     0.084 N 
ENDROOT
TORSDOF 0
ENDMDL
MODEL 5
REMARK VINA RESULT:      -4.0     11.861     13.583
REMARK  0 active torsions:
REMARK  status: ('A' for Active; 'I' for Inactive)
ROOT
HETATM    1  C1  UNL     1     -36.434  14.705  -7.918  1.00 20.00     0.012 C 
HETATM    2  C2  UNL     1     -35.537  14.698  -7.121  1.00 20.00    -0.113 C 
HETATM    3  C3  UNL     1     -34.755  13.743  -4.981  1.00 20.00     0.047 C 
HETATM    4  C4  UNL     1     -34.169  16.103  -5.618  1.00 20.00     0.047 C 
HETATM    5  C5  UNL     1     -33.679  13.817  -3.893  1.00 20.00     0.273 C 
HETATM    6  C6  UNL     1     -33.114  16.094  -4.508  1.00 20.00     0.273 C 
HETATM    7  C7  UNL     1     -34.438  14.689  -6.142  1.00 20.00     0.067 C 
HETATM    8  C8  UNL     1     -34.489  15.673  -2.545  1.00 20.00     0.309 C 
HETATM    9  N9  UNL     1     -33.415  15.176  -3.402  1.00 20.00     0.084 N 
ENDROOT
TORSDOF 0
ENDMDL
MODEL 6
REMARK VINA RESULT:      -3.9      9.197     10.339
REMARK  0 active torsions:
REMARK  status: ('A' for Active; 'I' for Inactive)
ROOT
HETATM    1  C1  UNL     1     -43.215   8.531  -3.753  1.00 20.00     0.012 C 
HETATM    2  C2  UNL     1     -42.531   7.743  -3.160  1.00 20.00    -0.113 C 
HETATM    3  C3  UNL     1     -42.305   5.374  -2.499  1.00 20.00     0.047 C 
HETATM    4  C4  UNL     1     -41.513   7.208  -0.973  1.00 20.00     0.047 C 
HETATM    5  C5  UNL     1     -41.513   4.381  -1.641  1.00 20.00     0.273 C 
HETATM    6  C6  UNL     1     -40.751   6.151  -0.170  1.00 20.00     0.273 C 
HETATM    7  C7  UNL     1     -41.694   6.776  -2.431  1.00 20.00     0.067 C 
HETATM    8  C8  UNL     1     -42.561   4.685   0.533  1.00 20.00     0.309 C 
HETATM    9  N9  UNL     1     -41.331   4.804  -0.247  1.00 20.00     0.084 N 
ENDROOT
TORSDOF 0
ENDMDL
MODEL 7
REMARK VINA RESULT:      -3.8      9.076     10.428
REMARK  0 active torsions:
REMARK  status: ('A' for Active; 'I' for Inactive)
ROOT
HETATM    1  C1  UNL     1     -41.512   2.053  -3.418  1.00 20.00     0.012 C 
HETATM    2  C2  UNL     1     -41.612   3.138  -2.913  1.00 20.00    -0.113 C 
HETATM    3  C3  UNL     1     -40.888   4.550  -1.020  1.00 20.00     0.047 C 
HETATM    4  C4  UNL     1     -43.200   4.783  -1.978  1.00 20.00     0.047 C 
HETATM    5  C5  UNL     1     -41.103   5.882  -0.296  1.00 20.00     0.273 C 
HETATM    6  C6  UNL     1     -43.333   6.107  -1.220  1.00 20.00     0.273 C 
HETATM    7  C7  UNL     1     -41.736   4.467  -2.293  1.00 20.00     0.067 C 
HETATM    8  C8  UNL     1     -43.042   5.371   1.081  1.00 20.00     0.309 C 
HETATM    9  N9  UNL     1     -42.510   6.189  -0.007  1.00 20.00     0.084 N 
ENDROOT
TORSDOF 0
ENDMDL
MODEL 8
REMARK VINA RESULT:      -3.8     12.383     13.583
REMARK  0 active torsions:
REMARK  status: ('A' for Active; 'I' for Inactive)
ROOT
HETATM    1  C1  UNL     1     -35.181  17.500   1.077  1.00 20.00     0.012 C 
HETATM    2  C2  UNL     1     -34.695  17.296  -0.001  1.00 20.00    -0.113 C 
HETATM    3  C3  UNL     1     -34.233  18.281  -2.219  1.00 20.00     0.047 C 
HETATM    4  C4  UNL     1     -34.754  15.832  -1.991  1.00 20.00     0.047 C 
HETATM    5  C5  UNL     1     -33.732  17.996  -3.638  1.00 20.00     0.273 C 
HETATM    6  C6  UNL     1     -34.235  15.634  -3.418  1.00 20.00     0.273 C 
HETATM    7  C7  UNL     1     -34.100  17.045  -1.324  1.00 20.00     0.067 C 
HETATM    8  C8  UNL     1     -35.732  17.081  -4.678  1.00 20.00     0.309 C 
HETATM    9  N9  UNL     1     -34.352  16.824  -4.270  1.00 20.00     0.084 N 
ENDROOT
TORSDOF 0
ENDMDL
MODEL 9
REMARK VINA RESULT:      -3.7      9.322     10.799
REMARK  0 active torsions:
REMARK  status: ('A' for Active; 'I' for Inactive)
ROOT
HETATM    1  C1  UNL     1     -41.312   1.994  -3.936  1.00 20.00     0.012 C 
HETATM    2  C2  UNL     1     -41.651   2.743  -3.061  1.00 20.00    -0.113 C 
HETATM    3  C3  UNL     1     -43.012   4.737  -2.536  1.00 20.00     0.047 C 
HETATM    4  C4  UNL     1     -40.846   4.314  -1.332  1.00 20.00     0.047 C 
HETATM    5  C5  UNL     1     -43.354   5.775  -1.463  1.00 20.00     0.273 C 
HETATM    6  C6  UNL     1     -41.265   5.367  -0.302  1.00 20.00     0.273 C 
HETATM    7  C7  UNL     1     -42.066   3.663  -1.990  1.00 20.00     0.067 C 
HETATM    8  C8  UNL     1     -41.507   7.340  -1.704  1.00 20.00     0.309 C 
HETATM    9  N9  UNL     1     -42.181   6.387  -0.825  1.00 20.00     0.084 N 
ENDROOT
TORSDOF 0
ENDMDL
