MODEL 1
REMARK VINA RESULT:      -4.0      0.000      0.000
REMARK  0 active torsions:
REMARK  status: ('A' for Active; 'I' for Inactive)
ROOT
HETATM    1  C1  UNL     1     -34.176  15.631  -5.833  1.00 20.00    -0.057 C 
HETATM    2  C2  UNL     1     -33.767  15.592  -3.386  1.00 20.00    -0.057 C 
HETATM    3  C3  UNL     1     -34.572  16.467  -6.803  1.00 20.00     0.016 C 
HETATM    4  C4  UNL     1     -33.821  16.395  -2.313  1.00 20.00     0.016 C 
HETATM    5  C5  UNL     1     -33.245  16.059  -4.723  1.00 20.00     0.070 C 
HETATM    6  C6  UNL     1     -34.650  14.196  -5.752  1.00 20.00     0.306 C 
HETATM    7  C7  UNL     1     -34.250  14.158  -3.352  1.00 20.00     0.306 C 
HETATM    8  C8  UNL     1     -36.522  14.390  -4.203  1.00 20.00     0.310 C 
HETATM    9  N9  UNL     1     -35.195  13.821  -4.433  1.00 20.00     0.091 N 
ENDROOT
TORSDOF 0
ENDMDL
MODEL 2
REMARK VINA RESULT:      -3.9      1.585      3.236
REMARK  0 active torsions:
REMARK  status: ('A' for Active; 'I' for Inactive)
ROOT
HETATM    1  C1  UNL     1     -33.743  16.248  -3.066  1.00 20.00    -0.057 C 
HETATM    2  C2  UNL     1     -34.141  14.430  -4.707  1.00 20.00    -0.057 C 
HETATM    3  C3  UNL     1     -34.020  16.575  -1.796  1.00 20.00     0.016 C 
HETATM    4  C4  UNL     1     -34.750  13.239  -4.807  1.00 20.00     0.016 C 
HETATM    5  C5  UNL     1     -33.367  14.845  -3.479  1.00 20.00     0.070 C 
HETATM    6  C6  UNL     1     -33.811  17.251  -4.197  1.00 20.00     0.306 C 
HETATM    7  C7  UNL     1     -34.202  15.468  -5.807  1.00 20.00     0.306 C 
HETATM    8  C8  UNL     1     -36.058  16.860  -5.058  1.00 20.00     0.310 C 
HETATM    9  N9  UNL     1     -34.624  16.803  -5.343  1.00 20.00     0.091 N 
ENDROOT
TORSDOF 0
ENDMDL
MODEL 3
REMARK VINA RESULT:      -3.9      1.511      3.580
REMARK  0 active torsions:
REMARK  status: ('A' for Active; 'I' for Inactive)
ROOT
HETATM    1  C1  UNL     1     -34.515  15.624  -2.730  1.00 20.00    -0.057 C 
HETATM    2  C2  UNL     1     -35.691  15.246  -4.881  1.00 20.00    -0.057 C 
HETATM    3  C3  UNL     1     -34.673  16.263  -1.562  1.00 20.00     0.016 C 
HETATM    4  C4  UNL     1     -36.831  15.569  -5.510  1.00 20.00     0.016 C 
HETATM    5  C5  UNL     1     -35.646  14.894  -3.414  1.00 20.00     0.070 C 
HETATM    6  C6  UNL     1     -33.197  15.606  -3.474  1.00 20.00     0.306 C 
HETATM    7  C7  UNL     1     -34.350  15.235  -5.585  1.00 20.00     0.306 C 
HETATM    8  C8  UNL     1     -33.496  17.452  -5.037  1.00 20.00     0.310 C 
HETATM    9  N9  UNL     1     -33.306  16.009  -4.888  1.00 20.00     0.091 N 
ENDROOT
TORSDOF 0
ENDMDL
MODEL 4
REMARK VINA RESULT:      -3.8     11.861     12.759
REMARK  0 active torsions:
REMARK  status: ('A' for Active; 'I' for Inactive)
ROOT
HETATM    1  C1  UNL     1     -42.308   4.908  -2.574  1.00 20.00    -0.057 C 
HETATM    2  C2  UNL     1     -42.122   7.037  -1.315  1.00 20.00    -0.057 C 
HETATM    3  C3  UNL     1     -43.225   4.142  -3.183  1.00 20.00     0.016 C 
HETATM    4  C4  UNL     1     -42.882   8.049  -0.871  1.00 20.00     0.016 C 
HETATM    5  C5  UNL     1     -42.313   6.415  -2.676  1.00 20.00     0.070 C 
HETATM    6  C6  UNL     1     -41.209   4.328  -1.711  1.00 20.00     0.306 C 
HETATM    7  C7  UNL     1     -41.025   6.416  -0.475  1.00 20.00     0.306 C 
HETATM    8  C8  UNL     1     -42.188   4.515   0.513  1.00 20.00     0.310 C 
HETATM    9  N9  UNL     1     -41.110   4.947  -0.376  1.00 20.00     0.091 N 
ENDROOT
TORSDOF 0
ENDMDL
MODEL 5
REMARK VINA RESULT:      -3.7      1.491      3.287
REMARK  0 active torsions:
REMARK  status: ('A' for Active; 'I' for Inactive)
ROOT
HETATM    1  C1  UNL     1     -34.336  14.250  -4.735  1.00 20.00    -0.057 C 
HETATM    2  C2  UNL     1     -34.347  16.248  -6.206  1.00 20.00    -0.057 C 
HETATM    3  C3  UNL     1     -35.157  13.288  -4.289  1.00 20.00     0.016 C 
HETATM    4  C4  UNL     1     -35.176  16.954  -6.988  1.00 20.00     0.016 C 
HETATM    5  C5  UNL     1     -34.360  14.739  -6.164  1.00 20.00     0.070 C 
HETATM    6  C6  UNL     1     -33.336  14.946  -3.837  1.00 20.00     0.306 C 
HETATM    7  C7  UNL     1     -33.347  16.906  -5.279  1.00 20.00     0.306 C 
HETATM    8  C8  UNL     1     -34.580  16.936  -3.176  1.00 20.00     0.310 C 
HETATM    9  N9  UNL     1     -33.412  16.418  -3.889  1.00 20.00     0.091 N 
ENDROOT
TORSDOF 0
ENDMDL
MODEL 6
REMARK VINA RESULT:      -3.7      1.579      2.530
REMARK  0 active torsions:
REMARK  status: ('A' for Active; 'I' for Inactive)
ROOT
HETATM    1  C1  UNL     1     -35.289  14.637  -5.963  1.00 20.00    -0.057 C 
HETATM    2  C2  UNL     1     -34.027  14.138  -3.886  1.00 20.00    -0.057 C 
HETATM    3  C3  UNL     1     -35.204  14.474  -7.291  1.00 20.00     0.016 C 
HETATM    4  C4  UNL     1     -32.888  13.557  -3.479  1.00 20.00     0.016 C 
HETATM    5  C5  UNL     1     -34.884  13.559  -4.985  1.00 20.00     0.070 C 
HETATM    6  C6  UNL     1     -35.772  15.925  -5.332  1.00 20.00     0.306 C 
HETATM    7  C7  UNL     1     -34.534  15.436  -3.294  1.00 20.00     0.306 C 
HETATM    8  C8  UNL     1     -33.664  17.066  -4.885  1.00 20.00     0.310 C 
HETATM    9  N9  UNL     1     -34.862  16.462  -4.302  1.00 20.00     0.091 N 
ENDROOT
TORSDOF 0
ENDMDL
MODEL 7
REMARK VINA RESULT:      -3.7      1.499      2.569
REMARK  0 active torsions:
REMARK  status: ('A' for Active; 'I' for Inactive)
ROOT
HETATM    1  C1  UNL     1     -33.929  14.725  -3.331  1.00 20.00    -0.057 C 
HETATM    2  C2  UNL     1     -35.974  16.098  -3.036  1.00 20.00    -0.057 C 
HETATM    3  C3  UNL     1     -32.628  14.856  -3.625  1.00 20.00     0.016 C 
HETATM    4  C4  UNL     1     -36.381  17.375  -3.083  1.00 20.00     0.016 C 
HETATM    5  C5  UNL     1     -34.657  15.689  -2.424  1.00 20.00     0.070 C 
HETATM    6  C6  UNL     1     -34.785  13.617  -3.906  1.00 20.00     0.306 C 
HETATM    7  C7  UNL     1     -36.791  14.964  -3.617  1.00 20.00     0.306 C 
HETATM    8  C8  UNL     1     -35.792  14.729  -5.828  1.00 20.00     0.310 C 
HETATM    9  N9  UNL     1     -36.033  14.092  -4.533  1.00 20.00     0.091 N 
ENDROOT
TORSDOF 0
ENDMDL
MODEL 8
REMARK VINA RESULT:      -3.7      1.409      2.645
REMARK  0 active torsions:
REMARK  status: ('A' for Active; 'I' for Inactive)
ROOT
HETATM    1  C1  UNL     1     -36.431  15.454  -3.981  1.00 20.00    -0.057 C 
HETATM    2  C2  UNL     1     -34.814  16.420  -2.367  1.00 20.00    -0.057 C 
HETATM    3  C3  UNL     1     -37.551  14.717  -4.010  1.00 20.00     0.016 C 
HETATM    4  C4  UNL     1     -34.583  16.490  -1.047  1.00 20.00     0.016 C 
HETATM    5  C5  UNL     1     -36.199  16.537  -2.955  1.00 20.00     0.070 C 
HETATM    6  C6  UNL     1     -35.294  15.242  -4.957  1.00 20.00     0.306 C 
HETATM    7  C7  UNL     1     -33.707  16.189  -3.374  1.00 20.00     0.306 C 
HETATM    8  C8  UNL     1     -33.825  13.774  -3.680  1.00 20.00     0.310 C 
HETATM    9  N9  UNL     1     -33.977  15.084  -4.313  1.00 20.00     0.091 N 
ENDROOT
TORSDOF 0
ENDMDL
MODEL 9
REMARK VINA RESULT:      -3.7      1.173      2.823
REMARK  0 active torsions:
REMARK  status: ('A' for Active; 'I' for Inactive)
ROOT
HETATM    1  C1  UNL     1     -34.182  16.059  -3.365  1.00 20.00    -0.057 C 
HETATM    2  C2  UNL     1     -36.241  14.704  -3.643  1.00 20.00    -0.057 C 
HETATM    3  C3  UNL     1     -33.771  17.335  -3.387  1.00 20.00     0.016 C 
HETATM    4  C4  UNL     1     -37.550  14.847  -3.896  1.00 20.00     0.016 C 
HETATM    5  C5  UNL     1     -35.485  15.637  -2.729  1.00 20.00     0.070 C 
HETATM    6  C6  UNL     1     -33.387  14.939  -4.001  1.00 20.00     0.306 C 
HETATM    7  C7  UNL     1     -35.407  13.609  -4.274  1.00 20.00     0.306 C 
HETATM    8  C8  UNL     1     -34.448  14.772  -6.189  1.00 20.00     0.310 C 
HETATM    9  N9  UNL     1     -34.174  14.097  -4.921  1.00 20.00     0.091 N 
ENDROOT
TORSDOF 0
ENDMDL
