MODEL 1
REMARK VINA RESULT:      -5.3      0.000      0.000
REMARK  1 active torsions:
REMARK  status: ('A' for Active; 'I' for Inactive)
REMARK    1  A    between atoms: C3_3  and  C4_4 
ROOT
HETATM    1  C1  UNL     1     -34.005   5.594   3.945  1.00 20.00     0.067 A 
HETATM    2  C2  UNL     1     -33.491   6.348   4.969  1.00 20.00     0.080 A 
HETATM    3  C3  UNL     1     -32.675   6.984   3.113  1.00 20.00     0.208 A 
HETATM    4  C5  UNL     1     -34.998   4.520   4.155  1.00 20.00     0.062 C 
HETATM    5  C6  UNL     1     -33.762   6.233   6.411  1.00 20.00     0.067 C 
HETATM    6  C7  UNL     1     -35.047   4.127   5.653  1.00 20.00     0.006 C 
HETATM    7  C8  UNL     1     -35.020   5.353   6.599  1.00 20.00     0.007 C 
HETATM    8  N9  UNL     1     -33.485   6.006   2.753  1.00 20.00    -0.224 NA
HETATM    9  O11 UNL     1     -32.621   7.253   4.455  1.00 20.00    -0.292 OA
ENDROOT
BRANCH   3  10
HETATM   10  C4  UNL     1     -31.877   7.754   2.225  1.00 20.00     0.316 C 
HETATM   11  O10 UNL     1     -32.263   8.800   1.655  1.00 20.00    -0.298 OA
ENDBRANCH   3  10
TORSDOF 1
ENDMDL
MODEL 2
REMARK VINA RESULT:      -4.6     11.819     12.813
REMARK  1 active torsions:
REMARK  status: ('A' for Active; 'I' for Inactive)
REMARK    1  A    between atoms: C3_3  and  C4_4 
ROOT
HETATM    1  C1  UNL     1     -33.923  16.809  -3.726  1.00 20.00     0.067 A 
HETATM    2  C2  UNL     1     -34.196  16.140  -2.561  1.00 20.00     0.080 A 
HETATM    3  C3  UNL     1     -34.223  14.790  -4.201  1.00 20.00     0.208 A 
HETATM    4  C5  UNL     1     -33.636  18.258  -3.775  1.00 20.00     0.062 C 
HETATM    5  C6  UNL     1     -34.301  16.687  -1.198  1.00 20.00     0.067 C 
HETATM    6  C7  UNL     1     -34.076  18.933  -2.451  1.00 20.00     0.006 C 
HETATM    7  C8  UNL     1     -33.691  18.108  -1.198  1.00 20.00     0.007 C 
HETATM    8  N9  UNL     1     -33.936  15.941  -4.779  1.00 20.00    -0.224 NA
HETATM    9  O11 UNL     1     -34.400  14.830  -2.843  1.00 20.00    -0.292 OA
ENDROOT
BRANCH   3  10
HETATM   10  C4  UNL     1     -34.359  13.547  -4.876  1.00 20.00     0.316 C 
HETATM   11  O10 UNL     1     -35.059  12.594  -4.467  1.00 20.00    -0.298 OA
ENDBRANCH   3  10
TORSDOF 1
ENDMDL
MODEL 3
REMARK VINA RESULT:      -4.5     11.687     12.761
REMARK  1 active torsions:
REMARK  status: ('A' for Active; 'I' for Inactive)
REMARK    1  A    between atoms: C3_3  and  C4_4 
ROOT
HETATM    1  C1  UNL     1     -34.450  16.027  -2.465  1.00 20.00     0.067 A 
HETATM    2  C2  UNL     1     -34.068  16.822  -3.514  1.00 20.00     0.080 A 
HETATM    3  C3  UNL     1     -34.481  14.856  -4.203  1.00 20.00     0.208 A 
HETATM    4  C5  UNL     1     -34.563  16.522  -1.077  1.00 20.00     0.062 C 
HETATM    5  C6  UNL     1     -33.669  18.239  -3.486  1.00 20.00     0.067 C 
HETATM    6  C7  UNL     1     -33.828  17.878  -0.935  1.00 20.00     0.006 C 
HETATM    7  C8  UNL     1     -34.094  18.836  -2.124  1.00 20.00     0.007 C 
HETATM    8  N9  UNL     1     -34.720  14.765  -2.908  1.00 20.00    -0.224 NA
HETATM    9  O11 UNL     1     -34.075  16.084  -4.652  1.00 20.00    -0.292 OA
ENDROOT
BRANCH   3  10
HETATM   10  C4  UNL     1     -34.613  13.792  -5.135  1.00 20.00     0.316 C 
HETATM   11  O10 UNL     1     -34.777  12.592  -4.818  1.00 20.00    -0.298 OA
ENDBRANCH   3  10
TORSDOF 1
ENDMDL
MODEL 4
REMARK VINA RESULT:      -4.5     10.761     11.822
REMARK  1 active torsions:
REMARK  status: ('A' for Active; 'I' for Inactive)
REMARK    1  A    between atoms: C3_3  and  C4_4 
ROOT
HETATM    1  C1  UNL     1     -41.811   4.287  -2.121  1.00 20.00     0.067 A 
HETATM    2  C2  UNL     1     -42.716   5.160  -2.668  1.00 20.00     0.080 A 
HETATM    3  C3  UNL     1     -42.851   3.271  -3.632  1.00 20.00     0.208 A 
HETATM    4  C5  UNL     1     -40.909   4.652  -1.009  1.00 20.00     0.062 C 
HETATM    5  C6  UNL     1     -42.946   6.571  -2.321  1.00 20.00     0.067 C 
HETATM    6  C7  UNL     1     -40.859   6.192  -0.849  1.00 20.00     0.006 C 
HETATM    7  C8  UNL     1     -42.253   6.857  -0.967  1.00 20.00     0.007 C 
HETATM    8  N9  UNL     1     -41.901   3.072  -2.737  1.00 20.00    -0.224 NA
HETATM    9  O11 UNL     1     -43.399   4.526  -3.653  1.00 20.00    -0.292 OA
ENDROOT
BRANCH   3  10
HETATM   10  C4  UNL     1     -43.328   2.296  -4.548  1.00 20.00     0.316 C 
HETATM   11  O10 UNL     1     -42.801   2.052  -5.657  1.00 20.00    -0.298 OA
ENDBRANCH   3  10
TORSDOF 1
ENDMDL
MODEL 5
REMARK VINA RESULT:      -4.3     11.566     12.734
REMARK  1 active torsions:
REMARK  status: ('A' for Active; 'I' for Inactive)
REMARK    1  A    between atoms: C3_3  and  C4_4 
ROOT
HETATM    1  C1  UNL     1     -35.993  15.828  -3.453  1.00 20.00     0.067 A 
HETATM    2  C2  UNL     1     -35.847  14.494  -3.734  1.00 20.00     0.080 A 
HETATM    3  C3  UNL     1     -37.901  15.034  -3.806  1.00 20.00     0.208 A 
HETATM    4  C5  UNL     1     -34.850  16.721  -3.169  1.00 20.00     0.062 C 
HETATM    5  C6  UNL     1     -34.609  13.699  -3.770  1.00 20.00     0.067 C 
HETATM    6  C7  UNL     1     -33.587  15.883  -2.848  1.00 20.00     0.006 C 
HETATM    7  C8  UNL     1     -33.408  14.674  -3.800  1.00 20.00     0.007 C 
HETATM    8  N9  UNL     1     -37.311  16.176  -3.504  1.00 20.00    -0.224 NA
HETATM    9  O11 UNL     1     -37.072  13.956  -3.961  1.00 20.00    -0.292 OA
ENDROOT
BRANCH   3  10
HETATM   10  C4  UNL     1     -39.300  14.857  -3.974  1.00 20.00     0.316 C 
HETATM   11  O10 UNL     1     -39.819  13.933  -4.642  1.00 20.00    -0.298 OA
ENDBRANCH   3  10
TORSDOF 1
ENDMDL
MODEL 6
REMARK VINA RESULT:      -4.3     10.463     11.221
REMARK  1 active torsions:
REMARK  status: ('A' for Active; 'I' for Inactive)
REMARK    1  A    between atoms: C3_3  and  C4_4 
ROOT
HETATM    1  C1  UNL     1     -42.369   5.829  -2.679  1.00 20.00     0.067 A 
HETATM    2  C2  UNL     1     -41.840   6.889  -1.988  1.00 20.00     0.080 A 
HETATM    3  C3  UNL     1     -42.893   7.586  -3.697  1.00 20.00     0.208 A 
HETATM    4  C5  UNL     1     -42.218   4.426  -2.242  1.00 20.00     0.062 C 
HETATM    5  C6  UNL     1     -41.023   6.863  -0.765  1.00 20.00     0.067 C 
HETATM    6  C7  UNL     1     -41.091   4.317  -1.185  1.00 20.00     0.006 C 
HETATM    7  C8  UNL     1     -41.137   5.454  -0.135  1.00 20.00     0.007 C 
HETATM    8  N9  UNL     1     -43.049   6.277  -3.775  1.00 20.00    -0.224 NA
HETATM    9  O11 UNL     1     -42.162   8.039  -2.632  1.00 20.00    -0.292 OA
ENDROOT
BRANCH   3  10
HETATM   10  C4  UNL     1     -43.417   8.528  -4.622  1.00 20.00     0.316 C 
HETATM   11  O10 UNL     1     -43.417   8.372  -5.865  1.00 20.00    -0.298 OA
ENDBRANCH   3  10
TORSDOF 1
ENDMDL
MODEL 7
REMARK VINA RESULT:      -4.3     11.732     12.684
REMARK  1 active torsions:
REMARK  status: ('A' for Active; 'I' for Inactive)
REMARK    1  A    between atoms: C3_3  and  C4_4 
ROOT
HETATM    1  C1  UNL     1     -35.833  14.693  -3.596  1.00 20.00     0.067 A 
HETATM    2  C2  UNL     1     -36.070  15.991  -3.221  1.00 20.00     0.080 A 
HETATM    3  C3  UNL     1     -37.893  15.045  -3.766  1.00 20.00     0.208 A 
HETATM    4  C5  UNL     1     -34.487  14.084  -3.584  1.00 20.00     0.062 C 
HETATM    5  C6  UNL     1     -35.097  17.009  -2.795  1.00 20.00     0.067 C 
HETATM    6  C7  UNL     1     -33.405  15.188  -3.490  1.00 20.00     0.006 C 
HETATM    7  C8  UNL     1     -33.762  16.298  -2.471  1.00 20.00     0.007 C 
HETATM    8  N9  UNL     1     -37.005  14.084  -3.941  1.00 20.00    -0.224 NA
HETATM    9  O11 UNL     1     -37.398  16.244  -3.328  1.00 20.00    -0.292 OA
ENDROOT
BRANCH   3  10
HETATM   10  C4  UNL     1     -39.289  14.919  -3.996  1.00 20.00     0.316 C 
HETATM   11  O10 UNL     1     -39.825  13.943  -4.568  1.00 20.00    -0.298 OA
ENDBRANCH   3  10
TORSDOF 1
ENDMDL
MODEL 8
REMARK VINA RESULT:      -4.2     12.015     13.220
REMARK  1 active torsions:
REMARK  status: ('A' for Active; 'I' for Inactive)
REMARK    1  A    between atoms: C3_3  and  C4_4 
ROOT
HETATM    1  C1  UNL     1     -34.515  14.961  -4.408  1.00 20.00     0.067 A 
HETATM    2  C2  UNL     1     -34.254  16.200  -4.934  1.00 20.00     0.080 A 
HETATM    3  C3  UNL     1     -34.121  16.265  -2.815  1.00 20.00     0.208 A 
HETATM    4  C5  UNL     1     -34.818  13.779  -5.241  1.00 20.00     0.062 C 
HETATM    5  C6  UNL     1     -34.262  16.610  -6.348  1.00 20.00     0.067 C 
HETATM    6  C7  UNL     1     -35.183  14.222  -6.680  1.00 20.00     0.006 C 
HETATM    7  C8  UNL     1     -34.252  15.335  -7.223  1.00 20.00     0.007 C 
HETATM    8  N9  UNL     1     -34.425  15.002  -3.047  1.00 20.00    -0.224 NA
HETATM    9  O11 UNL     1     -34.002  17.065  -3.920  1.00 20.00    -0.292 OA
ENDROOT
BRANCH   3  10
HETATM   10  C4  UNL     1     -33.918  16.834  -1.529  1.00 20.00     0.316 C 
HETATM   11  O10 UNL     1     -34.625  16.585  -0.527  1.00 20.00    -0.298 OA
ENDBRANCH   3  10
TORSDOF 1
ENDMDL
MODEL 9
REMARK VINA RESULT:      -4.2     12.075     13.158
REMARK  1 active torsions:
REMARK  status: ('A' for Active; 'I' for Inactive)
REMARK    1  A    between atoms: C3_3  and  C4_4 
ROOT
HETATM    1  C1  UNL     1     -34.250  16.280  -4.767  1.00 20.00     0.067 A 
HETATM    2  C2  UNL     1     -34.463  15.035  -4.233  1.00 20.00     0.080 A 
HETATM    3  C3  UNL     1     -34.083  16.437  -2.683  1.00 20.00     0.208 A 
HETATM    4  C5  UNL     1     -34.309  16.556  -6.217  1.00 20.00     0.062 C 
HETATM    5  C6  UNL     1     -34.736  13.774  -4.941  1.00 20.00     0.067 C 
HETATM    6  C7  UNL     1     -34.239  15.229  -7.014  1.00 20.00     0.006 C 
HETATM    7  C8  UNL     1     -35.118  14.111  -6.401  1.00 20.00     0.007 C 
HETATM    8  N9  UNL     1     -34.010  17.182  -3.771  1.00 20.00    -0.224 NA
HETATM    9  O11 UNL     1     -34.355  15.110  -2.883  1.00 20.00    -0.292 OA
ENDROOT
BRANCH   3  10
HETATM   10  C4  UNL     1     -33.902  16.910  -1.355  1.00 20.00     0.316 C 
HETATM   11  O10 UNL     1     -34.665  16.642  -0.400  1.00 20.00    -0.298 OA
ENDBRANCH   3  10
TORSDOF 1
ENDMDL
