MODEL 1
REMARK VINA RESULT:      -3.5      0.000      0.000
REMARK  0 active torsions:
REMARK  status: ('A' for Active; 'I' for Inactive)
ROOT
HETATM    1  C1  UNL     1     -34.243   6.226   6.353  1.00 20.00     0.011 C 
HETATM    2  C2  UNL     1     -33.178   6.729   5.381  1.00 20.00     0.017 C 
HETATM    3  C3  UNL     1     -34.713   4.811   6.046  1.00 20.00     0.074 C 
HETATM    4  C4  UNL     1     -34.085   5.372   3.420  1.00 20.00     0.089 C 
HETATM    5  C5  UNL     1     -33.671   6.743   3.937  1.00 20.00     0.067 C 
HETATM    6  S6  UNL     1     -35.458   4.688   4.394  1.00 20.00    -0.168 SA
HETATM    7 BR7  UNL     1     -32.223   7.420   2.794  1.00 20.00    -0.090 Br
ENDROOT
TORSDOF 0
ENDMDL
MODEL 2
REMARK VINA RESULT:      -3.3     12.123     12.873
REMARK  0 active torsions:
REMARK  status: ('A' for Active; 'I' for Inactive)
ROOT
HETATM    1  C1  UNL     1     -34.813  13.301  -4.560  1.00 20.00     0.011 C 
HETATM    2  C2  UNL     1     -34.344  14.201  -3.417  1.00 20.00     0.017 C 
HETATM    3  C3  UNL     1     -35.020  14.055  -5.867  1.00 20.00     0.074 C 
HETATM    4  C4  UNL     1     -35.583  16.251  -4.297  1.00 20.00     0.089 C 
HETATM    5  C5  UNL     1     -35.336  15.321  -3.117  1.00 20.00     0.067 C 
HETATM    6  S6  UNL     1     -36.284  15.349  -5.710  1.00 20.00    -0.168 SA
HETATM    7 BR7  UNL     1     -34.629  16.391  -1.628  1.00 20.00    -0.090 Br
ENDROOT
TORSDOF 0
ENDMDL
MODEL 3
REMARK VINA RESULT:      -3.3     12.241     13.283
REMARK  0 active torsions:
REMARK  status: ('A' for Active; 'I' for Inactive)
ROOT
HETATM    1  C1  UNL     1     -33.298  16.479  -5.280  1.00 20.00     0.011 C 
HETATM    2  C2  UNL     1     -33.775  16.996  -3.923  1.00 20.00     0.017 C 
HETATM    3  C3  UNL     1     -34.246  15.459  -5.897  1.00 20.00     0.074 C 
HETATM    4  C4  UNL     1     -34.936  14.809  -3.308  1.00 20.00     0.089 C 
HETATM    5  C5  UNL     1     -33.931  15.877  -2.898  1.00 20.00     0.067 C 
HETATM    6  S6  UNL     1     -34.434  13.988  -4.849  1.00 20.00    -0.168 SA
HETATM    7 BR7  UNL     1     -34.530  16.668  -1.203  1.00 20.00    -0.090 Br
ENDROOT
TORSDOF 0
ENDMDL
MODEL 4
REMARK VINA RESULT:      -3.2     12.633     13.564
REMARK  0 active torsions:
REMARK  status: ('A' for Active; 'I' for Inactive)
ROOT
HETATM    1  C1  UNL     1     -34.044  13.687  -4.049  1.00 20.00     0.011 C 
HETATM    2  C2  UNL     1     -34.914  13.685  -5.305  1.00 20.00     0.017 C 
HETATM    3  C3  UNL     1     -34.054  15.024  -3.319  1.00 20.00     0.074 C 
HETATM    4  C4  UNL     1     -34.522  16.159  -5.787  1.00 20.00     0.089 C 
HETATM    5  C5  UNL     1     -34.470  14.734  -6.320  1.00 20.00     0.067 C 
HETATM    6  S6  UNL     1     -33.418  16.369  -4.359  1.00 20.00    -0.168 SA
HETATM    7 BR7  UNL     1     -35.651  14.619  -7.886  1.00 20.00    -0.090 Br
ENDROOT
TORSDOF 0
ENDMDL
MODEL 5
REMARK VINA RESULT:      -3.2     12.528     13.420
REMARK  0 active torsions:
REMARK  status: ('A' for Active; 'I' for Inactive)
ROOT
HETATM    1  C1  UNL     1     -33.248  15.384  -3.561  1.00 20.00     0.011 C 
HETATM    2  C2  UNL     1     -33.324  16.173  -4.867  1.00 20.00     0.017 C 
HETATM    3  C3  UNL     1     -33.329  13.877  -3.767  1.00 20.00     0.074 C 
HETATM    4  C4  UNL     1     -34.817  14.453  -6.017  1.00 20.00     0.089 C 
HETATM    5  C5  UNL     1     -34.621  15.912  -5.627  1.00 20.00     0.067 C 
HETATM    6  S6  UNL     1     -34.892  13.384  -4.549  1.00 20.00    -0.168 SA
HETATM    7 BR7  UNL     1     -34.603  16.990  -7.270  1.00 20.00    -0.090 Br
ENDROOT
TORSDOF 0
ENDMDL
MODEL 6
REMARK VINA RESULT:      -3.2     12.826     13.577
REMARK  0 active torsions:
REMARK  status: ('A' for Active; 'I' for Inactive)
ROOT
HETATM    1  C1  UNL     1     -33.406  16.343  -4.613  1.00 20.00     0.011 C 
HETATM    2  C2  UNL     1     -33.869  15.991  -6.025  1.00 20.00     0.017 C 
HETATM    3  C3  UNL     1     -32.955  15.129  -3.812  1.00 20.00     0.074 C 
HETATM    4  C4  UNL     1     -34.729  13.685  -5.351  1.00 20.00     0.089 C 
HETATM    5  C5  UNL     1     -35.042  15.014  -6.024  1.00 20.00     0.067 C 
HETATM    6  S6  UNL     1     -34.293  13.919  -3.603  1.00 20.00    -0.168 SA
HETATM    7 BR7  UNL     1     -35.550  14.656  -7.888  1.00 20.00    -0.090 Br
ENDROOT
TORSDOF 0
ENDMDL
MODEL 7
REMARK VINA RESULT:      -3.1     12.604     13.421
REMARK  0 active torsions:
REMARK  status: ('A' for Active; 'I' for Inactive)
ROOT
HETATM    1  C1  UNL     1     -33.873  16.714  -2.212  1.00 20.00     0.011 C 
HETATM    2  C2  UNL     1     -34.416  15.388  -2.742  1.00 20.00     0.017 C 
HETATM    3  C3  UNL     1     -34.256  17.905  -3.080  1.00 20.00     0.074 C 
HETATM    4  C4  UNL     1     -34.305  16.122  -5.183  1.00 20.00     0.089 C 
HETATM    5  C5  UNL     1     -33.913  15.076  -4.148  1.00 20.00     0.067 C 
HETATM    6  S6  UNL     1     -33.609  17.749  -4.769  1.00 20.00    -0.168 SA
HETATM    7 BR7  UNL     1     -34.666  13.348  -4.706  1.00 20.00    -0.090 Br
ENDROOT
TORSDOF 0
ENDMDL
MODEL 8
REMARK VINA RESULT:      -3.1      9.743     10.417
REMARK  0 active torsions:
REMARK  status: ('A' for Active; 'I' for Inactive)
ROOT
HETATM    1  C1  UNL     1     -40.921   6.108  -0.415  1.00 20.00     0.011 C 
HETATM    2  C2  UNL     1     -41.268   7.106  -1.519  1.00 20.00     0.017 C 
HETATM    3  C3  UNL     1     -40.817   4.674  -0.917  1.00 20.00     0.074 C 
HETATM    4  C4  UNL     1     -42.638   5.414  -2.851  1.00 20.00     0.089 C 
HETATM    5  C5  UNL     1     -42.600   6.786  -2.191  1.00 20.00     0.067 C 
HETATM    6  S6  UNL     1     -42.380   4.091  -1.632  1.00 20.00    -0.168 SA
HETATM    7 BR7  UNL     1     -42.937   8.142  -3.573  1.00 20.00    -0.090 Br
ENDROOT
TORSDOF 0
ENDMDL
MODEL 9
REMARK VINA RESULT:      -3.0      9.905     10.658
REMARK  0 active torsions:
REMARK  status: ('A' for Active; 'I' for Inactive)
ROOT
HETATM    1  C1  UNL     1     -40.793   5.993  -0.599  1.00 20.00     0.011 C 
HETATM    2  C2  UNL     1     -41.450   4.646  -0.896  1.00 20.00     0.017 C 
HETATM    3  C3  UNL     1     -41.695   7.179  -0.911  1.00 20.00     0.074 C 
HETATM    4  C4  UNL     1     -42.849   5.562  -2.823  1.00 20.00     0.089 C 
HETATM    5  C5  UNL     1     -41.852   4.508  -2.362  1.00 20.00     0.067 C 
HETATM    6  S6  UNL     1     -42.158   7.236  -2.666  1.00 20.00    -0.168 SA
HETATM    7 BR7  UNL     1     -42.666   2.738  -2.617  1.00 20.00    -0.090 Br
ENDROOT
TORSDOF 0
ENDMDL
