MODEL 1
REMARK VINA RESULT:      -5.8      0.000      0.000
REMARK  0 active torsions:
REMARK  status: ('A' for Active; 'I' for Inactive)
ROOT
HETATM    1  C1  UNL     1     -32.718   6.105   2.712  1.00 20.00    -0.002 C 
HETATM    2  C2  UNL     1     -32.682   6.762   3.999  1.00 20.00     0.009 C 
HETATM    3  C3  UNL     1     -33.826   5.349   2.608  1.00 20.00    -0.013 C 
HETATM    4  C4  UNL     1     -35.124   4.374   4.600  1.00 20.00     0.006 C 
HETATM    5  C5  UNL     1     -35.096   4.413   5.948  1.00 20.00     0.113 C 
HETATM    6  C6  UNL     1     -34.007   6.415   6.109  1.00 20.00     0.124 C 
HETATM    7  C7  UNL     1     -33.792   6.415   4.658  1.00 20.00    -0.029 C 
HETATM    8  C8  UNL     1     -34.695   5.573   3.813  1.00 20.00     0.066 C 
HETATM    9  N9  UNL     1     -34.648   5.467   6.726  1.00 20.00    -0.273 NA
ENDROOT
TORSDOF 0
ENDMDL
MODEL 2
REMARK VINA RESULT:      -5.4      1.627      3.594
REMARK  0 active torsions:
REMARK  status: ('A' for Active; 'I' for Inactive)
ROOT
HETATM    1  C1  UNL     1     -34.989   4.603   6.335  1.00 20.00    -0.002 C 
HETATM    2  C2  UNL     1     -35.185   4.291   4.937  1.00 20.00     0.009 C 
HETATM    3  C3  UNL     1     -34.355   5.783   6.462  1.00 20.00    -0.013 C 
HETATM    4  C4  UNL     1     -32.834   6.826   4.673  1.00 20.00     0.006 C 
HETATM    5  C5  UNL     1     -32.428   6.574   3.412  1.00 20.00     0.113 C 
HETATM    6  C6  UNL     1     -34.221   5.280   2.835  1.00 20.00     0.124 C 
HETATM    7  C7  UNL     1     -34.688   5.307   4.225  1.00 20.00    -0.029 C 
HETATM    8  C8  UNL     1     -34.206   6.415   5.107  1.00 20.00     0.066 C 
HETATM    9  N9  UNL     1     -33.150   5.902   2.440  1.00 20.00    -0.273 NA
ENDROOT
TORSDOF 0
ENDMDL
MODEL 3
REMARK VINA RESULT:      -4.3      9.711     10.541
REMARK  0 active torsions:
REMARK  status: ('A' for Active; 'I' for Inactive)
ROOT
HETATM    1  C1  UNL     1     -40.752   6.135   0.055  1.00 20.00    -0.002 C 
HETATM    2  C2  UNL     1     -41.220   7.066  -0.947  1.00 20.00     0.009 C 
HETATM    3  C3  UNL     1     -40.857   4.873  -0.400  1.00 20.00    -0.013 C 
HETATM    4  C4  UNL     1     -42.501   4.106  -2.218  1.00 20.00     0.006 C 
HETATM    5  C5  UNL     1     -43.417   4.641  -3.051  1.00 20.00     0.113 C 
HETATM    6  C6  UNL     1     -42.523   6.743  -3.073  1.00 20.00     0.124 C 
HETATM    7  C7  UNL     1     -41.581   6.355  -2.018  1.00 20.00    -0.029 C 
HETATM    8  C8  UNL     1     -41.290   4.898  -1.838  1.00 20.00     0.066 C 
HETATM    9  N9  UNL     1     -43.390   5.920  -3.583  1.00 20.00    -0.273 NA
ENDROOT
TORSDOF 0
ENDMDL
MODEL 4
REMARK VINA RESULT:      -4.3     12.678     13.496
REMARK  0 active torsions:
REMARK  status: ('A' for Active; 'I' for Inactive)
ROOT
HETATM    1  C1  UNL     1     -34.786  16.944  -0.366  1.00 20.00    -0.002 C 
HETATM    2  C2  UNL     1     -33.595  17.573  -0.890  1.00 20.00     0.009 C 
HETATM    3  C3  UNL     1     -35.091  17.459   0.839  1.00 20.00    -0.013 C 
HETATM    4  C4  UNL     1     -33.400  18.564   2.427  1.00 20.00     0.006 C 
HETATM    5  C5  UNL     1     -32.097  18.908   2.443  1.00 20.00     0.113 C 
HETATM    6  C6  UNL     1     -31.855  19.044   0.175  1.00 20.00     0.124 C 
HETATM    7  C7  UNL     1     -33.202  18.490  -0.002  1.00 20.00    -0.029 C 
HETATM    8  C8  UNL     1     -34.162  18.601   1.140  1.00 20.00     0.066 C 
HETATM    9  N9  UNL     1     -31.331  19.263   1.345  1.00 20.00    -0.273 NA
ENDROOT
TORSDOF 0
ENDMDL
MODEL 5
REMARK VINA RESULT:      -4.2     11.596     12.558
REMARK  0 active torsions:
REMARK  status: ('A' for Active; 'I' for Inactive)
ROOT
HETATM    1  C1  UNL     1     -34.995  16.652  -1.893  1.00 20.00    -0.002 C 
HETATM    2  C2  UNL     1     -35.970  15.866  -2.614  1.00 20.00     0.009 C 
HETATM    3  C3  UNL     1     -33.762  16.422  -2.378  1.00 20.00    -0.013 C 
HETATM    4  C4  UNL     1     -33.050  14.280  -3.605  1.00 20.00     0.006 C 
HETATM    5  C5  UNL     1     -33.602  13.132  -4.049  1.00 20.00     0.113 C 
HETATM    6  C6  UNL     1     -35.734  13.937  -4.211  1.00 20.00     0.124 C 
HETATM    7  C7  UNL     1     -35.315  15.180  -3.556  1.00 20.00    -0.029 C 
HETATM    8  C8  UNL     1     -33.862  15.536  -3.588  1.00 20.00     0.066 C 
HETATM    9  N9  UNL     1     -34.912  12.963  -4.466  1.00 20.00    -0.273 NA
ENDROOT
TORSDOF 0
ENDMDL
MODEL 6
REMARK VINA RESULT:      -4.2     12.603     13.729
REMARK  0 active torsions:
REMARK  status: ('A' for Active; 'I' for Inactive)
ROOT
HETATM    1  C1  UNL     1     -34.893  15.294  -7.660  1.00 20.00    -0.002 C 
HETATM    2  C2  UNL     1     -34.145  16.192  -6.808  1.00 20.00     0.009 C 
HETATM    3  C3  UNL     1     -35.390  14.275  -6.936  1.00 20.00    -0.013 C 
HETATM    4  C4  UNL     1     -34.403  13.438  -4.717  1.00 20.00     0.006 C 
HETATM    5  C5  UNL     1     -33.415  13.763  -3.858  1.00 20.00     0.113 C 
HETATM    6  C6  UNL     1     -33.293  15.965  -4.453  1.00 20.00     0.124 C 
HETATM    7  C7  UNL     1     -34.221  15.718  -5.561  1.00 20.00    -0.029 C 
HETATM    8  C8  UNL     1     -35.107  14.515  -5.480  1.00 20.00     0.066 C 
HETATM    9  N9  UNL     1     -32.920  15.035  -3.625  1.00 20.00    -0.273 NA
ENDROOT
TORSDOF 0
ENDMDL
MODEL 7
REMARK VINA RESULT:      -4.1      9.909     10.872
REMARK  0 active torsions:
REMARK  status: ('A' for Active; 'I' for Inactive)
ROOT
HETATM    1  C1  UNL     1     -40.470   5.219  -0.557  1.00 20.00    -0.002 C 
HETATM    2  C2  UNL     1     -41.322   4.480  -1.463  1.00 20.00     0.009 C 
HETATM    3  C3  UNL     1     -40.907   6.486  -0.441  1.00 20.00    -0.013 C 
HETATM    4  C4  UNL     1     -42.302   7.721  -2.210  1.00 20.00     0.006 C 
HETATM    5  C5  UNL     1     -42.890   7.470  -3.397  1.00 20.00     0.113 C 
HETATM    6  C6  UNL     1     -43.090   5.214  -3.094  1.00 20.00     0.124 C 
HETATM    7  C7  UNL     1     -42.289   5.308  -1.868  1.00 20.00    -0.029 C 
HETATM    8  C8  UNL     1     -42.203   6.636  -1.185  1.00 20.00     0.066 C 
HETATM    9  N9  UNL     1     -43.395   6.250  -3.817  1.00 20.00    -0.273 NA
ENDROOT
TORSDOF 0
ENDMDL
MODEL 8
REMARK VINA RESULT:      -4.1      1.646      3.079
REMARK  0 active torsions:
REMARK  status: ('A' for Active; 'I' for Inactive)
ROOT
HETATM    1  C1  UNL     1     -34.808   5.779   6.840  1.00 20.00    -0.002 C 
HETATM    2  C2  UNL     1     -33.736   6.594   6.313  1.00 20.00     0.009 C 
HETATM    3  C3  UNL     1     -35.123   4.805   5.967  1.00 20.00    -0.013 C 
HETATM    4  C4  UNL     1     -34.704   4.919   3.435  1.00 20.00     0.006 C 
HETATM    5  C5  UNL     1     -34.130   5.745   2.536  1.00 20.00     0.113 C 
HETATM    6  C6  UNL     1     -32.727   6.774   4.016  1.00 20.00     0.124 C 
HETATM    7  C7  UNL     1     -33.391   6.084   5.127  1.00 20.00    -0.029 C 
HETATM    8  C8  UNL     1     -34.150   4.831   4.822  1.00 20.00     0.066 C 
HETATM    9  N9  UNL     1     -33.066   6.599   2.774  1.00 20.00    -0.273 NA
ENDROOT
TORSDOF 0
ENDMDL
MODEL 9
REMARK VINA RESULT:      -4.1     12.252     13.427
REMARK  0 active torsions:
REMARK  status: ('A' for Active; 'I' for Inactive)
ROOT
HETATM    1  C1  UNL     1     -33.840  17.314  -3.194  1.00 20.00    -0.002 C 
HETATM    2  C2  UNL     1     -33.995  17.143  -4.621  1.00 20.00     0.009 C 
HETATM    3  C3  UNL     1     -33.622  16.123  -2.606  1.00 20.00    -0.013 C 
HETATM    4  C4  UNL     1     -34.358  13.858  -3.570  1.00 20.00     0.006 C 
HETATM    5  C5  UNL     1     -34.944  13.370  -4.683  1.00 20.00     0.113 C 
HETATM    6  C6  UNL     1     -34.351  15.103  -6.048  1.00 20.00     0.124 C 
HETATM    7  C7  UNL     1     -33.842  15.843  -4.889  1.00 20.00    -0.029 C 
HETATM    8  C8  UNL     1     -33.479  15.066  -3.663  1.00 20.00     0.066 C 
HETATM    9  N9  UNL     1     -34.861  13.911  -5.955  1.00 20.00    -0.273 NA
ENDROOT
TORSDOF 0
ENDMDL
