MODEL 1
REMARK VINA RESULT:      -4.2      0.000      0.000
REMARK  1 active torsions:
REMARK  status: ('A' for Active; 'I' for Inactive)
REMARK    1  A    between atoms: C4_4  and  C8_8 
ROOT
HETATM    1  C5  UNL     1     -35.339  13.551  -4.297  1.00 20.00     0.033 C 
HETATM    2  C6  UNL     1     -36.272  14.655  -3.824  1.00 20.00     0.042 C 
HETATM    3  C7  UNL     1     -34.271  14.295  -5.073  1.00 20.00     0.273 C 
HETATM    4  C8  UNL     1     -35.420  15.937  -3.840  1.00 20.00     0.256 C 
HETATM    5  C9  UNL     1     -33.314  16.517  -4.949  1.00 20.00     0.310 C 
HETATM    6  N10 UNL     1     -34.074  15.488  -4.250  1.00 20.00     0.093 N 
ENDROOT
BRANCH   4   7
HETATM    7  C4  UNL     1     -35.413  16.652  -2.506  1.00 20.00    -0.018 A 
HETATM    8  C1  UNL     1     -34.588  16.276  -1.406  1.00 20.00     0.017 A 
HETATM    9  C2  UNL     1     -34.779  17.091  -0.312  1.00 20.00     0.050 A 
HETATM   10  S11 UNL     1     -35.950  18.305  -0.613  1.00 20.00    -0.113 SA
HETATM   11  C3  UNL     1     -36.204  17.742  -2.210  1.00 20.00     0.058 A 
ENDBRANCH   4   7
TORSDOF 1
ENDMDL
MODEL 2
REMARK VINA RESULT:      -4.2      2.468      4.206
REMARK  1 active torsions:
REMARK  status: ('A' for Active; 'I' for Inactive)
REMARK    1  A    between atoms: C4_4  and  C8_8 
ROOT
HETATM    1  C5  UNL     1     -35.237  17.944  -0.602  1.00 20.00     0.033 C 
HETATM    2  C6  UNL     1     -34.561  16.600  -0.827  1.00 20.00     0.042 C 
HETATM    3  C7  UNL     1     -34.595  18.843  -1.639  1.00 20.00     0.273 C 
HETATM    4  C8  UNL     1     -34.046  16.645  -2.277  1.00 20.00     0.256 C 
HETATM    5  C9  UNL     1     -33.630  18.490  -3.834  1.00 20.00     0.310 C 
HETATM    6  N10 UNL     1     -34.499  17.951  -2.795  1.00 20.00     0.093 N 
ENDROOT
BRANCH   4   7
HETATM    7  C4  UNL     1     -34.542  15.484  -3.111  1.00 20.00    -0.018 A 
HETATM    8  C1  UNL     1     -35.920  15.203  -3.342  1.00 20.00     0.017 A 
HETATM    9  C2  UNL     1     -36.096  14.089  -4.134  1.00 20.00     0.050 A 
HETATM   10  S11 UNL     1     -34.603  13.387  -4.595  1.00 20.00    -0.113 SA
HETATM   11  C3  UNL     1     -33.717  14.574  -3.735  1.00 20.00     0.058 A 
ENDBRANCH   4   7
TORSDOF 1
ENDMDL
MODEL 3
REMARK VINA RESULT:      -4.2      1.585      2.177
REMARK  1 active torsions:
REMARK  status: ('A' for Active; 'I' for Inactive)
REMARK    1  A    between atoms: C4_4  and  C8_8 
ROOT
HETATM    1  C5  UNL     1     -34.155  13.694  -4.803  1.00 20.00     0.033 C 
HETATM    2  C6  UNL     1     -33.780  14.046  -3.371  1.00 20.00     0.042 C 
HETATM    3  C7  UNL     1     -35.665  13.823  -4.818  1.00 20.00     0.273 C 
HETATM    4  C8  UNL     1     -34.956  14.886  -2.841  1.00 20.00     0.256 C 
HETATM    5  C9  UNL     1     -37.270  15.164  -3.595  1.00 20.00     0.310 C 
HETATM    6  N10 UNL     1     -35.876  15.011  -3.990  1.00 20.00     0.093 N 
ENDROOT
BRANCH   4   7
HETATM    7  C4  UNL     1     -34.518  16.230  -2.298  1.00 20.00    -0.018 A 
HETATM    8  C1  UNL     1     -34.581  16.589  -0.921  1.00 20.00     0.017 A 
HETATM    9  C2  UNL     1     -34.121  17.869  -0.698  1.00 20.00     0.050 A 
HETATM   10  S11 UNL     1     -33.617  18.631  -2.147  1.00 20.00    -0.113 SA
HETATM   11  C3  UNL     1     -34.012  17.248  -3.077  1.00 20.00     0.058 A 
ENDBRANCH   4   7
TORSDOF 1
ENDMDL
MODEL 4
REMARK VINA RESULT:      -4.1      1.429      1.743
REMARK  1 active torsions:
REMARK  status: ('A' for Active; 'I' for Inactive)
REMARK    1  A    between atoms: C4_4  and  C8_8 
ROOT
HETATM    1  C5  UNL     1     -36.933  14.642  -3.962  1.00 20.00     0.033 C 
HETATM    2  C6  UNL     1     -36.380  16.059  -3.999  1.00 20.00     0.042 C 
HETATM    3  C7  UNL     1     -35.711  13.777  -4.196  1.00 20.00     0.273 C 
HETATM    4  C8  UNL     1     -34.883  15.917  -3.671  1.00 20.00     0.256 C 
HETATM    5  C9  UNL     1     -33.345  14.011  -3.726  1.00 20.00     0.310 C 
HETATM    6  N10 UNL     1     -34.691  14.475  -3.413  1.00 20.00     0.093 N 
ENDROOT
BRANCH   4   7
HETATM    7  C4  UNL     1     -34.456  16.778  -2.502  1.00 20.00    -0.018 A 
HETATM    8  C1  UNL     1     -34.712  16.452  -1.138  1.00 20.00     0.017 A 
HETATM    9  C2  UNL     1     -34.218  17.406  -0.276  1.00 20.00     0.050 A 
HETATM   10  S11 UNL     1     -33.449  18.689  -1.110  1.00 20.00    -0.113 SA
HETATM   11  C3  UNL     1     -33.775  17.970  -2.629  1.00 20.00     0.058 A 
ENDBRANCH   4   7
TORSDOF 1
ENDMDL
MODEL 5
REMARK VINA RESULT:      -4.0      1.219      2.196
REMARK  1 active torsions:
REMARK  status: ('A' for Active; 'I' for Inactive)
REMARK    1  A    between atoms: C4_4  and  C8_8 
ROOT
HETATM    1  C5  UNL     1     -34.318  15.984  -6.808  1.00 20.00     0.033 C 
HETATM    2  C6  UNL     1     -33.582  16.481  -5.572  1.00 20.00     0.042 C 
HETATM    3  C7  UNL     1     -34.661  14.548  -6.465  1.00 20.00     0.273 C 
HETATM    4  C8  UNL     1     -34.042  15.557  -4.430  1.00 20.00     0.256 C 
HETATM    5  C9  UNL     1     -35.105  13.350  -4.406  1.00 20.00     0.310 C 
HETATM    6  N10 UNL     1     -35.031  14.654  -5.054  1.00 20.00     0.093 N 
ENDROOT
BRANCH   4   7
HETATM    7  C4  UNL     1     -34.612  16.320  -3.254  1.00 20.00    -0.018 A 
HETATM    8  C1  UNL     1     -34.175  16.149  -1.908  1.00 20.00     0.017 A 
HETATM    9  C2  UNL     1     -34.858  16.965  -1.033  1.00 20.00     0.050 A 
HETATM   10  S11 UNL     1     -36.024  17.931  -1.835  1.00 20.00    -0.113 SA
HETATM   11  C3  UNL     1     -35.614  17.260  -3.356  1.00 20.00     0.058 A 
ENDBRANCH   4   7
TORSDOF 1
ENDMDL
MODEL 6
REMARK VINA RESULT:      -4.0      3.243      4.437
REMARK  1 active torsions:
REMARK  status: ('A' for Active; 'I' for Inactive)
REMARK    1  A    between atoms: C4_4  and  C8_8 
ROOT
HETATM    1  C5  UNL     1     -33.960  13.713  -3.503  1.00 20.00     0.033 C 
HETATM    2  C6  UNL     1     -34.503  13.290  -4.860  1.00 20.00     0.042 C 
HETATM    3  C7  UNL     1     -33.213  14.997  -3.802  1.00 20.00     0.273 C 
HETATM    4  C8  UNL     1     -34.546  14.582  -5.696  1.00 20.00     0.256 C 
HETATM    5  C9  UNL     1     -33.447  16.757  -5.450  1.00 20.00     0.310 C 
HETATM    6  N10 UNL     1     -34.097  15.643  -4.772  1.00 20.00     0.093 N 
ENDROOT
BRANCH   4   7
HETATM    7  C4  UNL     1     -35.917  14.858  -6.276  1.00 20.00    -0.018 A 
HETATM    8  C1  UNL     1     -36.238  14.725  -7.658  1.00 20.00     0.017 A 
HETATM    9  C2  UNL     1     -37.554  15.037  -7.917  1.00 20.00     0.050 A 
HETATM   10  S11 UNL     1     -38.398  15.490  -6.497  1.00 20.00    -0.113 SA
HETATM   11  C3  UNL     1     -37.002  15.267  -5.531  1.00 20.00     0.058 A 
ENDBRANCH   4   7
TORSDOF 1
ENDMDL
MODEL 7
REMARK VINA RESULT:      -3.9      2.513      4.343
REMARK  1 active torsions:
REMARK  status: ('A' for Active; 'I' for Inactive)
REMARK    1  A    between atoms: C4_4  and  C8_8 
ROOT
HETATM    1  C5  UNL     1     -34.483  16.901  -0.685  1.00 20.00     0.033 C 
HETATM    2  C6  UNL     1     -33.738  16.689  -1.994  1.00 20.00     0.042 C 
HETATM    3  C7  UNL     1     -35.699  17.708  -1.093  1.00 20.00     0.273 C 
HETATM    4  C8  UNL     1     -34.803  16.854  -3.094  1.00 20.00     0.256 C 
HETATM    5  C9  UNL     1     -37.026  17.882  -3.113  1.00 20.00     0.310 C 
HETATM    6  N10 UNL     1     -36.065  17.082  -2.364  1.00 20.00     0.093 N 
ENDROOT
BRANCH   4   7
HETATM    7  C4  UNL     1     -34.875  15.659  -4.022  1.00 20.00    -0.018 A 
HETATM    8  C1  UNL     1     -34.862  14.305  -3.577  1.00 20.00     0.017 A 
HETATM    9  C2  UNL     1     -34.938  13.415  -4.626  1.00 20.00     0.050 A 
HETATM   10  S11 UNL     1     -35.023  14.212  -6.140  1.00 20.00    -0.113 SA
HETATM   11  C3  UNL     1     -34.960  15.752  -5.394  1.00 20.00     0.058 A 
ENDBRANCH   4   7
TORSDOF 1
ENDMDL
MODEL 8
REMARK VINA RESULT:      -3.9     13.035     14.657
REMARK  1 active torsions:
REMARK  status: ('A' for Active; 'I' for Inactive)
REMARK    1  A    between atoms: C4_4  and  C8_8 
ROOT
HETATM    1  C5  UNL     1     -41.616   5.646  -0.016  1.00 20.00     0.033 C 
HETATM    2  C6  UNL     1     -40.860   4.607  -0.831  1.00 20.00     0.042 C 
HETATM    3  C7  UNL     1     -42.261   6.525  -1.068  1.00 20.00     0.273 C 
HETATM    4  C8  UNL     1     -41.558   4.587  -2.203  1.00 20.00     0.256 C 
HETATM    5  C9  UNL     1     -43.047   6.170  -3.333  1.00 20.00     0.310 C 
HETATM    6  N10 UNL     1     -42.675   5.543  -2.071  1.00 20.00     0.093 N 
ENDROOT
BRANCH   4   7
HETATM    7  C4  UNL     1     -42.021   3.202  -2.603  1.00 20.00    -0.018 A 
HETATM    8  C1  UNL     1     -41.291   2.339  -3.472  1.00 20.00     0.017 A 
HETATM    9  C2  UNL     1     -41.936   1.139  -3.672  1.00 20.00     0.050 A 
HETATM   10  S11 UNL     1     -43.417   1.056  -2.815  1.00 20.00    -0.113 SA
HETATM   11  C3  UNL     1     -43.197   2.628  -2.173  1.00 20.00     0.058 A 
ENDBRANCH   4   7
TORSDOF 1
ENDMDL
MODEL 9
REMARK VINA RESULT:      -3.8      2.699      4.324
REMARK  1 active torsions:
REMARK  status: ('A' for Active; 'I' for Inactive)
REMARK    1  A    between atoms: C4_4  and  C8_8 
ROOT
HETATM    1  C5  UNL     1     -34.463  16.228  -1.971  1.00 20.00     0.033 C 
HETATM    2  C6  UNL     1     -34.212  15.189  -3.054  1.00 20.00     0.042 C 
HETATM    3  C7  UNL     1     -33.864  17.495  -2.547  1.00 20.00     0.273 C 
HETATM    4  C8  UNL     1     -34.036  15.996  -4.354  1.00 20.00     0.256 C 
HETATM    5  C9  UNL     1     -33.527  18.352  -4.789  1.00 20.00     0.310 C 
HETATM    6  N10 UNL     1     -34.252  17.401  -3.955  1.00 20.00     0.093 N 
ENDROOT
BRANCH   4   7
HETATM    7  C4  UNL     1     -34.979  15.551  -5.451  1.00 20.00    -0.018 A 
HETATM    8  C1  UNL     1     -34.601  14.693  -6.524  1.00 20.00     0.017 A 
HETATM    9  C2  UNL     1     -35.649  14.446  -7.384  1.00 20.00     0.050 A 
HETATM   10  S11 UNL     1     -37.082  15.249  -6.896  1.00 20.00    -0.113 SA
HETATM   11  C3  UNL     1     -36.302  15.928  -5.531  1.00 20.00     0.058 A 
ENDBRANCH   4   7
TORSDOF 1
ENDMDL
