MODEL 1
REMARK VINA RESULT:      -4.8      0.000      0.000
REMARK  0 active torsions:
REMARK  status: ('A' for Active; 'I' for Inactive)
ROOT
HETATM    1  C1  UNL     1     -34.430  13.851  -4.433  1.00 20.00     0.223 A 
HETATM    2  C2  UNL     1     -33.572  15.944  -5.157  1.00 20.00     0.128 A 
HETATM    3  C3  UNL     1     -34.082  14.605  -3.201  1.00 20.00     0.092 A 
HETATM    4  C4  UNL     1     -33.552  15.944  -3.658  1.00 20.00     0.026 A 
HETATM    5  C5  UNL     1     -34.793  15.875  -2.784  1.00 20.00    -0.029 A 
HETATM    6  C6  UNL     1     -36.147  16.205  -3.359  1.00 20.00     0.016 C 
HETATM    7  C7  UNL     1     -34.638  16.305  -1.346  1.00 20.00     0.016 C 
HETATM    8  N8  UNL     1     -34.099  14.644  -5.517  1.00 20.00    -0.360 N 
HETATM    9  O9  UNL     1     -34.912  12.731  -4.422  1.00 20.00    -0.273 OA
HETATM   10  H20 UNL     1     -34.217  14.343  -6.480  1.00 20.00     0.162 HD
ENDROOT
TORSDOF 0
ENDMDL
MODEL 2
REMARK VINA RESULT:      -4.5      1.422      2.060
REMARK  0 active torsions:
REMARK  status: ('A' for Active; 'I' for Inactive)
ROOT
HETATM    1  C1  UNL     1     -34.456  13.510  -4.051  1.00 20.00     0.223 A 
HETATM    2  C2  UNL     1     -32.499  14.758  -3.546  1.00 20.00     0.128 A 
HETATM    3  C3  UNL     1     -34.911  14.894  -3.758  1.00 20.00     0.092 A 
HETATM    4  C4  UNL     1     -33.666  15.694  -3.454  1.00 20.00     0.026 A 
HETATM    5  C5  UNL     1     -34.551  16.080  -4.626  1.00 20.00    -0.029 A 
HETATM    6  C6  UNL     1     -34.077  15.863  -6.040  1.00 20.00     0.016 C 
HETATM    7  C7  UNL     1     -35.390  17.325  -4.466  1.00 20.00     0.016 C 
HETATM    8  N8  UNL     1     -33.082  13.478  -3.894  1.00 20.00    -0.360 N 
HETATM    9  O9  UNL     1     -35.213  12.606  -4.361  1.00 20.00    -0.273 OA
HETATM   10  H20 UNL     1     -32.531  12.634  -4.013  1.00 20.00     0.162 HD
ENDROOT
TORSDOF 0
ENDMDL
MODEL 3
REMARK VINA RESULT:      -4.4      1.600      2.128
REMARK  0 active torsions:
REMARK  status: ('A' for Active; 'I' for Inactive)
ROOT
HETATM    1  C1  UNL     1     -33.717  13.598  -3.888  1.00 20.00     0.223 A 
HETATM    2  C2  UNL     1     -35.991  14.185  -4.246  1.00 20.00     0.128 A 
HETATM    3  C3  UNL     1     -33.714  15.015  -4.333  1.00 20.00     0.092 A 
HETATM    4  C4  UNL     1     -35.161  15.397  -4.544  1.00 20.00     0.026 A 
HETATM    5  C5  UNL     1     -34.322  16.136  -3.516  1.00 20.00    -0.029 A 
HETATM    6  C6  UNL     1     -34.579  15.942  -2.044  1.00 20.00     0.016 C 
HETATM    7  C7  UNL     1     -33.900  17.543  -3.864  1.00 20.00     0.016 C 
HETATM    8  N8  UNL     1     -35.031  13.164  -3.878  1.00 20.00    -0.360 N 
HETATM    9  O9  UNL     1     -32.704  12.980  -3.605  1.00 20.00    -0.273 OA
HETATM   10  H20 UNL     1     -35.299  12.216  -3.634  1.00 20.00     0.162 HD
ENDROOT
TORSDOF 0
ENDMDL
MODEL 4
REMARK VINA RESULT:      -4.4      1.824      2.732
REMARK  0 active torsions:
REMARK  status: ('A' for Active; 'I' for Inactive)
ROOT
HETATM    1  C1  UNL     1     -35.845  14.119  -3.982  1.00 20.00     0.223 A 
HETATM    2  C2  UNL     1     -33.547  13.517  -3.952  1.00 20.00     0.128 A 
HETATM    3  C3  UNL     1     -35.082  15.384  -4.140  1.00 20.00     0.092 A 
HETATM    4  C4  UNL     1     -33.620  15.002  -4.139  1.00 20.00     0.026 A 
HETATM    5  C5  UNL     1     -34.227  15.685  -5.352  1.00 20.00    -0.029 A 
HETATM    6  C6  UNL     1     -34.436  14.916  -6.632  1.00 20.00     0.016 C 
HETATM    7  C7  UNL     1     -33.850  17.128  -5.582  1.00 20.00     0.016 C 
HETATM    8  N8  UNL     1     -34.928  13.091  -3.855  1.00 20.00    -0.360 N 
HETATM    9  O9  UNL     1     -37.063  14.066  -3.968  1.00 20.00    -0.273 OA
HETATM   10  H20 UNL     1     -35.198  12.123  -3.708  1.00 20.00     0.162 HD
ENDROOT
TORSDOF 0
ENDMDL
MODEL 5
REMARK VINA RESULT:      -4.3      1.981      2.663
REMARK  0 active torsions:
REMARK  status: ('A' for Active; 'I' for Inactive)
ROOT
HETATM    1  C1  UNL     1     -33.268  15.948  -4.681  1.00 20.00     0.223 A 
HETATM    2  C2  UNL     1     -33.145  13.839  -3.597  1.00 20.00     0.128 A 
HETATM    3  C3  UNL     1     -34.654  15.415  -4.654  1.00 20.00     0.092 A 
HETATM    4  C4  UNL     1     -34.581  14.080  -3.948  1.00 20.00     0.026 A 
HETATM    5  C5  UNL     1     -35.429  15.201  -3.371  1.00 20.00    -0.029 A 
HETATM    6  C6  UNL     1     -35.003  15.902  -2.107  1.00 20.00     0.016 C 
HETATM    7  C7  UNL     1     -36.926  15.055  -3.493  1.00 20.00     0.016 C 
HETATM    8  N8  UNL     1     -32.444  15.007  -4.091  1.00 20.00    -0.360 N 
HETATM    9  O9  UNL     1     -32.974  17.030  -5.162  1.00 20.00    -0.273 OA
HETATM   10  H20 UNL     1     -31.439  15.123  -4.010  1.00 20.00     0.162 HD
ENDROOT
TORSDOF 0
ENDMDL
MODEL 6
REMARK VINA RESULT:      -4.3      1.893      3.357
REMARK  0 active torsions:
REMARK  status: ('A' for Active; 'I' for Inactive)
ROOT
HETATM    1  C1  UNL     1     -33.960  13.690  -3.960  1.00 20.00     0.223 A 
HETATM    2  C2  UNL     1     -35.772  15.198  -3.672  1.00 20.00     0.128 A 
HETATM    3  C3  UNL     1     -34.773  13.602  -5.200  1.00 20.00     0.092 A 
HETATM    4  C4  UNL     1     -35.917  14.573  -5.027  1.00 20.00     0.026 A 
HETATM    5  C5  UNL     1     -34.930  14.756  -6.166  1.00 20.00    -0.029 A 
HETATM    6  C6  UNL     1     -33.946  15.898  -6.143  1.00 20.00     0.016 C 
HETATM    7  C7  UNL     1     -35.421  14.425  -7.554  1.00 20.00     0.016 C 
HETATM    8  N8  UNL     1     -34.581  14.591  -3.114  1.00 20.00    -0.360 N 
HETATM    9  O9  UNL     1     -32.938  13.048  -3.779  1.00 20.00    -0.273 OA
HETATM   10  H20 UNL     1     -34.233  14.809  -2.185  1.00 20.00     0.162 HD
ENDROOT
TORSDOF 0
ENDMDL
MODEL 7
REMARK VINA RESULT:      -4.2      2.279      3.535
REMARK  0 active torsions:
REMARK  status: ('A' for Active; 'I' for Inactive)
ROOT
HETATM    1  C1  UNL     1     -37.150  14.803  -3.858  1.00 20.00     0.223 A 
HETATM    2  C2  UNL     1     -35.178  16.022  -3.340  1.00 20.00     0.128 A 
HETATM    3  C3  UNL     1     -36.498  15.108  -5.158  1.00 20.00     0.092 A 
HETATM    4  C4  UNL     1     -35.233  15.868  -4.830  1.00 20.00     0.026 A 
HETATM    5  C5  UNL     1     -35.154  14.537  -5.559  1.00 20.00    -0.029 A 
HETATM    6  C6  UNL     1     -34.613  13.318  -4.857  1.00 20.00     0.016 C 
HETATM    7  C7  UNL     1     -34.801  14.583  -7.026  1.00 20.00     0.016 C 
HETATM    8  N8  UNL     1     -36.375  15.363  -2.859  1.00 20.00    -0.360 N 
HETATM    9  O9  UNL     1     -38.189  14.172  -3.759  1.00 20.00    -0.273 OA
HETATM   10  H20 UNL     1     -36.622  15.317  -1.875  1.00 20.00     0.162 HD
ENDROOT
TORSDOF 0
ENDMDL
MODEL 8
REMARK VINA RESULT:      -4.1      1.909      2.608
REMARK  0 active torsions:
REMARK  status: ('A' for Active; 'I' for Inactive)
ROOT
HETATM    1  C1  UNL     1     -36.823  14.587  -4.322  1.00 20.00     0.223 A 
HETATM    2  C2  UNL     1     -35.449  15.795  -5.837  1.00 20.00     0.128 A 
HETATM    3  C3  UNL     1     -35.520  13.875  -4.358  1.00 20.00     0.092 A 
HETATM    4  C4  UNL     1     -34.638  14.651  -5.308  1.00 20.00     0.026 A 
HETATM    5  C5  UNL     1     -34.232  14.488  -3.853  1.00 20.00    -0.029 A 
HETATM    6  C6  UNL     1     -34.275  15.668  -2.915  1.00 20.00     0.016 C 
HETATM    7  C7  UNL     1     -33.091  13.543  -3.565  1.00 20.00     0.016 C 
HETATM    8  N8  UNL     1     -36.741  15.656  -5.197  1.00 20.00    -0.360 N 
HETATM    9  O9  UNL     1     -37.763  14.236  -3.628  1.00 20.00    -0.273 OA
HETATM   10  H20 UNL     1     -37.516  16.288  -5.374  1.00 20.00     0.162 HD
ENDROOT
TORSDOF 0
ENDMDL
MODEL 9
REMARK VINA RESULT:      -4.0      2.408      3.064
REMARK  0 active torsions:
REMARK  status: ('A' for Active; 'I' for Inactive)
ROOT
HETATM    1  C1  UNL     1     -33.835  15.881  -5.602  1.00 20.00     0.223 A 
HETATM    2  C2  UNL     1     -35.091  14.629  -7.182  1.00 20.00     0.128 A 
HETATM    3  C3  UNL     1     -35.232  15.861  -5.098  1.00 20.00     0.092 A 
HETATM    4  C4  UNL     1     -36.030  15.050  -6.092  1.00 20.00     0.026 A 
HETATM    5  C5  UNL     1     -35.927  14.594  -4.647  1.00 20.00    -0.029 A 
HETATM    6  C6  UNL     1     -35.115  13.375  -4.291  1.00 20.00     0.016 C 
HETATM    7  C7  UNL     1     -37.159  14.757  -3.791  1.00 20.00     0.016 C 
HETATM    8  N8  UNL     1     -33.811  15.189  -6.799  1.00 20.00    -0.360 N 
HETATM    9  O9  UNL     1     -32.918  16.435  -5.019  1.00 20.00    -0.273 OA
HETATM   10  H20 UNL     1     -32.971  15.081  -7.360  1.00 20.00     0.162 HD
ENDROOT
TORSDOF 0
ENDMDL
