MODEL 1
REMARK VINA RESULT:      -4.7      0.000      0.000
REMARK  3 active torsions:
REMARK  status: ('A' for Active; 'I' for Inactive)
REMARK    1  A    between atoms: C5_5  and  C8_8 
REMARK    2  A    between atoms: C7_7  and  N9_9 
REMARK    3  A    between atoms: C8_8  and  N9_9 
ROOT
HETATM    1  C1  UNL     1     -33.702   7.082   6.782  1.00 20.00     0.013 C 
HETATM    2  C2  UNL     1     -34.240   6.081   6.395  1.00 20.00    -0.087 C 
HETATM    3  C7  UNL     1     -34.900   4.859   5.927  1.00 20.00     0.362 C 
ENDROOT
BRANCH   3   4
HETATM    4  N9  UNL     1     -34.560   4.592   4.528  1.00 20.00     0.094 N 
HETATM    5  H22 UNL     1     -33.576   4.303   4.485  1.00 20.00     0.317 HD
BRANCH   4   6
HETATM    6  C8  UNL     1     -34.777   5.745   3.700  1.00 20.00     0.275 C 
BRANCH   6   7
HETATM    7  C5  UNL     1     -33.593   6.019   2.837  1.00 20.00     0.018 A 
HETATM    8  C3  UNL     1     -32.204   5.733   3.344  1.00 20.00     0.011 A 
HETATM    9  C4  UNL     1     -32.663   7.158   3.168  1.00 20.00    -0.013 A 
HETATM   10  C6  UNL     1     -32.094   7.998   2.078  1.00 20.00     0.010 C 
ENDBRANCH   6   7
ENDBRANCH   4   6
ENDBRANCH   3   4
TORSDOF 3
ENDMDL
MODEL 2
REMARK VINA RESULT:      -4.7      0.980      3.767
REMARK  3 active torsions:
REMARK  status: ('A' for Active; 'I' for Inactive)
REMARK    1  A    between atoms: C5_5  and  C8_8 
REMARK    2  A    between atoms: C7_7  and  N9_9 
REMARK    3  A    between atoms: C8_8  and  N9_9 
ROOT
HETATM    1  C1  UNL     1     -32.112   8.516   1.999  1.00 20.00     0.013 C 
HETATM    2  C2  UNL     1     -32.315   7.448   2.508  1.00 20.00    -0.087 C 
HETATM    3  C7  UNL     1     -32.557   6.145   3.133  1.00 20.00     0.362 C 
ENDROOT
BRANCH   3   4
HETATM    4  N9  UNL     1     -33.813   5.567   2.652  1.00 20.00     0.094 N 
HETATM    5  H22 UNL     1     -34.218   6.206   1.959  1.00 20.00     0.317 HD
BRANCH   4   6
HETATM    6  C8  UNL     1     -34.741   5.347   3.726  1.00 20.00     0.275 C 
BRANCH   6   7
HETATM    7  C5  UNL     1     -34.055   5.390   5.048  1.00 20.00     0.018 A 
HETATM    8  C3  UNL     1     -34.789   4.975   6.297  1.00 20.00     0.011 A 
HETATM    9  C4  UNL     1     -34.447   6.425   6.071  1.00 20.00    -0.013 A 
HETATM   10  C6  UNL     1     -33.404   7.086   6.903  1.00 20.00     0.010 C 
ENDBRANCH   6   7
ENDBRANCH   4   6
ENDBRANCH   3   4
TORSDOF 3
ENDMDL
MODEL 3
REMARK VINA RESULT:      -4.7      1.814      4.648
REMARK  3 active torsions:
REMARK  status: ('A' for Active; 'I' for Inactive)
REMARK    1  A    between atoms: C5_5  and  C8_8 
REMARK    2  A    between atoms: C7_7  and  N9_9 
REMARK    3  A    between atoms: C8_8  and  N9_9 
ROOT
HETATM    1  C1  UNL     1     -32.424   9.181   0.409  1.00 20.00     0.013 C 
HETATM    2  C2  UNL     1     -32.073   8.647   1.426  1.00 20.00    -0.087 C 
HETATM    3  C7  UNL     1     -31.643   8.000   2.668  1.00 20.00     0.362 C 
ENDROOT
BRANCH   3   4
HETATM    4  N9  UNL     1     -32.331   6.721   2.850  1.00 20.00     0.094 N 
HETATM    5  H22 UNL     1     -32.692   6.416   1.939  1.00 20.00     0.317 HD
BRANCH   4   6
HETATM    6  C8  UNL     1     -33.405   6.827   3.799  1.00 20.00     0.275 C 
BRANCH   6   7
HETATM    7  C5  UNL     1     -34.096   5.519   3.979  1.00 20.00     0.018 A 
HETATM    8  C3  UNL     1     -35.594   5.429   3.843  1.00 20.00     0.011 A 
HETATM    9  C4  UNL     1     -34.950   5.276   5.197  1.00 20.00    -0.013 A 
HETATM   10  C6  UNL     1     -34.930   3.948   5.870  1.00 20.00     0.010 C 
ENDBRANCH   6   7
ENDBRANCH   4   6
ENDBRANCH   3   4
TORSDOF 3
ENDMDL
MODEL 4
REMARK VINA RESULT:      -4.6      1.317      1.778
REMARK  3 active torsions:
REMARK  status: ('A' for Active; 'I' for Inactive)
REMARK    1  A    between atoms: C5_5  and  C8_8 
REMARK    2  A    between atoms: C7_7  and  N9_9 
REMARK    3  A    between atoms: C8_8  and  N9_9 
ROOT
HETATM    1  C1  UNL     1     -34.754   4.740   6.575  1.00 20.00     0.013 C 
HETATM    2  C2  UNL     1     -35.075   4.880   5.427  1.00 20.00    -0.087 C 
HETATM    3  C7  UNL     1     -35.473   5.051   4.027  1.00 20.00     0.362 C 
ENDROOT
BRANCH   3   4
HETATM    4  N9  UNL     1     -34.312   5.378   3.197  1.00 20.00     0.094 N 
HETATM    5  H22 UNL     1     -33.685   4.566   3.184  1.00 20.00     0.317 HD
BRANCH   4   6
HETATM    6  C8  UNL     1     -33.617   6.535   3.690  1.00 20.00     0.275 C 
BRANCH   6   7
HETATM    7  C5  UNL     1     -32.456   6.877   2.820  1.00 20.00     0.018 A 
HETATM    8  C3  UNL     1     -31.303   7.672   3.375  1.00 20.00     0.011 A 
HETATM    9  C4  UNL     1     -32.238   8.300   2.374  1.00 20.00    -0.013 A 
HETATM   10  C6  UNL     1     -31.772   8.585   0.989  1.00 20.00     0.010 C 
ENDBRANCH   6   7
ENDBRANCH   4   6
ENDBRANCH   3   4
TORSDOF 3
ENDMDL
MODEL 5
REMARK VINA RESULT:      -4.1     11.503     12.586
REMARK  3 active torsions:
REMARK  status: ('A' for Active; 'I' for Inactive)
REMARK    1  A    between atoms: C5_5  and  C8_8 
REMARK    2  A    between atoms: C7_7  and  N9_9 
REMARK    3  A    between atoms: C8_8  and  N9_9 
ROOT
HETATM    1  C1  UNL     1     -34.866  14.605  -6.916  1.00 20.00     0.013 C 
HETATM    2  C2  UNL     1     -34.931  14.014  -5.873  1.00 20.00    -0.087 C 
HETATM    3  C7  UNL     1     -35.015  13.289  -4.603  1.00 20.00     0.362 C 
ENDROOT
BRANCH   3   4
HETATM    4  N9  UNL     1     -33.767  13.422  -3.849  1.00 20.00     0.094 N 
HETATM    5  H22 UNL     1     -33.863  12.900  -2.971  1.00 20.00     0.317 HD
BRANCH   4   6
HETATM    6  C8  UNL     1     -33.455  14.798  -3.578  1.00 20.00     0.275 C 
BRANCH   6   7
HETATM    7  C5  UNL     1     -34.469  15.413  -2.677  1.00 20.00     0.018 A 
HETATM    8  C3  UNL     1     -35.120  16.720  -3.049  1.00 20.00     0.011 A 
HETATM    9  C4  UNL     1     -34.138  16.666  -1.908  1.00 20.00    -0.013 A 
HETATM   10  C6  UNL     1     -34.610  16.829  -0.505  1.00 20.00     0.010 C 
ENDBRANCH   6   7
ENDBRANCH   4   6
ENDBRANCH   3   4
TORSDOF 3
ENDMDL
MODEL 6
REMARK VINA RESULT:      -3.7     12.023     13.315
REMARK  3 active torsions:
REMARK  status: ('A' for Active; 'I' for Inactive)
REMARK    1  A    between atoms: C5_5  and  C8_8 
REMARK    2  A    between atoms: C7_7  and  N9_9 
REMARK    3  A    between atoms: C8_8  and  N9_9 
ROOT
HETATM    1  C1  UNL     1     -35.313  14.658  -7.711  1.00 20.00     0.013 C 
HETATM    2  C2  UNL     1     -34.916  14.500  -6.589  1.00 20.00    -0.087 C 
HETATM    3  C7  UNL     1     -34.436  14.303  -5.219  1.00 20.00     0.362 C 
ENDROOT
BRANCH   3   4
HETATM    4  N9  UNL     1     -33.309  15.193  -4.933  1.00 20.00     0.094 N 
HETATM    5  H22 UNL     1     -32.484  14.838  -5.427  1.00 20.00     0.317 HD
BRANCH   4   6
HETATM    6  C8  UNL     1     -33.046  15.279  -3.523  1.00 20.00     0.275 C 
BRANCH   6   7
HETATM    7  C5  UNL     1     -34.163  15.957  -2.807  1.00 20.00     0.018 A 
HETATM    8  C3  UNL     1     -34.350  17.447  -2.934  1.00 20.00     0.011 A 
HETATM    9  C4  UNL     1     -33.874  16.855  -1.632  1.00 20.00    -0.013 A 
HETATM   10  C6  UNL     1     -34.770  16.842  -0.443  1.00 20.00     0.010 C 
ENDBRANCH   6   7
ENDBRANCH   4   6
ENDBRANCH   3   4
TORSDOF 3
ENDMDL
MODEL 7
REMARK VINA RESULT:      -3.7     11.702     12.283
REMARK  3 active torsions:
REMARK  status: ('A' for Active; 'I' for Inactive)
REMARK    1  A    between atoms: C5_5  and  C8_8 
REMARK    2  A    between atoms: C7_7  and  N9_9 
REMARK    3  A    between atoms: C8_8  and  N9_9 
ROOT
HETATM    1  C1  UNL     1     -34.786  17.352   0.243  1.00 20.00     0.013 C 
HETATM    2  C2  UNL     1     -34.765  16.732  -0.785  1.00 20.00    -0.087 C 
HETATM    3  C7  UNL     1     -34.745  15.975  -2.038  1.00 20.00     0.362 C 
ENDROOT
BRANCH   3   4
HETATM    4  N9  UNL     1     -33.461  16.141  -2.722  1.00 20.00     0.094 N 
HETATM    5  H22 UNL     1     -33.441  17.074  -3.149  1.00 20.00     0.317 HD
BRANCH   4   6
HETATM    6  C8  UNL     1     -33.258  15.131  -3.723  1.00 20.00     0.275 C 
BRANCH   6   7
HETATM    7  C5  UNL     1     -34.550  14.720  -4.342  1.00 20.00     0.018 A 
HETATM    8  C3  UNL     1     -34.812  13.270  -4.656  1.00 20.00     0.011 A 
HETATM    9  C4  UNL     1     -34.588  14.254  -5.775  1.00 20.00    -0.013 A 
HETATM   10  C6  UNL     1     -35.717  14.650  -6.660  1.00 20.00     0.010 C 
ENDBRANCH   6   7
ENDBRANCH   4   6
ENDBRANCH   3   4
TORSDOF 3
ENDMDL
MODEL 8
REMARK VINA RESULT:      -3.7     11.257     12.771
REMARK  3 active torsions:
REMARK  status: ('A' for Active; 'I' for Inactive)
REMARK    1  A    between atoms: C5_5  and  C8_8 
REMARK    2  A    between atoms: C7_7  and  N9_9 
REMARK    3  A    between atoms: C8_8  and  N9_9 
ROOT
HETATM    1  C1  UNL     1     -34.542  16.250  -2.130  1.00 20.00     0.013 C 
HETATM    2  C2  UNL     1     -34.153  15.276  -2.715  1.00 20.00    -0.087 C 
HETATM    3  C7  UNL     1     -33.674  14.088  -3.426  1.00 20.00     0.362 C 
ENDROOT
BRANCH   3   4
HETATM    4  N9  UNL     1     -34.799  13.269  -3.881  1.00 20.00     0.094 N 
HETATM    5  H22 UNL     1     -34.728  12.348  -3.435  1.00 20.00     0.317 HD
BRANCH   4   6
HETATM    6  C8  UNL     1     -34.808  13.130  -5.311  1.00 20.00     0.275 C 
BRANCH   6   7
HETATM    7  C5  UNL     1     -35.288  14.377  -5.970  1.00 20.00     0.018 A 
HETATM    8  C3  UNL     1     -35.512  14.408  -7.460  1.00 20.00     0.011 A 
HETATM    9  C4  UNL     1     -34.361  15.169  -6.856  1.00 20.00    -0.013 A 
HETATM   10  C6  UNL     1     -34.384  16.657  -6.821  1.00 20.00     0.010 C 
ENDBRANCH   6   7
ENDBRANCH   4   6
ENDBRANCH   3   4
TORSDOF 3
ENDMDL
MODEL 9
REMARK VINA RESULT:      -3.7      9.340     10.816
REMARK  3 active torsions:
REMARK  status: ('A' for Active; 'I' for Inactive)
REMARK    1  A    between atoms: C5_5  and  C8_8 
REMARK    2  A    between atoms: C7_7  and  N9_9 
REMARK    3  A    between atoms: C8_8  and  N9_9 
ROOT
HETATM    1  C1  UNL     1     -41.343   1.570  -3.993  1.00 20.00     0.013 C 
HETATM    2  C2  UNL     1     -41.617   2.475  -3.253  1.00 20.00    -0.087 C 
HETATM    3  C7  UNL     1     -41.957   3.579  -2.353  1.00 20.00     0.362 C 
ENDROOT
BRANCH   3   4
HETATM    4  N9  UNL     1     -40.847   3.862  -1.441  1.00 20.00     0.094 N 
HETATM    5  H22 UNL     1     -40.712   3.046  -0.834  1.00 20.00     0.317 HD
BRANCH   4   6
HETATM    6  C8  UNL     1     -41.098   5.035  -0.649  1.00 20.00     0.275 C 
BRANCH   6   7
HETATM    7  C5  UNL     1     -41.088   6.265  -1.489  1.00 20.00     0.018 A 
HETATM    8  C3  UNL     1     -41.219   7.622  -0.847  1.00 20.00     0.011 A 
HETATM    9  C4  UNL     1     -42.351   7.067  -1.672  1.00 20.00    -0.013 A 
HETATM   10  C6  UNL     1     -42.673   7.662  -2.999  1.00 20.00     0.010 C 
ENDBRANCH   6   7
ENDBRANCH   4   6
ENDBRANCH   3   4
TORSDOF 3
ENDMDL
