MODEL 1
REMARK VINA RESULT:      -5.1      0.000      0.000
REMARK  3 active torsions:
REMARK  status: ('A' for Active; 'I' for Inactive)
REMARK    1  A    between atoms: C5_5  and  C8_8 
REMARK    2  A    between atoms: C7_7  and  N9_9 
REMARK    3  A    between atoms: C8_8  and  N9_9 
ROOT
HETATM    1  C1  UNL     1     -32.171   8.600   1.808  1.00 20.00     0.013 C 
HETATM    2  C2  UNL     1     -32.216   7.614   2.493  1.00 20.00    -0.087 C 
HETATM    3  C7  UNL     1     -32.266   6.414   3.332  1.00 20.00     0.362 C 
ENDROOT
BRANCH   3   4
HETATM    4  N9  UNL     1     -33.418   5.584   2.979  1.00 20.00     0.094 N 
HETATM    5  H22 UNL     1     -33.488   5.549   1.956  1.00 20.00     0.317 HD
BRANCH   4   6
HETATM    6  C8  UNL     1     -34.635   6.098   3.544  1.00 20.00     0.275 C 
BRANCH   6   7
HETATM    7  C5  UNL     1     -35.311   5.073   4.388  1.00 20.00     0.018 A 
HETATM    8  C3  UNL     1     -34.515   3.958   5.012  1.00 20.00     0.011 A 
HETATM    9  C4  UNL     1     -35.136   5.015   5.888  1.00 20.00    -0.013 A 
HETATM   10  C6  UNL     1     -34.274   5.976   6.631  1.00 20.00     0.010 C 
ENDBRANCH   6   7
ENDBRANCH   4   6
ENDBRANCH   3   4
TORSDOF 3
ENDMDL
MODEL 2
REMARK VINA RESULT:      -5.0      0.896      1.606
REMARK  3 active torsions:
REMARK  status: ('A' for Active; 'I' for Inactive)
REMARK    1  A    between atoms: C5_5  and  C8_8 
REMARK    2  A    between atoms: C7_7  and  N9_9 
REMARK    3  A    between atoms: C8_8  and  N9_9 
ROOT
HETATM    1  C1  UNL     1     -32.164   9.068   1.097  1.00 20.00     0.013 C 
HETATM    2  C2  UNL     1     -32.064   8.263   1.982  1.00 20.00    -0.087 C 
HETATM    3  C7  UNL     1     -31.940   7.285   3.066  1.00 20.00     0.362 C 
ENDROOT
BRANCH   3   4
HETATM    4  N9  UNL     1     -32.968   6.250   2.949  1.00 20.00     0.094 N 
HETATM    5  H22 UNL     1     -33.365   6.296   2.005  1.00 20.00     0.317 HD
BRANCH   4   6
HETATM    6  C8  UNL     1     -34.002   6.417   3.933  1.00 20.00     0.275 C 
BRANCH   6   7
HETATM    7  C5  UNL     1     -33.523   6.022   5.288  1.00 20.00     0.018 A 
HETATM    8  C3  UNL     1     -34.376   6.284   6.502  1.00 20.00     0.011 A 
HETATM    9  C4  UNL     1     -34.125   4.867   6.056  1.00 20.00    -0.013 A 
HETATM   10  C6  UNL     1     -35.241   4.042   5.514  1.00 20.00     0.010 C 
ENDBRANCH   6   7
ENDBRANCH   4   6
ENDBRANCH   3   4
TORSDOF 3
ENDMDL
MODEL 3
REMARK VINA RESULT:      -4.2      0.870      4.340
REMARK  3 active torsions:
REMARK  status: ('A' for Active; 'I' for Inactive)
REMARK    1  A    between atoms: C5_5  and  C8_8 
REMARK    2  A    between atoms: C7_7  and  N9_9 
REMARK    3  A    between atoms: C8_8  and  N9_9 
ROOT
HETATM    1  C1  UNL     1     -34.468   4.596   6.653  1.00 20.00     0.013 C 
HETATM    2  C2  UNL     1     -34.975   4.713   5.570  1.00 20.00    -0.087 C 
HETATM    3  C7  UNL     1     -35.600   4.854   4.253  1.00 20.00     0.362 C 
ENDROOT
BRANCH   3   4
HETATM    4  N9  UNL     1     -34.651   5.412   3.288  1.00 20.00     0.094 N 
HETATM    5  H22 UNL     1     -33.858   4.766   3.206  1.00 20.00     0.317 HD
BRANCH   4   6
HETATM    6  C8  UNL     1     -34.192   6.714   3.688  1.00 20.00     0.275 C 
BRANCH   6   7
HETATM    7  C5  UNL     1     -32.723   6.713   3.939  1.00 20.00     0.018 A 
HETATM    8  C3  UNL     1     -31.791   6.005   2.993  1.00 20.00     0.011 A 
HETATM    9  C4  UNL     1     -31.756   7.508   3.093  1.00 20.00    -0.013 A 
HETATM   10  C6  UNL     1     -32.200   8.347   1.945  1.00 20.00     0.010 C 
ENDBRANCH   6   7
ENDBRANCH   4   6
ENDBRANCH   3   4
TORSDOF 3
ENDMDL
MODEL 4
REMARK VINA RESULT:      -4.1     11.417     12.398
REMARK  3 active torsions:
REMARK  status: ('A' for Active; 'I' for Inactive)
REMARK    1  A    between atoms: C5_5  and  C8_8 
REMARK    2  A    between atoms: C7_7  and  N9_9 
REMARK    3  A    between atoms: C8_8  and  N9_9 
ROOT
HETATM    1  C1  UNL     1     -34.440  15.108  -6.879  1.00 20.00     0.013 C 
HETATM    2  C2  UNL     1     -34.602  14.283  -6.022  1.00 20.00    -0.087 C 
HETATM    3  C7  UNL     1     -34.802  13.273  -4.980  1.00 20.00     0.362 C 
ENDROOT
BRANCH   3   4
HETATM    4  N9  UNL     1     -34.033  13.609  -3.780  1.00 20.00     0.094 N 
HETATM    5  H22 UNL     1     -33.997  12.779  -3.179  1.00 20.00     0.317 HD
BRANCH   4   6
HETATM    6  C8  UNL     1     -34.616  14.713  -3.069  1.00 20.00     0.275 C 
BRANCH   6   7
HETATM    7  C5  UNL     1     -33.642  15.833  -2.925  1.00 20.00     0.018 A 
HETATM    8  C3  UNL     1     -34.074  17.253  -3.181  1.00 20.00     0.011 A 
HETATM    9  C4  UNL     1     -33.708  16.822  -1.785  1.00 20.00    -0.013 A 
HETATM   10  C6  UNL     1     -34.750  16.751  -0.723  1.00 20.00     0.010 C 
ENDBRANCH   6   7
ENDBRANCH   4   6
ENDBRANCH   3   4
TORSDOF 3
ENDMDL
MODEL 5
REMARK VINA RESULT:      -4.1     11.378     12.562
REMARK  3 active torsions:
REMARK  status: ('A' for Active; 'I' for Inactive)
REMARK    1  A    between atoms: C5_5  and  C8_8 
REMARK    2  A    between atoms: C7_7  and  N9_9 
REMARK    3  A    between atoms: C8_8  and  N9_9 
ROOT
HETATM    1  C1  UNL     1     -34.084  16.684  -1.597  1.00 20.00     0.013 C 
HETATM    2  C2  UNL     1     -33.836  16.901  -2.752  1.00 20.00    -0.087 C 
HETATM    3  C7  UNL     1     -33.534  17.172  -4.160  1.00 20.00     0.362 C 
ENDROOT
BRANCH   3   4
HETATM    4  N9  UNL     1     -33.096  15.952  -4.839  1.00 20.00     0.094 N 
HETATM    5  H22 UNL     1     -32.290  16.183  -5.429  1.00 20.00     0.317 HD
BRANCH   4   6
HETATM    6  C8  UNL     1     -34.148  15.380  -5.633  1.00 20.00     0.275 C 
BRANCH   6   7
HETATM    7  C5  UNL     1     -34.432  13.977  -5.220  1.00 20.00     0.018 A 
HETATM    8  C3  UNL     1     -34.210  13.545  -3.795  1.00 20.00     0.011 A 
HETATM    9  C4  UNL     1     -35.610  13.612  -4.347  1.00 20.00    -0.013 A 
HETATM   10  C6  UNL     1     -36.571  14.629  -3.834  1.00 20.00     0.010 C 
ENDBRANCH   6   7
ENDBRANCH   4   6
ENDBRANCH   3   4
TORSDOF 3
ENDMDL
MODEL 6
REMARK VINA RESULT:      -4.1     11.350     12.180
REMARK  3 active torsions:
REMARK  status: ('A' for Active; 'I' for Inactive)
REMARK    1  A    between atoms: C5_5  and  C8_8 
REMARK    2  A    between atoms: C7_7  and  N9_9 
REMARK    3  A    between atoms: C8_8  and  N9_9 
ROOT
HETATM    1  C1  UNL     1     -34.467  16.910  -0.543  1.00 20.00     0.013 C 
HETATM    2  C2  UNL     1     -35.216  16.941  -1.480  1.00 20.00    -0.087 C 
HETATM    3  C7  UNL     1     -36.129  16.985  -2.626  1.00 20.00     0.362 C 
ENDROOT
BRANCH   3   4
HETATM    4  N9  UNL     1     -36.643  15.648  -2.928  1.00 20.00     0.094 N 
HETATM    5  H22 UNL     1     -36.432  15.035  -2.134  1.00 20.00     0.317 HD
BRANCH   4   6
HETATM    6  C8  UNL     1     -36.067  15.119  -4.134  1.00 20.00     0.275 C 
BRANCH   6   7
HETATM    7  C5  UNL     1     -35.327  13.853  -3.866  1.00 20.00     0.018 A 
HETATM    8  C3  UNL     1     -34.447  13.249  -4.927  1.00 20.00     0.011 A 
HETATM    9  C4  UNL     1     -33.829  13.814  -3.675  1.00 20.00    -0.013 A 
HETATM   10  C6  UNL     1     -32.982  15.038  -3.743  1.00 20.00     0.010 C 
ENDBRANCH   6   7
ENDBRANCH   4   6
ENDBRANCH   3   4
TORSDOF 3
ENDMDL
MODEL 7
REMARK VINA RESULT:      -3.9     11.506     12.244
REMARK  3 active torsions:
REMARK  status: ('A' for Active; 'I' for Inactive)
REMARK    1  A    between atoms: C5_5  and  C8_8 
REMARK    2  A    between atoms: C7_7  and  N9_9 
REMARK    3  A    between atoms: C8_8  and  N9_9 
ROOT
HETATM    1  C1  UNL     1     -34.469  13.333  -4.426  1.00 20.00     0.013 C 
HETATM    2  C2  UNL     1     -35.470  13.972  -4.245  1.00 20.00    -0.087 C 
HETATM    3  C7  UNL     1     -36.693  14.748  -4.029  1.00 20.00     0.362 C 
ENDROOT
BRANCH   3   4
HETATM    4  N9  UNL     1     -36.654  15.425  -2.732  1.00 20.00     0.094 N 
HETATM    5  H22 UNL     1     -37.580  15.827  -2.551  1.00 20.00     0.317 HD
BRANCH   4   6
HETATM    6  C8  UNL     1     -35.650  16.452  -2.700  1.00 20.00     0.275 C 
BRANCH   6   7
HETATM    7  C5  UNL     1     -34.706  16.246  -1.565  1.00 20.00     0.018 A 
HETATM    8  C3  UNL     1     -33.649  17.274  -1.260  1.00 20.00     0.011 A 
HETATM    9  C4  UNL     1     -34.782  17.054  -0.290  1.00 20.00    -0.013 A 
HETATM   10  C6  UNL     1     -35.804  18.116  -0.076  1.00 20.00     0.010 C 
ENDBRANCH   6   7
ENDBRANCH   4   6
ENDBRANCH   3   4
TORSDOF 3
ENDMDL
MODEL 8
REMARK VINA RESULT:      -3.9     11.846     13.041
REMARK  3 active torsions:
REMARK  status: ('A' for Active; 'I' for Inactive)
REMARK    1  A    between atoms: C5_5  and  C8_8 
REMARK    2  A    between atoms: C7_7  and  N9_9 
REMARK    3  A    between atoms: C8_8  and  N9_9 
ROOT
HETATM    1  C1  UNL     1     -34.681  16.150  -1.817  1.00 20.00     0.013 C 
HETATM    2  C2  UNL     1     -33.962  15.781  -2.705  1.00 20.00    -0.087 C 
HETATM    3  C7  UNL     1     -33.081  15.337  -3.788  1.00 20.00     0.362 C 
ENDROOT
BRANCH   3   4
HETATM    4  N9  UNL     1     -33.323  13.929  -4.106  1.00 20.00     0.094 N 
HETATM    5  H22 UNL     1     -32.505  13.567  -4.608  1.00 20.00     0.317 HD
BRANCH   4   6
HETATM    6  C8  UNL     1     -34.508  13.761  -4.901  1.00 20.00     0.275 C 
BRANCH   6   7
HETATM    7  C5  UNL     1     -34.484  14.651  -6.097  1.00 20.00     0.018 A 
HETATM    8  C3  UNL     1     -35.412  14.391  -7.254  1.00 20.00     0.011 A 
HETATM    9  C4  UNL     1     -35.600  15.622  -6.406  1.00 20.00    -0.013 A 
HETATM   10  C6  UNL     1     -36.803  15.761  -5.540  1.00 20.00     0.010 C 
ENDBRANCH   6   7
ENDBRANCH   4   6
ENDBRANCH   3   4
TORSDOF 3
ENDMDL
MODEL 9
REMARK VINA RESULT:      -3.9     11.420     13.852
REMARK  3 active torsions:
REMARK  status: ('A' for Active; 'I' for Inactive)
REMARK    1  A    between atoms: C5_5  and  C8_8 
REMARK    2  A    between atoms: C7_7  and  N9_9 
REMARK    3  A    between atoms: C8_8  and  N9_9 
ROOT
HETATM    1  C1  UNL     1     -34.892  13.269  -4.038  1.00 20.00     0.013 C 
HETATM    2  C2  UNL     1     -34.060  14.125  -3.909  1.00 20.00    -0.087 C 
HETATM    3  C7  UNL     1     -33.044  15.168  -3.747  1.00 20.00     0.362 C 
ENDROOT
BRANCH   3   4
HETATM    4  N9  UNL     1     -32.837  15.888  -5.004  1.00 20.00     0.094 N 
HETATM    5  H22 UNL     1     -32.038  16.520  -4.886  1.00 20.00     0.317 HD
BRANCH   4   6
HETATM    6  C8  UNL     1     -34.006  16.630  -5.388  1.00 20.00     0.275 C 
BRANCH   6   7
HETATM    7  C5  UNL     1     -34.337  16.409  -6.824  1.00 20.00     0.018 A 
HETATM    8  C3  UNL     1     -34.459  15.010  -7.368  1.00 20.00     0.011 A 
HETATM    9  C4  UNL     1     -35.681  15.886  -7.275  1.00 20.00    -0.013 A 
HETATM   10  C6  UNL     1     -36.773  15.554  -6.318  1.00 20.00     0.010 C 
ENDBRANCH   6   7
ENDBRANCH   4   6
ENDBRANCH   3   4
TORSDOF 3
ENDMDL
