MODEL 1
REMARK VINA RESULT:      -4.7      0.000      0.000
REMARK  0 active torsions:
REMARK  status: ('A' for Active; 'I' for Inactive)
ROOT
HETATM    1  C1  UNL     1     -34.010  15.853  -2.988  1.00 20.00    -0.037 C 
HETATM    2  C2  UNL     1     -35.396  15.375  -3.303  1.00 20.00     0.040 C 
HETATM    3  C3  UNL     1     -34.646  13.417  -4.311  1.00 20.00     0.243 C 
HETATM    4  C4  UNL     1     -33.778  16.898  -2.184  1.00 20.00    -0.022 C 
HETATM    5  C5  UNL     1     -32.912  15.046  -3.610  1.00 20.00     0.049 C 
HETATM    6  C6  UNL     1     -33.307  13.582  -3.623  1.00 20.00     0.110 C 
HETATM    7  C7  UNL     1     -36.580  16.220  -2.887  1.00 20.00     0.071 C 
HETATM    8  C8  UNL     1     -34.852  17.692  -1.520  1.00 20.00     0.036 C 
HETATM    9  N9  UNL     1     -35.661  14.262  -3.916  1.00 20.00    -0.219 NA
HETATM   10  O10 UNL     1     -34.812  12.513  -5.127  1.00 20.00    -0.271 OA
ENDROOT
TORSDOF 0
ENDMDL
MODEL 2
REMARK VINA RESULT:      -4.7      2.463      2.755
REMARK  0 active torsions:
REMARK  status: ('A' for Active; 'I' for Inactive)
ROOT
HETATM    1  C1  UNL     1     -33.670  16.336  -4.896  1.00 20.00    -0.037 C 
HETATM    2  C2  UNL     1     -34.344  15.585  -6.005  1.00 20.00     0.040 C 
HETATM    3  C3  UNL     1     -34.663  13.677  -4.712  1.00 20.00     0.243 C 
HETATM    4  C4  UNL     1     -33.413  17.648  -4.973  1.00 20.00    -0.022 C 
HETATM    5  C5  UNL     1     -33.346  15.513  -3.687  1.00 20.00     0.049 C 
HETATM    6  C6  UNL     1     -34.450  14.498  -3.457  1.00 20.00     0.110 C 
HETATM    7  C7  UNL     1     -34.547  16.265  -7.341  1.00 20.00     0.071 C 
HETATM    8  C8  UNL     1     -33.762  18.497  -6.147  1.00 20.00     0.036 C 
HETATM    9  N9  UNL     1     -34.782  14.366  -5.899  1.00 20.00    -0.219 NA
HETATM   10  O10 UNL     1     -34.795  12.457  -4.634  1.00 20.00    -0.271 OA
ENDROOT
TORSDOF 0
ENDMDL
MODEL 3
REMARK VINA RESULT:      -4.5      2.812      3.506
REMARK  0 active torsions:
REMARK  status: ('A' for Active; 'I' for Inactive)
ROOT
HETATM    1  C1  UNL     1     -34.085  16.158  -5.989  1.00 20.00    -0.037 C 
HETATM    2  C2  UNL     1     -34.634  14.781  -6.209  1.00 20.00     0.040 C 
HETATM    3  C3  UNL     1     -33.811  13.973  -4.189  1.00 20.00     0.243 C 
HETATM    4  C4  UNL     1     -34.420  17.196  -6.766  1.00 20.00    -0.022 C 
HETATM    5  C5  UNL     1     -33.167  16.286  -4.813  1.00 20.00     0.049 C 
HETATM    6  C6  UNL     1     -33.659  15.395  -3.689  1.00 20.00     0.110 C 
HETATM    7  C7  UNL     1     -35.417  14.492  -7.471  1.00 20.00     0.071 C 
HETATM    8  C8  UNL     1     -35.363  17.103  -7.917  1.00 20.00     0.036 C 
HETATM    9  N9  UNL     1     -34.489  13.796  -5.376  1.00 20.00    -0.219 NA
HETATM   10  O10 UNL     1     -33.403  13.034  -3.508  1.00 20.00    -0.271 OA
ENDROOT
TORSDOF 0
ENDMDL
MODEL 4
REMARK VINA RESULT:      -4.4      2.857      4.189
REMARK  0 active torsions:
REMARK  status: ('A' for Active; 'I' for Inactive)
ROOT
HETATM    1  C1  UNL     1     -34.502  15.343  -3.256  1.00 20.00    -0.037 C 
HETATM    2  C2  UNL     1     -34.036  16.305  -4.307  1.00 20.00     0.040 C 
HETATM    3  C3  UNL     1     -33.763  18.050  -2.792  1.00 20.00     0.243 C 
HETATM    4  C4  UNL     1     -34.636  14.032  -3.495  1.00 20.00    -0.022 C 
HETATM    5  C5  UNL     1     -34.766  15.957  -1.916  1.00 20.00     0.049 C 
HETATM    6  C6  UNL     1     -33.749  17.051  -1.653  1.00 20.00     0.110 C 
HETATM    7  C7  UNL     1     -33.922  15.835  -5.740  1.00 20.00     0.071 C 
HETATM    8  C8  UNL     1     -34.341  13.390  -4.807  1.00 20.00     0.036 C 
HETATM    9  N9  UNL     1     -33.712  17.541  -4.072  1.00 20.00    -0.219 NA
HETATM   10  O10 UNL     1     -33.744  19.255  -2.554  1.00 20.00    -0.271 OA
ENDROOT
TORSDOF 0
ENDMDL
MODEL 5
REMARK VINA RESULT:      -4.4      1.774      3.251
REMARK  0 active torsions:
REMARK  status: ('A' for Active; 'I' for Inactive)
ROOT
HETATM    1  C1  UNL     1     -34.918  15.482  -3.164  1.00 20.00    -0.037 C 
HETATM    2  C2  UNL     1     -35.345  14.215  -3.842  1.00 20.00     0.040 C 
HETATM    3  C3  UNL     1     -37.605  14.757  -3.751  1.00 20.00     0.243 C 
HETATM    4  C4  UNL     1     -33.636  15.865  -3.102  1.00 20.00    -0.022 C 
HETATM    5  C5  UNL     1     -36.039  16.300  -2.601  1.00 20.00     0.049 C 
HETATM    6  C6  UNL     1     -37.242  16.209  -3.522  1.00 20.00     0.110 C 
HETATM    7  C7  UNL     1     -34.291  13.221  -4.279  1.00 20.00     0.071 C 
HETATM    8  C8  UNL     1     -32.507  15.089  -3.690  1.00 20.00     0.036 C 
HETATM    9  N9  UNL     1     -36.580  13.901  -4.092  1.00 20.00    -0.219 NA
HETATM   10  O10 UNL     1     -38.781  14.402  -3.703  1.00 20.00    -0.271 OA
ENDROOT
TORSDOF 0
ENDMDL
MODEL 6
REMARK VINA RESULT:      -4.4      1.669      2.115
REMARK  0 active torsions:
REMARK  status: ('A' for Active; 'I' for Inactive)
ROOT
HETATM    1  C1  UNL     1     -34.622  16.598  -4.563  1.00 20.00    -0.037 C 
HETATM    2  C2  UNL     1     -34.368  15.773  -3.336  1.00 20.00     0.040 C 
HETATM    3  C3  UNL     1     -34.712  13.758  -4.446  1.00 20.00     0.243 C 
HETATM    4  C4  UNL     1     -34.363  17.911  -4.609  1.00 20.00    -0.022 C 
HETATM    5  C5  UNL     1     -35.148  15.831  -5.736  1.00 20.00     0.049 C 
HETATM    6  C6  UNL     1     -34.503  14.459  -5.773  1.00 20.00     0.110 C 
HETATM    7  C7  UNL     1     -34.018  16.468  -2.039  1.00 20.00     0.071 C 
HETATM    8  C8  UNL     1     -33.801  18.689  -3.468  1.00 20.00     0.036 C 
HETATM    9  N9  UNL     1     -34.423  14.476  -3.306  1.00 20.00    -0.219 NA
HETATM   10  O10 UNL     1     -35.051  12.577  -4.421  1.00 20.00    -0.271 OA
ENDROOT
TORSDOF 0
ENDMDL
MODEL 7
REMARK VINA RESULT:      -4.3     11.589     12.743
REMARK  0 active torsions:
REMARK  status: ('A' for Active; 'I' for Inactive)
ROOT
HETATM    1  C1  UNL     1     -41.598   5.339  -1.860  1.00 20.00    -0.037 C 
HETATM    2  C2  UNL     1     -42.641   5.776  -2.844  1.00 20.00     0.040 C 
HETATM    3  C3  UNL     1     -43.055   3.610  -3.586  1.00 20.00     0.243 C 
HETATM    4  C4  UNL     1     -41.097   6.165  -0.933  1.00 20.00    -0.022 C 
HETATM    5  C5  UNL     1     -41.194   3.901  -1.973  1.00 20.00     0.049 C 
HETATM    6  C6  UNL     1     -42.405   3.063  -2.332  1.00 20.00     0.110 C 
HETATM    7  C7  UNL     1     -42.988   7.245  -2.949  1.00 20.00     0.071 C 
HETATM    8  C8  UNL     1     -41.513   7.588  -0.774  1.00 20.00     0.036 C 
HETATM    9  N9  UNL     1     -43.288   4.968  -3.629  1.00 20.00    -0.219 NA
HETATM   10  O10 UNL     1     -43.417   2.844  -4.476  1.00 20.00    -0.271 OA
ENDROOT
TORSDOF 0
ENDMDL
MODEL 8
REMARK VINA RESULT:      -4.2      1.888      2.304
REMARK  0 active torsions:
REMARK  status: ('A' for Active; 'I' for Inactive)
ROOT
HETATM    1  C1  UNL     1     -34.288  15.569  -3.212  1.00 20.00    -0.037 C 
HETATM    2  C2  UNL     1     -34.023  16.598  -4.269  1.00 20.00     0.040 C 
HETATM    3  C3  UNL     1     -34.418  15.114  -6.017  1.00 20.00     0.243 C 
HETATM    4  C4  UNL     1     -34.417  15.888  -1.918  1.00 20.00    -0.022 C 
HETATM    5  C5  UNL     1     -34.436  14.169  -3.723  1.00 20.00     0.049 C 
HETATM    6  C6  UNL     1     -35.149  14.193  -5.062  1.00 20.00     0.110 C 
HETATM    7  C7  UNL     1     -33.669  18.009  -3.853  1.00 20.00     0.071 C 
HETATM    8  C8  UNL     1     -34.314  17.278  -1.390  1.00 20.00     0.036 C 
HETATM    9  N9  UNL     1     -34.080  16.364  -5.546  1.00 20.00    -0.219 NA
HETATM   10  O10 UNL     1     -34.216  14.763  -7.177  1.00 20.00    -0.271 OA
ENDROOT
TORSDOF 0
ENDMDL
MODEL 9
REMARK VINA RESULT:      -4.2      2.570      3.313
REMARK  0 active torsions:
REMARK  status: ('A' for Active; 'I' for Inactive)
ROOT
HETATM    1  C1  UNL     1     -34.320  16.774  -1.725  1.00 20.00    -0.037 C 
HETATM    2  C2  UNL     1     -33.736  17.984  -2.392  1.00 20.00     0.040 C 
HETATM    3  C3  UNL     1     -33.904  17.067  -4.523  1.00 20.00     0.243 C 
HETATM    4  C4  UNL     1     -34.684  16.773  -0.436  1.00 20.00    -0.022 C 
HETATM    5  C5  UNL     1     -34.498  15.589  -2.622  1.00 20.00     0.049 C 
HETATM    6  C6  UNL     1     -34.908  16.059  -4.005  1.00 20.00     0.110 C 
HETATM    7  C7  UNL     1     -33.337  19.173  -1.546  1.00 20.00     0.071 C 
HETATM    8  C8  UNL     1     -34.555  17.952   0.466  1.00 20.00     0.036 C 
HETATM    9  N9  UNL     1     -33.548  18.091  -3.672  1.00 20.00    -0.219 NA
HETATM   10  O10 UNL     1     -33.500  16.993  -5.682  1.00 20.00    -0.271 OA
ENDROOT
TORSDOF 0
ENDMDL
