MODEL 1
REMARK VINA RESULT:      -4.9      0.000      0.000
REMARK  1 active torsions:
REMARK  status: ('A' for Active; 'I' for Inactive)
REMARK    1  A    between atoms: C1_1  and  C3_3 
ROOT
HETATM    1  C3  UNL     1     -34.821   4.874   5.924  1.00 20.00     0.408 C 
HETATM    2  F4  UNL     1     -33.713   4.096   6.019  1.00 20.00    -0.167 F 
HETATM    3  F5  UNL     1     -35.741   4.352   6.774  1.00 20.00    -0.167 F 
HETATM    4  F6  UNL     1     -34.485   6.096   6.411  1.00 20.00    -0.167 F 
ENDROOT
BRANCH   1   5
HETATM    5  C1  UNL     1     -35.336   4.916   4.528  1.00 20.00     0.096 C 
HETATM    6  C2  UNL     1     -34.683   5.479   3.505  1.00 20.00     0.060 C 
HETATM    7 BR7  UNL     1     -33.028   6.303   3.648  1.00 20.00    -0.064 Br
ENDBRANCH   1   5
TORSDOF 1
ENDMDL
MODEL 2
REMARK VINA RESULT:      -4.9      0.027      1.418
REMARK  1 active torsions:
REMARK  status: ('A' for Active; 'I' for Inactive)
REMARK    1  A    between atoms: C1_1  and  C3_3 
ROOT
HETATM    1  C3  UNL     1     -34.814   4.847   5.920  1.00 20.00     0.408 C 
HETATM    2  F4  UNL     1     -35.731   4.313   6.766  1.00 20.00    -0.167 F 
HETATM    3  F5  UNL     1     -34.515   6.082   6.397  1.00 20.00    -0.167 F 
HETATM    4  F6  UNL     1     -33.689   4.098   6.038  1.00 20.00    -0.167 F 
ENDROOT
BRANCH   1   5
HETATM    5  C1  UNL     1     -35.335   4.916   4.528  1.00 20.00     0.096 C 
HETATM    6  C2  UNL     1     -34.685   5.491   3.511  1.00 20.00     0.060 C 
HETATM    7 BR7  UNL     1     -33.023   6.302   3.658  1.00 20.00    -0.064 Br
ENDBRANCH   1   5
TORSDOF 1
ENDMDL
MODEL 3
REMARK VINA RESULT:      -4.4      1.456      1.865
REMARK  1 active torsions:
REMARK  status: ('A' for Active; 'I' for Inactive)
REMARK    1  A    between atoms: C1_1  and  C3_3 
ROOT
HETATM    1  C3  UNL     1     -34.957   4.555   5.817  1.00 20.00     0.408 C 
HETATM    2  F4  UNL     1     -35.707   4.684   4.693  1.00 20.00    -0.167 F 
HETATM    3  F5  UNL     1     -35.775   4.057   6.778  1.00 20.00    -0.167 F 
HETATM    4  F6  UNL     1     -34.027   3.601   5.559  1.00 20.00    -0.167 F 
ENDROOT
BRANCH   1   5
HETATM    5  C1  UNL     1     -34.369   5.859   6.228  1.00 20.00     0.096 C 
HETATM    6  C2  UNL     1     -33.634   6.636   5.426  1.00 20.00     0.060 C 
HETATM    7 BR7  UNL     1     -33.220   6.226   3.665  1.00 20.00    -0.064 Br
ENDBRANCH   1   5
TORSDOF 1
ENDMDL
MODEL 4
REMARK VINA RESULT:      -4.4      1.457      1.983
REMARK  1 active torsions:
REMARK  status: ('A' for Active; 'I' for Inactive)
REMARK    1  A    between atoms: C1_1  and  C3_3 
ROOT
HETATM    1  C3  UNL     1     -34.942   4.549   5.816  1.00 20.00     0.408 C 
HETATM    2  F4  UNL     1     -35.768   4.041   6.765  1.00 20.00    -0.167 F 
HETATM    3  F5  UNL     1     -33.965   3.629   5.614  1.00 20.00    -0.167 F 
HETATM    4  F6  UNL     1     -35.661   4.617   4.667  1.00 20.00    -0.167 F 
ENDROOT
BRANCH   1   5
HETATM    5  C1  UNL     1     -34.375   5.859   6.237  1.00 20.00     0.096 C 
HETATM    6  C2  UNL     1     -33.645   6.649   5.443  1.00 20.00     0.060 C 
HETATM    7 BR7  UNL     1     -33.212   6.251   3.684  1.00 20.00    -0.064 Br
ENDBRANCH   1   5
TORSDOF 1
ENDMDL
MODEL 5
REMARK VINA RESULT:      -4.3      2.559      3.282
REMARK  1 active torsions:
REMARK  status: ('A' for Active; 'I' for Inactive)
REMARK    1  A    between atoms: C1_1  and  C3_3 
ROOT
HETATM    1  C3  UNL     1     -33.198   6.380   3.701  1.00 20.00     0.408 C 
HETATM    2  F4  UNL     1     -32.965   7.469   2.926  1.00 20.00    -0.167 F 
HETATM    3  F5  UNL     1     -32.179   5.513   3.474  1.00 20.00    -0.167 F 
HETATM    4  F6  UNL     1     -33.086   6.787   4.991  1.00 20.00    -0.167 F 
ENDROOT
BRANCH   1   5
HETATM    5  C1  UNL     1     -34.515   5.763   3.388  1.00 20.00     0.096 C 
HETATM    6  C2  UNL     1     -35.204   4.995   4.238  1.00 20.00     0.060 C 
HETATM    7 BR7  UNL     1     -34.640   4.567   5.953  1.00 20.00    -0.064 Br
ENDBRANCH   1   5
TORSDOF 1
ENDMDL
MODEL 6
REMARK VINA RESULT:      -4.2      2.463      3.050
REMARK  1 active torsions:
REMARK  status: ('A' for Active; 'I' for Inactive)
REMARK    1  A    between atoms: C1_1  and  C3_3 
ROOT
HETATM    1  C3  UNL     1     -35.018   5.502   3.662  1.00 20.00     0.408 C 
HETATM    2  F4  UNL     1     -36.275   5.835   3.272  1.00 20.00    -0.167 F 
HETATM    3  F5  UNL     1     -34.415   4.928   2.590  1.00 20.00    -0.167 F 
HETATM    4  F6  UNL     1     -34.362   6.665   3.905  1.00 20.00    -0.167 F 
ENDROOT
BRANCH   1   5
HETATM    5  C1  UNL     1     -35.039   4.580   4.830  1.00 20.00     0.096 C 
HETATM    6  C2  UNL     1     -34.621   4.913   6.056  1.00 20.00     0.060 C 
HETATM    7 BR7  UNL     1     -33.943   6.579   6.512  1.00 20.00    -0.064 Br
ENDBRANCH   1   5
TORSDOF 1
ENDMDL
MODEL 7
REMARK VINA RESULT:      -4.1      2.588      3.107
REMARK  1 active torsions:
REMARK  status: ('A' for Active; 'I' for Inactive)
REMARK    1  A    between atoms: C1_1  and  C3_3 
ROOT
HETATM    1  C3  UNL     1     -34.095   5.703   3.588  1.00 20.00     0.408 C 
HETATM    2  F4  UNL     1     -32.749   5.696   3.759  1.00 20.00    -0.167 F 
HETATM    3  F5  UNL     1     -34.483   7.003   3.586  1.00 20.00    -0.167 F 
HETATM    4  F6  UNL     1     -34.335   5.220   2.342  1.00 20.00    -0.167 F 
ENDROOT
BRANCH   1   5
HETATM    5  C1  UNL     1     -34.782   4.935   4.661  1.00 20.00     0.096 C 
HETATM    6  C2  UNL     1     -34.751   5.265   5.957  1.00 20.00     0.060 C 
HETATM    7 BR7  UNL     1     -33.849   6.735   6.640  1.00 20.00    -0.064 Br
ENDBRANCH   1   5
TORSDOF 1
ENDMDL
MODEL 8
REMARK VINA RESULT:      -4.1      2.861      3.482
REMARK  1 active torsions:
REMARK  status: ('A' for Active; 'I' for Inactive)
REMARK    1  A    between atoms: C1_1  and  C3_3 
ROOT
HETATM    1  C3  UNL     1     -33.401   6.313   3.724  1.00 20.00     0.408 C 
HETATM    2  F4  UNL     1     -32.317   5.500   3.645  1.00 20.00    -0.167 F 
HETATM    3  F5  UNL     1     -33.124   7.408   2.973  1.00 20.00    -0.167 F 
HETATM    4  F6  UNL     1     -34.422   5.664   3.109  1.00 20.00    -0.167 F 
ENDROOT
BRANCH   1   5
HETATM    5  C1  UNL     1     -33.700   6.683   5.134  1.00 20.00     0.096 C 
HETATM    6  C2  UNL     1     -34.298   5.870   6.011  1.00 20.00     0.060 C 
HETATM    7 BR7  UNL     1     -34.859   4.145   5.625  1.00 20.00    -0.064 Br
ENDBRANCH   1   5
TORSDOF 1
ENDMDL
MODEL 9
REMARK VINA RESULT:      -3.9      2.248      2.558
REMARK  1 active torsions:
REMARK  status: ('A' for Active; 'I' for Inactive)
REMARK    1  A    between atoms: C1_1  and  C3_3 
ROOT
HETATM    1  C3  UNL     1     -35.031   5.060   3.992  1.00 20.00     0.408 C 
HETATM    2  F4  UNL     1     -35.418   3.844   4.452  1.00 20.00    -0.167 F 
HETATM    3  F5  UNL     1     -34.269   4.838   2.891  1.00 20.00    -0.167 F 
HETATM    4  F6  UNL     1     -36.154   5.696   3.570  1.00 20.00    -0.167 F 
ENDROOT
BRANCH   1   5
HETATM    5  C1  UNL     1     -34.277   5.817   5.028  1.00 20.00     0.096 C 
HETATM    6  C2  UNL     1     -33.229   6.605   4.768  1.00 20.00     0.060 C 
HETATM    7 BR7  UNL     1     -32.533   6.892   3.072  1.00 20.00    -0.064 Br
ENDBRANCH   1   5
TORSDOF 1
ENDMDL
