MODEL 1
REMARK VINA RESULT:      -4.4      0.000      0.000
REMARK  0 active torsions:
REMARK  status: ('A' for Active; 'I' for Inactive)
ROOT
HETATM    1  C1  UNL     1     -34.226   6.220   5.107  1.00 20.00     0.075 C 
HETATM    2  C2  UNL     1     -34.560   5.516   6.419  1.00 20.00     0.273 C 
HETATM    3  C3  UNL     1     -34.895   3.957   4.709  1.00 20.00     0.312 C 
HETATM    4  C4  UNL     1     -34.798   5.310   4.029  1.00 20.00     0.127 C 
HETATM    5  C5  UNL     1     -34.002   5.298   2.738  1.00 20.00     0.053 C 
HETATM    6  N6  UNL     1     -35.331   4.327   6.055  1.00 20.00     0.086 N 
HETATM    7  F7  UNL     1     -36.063   5.732   3.737  1.00 20.00    -0.241 F 
HETATM    8  H17 UNL     1     -35.165   3.568   6.714  1.00 20.00     0.316 HD
ENDROOT
TORSDOF 0
ENDMDL
MODEL 2
REMARK VINA RESULT:      -3.6      2.178      2.845
REMARK  0 active torsions:
REMARK  status: ('A' for Active; 'I' for Inactive)
ROOT
HETATM    1  C1  UNL     1     -34.064   5.644   2.731  1.00 20.00     0.075 C 
HETATM    2  C2  UNL     1     -34.894   5.131   3.906  1.00 20.00     0.273 C 
HETATM    3  C3  UNL     1     -33.358   6.664   4.778  1.00 20.00     0.312 C 
HETATM    4  C4  UNL     1     -32.872   6.335   3.379  1.00 20.00     0.127 C 
HETATM    5  C5  UNL     1     -32.353   7.533   2.607  1.00 20.00     0.053 C 
HETATM    6  N6  UNL     1     -34.141   5.475   5.113  1.00 20.00     0.086 N 
HETATM    7  F7  UNL     1     -31.855   5.430   3.483  1.00 20.00    -0.241 F 
HETATM    8  H17 UNL     1     -34.768   5.658   5.894  1.00 20.00     0.316 HD
ENDROOT
TORSDOF 0
ENDMDL
MODEL 3
REMARK VINA RESULT:      -3.4     12.650     13.408
REMARK  0 active torsions:
REMARK  status: ('A' for Active; 'I' for Inactive)
ROOT
HETATM    1  C1  UNL     1     -34.227  15.334  -3.066  1.00 20.00     0.075 C 
HETATM    2  C2  UNL     1     -33.539  16.558  -3.667  1.00 20.00     0.273 C 
HETATM    3  C3  UNL     1     -33.925  15.064  -5.424  1.00 20.00     0.312 C 
HETATM    4  C4  UNL     1     -34.126  14.269  -4.148  1.00 20.00     0.127 C 
HETATM    5  C5  UNL     1     -35.302  13.313  -4.194  1.00 20.00     0.053 C 
HETATM    6  N6  UNL     1     -33.038  16.137  -4.975  1.00 20.00     0.086 N 
HETATM    7  F7  UNL     1     -32.997  13.534  -3.923  1.00 20.00    -0.241 F 
HETATM    8  H17 UNL     1     -33.040  16.913  -5.634  1.00 20.00     0.316 HD
ENDROOT
TORSDOF 0
ENDMDL
MODEL 4
REMARK VINA RESULT:      -3.4     12.380     13.319
REMARK  0 active torsions:
REMARK  status: ('A' for Active; 'I' for Inactive)
ROOT
HETATM    1  C1  UNL     1     -33.942  15.655  -5.047  1.00 20.00     0.075 C 
HETATM    2  C2  UNL     1     -34.475  14.425  -5.779  1.00 20.00     0.273 C 
HETATM    3  C3  UNL     1     -34.401  13.883  -3.505  1.00 20.00     0.312 C 
HETATM    4  C4  UNL     1     -33.573  15.144  -3.661  1.00 20.00     0.127 C 
HETATM    5  C5  UNL     1     -33.773  16.157  -2.551  1.00 20.00     0.053 C 
HETATM    6  N6  UNL     1     -34.328  13.306  -4.848  1.00 20.00     0.086 N 
HETATM    7  F7  UNL     1     -32.254  14.790  -3.672  1.00 20.00    -0.241 F 
HETATM    8  H17 UNL     1     -35.063  12.615  -4.989  1.00 20.00     0.316 HD
ENDROOT
TORSDOF 0
ENDMDL
MODEL 5
REMARK VINA RESULT:      -3.3      1.983      2.749
REMARK  0 active torsions:
REMARK  status: ('A' for Active; 'I' for Inactive)
ROOT
HETATM    1  C1  UNL     1     -33.568   6.186   5.174  1.00 20.00     0.075 C 
HETATM    2  C2  UNL     1     -33.582   6.399   3.663  1.00 20.00     0.273 C 
HETATM    3  C3  UNL     1     -35.400   5.018   4.170  1.00 20.00     0.312 C 
HETATM    4  C4  UNL     1     -34.518   5.019   5.404  1.00 20.00     0.127 C 
HETATM    5  C5  UNL     1     -35.283   5.087   6.711  1.00 20.00     0.053 C 
HETATM    6  N6  UNL     1     -34.442   5.350   3.115  1.00 20.00     0.086 N 
HETATM    7  F7  UNL     1     -33.787   3.865   5.406  1.00 20.00    -0.241 F 
HETATM    8  H17 UNL     1     -34.921   5.672   2.275  1.00 20.00     0.316 HD
ENDROOT
TORSDOF 0
ENDMDL
MODEL 6
REMARK VINA RESULT:      -3.3      8.722      9.275
REMARK  0 active torsions:
REMARK  status: ('A' for Active; 'I' for Inactive)
ROOT
HETATM    1  C1  UNL     1     -42.145   4.789  -2.197  1.00 20.00     0.075 C 
HETATM    2  C2  UNL     1     -43.090   3.677  -1.751  1.00 20.00     0.273 C 
HETATM    3  C3  UNL     1     -42.162   4.598   0.188  1.00 20.00     0.312 C 
HETATM    4  C4  UNL     1     -41.310   5.100  -0.962  1.00 20.00     0.127 C 
HETATM    5  C5  UNL     1     -40.899   6.554  -0.839  1.00 20.00     0.053 C 
HETATM    6  N6  UNL     1     -42.725   3.368  -0.368  1.00 20.00     0.086 N 
HETATM    7  F7  UNL     1     -40.173   4.346  -1.011  1.00 20.00    -0.241 F 
HETATM    8  H17 UNL     1     -43.539   3.065   0.165  1.00 20.00     0.316 HD
ENDROOT
TORSDOF 0
ENDMDL
MODEL 7
REMARK VINA RESULT:      -3.3      1.672      2.725
REMARK  0 active torsions:
REMARK  status: ('A' for Active; 'I' for Inactive)
ROOT
HETATM    1  C1  UNL     1     -33.824   5.011   2.988  1.00 20.00     0.075 C 
HETATM    2  C2  UNL     1     -32.880   6.209   2.926  1.00 20.00     0.273 C 
HETATM    3  C3  UNL     1     -33.912   6.266   5.023  1.00 20.00     0.312 C 
HETATM    4  C4  UNL     1     -34.720   5.291   4.186  1.00 20.00     0.127 C 
HETATM    5  C5  UNL     1     -35.162   4.050   4.937  1.00 20.00     0.053 C 
HETATM    6  N6  UNL     1     -33.302   7.111   3.998  1.00 20.00     0.086 N 
HETATM    7  F7  UNL     1     -35.839   5.936   3.745  1.00 20.00    -0.241 F 
HETATM    8  H17 UNL     1     -32.508   7.627   4.374  1.00 20.00     0.316 HD
ENDROOT
TORSDOF 0
ENDMDL
MODEL 8
REMARK VINA RESULT:      -3.3     12.612     13.318
REMARK  0 active torsions:
REMARK  status: ('A' for Active; 'I' for Inactive)
ROOT
HETATM    1  C1  UNL     1     -34.561  16.261  -4.383  1.00 20.00     0.075 C 
HETATM    2  C2  UNL     1     -33.067  16.158  -4.680  1.00 20.00     0.273 C 
HETATM    3  C3  UNL     1     -33.751  14.060  -3.906  1.00 20.00     0.312 C 
HETATM    4  C4  UNL     1     -34.873  15.020  -3.557  1.00 20.00     0.127 C 
HETATM    5  C5  UNL     1     -36.262  14.456  -3.782  1.00 20.00     0.053 C 
HETATM    6  N6  UNL     1     -32.599  14.958  -3.986  1.00 20.00     0.086 N 
HETATM    7  F7  UNL     1     -34.760  15.345  -2.236  1.00 20.00    -0.241 F 
HETATM    8  H17 UNL     1     -31.830  14.521  -4.491  1.00 20.00     0.316 HD
ENDROOT
TORSDOF 0
ENDMDL
MODEL 9
REMARK VINA RESULT:      -3.3     12.679     13.421
REMARK  0 active torsions:
REMARK  status: ('A' for Active; 'I' for Inactive)
ROOT
HETATM    1  C1  UNL     1     -35.630  15.306  -4.719  1.00 20.00     0.075 C 
HETATM    2  C2  UNL     1     -36.123  14.037  -4.027  1.00 20.00     0.273 C 
HETATM    3  C3  UNL     1     -33.788  13.923  -4.070  1.00 20.00     0.312 C 
HETATM    4  C4  UNL     1     -34.171  15.021  -5.045  1.00 20.00     0.127 C 
HETATM    5  C5  UNL     1     -33.271  16.240  -4.988  1.00 20.00     0.053 C 
HETATM    6  N6  UNL     1     -34.998  13.102  -4.050  1.00 20.00     0.086 N 
HETATM    7  F7  UNL     1     -34.105  14.509  -6.309  1.00 20.00    -0.241 F 
HETATM    8  H17 UNL     1     -35.012  12.493  -3.233  1.00 20.00     0.316 HD
ENDROOT
TORSDOF 0
ENDMDL
