MODEL 1
REMARK VINA RESULT:      -4.7      0.000      0.000
REMARK  1 active torsions:
REMARK  status: ('A' for Active; 'I' for Inactive)
REMARK    1  A    between atoms: C2_2  and  C6_6 
ROOT
HETATM    1  C1  UNL     1     -35.205   4.758   5.978  1.00 20.00     0.119 A 
HETATM    2  C2  UNL     1     -34.020   5.966   4.541  1.00 20.00     0.043 A 
HETATM    3  C3  UNL     1     -34.939   4.806   4.517  1.00 20.00     0.105 A 
HETATM    4  N7  UNL     1     -34.581   5.673   6.647  1.00 20.00    -0.167 NA
HETATM    5  N8  UNL     1     -33.816   6.455   5.722  1.00 20.00    -0.159 NA
ENDROOT
BRANCH   2   6
HETATM    6  C6  UNL     1     -33.399   6.515   3.328  1.00 20.00     0.035 A 
HETATM    7  C4  UNL     1     -32.092   7.250   3.436  1.00 20.00     0.011 A 
HETATM    8  C5  UNL     1     -32.135   5.891   2.803  1.00 20.00     0.011 A 
ENDBRANCH   2   6
TORSDOF 1
ENDMDL
MODEL 2
REMARK VINA RESULT:      -4.2      1.304      3.458
REMARK  1 active torsions:
REMARK  status: ('A' for Active; 'I' for Inactive)
REMARK    1  A    between atoms: C2_2  and  C6_6 
ROOT
HETATM    1  C1  UNL     1     -32.381   6.462   2.693  1.00 20.00     0.119 A 
HETATM    2  C2  UNL     1     -33.802   6.018   4.338  1.00 20.00     0.043 A 
HETATM    3  C3  UNL     1     -33.574   5.610   2.934  1.00 20.00     0.105 A 
HETATM    4  N7  UNL     1     -32.035   7.170   3.719  1.00 20.00    -0.167 NA
HETATM    5  N8  UNL     1     -32.950   6.884   4.783  1.00 20.00    -0.159 NA
ENDROOT
BRANCH   2   6
HETATM    6  C6  UNL     1     -34.899   5.479   5.155  1.00 20.00     0.035 A 
HETATM    7  C4  UNL     1     -35.165   3.999   5.148  1.00 20.00     0.011 A 
HETATM    8  C5  UNL     1     -34.573   4.646   6.365  1.00 20.00     0.011 A 
ENDBRANCH   2   6
TORSDOF 1
ENDMDL
MODEL 3
REMARK VINA RESULT:      -4.2     12.011     12.566
REMARK  1 active torsions:
REMARK  status: ('A' for Active; 'I' for Inactive)
REMARK    1  A    between atoms: C2_2  and  C6_6 
ROOT
HETATM    1  C1  UNL     1     -35.015  13.686  -5.540  1.00 20.00     0.119 A 
HETATM    2  C2  UNL     1     -34.130  14.678  -3.762  1.00 20.00     0.043 A 
HETATM    3  C3  UNL     1     -34.670  15.058  -5.086  1.00 20.00     0.105 A 
HETATM    4  N7  UNL     1     -34.733  12.769  -4.672  1.00 20.00    -0.167 NA
HETATM    5  N8  UNL     1     -34.163  13.405  -3.523  1.00 20.00    -0.159 NA
ENDROOT
BRANCH   2   6
HETATM    6  C6  UNL     1     -33.609  15.661  -2.802  1.00 20.00     0.035 A 
HETATM    7  C4  UNL     1     -34.046  17.096  -2.907  1.00 20.00     0.011 A 
HETATM    8  C5  UNL     1     -34.537  16.245  -1.773  1.00 20.00     0.011 A 
ENDBRANCH   2   6
TORSDOF 1
ENDMDL
MODEL 4
REMARK VINA RESULT:      -4.1      0.944      1.326
REMARK  1 active torsions:
REMARK  status: ('A' for Active; 'I' for Inactive)
REMARK    1  A    between atoms: C2_2  and  C6_6 
ROOT
HETATM    1  C1  UNL     1     -35.404   5.096   4.446  1.00 20.00     0.119 A 
HETATM    2  C2  UNL     1     -33.429   5.962   3.921  1.00 20.00     0.043 A 
HETATM    3  C3  UNL     1     -34.573   5.321   3.235  1.00 20.00     0.105 A 
HETATM    4  N7  UNL     1     -34.851   5.514   5.538  1.00 20.00    -0.167 NA
HETATM    5  N8  UNL     1     -33.576   6.075   5.202  1.00 20.00    -0.159 NA
ENDROOT
BRANCH   2   6
HETATM    6  C6  UNL     1     -32.236   6.435   3.206  1.00 20.00     0.035 A 
HETATM    7  C4  UNL     1     -32.305   7.715   2.421  1.00 20.00     0.011 A 
HETATM    8  C5  UNL     1     -31.522   7.663   3.699  1.00 20.00     0.011 A 
ENDBRANCH   2   6
TORSDOF 1
ENDMDL
MODEL 5
REMARK VINA RESULT:      -3.7     11.840     12.375
REMARK  1 active torsions:
REMARK  status: ('A' for Active; 'I' for Inactive)
REMARK    1  A    between atoms: C2_2  and  C6_6 
ROOT
HETATM    1  C1  UNL     1     -34.897  13.237  -4.366  1.00 20.00     0.119 A 
HETATM    2  C2  UNL     1     -34.653  15.099  -3.183  1.00 20.00     0.043 A 
HETATM    3  C3  UNL     1     -33.799  14.042  -3.770  1.00 20.00     0.105 A 
HETATM    4  N7  UNL     1     -36.074  13.733  -4.157  1.00 20.00    -0.167 NA
HETATM    5  N8  UNL     1     -35.919  14.936  -3.395  1.00 20.00    -0.159 NA
ENDROOT
BRANCH   2   6
HETATM    6  C6  UNL     1     -34.106  16.237  -2.431  1.00 20.00     0.035 A 
HETATM    7  C4  UNL     1     -34.990  17.416  -2.132  1.00 20.00     0.011 A 
HETATM    8  C5  UNL     1     -34.583  16.487  -1.027  1.00 20.00     0.011 A 
ENDBRANCH   2   6
TORSDOF 1
ENDMDL
MODEL 6
REMARK VINA RESULT:      -3.6     11.796     12.608
REMARK  1 active torsions:
REMARK  status: ('A' for Active; 'I' for Inactive)
REMARK    1  A    between atoms: C2_2  and  C6_6 
ROOT
HETATM    1  C1  UNL     1     -38.138  15.627  -3.627  1.00 20.00     0.119 A 
HETATM    2  C2  UNL     1     -36.019  14.990  -3.447  1.00 20.00     0.043 A 
HETATM    3  C3  UNL     1     -36.818  16.227  -3.302  1.00 20.00     0.105 A 
HETATM    4  N7  UNL     1     -38.080  14.361  -3.888  1.00 20.00    -0.167 NA
HETATM    5  N8  UNL     1     -36.714  13.946  -3.771  1.00 20.00    -0.159 NA
ENDROOT
BRANCH   2   6
HETATM    6  C6  UNL     1     -34.566  14.951  -3.234  1.00 20.00     0.035 A 
HETATM    7  C4  UNL     1     -33.765  13.822  -3.822  1.00 20.00     0.011 A 
HETATM    8  C5  UNL     1     -33.647  15.202  -4.398  1.00 20.00     0.011 A 
ENDBRANCH   2   6
TORSDOF 1
ENDMDL
MODEL 7
REMARK VINA RESULT:      -3.6     10.365     11.033
REMARK  1 active torsions:
REMARK  status: ('A' for Active; 'I' for Inactive)
REMARK    1  A    between atoms: C2_2  and  C6_6 
ROOT
HETATM    1  C1  UNL     1     -42.968   7.340  -3.513  1.00 20.00     0.119 A 
HETATM    2  C2  UNL     1     -41.930   5.904  -2.176  1.00 20.00     0.043 A 
HETATM    3  C3  UNL     1     -41.941   7.360  -2.441  1.00 20.00     0.105 A 
HETATM    4  N7  UNL     1     -43.417   6.155  -3.777  1.00 20.00    -0.167 NA
HETATM    5  N8  UNL     1     -42.750   5.226  -2.915  1.00 20.00    -0.159 NA
ENDROOT
BRANCH   2   6
HETATM    6  C6  UNL     1     -41.068   5.285  -1.160  1.00 20.00     0.035 A 
HETATM    7  C4  UNL     1     -40.560   6.120  -0.018  1.00 20.00     0.011 A 
HETATM    8  C5  UNL     1     -41.605   5.073   0.229  1.00 20.00     0.011 A 
ENDBRANCH   2   6
TORSDOF 1
ENDMDL
MODEL 8
REMARK VINA RESULT:      -3.5     12.210     13.336
REMARK  1 active torsions:
REMARK  status: ('A' for Active; 'I' for Inactive)
REMARK    1  A    between atoms: C2_2  and  C6_6 
ROOT
HETATM    1  C1  UNL     1     -34.876  13.227  -4.684  1.00 20.00     0.119 A 
HETATM    2  C2  UNL     1     -33.734  15.130  -4.703  1.00 20.00     0.043 A 
HETATM    3  C3  UNL     1     -34.766  14.452  -5.518  1.00 20.00     0.105 A 
HETATM    4  N7  UNL     1     -34.092  13.230  -3.654  1.00 20.00    -0.167 NA
HETATM    5  N8  UNL     1     -33.354  14.458  -3.663  1.00 20.00    -0.159 NA
ENDROOT
BRANCH   2   6
HETATM    6  C6  UNL     1     -33.194  16.454  -5.043  1.00 20.00     0.035 A 
HETATM    7  C4  UNL     1     -33.975  17.355  -5.959  1.00 20.00     0.011 A 
HETATM    8  C5  UNL     1     -33.867  17.684  -4.499  1.00 20.00     0.011 A 
ENDBRANCH   2   6
TORSDOF 1
ENDMDL
MODEL 9
REMARK VINA RESULT:      -3.5     10.434     11.227
REMARK  1 active torsions:
REMARK  status: ('A' for Active; 'I' for Inactive)
REMARK    1  A    between atoms: C2_2  and  C6_6 
ROOT
HETATM    1  C1  UNL     1     -41.720   6.342  -2.032  1.00 20.00     0.119 A 
HETATM    2  C2  UNL     1     -41.905   4.140  -2.244  1.00 20.00     0.043 A 
HETATM    3  C3  UNL     1     -42.564   5.361  -2.762  1.00 20.00     0.105 A 
HETATM    4  N7  UNL     1     -40.813   5.793  -1.291  1.00 20.00    -0.167 NA
HETATM    5  N8  UNL     1     -40.929   4.372  -1.427  1.00 20.00    -0.159 NA
ENDROOT
BRANCH   2   6
HETATM    6  C6  UNL     1     -42.322   2.786  -2.632  1.00 20.00     0.035 A 
HETATM    7  C4  UNL     1     -42.906   2.557  -3.999  1.00 20.00     0.011 A 
HETATM    8  C5  UNL     1     -41.533   2.046  -3.677  1.00 20.00     0.011 A 
ENDBRANCH   2   6
TORSDOF 1
ENDMDL
