MODEL 1
REMARK VINA RESULT:      -5.0      0.000      0.000
REMARK  0 active torsions:
REMARK  status: ('A' for Active; 'I' for Inactive)
ROOT
HETATM    1  C1  UNL     1     -33.821  15.896  -4.836  1.00 20.00     0.136 C 
HETATM    2  C2  UNL     1     -34.743  15.391  -5.921  1.00 20.00     0.084 C 
HETATM    3  C3  UNL     1     -35.371  16.779  -2.277  1.00 20.00     0.002 C 
HETATM    4  C4  UNL     1     -36.276  16.199  -3.383  1.00 20.00     0.006 C 
HETATM    5  C5  UNL     1     -34.434  13.155  -4.804  1.00 20.00     0.006 C 
HETATM    6  C6  UNL     1     -34.055  15.970  -2.278  1.00 20.00     0.018 C 
HETATM    7  C7  UNL     1     -33.523  13.765  -3.697  1.00 20.00     0.018 C 
HETATM    8  C8  UNL     1     -35.459  14.291  -5.113  1.00 20.00    -0.002 C 
HETATM    9  C9  UNL     1     -35.627  14.865  -3.710  1.00 20.00     0.006 C 
HETATM   10  C10 UNL     1     -34.134  15.151  -3.536  1.00 20.00     0.024 C 
HETATM   11  O11 UNL     1     -32.954  16.742  -4.987  1.00 20.00    -0.297 OA
ENDROOT
TORSDOF 0
ENDMDL
MODEL 2
REMARK VINA RESULT:      -4.9      1.782      2.750
REMARK  0 active torsions:
REMARK  status: ('A' for Active; 'I' for Inactive)
ROOT
HETATM    1  C1  UNL     1     -35.057  13.763  -5.034  1.00 20.00     0.136 C 
HETATM    2  C2  UNL     1     -35.119  14.170  -6.487  1.00 20.00     0.084 C 
HETATM    3  C3  UNL     1     -33.293  15.696  -3.335  1.00 20.00     0.002 C 
HETATM    4  C4  UNL     1     -33.430  16.117  -4.812  1.00 20.00     0.006 C 
HETATM    5  C5  UNL     1     -37.098  15.549  -5.764  1.00 20.00     0.006 C 
HETATM    6  C6  UNL     1     -34.653  15.115  -2.886  1.00 20.00     0.018 C 
HETATM    7  C7  UNL     1     -36.939  15.110  -4.277  1.00 20.00     0.018 C 
HETATM    8  C8  UNL     1     -35.632  15.611  -6.295  1.00 20.00    -0.002 C 
HETATM    9  C9  UNL     1     -34.932  16.124  -5.041  1.00 20.00     0.006 C 
HETATM   10  C10 UNL     1     -35.426  14.970  -4.167  1.00 20.00     0.024 C 
HETATM   11  O11 UNL     1     -34.781  12.646  -4.627  1.00 20.00    -0.297 OA
ENDROOT
TORSDOF 0
ENDMDL
MODEL 3
REMARK VINA RESULT:      -4.8      1.663      2.925
REMARK  0 active torsions:
REMARK  status: ('A' for Active; 'I' for Inactive)
ROOT
HETATM    1  C1  UNL     1     -34.458  13.791  -4.607  1.00 20.00     0.136 C 
HETATM    2  C2  UNL     1     -33.357  14.242  -3.677  1.00 20.00     0.084 C 
HETATM    3  C3  UNL     1     -37.228  15.005  -3.840  1.00 20.00     0.002 C 
HETATM    4  C4  UNL     1     -36.067  15.494  -2.949  1.00 20.00     0.006 C 
HETATM    5  C5  UNL     1     -33.109  16.157  -5.292  1.00 20.00     0.006 C 
HETATM    6  C6  UNL     1     -36.688  14.877  -5.282  1.00 20.00     0.018 C 
HETATM    7  C7  UNL     1     -34.286  15.645  -6.176  1.00 20.00     0.018 C 
HETATM    8  C8  UNL     1     -33.531  15.764  -3.842  1.00 20.00    -0.002 C 
HETATM    9  C9  UNL     1     -35.036  15.988  -3.949  1.00 20.00     0.006 C 
HETATM   10  C10 UNL     1     -35.200  15.025  -5.127  1.00 20.00     0.024 C 
HETATM   11  O11 UNL     1     -34.695  12.633  -4.908  1.00 20.00    -0.297 OA
ENDROOT
TORSDOF 0
ENDMDL
MODEL 4
REMARK VINA RESULT:      -4.8      1.678      3.089
REMARK  0 active torsions:
REMARK  status: ('A' for Active; 'I' for Inactive)
ROOT
HETATM    1  C1  UNL     1     -35.847  14.896  -3.655  1.00 20.00     0.136 C 
HETATM    2  C2  UNL     1     -34.812  15.443  -2.700  1.00 20.00     0.084 C 
HETATM    3  C3  UNL     1     -35.792  16.343  -6.419  1.00 20.00     0.002 C 
HETATM    4  C4  UNL     1     -34.706  16.833  -5.440  1.00 20.00     0.006 C 
HETATM    5  C5  UNL     1     -33.303  13.706  -3.725  1.00 20.00     0.006 C 
HETATM    6  C6  UNL     1     -35.945  14.818  -6.222  1.00 20.00     0.018 C 
HETATM    7  C7  UNL     1     -34.416  13.230  -4.706  1.00 20.00     0.018 C 
HETATM    8  C8  UNL     1     -33.563  15.239  -3.581  1.00 20.00    -0.002 C 
HETATM    9  C9  UNL     1     -34.018  15.551  -5.003  1.00 20.00     0.006 C 
HETATM   10  C10 UNL     1     -35.159  14.533  -4.973  1.00 20.00     0.024 C 
HETATM   11  O11 UNL     1     -37.031  14.749  -3.401  1.00 20.00    -0.297 OA
ENDROOT
TORSDOF 0
ENDMDL
MODEL 5
REMARK VINA RESULT:      -4.8      1.830      2.757
REMARK  0 active torsions:
REMARK  status: ('A' for Active; 'I' for Inactive)
ROOT
HETATM    1  C1  UNL     1     -36.331  14.370  -4.092  1.00 20.00     0.136 C 
HETATM    2  C2  UNL     1     -35.248  13.333  -4.272  1.00 20.00     0.084 C 
HETATM    3  C3  UNL     1     -35.427  16.720  -2.250  1.00 20.00     0.002 C 
HETATM    4  C4  UNL     1     -34.325  15.673  -2.507  1.00 20.00     0.006 C 
HETATM    5  C5  UNL     1     -34.542  14.761  -6.222  1.00 20.00     0.006 C 
HETATM    6  C6  UNL     1     -36.232  16.882  -3.559  1.00 20.00     0.018 C 
HETATM    7  C7  UNL     1     -35.663  15.806  -5.941  1.00 20.00     0.018 C 
HETATM    8  C8  UNL     1     -34.135  14.259  -4.802  1.00 20.00    -0.002 C 
HETATM    9  C9  UNL     1     -34.288  15.560  -4.021  1.00 20.00     0.006 C 
HETATM   10  C10 UNL     1     -35.753  15.749  -4.422  1.00 20.00     0.024 C 
HETATM   11  O11 UNL     1     -37.482  14.136  -3.761  1.00 20.00    -0.297 OA
ENDROOT
TORSDOF 0
ENDMDL
MODEL 6
REMARK VINA RESULT:      -4.8      0.861      3.145
REMARK  0 active torsions:
REMARK  status: ('A' for Active; 'I' for Inactive)
ROOT
HETATM    1  C1  UNL     1     -33.690  16.219  -4.251  1.00 20.00     0.136 C 
HETATM    2  C2  UNL     1     -33.567  16.224  -2.746  1.00 20.00     0.084 C 
HETATM    3  C3  UNL     1     -34.723  13.487  -5.347  1.00 20.00     0.002 C 
HETATM    4  C4  UNL     1     -34.645  13.549  -3.808  1.00 20.00     0.006 C 
HETATM    5  C5  UNL     1     -35.962  17.002  -2.796  1.00 20.00     0.006 C 
HETATM    6  C6  UNL     1     -35.188  14.873  -5.848  1.00 20.00     0.018 C 
HETATM    7  C7  UNL     1     -36.017  16.930  -4.351  1.00 20.00     0.018 C 
HETATM    8  C8  UNL     1     -35.016  15.826  -2.400  1.00 20.00    -0.002 C 
HETATM    9  C9  UNL     1     -35.419  14.810  -3.464  1.00 20.00     0.006 C 
HETATM   10  C10 UNL     1     -35.097  15.748  -4.629  1.00 20.00     0.024 C 
HETATM   11  O11 UNL     1     -32.815  16.560  -5.030  1.00 20.00    -0.297 OA
ENDROOT
TORSDOF 0
ENDMDL
MODEL 7
REMARK VINA RESULT:      -4.8      1.211      3.053
REMARK  0 active torsions:
REMARK  status: ('A' for Active; 'I' for Inactive)
ROOT
HETATM    1  C1  UNL     1     -34.835  16.339  -4.651  1.00 20.00     0.136 C 
HETATM    2  C2  UNL     1     -33.358  16.614  -4.491  1.00 20.00     0.084 C 
HETATM    3  C3  UNL     1     -35.491  13.291  -4.559  1.00 20.00     0.002 C 
HETATM    4  C4  UNL     1     -34.000  13.612  -4.336  1.00 20.00     0.006 C 
HETATM    5  C5  UNL     1     -33.884  16.669  -2.028  1.00 20.00     0.006 C 
HETATM    6  C6  UNL     1     -36.317  14.394  -3.860  1.00 20.00     0.018 C 
HETATM    7  C7  UNL     1     -35.386  16.341  -2.279  1.00 20.00     0.018 C 
HETATM    8  C8  UNL     1     -33.137  15.883  -3.152  1.00 20.00    -0.002 C 
HETATM    9  C9  UNL     1     -34.021  14.642  -3.220  1.00 20.00     0.006 C 
HETATM   10  C10 UNL     1     -35.297  15.438  -3.502  1.00 20.00     0.024 C 
HETATM   11  O11 UNL     1     -35.542  16.787  -5.539  1.00 20.00    -0.297 OA
ENDROOT
TORSDOF 0
ENDMDL
MODEL 8
REMARK VINA RESULT:      -4.6     12.027     13.005
REMARK  0 active torsions:
REMARK  status: ('A' for Active; 'I' for Inactive)
ROOT
HETATM    1  C1  UNL     1     -41.076   5.308  -1.118  1.00 20.00     0.136 C 
HETATM    2  C2  UNL     1     -40.772   6.734  -0.725  1.00 20.00     0.084 C 
HETATM    3  C3  UNL     1     -43.417   4.092   0.546  1.00 20.00     0.002 C 
HETATM    4  C4  UNL     1     -43.121   5.569   0.878  1.00 20.00     0.006 C 
HETATM    5  C5  UNL     1     -42.490   7.324  -2.469  1.00 20.00     0.006 C 
HETATM    6  C6  UNL     1     -43.226   3.907  -0.975  1.00 20.00     0.018 C 
HETATM    7  C7  UNL     1     -42.774   5.825  -2.785  1.00 20.00     0.018 C 
HETATM    8  C8  UNL     1     -42.176   7.331  -0.940  1.00 20.00    -0.002 C 
HETATM    9  C9  UNL     1     -43.148   6.250  -0.479  1.00 20.00     0.006 C 
HETATM   10  C10 UNL     1     -42.572   5.187  -1.417  1.00 20.00     0.024 C 
HETATM   11  O11 UNL     1     -40.253   4.411  -1.205  1.00 20.00    -0.297 OA
ENDROOT
TORSDOF 0
ENDMDL
MODEL 9
REMARK VINA RESULT:      -4.6      1.611      3.188
REMARK  0 active torsions:
REMARK  status: ('A' for Active; 'I' for Inactive)
ROOT
HETATM    1  C1  UNL     1     -36.010  15.116  -4.750  1.00 20.00     0.136 C 
HETATM    2  C2  UNL     1     -35.581  15.576  -3.377  1.00 20.00     0.084 C 
HETATM    3  C3  UNL     1     -34.308  16.412  -7.020  1.00 20.00     0.002 C 
HETATM    4  C4  UNL     1     -33.856  16.810  -5.601  1.00 20.00     0.006 C 
HETATM    5  C5  UNL     1     -33.998  13.620  -3.483  1.00 20.00     0.006 C 
HETATM    6  C6  UNL     1     -34.737  14.928  -6.975  1.00 20.00     0.018 C 
HETATM    7  C7  UNL     1     -34.470  13.238  -4.918  1.00 20.00     0.018 C 
HETATM    8  C8  UNL     1     -34.094  15.178  -3.460  1.00 20.00    -0.002 C 
HETATM    9  C9  UNL     1     -33.678  15.476  -4.897  1.00 20.00     0.006 C 
HETATM   10  C10 UNL     1     -34.780  14.608  -5.507  1.00 20.00     0.024 C 
HETATM   11  O11 UNL     1     -37.156  15.128  -5.170  1.00 20.00    -0.297 OA
ENDROOT
TORSDOF 0
ENDMDL
