MODEL 1
REMARK VINA RESULT:      -5.1      0.000      0.000
REMARK  0 active torsions:
REMARK  status: ('A' for Active; 'I' for Inactive)
ROOT
HETATM    1  C1  UNL     1     -34.464  13.552  -4.329  1.00 20.00     0.136 C 
HETATM    2  C2  UNL     1     -33.116  13.827  -3.669  1.00 20.00     0.084 C 
HETATM    3  C3  UNL     1     -36.992  16.177  -3.346  1.00 20.00     0.002 C 
HETATM    4  C4  UNL     1     -35.628  16.600  -2.762  1.00 20.00     0.006 C 
HETATM    5  C5  UNL     1     -33.247  16.143  -4.660  1.00 20.00     0.006 C 
HETATM    6  C6  UNL     1     -36.748  14.932  -4.231  1.00 20.00     0.018 C 
HETATM    7  C7  UNL     1     -34.563  15.764  -5.362  1.00 20.00     0.018 C 
HETATM    8  C8  UNL     1     -33.302  15.343  -3.346  1.00 20.00    -0.002 C 
HETATM    9  C9  UNL     1     -34.778  15.362  -2.966  1.00 20.00     0.006 C 
HETATM   10  C10 UNL     1     -35.251  14.843  -4.333  1.00 20.00     0.024 C 
HETATM   11  O11 UNL     1     -34.827  12.485  -4.793  1.00 20.00    -0.297 OA
ENDROOT
TORSDOF 0
ENDMDL
MODEL 2
REMARK VINA RESULT:      -5.1      1.487      2.783
REMARK  0 active torsions:
REMARK  status: ('A' for Active; 'I' for Inactive)
ROOT
HETATM    1  C1  UNL     1     -36.313  14.576  -3.943  1.00 20.00     0.136 C 
HETATM    2  C2  UNL     1     -35.502  15.239  -2.832  1.00 20.00     0.084 C 
HETATM    3  C3  UNL     1     -34.761  15.258  -7.316  1.00 20.00     0.002 C 
HETATM    4  C4  UNL     1     -33.814  15.831  -6.242  1.00 20.00     0.006 C 
HETATM    5  C5  UNL     1     -33.488  14.037  -3.760  1.00 20.00     0.006 C 
HETATM    6  C6  UNL     1     -35.887  14.496  -6.578  1.00 20.00     0.018 C 
HETATM    7  C7  UNL     1     -34.385  13.344  -4.800  1.00 20.00     0.018 C 
HETATM    8  C8  UNL     1     -34.147  15.418  -3.587  1.00 20.00    -0.002 C 
HETATM    9  C9  UNL     1     -34.654  15.761  -4.983  1.00 20.00     0.006 C 
HETATM   10  C10 UNL     1     -35.416  14.437  -5.152  1.00 20.00     0.024 C 
HETATM   11  O11 UNL     1     -37.470  14.204  -3.856  1.00 20.00    -0.297 OA
ENDROOT
TORSDOF 0
ENDMDL
MODEL 3
REMARK VINA RESULT:      -4.9      1.686      2.682
REMARK  0 active torsions:
REMARK  status: ('A' for Active; 'I' for Inactive)
ROOT
HETATM    1  C1  UNL     1     -34.220  15.478  -5.562  1.00 20.00     0.136 C 
HETATM    2  C2  UNL     1     -34.914  14.123  -5.444  1.00 20.00     0.084 C 
HETATM    3  C3  UNL     1     -34.152  17.236  -2.222  1.00 20.00     0.002 C 
HETATM    4  C4  UNL     1     -34.733  15.825  -1.995  1.00 20.00     0.006 C 
HETATM    5  C5  UNL     1     -33.302  13.603  -3.576  1.00 20.00     0.006 C 
HETATM    6  C6  UNL     1     -33.685  17.311  -3.694  1.00 20.00     0.018 C 
HETATM    7  C7  UNL     1     -32.602  14.953  -3.809  1.00 20.00     0.018 C 
HETATM    8  C8  UNL     1     -34.775  13.906  -3.905  1.00 20.00    -0.002 C 
HETATM    9  C9  UNL     1     -34.977  15.332  -3.407  1.00 20.00     0.006 C 
HETATM   10  C10 UNL     1     -33.770  15.890  -4.178  1.00 20.00     0.024 C 
HETATM   11  O11 UNL     1     -34.041  16.101  -6.594  1.00 20.00    -0.297 OA
ENDROOT
TORSDOF 0
ENDMDL
MODEL 4
REMARK VINA RESULT:      -4.9      1.351      1.996
REMARK  0 active torsions:
REMARK  status: ('A' for Active; 'I' for Inactive)
ROOT
HETATM    1  C1  UNL     1     -36.311  14.354  -3.914  1.00 20.00     0.136 C 
HETATM    2  C2  UNL     1     -35.213  13.380  -4.330  1.00 20.00     0.084 C 
HETATM    3  C3  UNL     1     -34.867  17.232  -1.945  1.00 20.00     0.002 C 
HETATM    4  C4  UNL     1     -33.689  16.374  -2.450  1.00 20.00     0.006 C 
HETATM    5  C5  UNL     1     -34.016  15.358  -5.338  1.00 20.00     0.006 C 
HETATM    6  C6  UNL     1     -36.157  16.661  -2.577  1.00 20.00     0.018 C 
HETATM    7  C7  UNL     1     -35.200  16.263  -4.959  1.00 20.00     0.018 C 
HETATM    8  C8  UNL     1     -33.978  14.326  -4.197  1.00 20.00    -0.002 C 
HETATM    9  C9  UNL     1     -34.379  15.127  -2.963  1.00 20.00     0.006 C 
HETATM   10  C10 UNL     1     -35.659  15.683  -3.605  1.00 20.00     0.024 C 
HETATM   11  O11 UNL     1     -37.504  14.108  -3.867  1.00 20.00    -0.297 OA
ENDROOT
TORSDOF 0
ENDMDL
MODEL 5
REMARK VINA RESULT:      -4.8      1.103      2.832
REMARK  0 active torsions:
REMARK  status: ('A' for Active; 'I' for Inactive)
ROOT
HETATM    1  C1  UNL     1     -33.915  13.730  -4.056  1.00 20.00     0.136 C 
HETATM    2  C2  UNL     1     -35.271  13.130  -4.413  1.00 20.00     0.084 C 
HETATM    3  C3  UNL     1     -33.636  17.263  -5.356  1.00 20.00     0.002 C 
HETATM    4  C4  UNL     1     -35.075  16.778  -5.626  1.00 20.00     0.006 C 
HETATM    5  C5  UNL     1     -36.311  15.151  -3.323  1.00 20.00     0.006 C 
HETATM    6  C6  UNL     1     -32.930  16.169  -4.522  1.00 20.00     0.018 C 
HETATM    7  C7  UNL     1     -34.912  15.653  -2.925  1.00 20.00     0.018 C 
HETATM    8  C8  UNL     1     -36.067  14.448  -4.670  1.00 20.00    -0.002 C 
HETATM    9  C9  UNL     1     -34.988  15.294  -5.336  1.00 20.00     0.006 C 
HETATM   10  C10 UNL     1     -34.041  15.236  -4.128  1.00 20.00     0.024 C 
HETATM   11  O11 UNL     1     -32.916  13.104  -3.744  1.00 20.00    -0.297 OA
ENDROOT
TORSDOF 0
ENDMDL
MODEL 6
REMARK VINA RESULT:      -4.8      1.874      3.140
REMARK  0 active torsions:
REMARK  status: ('A' for Active; 'I' for Inactive)
ROOT
HETATM    1  C1  UNL     1     -34.780  16.978  -4.705  1.00 20.00     0.136 C 
HETATM    2  C2  UNL     1     -33.801  17.554  -3.686  1.00 20.00     0.084 C 
HETATM    3  C3  UNL     1     -34.488  13.218  -4.861  1.00 20.00     0.002 C 
HETATM    4  C4  UNL     1     -33.579  13.710  -3.716  1.00 20.00     0.006 C 
HETATM    5  C5  UNL     1     -34.807  15.960  -2.010  1.00 20.00     0.006 C 
HETATM    6  C6  UNL     1     -35.274  14.443  -5.384  1.00 20.00     0.018 C 
HETATM    7  C7  UNL     1     -35.817  15.488  -3.070  1.00 20.00     0.018 C 
HETATM    8  C8  UNL     1     -33.545  16.270  -2.835  1.00 20.00    -0.002 C 
HETATM    9  C9  UNL     1     -33.552  15.210  -3.930  1.00 20.00     0.006 C 
HETATM   10  C10 UNL     1     -34.991  15.518  -4.372  1.00 20.00     0.024 C 
HETATM   11  O11 UNL     1     -35.315  17.596  -5.610  1.00 20.00    -0.297 OA
ENDROOT
TORSDOF 0
ENDMDL
MODEL 7
REMARK VINA RESULT:      -4.8      1.152      2.511
REMARK  0 active torsions:
REMARK  status: ('A' for Active; 'I' for Inactive)
ROOT
HETATM    1  C1  UNL     1     -34.826  13.793  -5.188  1.00 20.00     0.136 C 
HETATM    2  C2  UNL     1     -34.721  14.222  -6.649  1.00 20.00     0.084 C 
HETATM    3  C3  UNL     1     -33.698  16.572  -2.896  1.00 20.00     0.002 C 
HETATM    4  C4  UNL     1     -33.702  17.126  -4.335  1.00 20.00     0.006 C 
HETATM    5  C5  UNL     1     -36.115  16.230  -6.026  1.00 20.00     0.006 C 
HETATM    6  C6  UNL     1     -34.307  15.151  -2.947  1.00 20.00     0.018 C 
HETATM    7  C7  UNL     1     -36.244  15.691  -4.591  1.00 20.00     0.018 C 
HETATM    8  C8  UNL     1     -34.708  15.771  -6.452  1.00 20.00    -0.002 C 
HETATM    9  C9  UNL     1     -33.884  15.878  -5.174  1.00 20.00     0.006 C 
HETATM   10  C10 UNL     1     -34.867  15.044  -4.339  1.00 20.00     0.024 C 
HETATM   11  O11 UNL     1     -34.891  12.644  -4.784  1.00 20.00    -0.297 OA
ENDROOT
TORSDOF 0
ENDMDL
MODEL 8
REMARK VINA RESULT:      -4.8      1.763      3.236
REMARK  0 active torsions:
REMARK  status: ('A' for Active; 'I' for Inactive)
ROOT
HETATM    1  C1  UNL     1     -33.587  14.908  -4.082  1.00 20.00     0.136 C 
HETATM    2  C2  UNL     1     -34.128  13.568  -3.594  1.00 20.00     0.084 C 
HETATM    3  C3  UNL     1     -34.852  15.672  -7.556  1.00 20.00     0.002 C 
HETATM    4  C4  UNL     1     -35.552  14.384  -7.077  1.00 20.00     0.006 C 
HETATM    5  C5  UNL     1     -36.431  14.448  -4.126  1.00 20.00     0.006 C 
HETATM    6  C6  UNL     1     -34.032  16.222  -6.365  1.00 20.00     0.018 C 
HETATM    7  C7  UNL     1     -35.817  15.801  -4.525  1.00 20.00     0.018 C 
HETATM    8  C8  UNL     1     -35.355  13.432  -4.550  1.00 20.00    -0.002 C 
HETATM    9  C9  UNL     1     -34.773  14.024  -5.828  1.00 20.00     0.006 C 
HETATM   10  C10 UNL     1     -34.488  15.395  -5.195  1.00 20.00     0.024 C 
HETATM   11  O11 UNL     1     -32.614  15.491  -3.634  1.00 20.00    -0.297 OA
ENDROOT
TORSDOF 0
ENDMDL
MODEL 9
REMARK VINA RESULT:      -4.7     10.970     12.080
REMARK  0 active torsions:
REMARK  status: ('A' for Active; 'I' for Inactive)
ROOT
HETATM    1  C1  UNL     1     -42.912   6.574  -2.893  1.00 20.00     0.136 C 
HETATM    2  C2  UNL     1     -42.940   8.032  -2.444  1.00 20.00     0.084 C 
HETATM    3  C3  UNL     1     -40.453   4.589  -0.830  1.00 20.00     0.002 C 
HETATM    4  C4  UNL     1     -40.531   6.006  -0.227  1.00 20.00     0.006 C 
HETATM    5  C5  UNL     1     -43.378   7.174  -0.113  1.00 20.00     0.006 C 
HETATM    6  C6  UNL     1     -41.527   4.500  -1.938  1.00 20.00     0.018 C 
HETATM    7  C7  UNL     1     -43.417   5.734  -0.655  1.00 20.00     0.018 C 
HETATM    8  C8  UNL     1     -42.337   7.864  -1.014  1.00 20.00    -0.002 C 
HETATM    9  C9  UNL     1     -41.302   6.776  -1.279  1.00 20.00     0.006 C 
HETATM   10  C10 UNL     1     -42.341   5.751  -1.760  1.00 20.00     0.024 C 
HETATM   11  O11 UNL     1     -43.306   6.150  -3.966  1.00 20.00    -0.297 OA
ENDROOT
TORSDOF 0
ENDMDL
