MODEL 1
REMARK VINA RESULT:      -4.1      0.000      0.000
REMARK  2 active torsions:
REMARK  status: ('A' for Active; 'I' for Inactive)
REMARK    1  A    between atoms: C1_1  and  C8_8 
REMARK    2  A    between atoms: C8_8  and  O9_9 
ROOT
HETATM    1  C1  UNL     1     -35.211  14.915  -4.239  1.00 20.00     0.026 A 
HETATM    2  C2  UNL     1     -34.067  15.563  -3.474  1.00 20.00    -0.034 A 
HETATM    3  C3  UNL     1     -34.680  16.262  -4.707  1.00 20.00    -0.034 A 
HETATM    4  C4  UNL     1     -34.379  16.095  -2.090  1.00 20.00     0.016 C 
HETATM    5  C5  UNL     1     -32.669  14.990  -3.547  1.00 20.00     0.016 C 
HETATM    6  C6  UNL     1     -33.883  16.373  -5.988  1.00 20.00     0.016 C 
HETATM    7  C7  UNL     1     -35.579  17.464  -4.504  1.00 20.00     0.016 C 
ENDROOT
BRANCH   1   8
HETATM    8  C8  UNL     1     -35.061  13.657  -5.025  1.00 20.00     0.170 C 
BRANCH   8   9
HETATM    9  O9  UNL     1     -35.163  12.527  -4.159  1.00 20.00    -0.400 OA
HETATM   10  H25 UNL     1     -35.586  11.825  -4.675  1.00 20.00     0.209 HD
ENDBRANCH   8   9
ENDBRANCH   1   8
TORSDOF 2
ENDMDL
MODEL 2
REMARK VINA RESULT:      -4.0      1.684      3.207
REMARK  2 active torsions:
REMARK  status: ('A' for Active; 'I' for Inactive)
REMARK    1  A    between atoms: C1_1  and  C8_8 
REMARK    2  A    between atoms: C8_8  and  O9_9 
ROOT
HETATM    1  C1  UNL     1     -35.861  14.466  -4.243  1.00 20.00     0.026 A 
HETATM    2  C2  UNL     1     -34.971  15.295  -5.158  1.00 20.00    -0.034 A 
HETATM    3  C3  UNL     1     -34.439  14.783  -3.802  1.00 20.00    -0.034 A 
HETATM    4  C4  UNL     1     -34.495  14.634  -6.436  1.00 20.00     0.016 C 
HETATM    5  C5  UNL     1     -35.234  16.770  -5.359  1.00 20.00     0.016 C 
HETATM    6  C6  UNL     1     -34.183  15.757  -2.673  1.00 20.00     0.016 C 
HETATM    7  C7  UNL     1     -33.453  13.633  -3.780  1.00 20.00     0.016 C 
ENDROOT
BRANCH   1   8
HETATM    8  C8  UNL     1     -37.071  15.012  -3.564  1.00 20.00     0.170 C 
BRANCH   8   9
HETATM    9  O9  UNL     1     -38.182  14.142  -3.778  1.00 20.00    -0.400 OA
HETATM   10  H25 UNL     1     -38.476  14.293  -4.689  1.00 20.00     0.209 HD
ENDBRANCH   8   9
ENDBRANCH   1   8
TORSDOF 2
ENDMDL
MODEL 3
REMARK VINA RESULT:      -3.9      1.698      2.545
REMARK  2 active torsions:
REMARK  status: ('A' for Active; 'I' for Inactive)
REMARK    1  A    between atoms: C1_1  and  C8_8 
REMARK    2  A    between atoms: C8_8  and  O9_9 
ROOT
HETATM    1  C1  UNL     1     -35.772  14.737  -3.477  1.00 20.00     0.026 A 
HETATM    2  C2  UNL     1     -34.505  14.621  -4.311  1.00 20.00    -0.034 A 
HETATM    3  C3  UNL     1     -34.823  15.925  -3.548  1.00 20.00    -0.034 A 
HETATM    4  C4  UNL     1     -33.418  13.704  -3.787  1.00 20.00     0.016 C 
HETATM    5  C5  UNL     1     -34.576  14.593  -5.822  1.00 20.00     0.016 C 
HETATM    6  C6  UNL     1     -35.210  17.174  -4.310  1.00 20.00     0.016 C 
HETATM    7  C7  UNL     1     -34.043  16.257  -2.293  1.00 20.00     0.016 C 
ENDROOT
BRANCH   1   8
HETATM    8  C8  UNL     1     -37.141  14.746  -4.066  1.00 20.00     0.170 C 
BRANCH   8   9
HETATM    9  O9  UNL     1     -38.117  14.816  -3.027  1.00 20.00    -0.400 OA
HETATM   10  H25 UNL     1     -38.966  14.993  -3.460  1.00 20.00     0.209 HD
ENDBRANCH   8   9
ENDBRANCH   1   8
TORSDOF 2
ENDMDL
MODEL 4
REMARK VINA RESULT:      -3.9      1.074      2.470
REMARK  2 active torsions:
REMARK  status: ('A' for Active; 'I' for Inactive)
REMARK    1  A    between atoms: C1_1  and  C8_8 
REMARK    2  A    between atoms: C8_8  and  O9_9 
ROOT
HETATM    1  C1  UNL     1     -34.253  14.689  -4.433  1.00 20.00     0.026 A 
HETATM    2  C2  UNL     1     -34.534  16.116  -4.881  1.00 20.00    -0.034 A 
HETATM    3  C3  UNL     1     -35.084  15.596  -3.535  1.00 20.00    -0.034 A 
HETATM    4  C4  UNL     1     -33.364  17.080  -4.879  1.00 20.00     0.016 C 
HETATM    5  C5  UNL     1     -35.480  16.392  -6.028  1.00 20.00     0.016 C 
HETATM    6  C6  UNL     1     -36.568  15.359  -3.364  1.00 20.00     0.016 C 
HETATM    7  C7  UNL     1     -34.441  16.060  -2.244  1.00 20.00     0.016 C 
ENDROOT
BRANCH   1   8
HETATM    8  C8  UNL     1     -34.808  13.491  -5.124  1.00 20.00     0.170 C 
BRANCH   8   9
HETATM    9  O9  UNL     1     -35.118  12.478  -4.167  1.00 20.00    -0.400 OA
HETATM   10  H25 UNL     1     -34.476  11.765  -4.306  1.00 20.00     0.209 HD
ENDBRANCH   8   9
ENDBRANCH   1   8
TORSDOF 2
ENDMDL
MODEL 5
REMARK VINA RESULT:      -3.9      1.477      2.588
REMARK  2 active torsions:
REMARK  status: ('A' for Active; 'I' for Inactive)
REMARK    1  A    between atoms: C1_1  and  C8_8 
REMARK    2  A    between atoms: C8_8  and  O9_9 
ROOT
HETATM    1  C1  UNL     1     -35.683  15.482  -4.632  1.00 20.00     0.026 A 
HETATM    2  C2  UNL     1     -34.187  15.762  -4.609  1.00 20.00    -0.034 A 
HETATM    3  C3  UNL     1     -34.744  14.548  -5.384  1.00 20.00    -0.034 A 
HETATM    4  C4  UNL     1     -33.703  16.974  -5.381  1.00 20.00     0.016 C 
HETATM    5  C5  UNL     1     -33.382  15.549  -3.347  1.00 20.00     0.016 C 
HETATM    6  C6  UNL     1     -34.487  13.146  -4.880  1.00 20.00     0.016 C 
HETATM    7  C7  UNL     1     -34.794  14.597  -6.898  1.00 20.00     0.016 C 
ENDROOT
BRANCH   1   8
HETATM    8  C8  UNL     1     -36.456  15.068  -3.427  1.00 20.00     0.170 C 
BRANCH   8   9
HETATM    9  O9  UNL     1     -37.561  14.253  -3.815  1.00 20.00    -0.400 OA
HETATM   10  H25 UNL     1     -38.018  14.730  -4.523  1.00 20.00     0.209 HD
ENDBRANCH   8   9
ENDBRANCH   1   8
TORSDOF 2
ENDMDL
MODEL 6
REMARK VINA RESULT:      -3.9      1.533      2.467
REMARK  2 active torsions:
REMARK  status: ('A' for Active; 'I' for Inactive)
REMARK    1  A    between atoms: C1_1  and  C8_8 
REMARK    2  A    between atoms: C8_8  and  O9_9 
ROOT
HETATM    1  C1  UNL     1     -34.940  14.434  -5.593  1.00 20.00     0.026 A 
HETATM    2  C2  UNL     1     -35.794  15.603  -5.126  1.00 20.00    -0.034 A 
HETATM    3  C3  UNL     1     -34.468  15.853  -5.877  1.00 20.00    -0.034 A 
HETATM    4  C4  UNL     1     -37.107  15.826  -5.849  1.00 20.00     0.016 C 
HETATM    5  C5  UNL     1     -35.905  15.937  -3.655  1.00 20.00     0.016 C 
HETATM    6  C6  UNL     1     -33.279  16.430  -5.141  1.00 20.00     0.016 C 
HETATM    7  C7  UNL     1     -34.511  16.316  -7.319  1.00 20.00     0.016 C 
ENDROOT
BRANCH   1   8
HETATM    8  C8  UNL     1     -34.237  13.509  -4.659  1.00 20.00     0.170 C 
BRANCH   8   9
HETATM    9  O9  UNL     1     -35.159  12.552  -4.137  1.00 20.00    -0.400 OA
HETATM   10  H25 UNL     1     -36.045  12.886  -4.343  1.00 20.00     0.209 HD
ENDBRANCH   8   9
ENDBRANCH   1   8
TORSDOF 2
ENDMDL
MODEL 7
REMARK VINA RESULT:      -3.8      2.256      3.522
REMARK  2 active torsions:
REMARK  status: ('A' for Active; 'I' for Inactive)
REMARK    1  A    between atoms: C1_1  and  C8_8 
REMARK    2  A    between atoms: C8_8  and  O9_9 
ROOT
HETATM    1  C1  UNL     1     -34.831  15.541  -2.292  1.00 20.00     0.026 A 
HETATM    2  C2  UNL     1     -35.666  15.739  -3.549  1.00 20.00    -0.034 A 
HETATM    3  C3  UNL     1     -34.243  15.146  -3.640  1.00 20.00    -0.034 A 
HETATM    4  C4  UNL     1     -36.861  14.826  -3.732  1.00 20.00     0.016 C 
HETATM    5  C5  UNL     1     -35.941  17.128  -4.081  1.00 20.00     0.016 C 
HETATM    6  C6  UNL     1     -33.124  15.954  -4.257  1.00 20.00     0.016 C 
HETATM    7  C7  UNL     1     -34.075  13.664  -3.909  1.00 20.00     0.016 C 
ENDROOT
BRANCH   1   8
HETATM    8  C8  UNL     1     -34.309  16.669  -1.470  1.00 20.00     0.170 C 
BRANCH   8   9
HETATM    9  O9  UNL     1     -34.972  16.697  -0.206  1.00 20.00    -0.400 OA
HETATM   10  H25 UNL     1     -34.398  16.223   0.414  1.00 20.00     0.209 HD
ENDBRANCH   8   9
ENDBRANCH   1   8
TORSDOF 2
ENDMDL
MODEL 8
REMARK VINA RESULT:      -3.8      1.740      3.053
REMARK  2 active torsions:
REMARK  status: ('A' for Active; 'I' for Inactive)
REMARK    1  A    between atoms: C1_1  and  C8_8 
REMARK    2  A    between atoms: C8_8  and  O9_9 
ROOT
HETATM    1  C1  UNL     1     -33.950  15.697  -4.663  1.00 20.00     0.026 A 
HETATM    2  C2  UNL     1     -34.683  14.659  -5.501  1.00 20.00    -0.034 A 
HETATM    3  C3  UNL     1     -35.472  15.711  -4.692  1.00 20.00    -0.034 A 
HETATM    4  C4  UNL     1     -34.589  14.801  -7.007  1.00 20.00     0.016 C 
HETATM    5  C5  UNL     1     -34.708  13.207  -5.080  1.00 20.00     0.016 C 
HETATM    6  C6  UNL     1     -36.269  15.290  -3.477  1.00 20.00     0.016 C 
HETATM    7  C7  UNL     1     -36.135  16.861  -5.422  1.00 20.00     0.016 C 
ENDROOT
BRANCH   1   8
HETATM    8  C8  UNL     1     -33.157  15.355  -3.447  1.00 20.00     0.170 C 
BRANCH   8   9
HETATM    9  O9  UNL     1     -31.893  14.813  -3.828  1.00 20.00    -0.400 OA
HETATM   10  H25 UNL     1     -32.006  13.851  -3.858  1.00 20.00     0.209 HD
ENDBRANCH   8   9
ENDBRANCH   1   8
TORSDOF 2
ENDMDL
MODEL 9
REMARK VINA RESULT:      -3.8      2.185      3.182
REMARK  2 active torsions:
REMARK  status: ('A' for Active; 'I' for Inactive)
REMARK    1  A    between atoms: C1_1  and  C8_8 
REMARK    2  A    between atoms: C8_8  and  O9_9 
ROOT
HETATM    1  C1  UNL     1     -34.346  15.654  -4.707  1.00 20.00     0.026 A 
HETATM    2  C2  UNL     1     -34.186  14.273  -4.088  1.00 20.00    -0.034 A 
HETATM    3  C3  UNL     1     -35.036  15.353  -3.383  1.00 20.00    -0.034 A 
HETATM    4  C4  UNL     1     -34.883  13.123  -4.785  1.00 20.00     0.016 C 
HETATM    5  C5  UNL     1     -32.863  13.844  -3.492  1.00 20.00     0.016 C 
HETATM    6  C6  UNL     1     -34.544  15.984  -2.099  1.00 20.00     0.016 C 
HETATM    7  C7  UNL     1     -36.546  15.237  -3.405  1.00 20.00     0.016 C 
ENDROOT
BRANCH   1   8
HETATM    8  C8  UNL     1     -33.224  16.625  -4.843  1.00 20.00     0.170 C 
BRANCH   8   9
HETATM    9  O9  UNL     1     -33.740  17.943  -5.028  1.00 20.00    -0.400 OA
HETATM   10  H25 UNL     1     -34.270  17.918  -5.838  1.00 20.00     0.209 HD
ENDBRANCH   8   9
ENDBRANCH   1   8
TORSDOF 2
ENDMDL
