MODEL 1
REMARK VINA RESULT:      -4.4      0.000      0.000
REMARK  1 active torsions:
REMARK  status: ('A' for Active; 'I' for Inactive)
REMARK    1  A    between atoms: C3_3  and  C5_5 
ROOT
HETATM    1  C1  UNL     1     -32.603   7.051   3.199  1.00 20.00     0.221 A 
HETATM    2  C4  UNL     1     -33.973   7.511   3.731  1.00 20.00     0.138 A 
HETATM    3  C5  UNL     1     -34.163   6.033   4.176  1.00 20.00     0.060 A 
HETATM    4  C7  UNL     1     -35.208   5.234   3.414  1.00 20.00     0.044 C 
HETATM    5  N8  UNL     1     -32.824   5.786   3.645  1.00 20.00    -0.348 N 
HETATM    6  O9  UNL     1     -31.672   7.561   2.619  1.00 20.00    -0.273 OA
HETATM    7  H20 UNL     1     -32.245   4.960   3.575  1.00 20.00     0.163 HD
ENDROOT
BRANCH   3   8
HETATM    8  C3  UNL     1     -34.213   5.821   5.639  1.00 20.00    -0.065 C 
HETATM    9  C2  UNL     1     -33.776   6.748   6.505  1.00 20.00     0.016 C 
HETATM   10  C6  UNL     1     -34.781   4.511   6.099  1.00 20.00     0.045 C 
ENDBRANCH   3   8
TORSDOF 1
ENDMDL
MODEL 2
REMARK VINA RESULT:      -4.3     11.622     12.595
REMARK  1 active torsions:
REMARK  status: ('A' for Active; 'I' for Inactive)
REMARK    1  A    between atoms: C3_3  and  C5_5 
ROOT
HETATM    1  C1  UNL     1     -34.561  13.785  -4.194  1.00 20.00     0.221 A 
HETATM    2  C4  UNL     1     -33.233  14.383  -3.694  1.00 20.00     0.138 A 
HETATM    3  C5  UNL     1     -33.871  15.764  -4.018  1.00 20.00     0.060 A 
HETATM    4  C7  UNL     1     -33.273  16.519  -5.193  1.00 20.00     0.044 C 
HETATM    5  N8  UNL     1     -35.066  15.027  -4.422  1.00 20.00    -0.348 N 
HETATM    6  O9  UNL     1     -35.022  12.677  -4.342  1.00 20.00    -0.273 OA
HETATM    7  H20 UNL     1     -35.965  15.307  -4.791  1.00 20.00     0.163 HD
ENDROOT
BRANCH   3   8
HETATM    8  C3  UNL     1     -34.136  16.623  -2.842  1.00 20.00    -0.065 C 
HETATM    9  C2  UNL     1     -34.639  16.127  -1.701  1.00 20.00     0.016 C 
HETATM   10  C6  UNL     1     -33.810  18.079  -2.999  1.00 20.00     0.045 C 
ENDBRANCH   3   8
TORSDOF 1
ENDMDL
MODEL 3
REMARK VINA RESULT:      -4.1     12.027     13.085
REMARK  1 active torsions:
REMARK  status: ('A' for Active; 'I' for Inactive)
REMARK    1  A    between atoms: C3_3  and  C5_5 
ROOT
HETATM    1  C1  UNL     1     -36.547  14.365  -4.240  1.00 20.00     0.221 A 
HETATM    2  C4  UNL     1     -35.243  13.582  -4.474  1.00 20.00     0.138 A 
HETATM    3  C5  UNL     1     -34.762  14.845  -5.242  1.00 20.00     0.060 A 
HETATM    4  C7  UNL     1     -34.615  14.698  -6.747  1.00 20.00     0.044 C 
HETATM    5  N8  UNL     1     -36.049  15.445  -4.898  1.00 20.00    -0.348 N 
HETATM    6  O9  UNL     1     -37.610  14.156  -3.700  1.00 20.00    -0.273 OA
HETATM    7  H20 UNL     1     -36.476  16.340  -5.098  1.00 20.00     0.163 HD
ENDROOT
BRANCH   3   8
HETATM    8  C3  UNL     1     -33.639  15.573  -4.611  1.00 20.00    -0.065 C 
HETATM    9  C2  UNL     1     -32.920  15.038  -3.612  1.00 20.00     0.016 C 
HETATM   10  C6  UNL     1     -33.350  16.942  -5.151  1.00 20.00     0.045 C 
ENDBRANCH   3   8
TORSDOF 1
ENDMDL
MODEL 4
REMARK VINA RESULT:      -4.1     11.582     13.026
REMARK  1 active torsions:
REMARK  status: ('A' for Active; 'I' for Inactive)
REMARK    1  A    between atoms: C3_3  and  C5_5 
ROOT
HETATM    1  C1  UNL     1     -36.607  14.409  -3.961  1.00 20.00     0.221 A 
HETATM    2  C4  UNL     1     -35.523  15.365  -3.432  1.00 20.00     0.138 A 
HETATM    3  C5  UNL     1     -34.572  14.652  -4.435  1.00 20.00     0.060 A 
HETATM    4  C7  UNL     1     -33.490  13.777  -3.825  1.00 20.00     0.044 C 
HETATM    5  N8  UNL     1     -35.728  13.853  -4.837  1.00 20.00    -0.348 N 
HETATM    6  O9  UNL     1     -37.776  14.196  -3.731  1.00 20.00    -0.273 OA
HETATM    7  H20 UNL     1     -35.858  13.105  -5.504  1.00 20.00     0.163 HD
ENDROOT
BRANCH   3   8
HETATM    8  C3  UNL     1     -34.086  15.499  -5.546  1.00 20.00    -0.065 C 
HETATM    9  C2  UNL     1     -34.320  15.187  -6.830  1.00 20.00     0.016 C 
HETATM   10  C6  UNL     1     -33.317  16.727  -5.156  1.00 20.00     0.045 C 
ENDBRANCH   3   8
TORSDOF 1
ENDMDL
MODEL 5
REMARK VINA RESULT:      -4.1      1.005      2.072
REMARK  1 active torsions:
REMARK  status: ('A' for Active; 'I' for Inactive)
REMARK    1  A    between atoms: C3_3  and  C5_5 
ROOT
HETATM    1  C1  UNL     1     -32.761   7.071   3.132  1.00 20.00     0.221 A 
HETATM    2  C4  UNL     1     -32.470   5.826   3.989  1.00 20.00     0.138 A 
HETATM    3  C5  UNL     1     -33.766   6.201   4.762  1.00 20.00     0.060 A 
HETATM    4  C7  UNL     1     -33.577   6.697   6.186  1.00 20.00     0.044 C 
HETATM    5  N8  UNL     1     -33.900   7.320   3.832  1.00 20.00    -0.348 N 
HETATM    6  O9  UNL     1     -32.231   7.640   2.205  1.00 20.00    -0.273 OA
HETATM    7  H20 UNL     1     -34.573   8.069   3.736  1.00 20.00     0.163 HD
ENDROOT
BRANCH   3   8
HETATM    8  C3  UNL     1     -34.882   5.240   4.618  1.00 20.00    -0.065 C 
HETATM    9  C2  UNL     1     -35.812   5.372   3.659  1.00 20.00     0.016 C 
HETATM   10  C6  UNL     1     -34.914   4.110   5.604  1.00 20.00     0.045 C 
ENDBRANCH   3   8
TORSDOF 1
ENDMDL
MODEL 6
REMARK VINA RESULT:      -4.0     11.653     13.208
REMARK  1 active torsions:
REMARK  status: ('A' for Active; 'I' for Inactive)
REMARK    1  A    between atoms: C3_3  and  C5_5 
ROOT
HETATM    1  C1  UNL     1     -34.728  13.646  -4.362  1.00 20.00     0.221 A 
HETATM    2  C4  UNL     1     -35.529  14.936  -4.106  1.00 20.00     0.138 A 
HETATM    3  C5  UNL     1     -34.151  15.656  -4.131  1.00 20.00     0.060 A 
HETATM    4  C7  UNL     1     -33.659  16.208  -2.804  1.00 20.00     0.044 C 
HETATM    5  N8  UNL     1     -33.563  14.346  -4.403  1.00 20.00    -0.348 N 
HETATM    6  O9  UNL     1     -34.979  12.470  -4.485  1.00 20.00    -0.273 OA
HETATM    7  H20 UNL     1     -32.614  14.024  -4.539  1.00 20.00     0.163 HD
ENDROOT
BRANCH   3   8
HETATM    8  C3  UNL     1     -33.950  16.585  -5.265  1.00 20.00    -0.065 C 
HETATM    9  C2  UNL     1     -34.147  16.206  -6.536  1.00 20.00     0.016 C 
HETATM   10  C6  UNL     1     -33.514  17.976  -4.911  1.00 20.00     0.045 C 
ENDBRANCH   3   8
TORSDOF 1
ENDMDL
MODEL 7
REMARK VINA RESULT:      -4.0     11.826     12.592
REMARK  1 active torsions:
REMARK  status: ('A' for Active; 'I' for Inactive)
REMARK    1  A    between atoms: C3_3  and  C5_5 
ROOT
HETATM    1  C1  UNL     1     -34.399  14.711  -6.356  1.00 20.00     0.221 A 
HETATM    2  C4  UNL     1     -34.994  13.676  -5.385  1.00 20.00     0.138 A 
HETATM    3  C5  UNL     1     -34.264  14.478  -4.270  1.00 20.00     0.060 A 
HETATM    4  C7  UNL     1     -33.085  13.784  -3.609  1.00 20.00     0.044 C 
HETATM    5  N8  UNL     1     -33.815  15.382  -5.327  1.00 20.00    -0.348 N 
HETATM    6  O9  UNL     1     -34.413  14.901  -7.551  1.00 20.00    -0.273 OA
HETATM    7  H20 UNL     1     -33.232  16.208  -5.335  1.00 20.00     0.163 HD
ENDROOT
BRANCH   3   8
HETATM    8  C3  UNL     1     -35.153  15.168  -3.310  1.00 20.00    -0.065 C 
HETATM    9  C2  UNL     1     -36.490  15.114  -3.416  1.00 20.00     0.016 C 
HETATM   10  C6  UNL     1     -34.475  15.931  -2.211  1.00 20.00     0.045 C 
ENDBRANCH   3   8
TORSDOF 1
ENDMDL
MODEL 8
REMARK VINA RESULT:      -4.0     11.995     12.743
REMARK  1 active torsions:
REMARK  status: ('A' for Active; 'I' for Inactive)
REMARK    1  A    between atoms: C3_3  and  C5_5 
ROOT
HETATM    1  C1  UNL     1     -37.281  14.857  -3.753  1.00 20.00     0.221 A 
HETATM    2  C4  UNL     1     -35.965  15.018  -4.534  1.00 20.00     0.138 A 
HETATM    3  C5  UNL     1     -35.676  16.204  -3.572  1.00 20.00     0.060 A 
HETATM    4  C7  UNL     1     -35.712  17.592  -4.190  1.00 20.00     0.044 C 
HETATM    5  N8  UNL     1     -36.948  15.885  -2.927  1.00 20.00    -0.348 N 
HETATM    6  O9  UNL     1     -38.248  14.133  -3.806  1.00 20.00    -0.273 OA
HETATM    7  H20 UNL     1     -37.459  16.293  -2.156  1.00 20.00     0.163 HD
ENDROOT
BRANCH   3   8
HETATM    8  C3  UNL     1     -34.536  16.001  -2.651  1.00 20.00    -0.065 C 
HETATM    9  C2  UNL     1     -34.611  16.319  -1.350  1.00 20.00     0.016 C 
HETATM   10  C6  UNL     1     -33.293  15.418  -3.255  1.00 20.00     0.045 C 
ENDBRANCH   3   8
TORSDOF 1
ENDMDL
MODEL 9
REMARK VINA RESULT:      -4.0      9.184     10.543
REMARK  1 active torsions:
REMARK  status: ('A' for Active; 'I' for Inactive)
REMARK    1  A    between atoms: C3_3  and  C5_5 
ROOT
HETATM    1  C1  UNL     1     -41.559   3.197  -2.676  1.00 20.00     0.221 A 
HETATM    2  C4  UNL     1     -42.779   4.110  -2.454  1.00 20.00     0.138 A 
HETATM    3  C5  UNL     1     -41.967   4.709  -1.270  1.00 20.00     0.060 A 
HETATM    4  C7  UNL     1     -42.486   4.397   0.123  1.00 20.00     0.044 C 
HETATM    5  N8  UNL     1     -40.895   3.789  -1.647  1.00 20.00    -0.348 N 
HETATM    6  O9  UNL     1     -41.259   2.306  -3.436  1.00 20.00    -0.273 OA
HETATM    7  H20 UNL     1     -39.976   3.600  -1.270  1.00 20.00     0.163 HD
ENDROOT
BRANCH   3   8
HETATM    8  C3  UNL     1     -41.556   6.119  -1.443  1.00 20.00    -0.065 C 
HETATM    9  C2  UNL     1     -41.937   6.844  -2.505  1.00 20.00     0.016 C 
HETATM   10  C6  UNL     1     -40.688   6.693  -0.361  1.00 20.00     0.045 C 
ENDBRANCH   3   8
TORSDOF 1
ENDMDL
