MODEL 1
REMARK VINA RESULT:      -4.9      0.000      0.000
REMARK  0 active torsions:
REMARK  status: ('A' for Active; 'I' for Inactive)
ROOT
HETATM    1  C1  UNL     1     -34.581  13.786  -4.449  1.00 20.00     0.272 A 
HETATM    2  C2  UNL     1     -33.903  15.783  -5.260  1.00 20.00     0.272 A 
HETATM    3  C3  UNL     1     -34.171  14.553  -3.257  1.00 20.00     0.109 A 
HETATM    4  C4  UNL     1     -33.718  15.890  -3.799  1.00 20.00     0.109 A 
HETATM    5  C5  UNL     1     -34.865  15.823  -2.815  1.00 20.00    -0.021 A 
HETATM    6  C6  UNL     1     -36.270  16.110  -3.282  1.00 20.00     0.016 C 
HETATM    7  C7  UNL     1     -34.594  16.301  -1.411  1.00 20.00     0.016 C 
HETATM    8  O8  UNL     1     -35.019  12.647  -4.412  1.00 20.00    -0.264 OA
HETATM    9  O9  UNL     1     -33.651  16.680  -6.048  1.00 20.00    -0.264 OA
HETATM   10  O10 UNL     1     -34.386  14.539  -5.578  1.00 20.00    -0.244 OA
ENDROOT
TORSDOF 0
ENDMDL
MODEL 2
REMARK VINA RESULT:      -4.8      1.871      2.505
REMARK  0 active torsions:
REMARK  status: ('A' for Active; 'I' for Inactive)
ROOT
HETATM    1  C1  UNL     1     -33.598  13.672  -3.808  1.00 20.00     0.272 A 
HETATM    2  C2  UNL     1     -35.798  14.150  -4.007  1.00 20.00     0.272 A 
HETATM    3  C3  UNL     1     -33.636  15.075  -4.267  1.00 20.00     0.109 A 
HETATM    4  C4  UNL     1     -35.107  15.395  -4.399  1.00 20.00     0.109 A 
HETATM    5  C5  UNL     1     -34.243  16.193  -3.448  1.00 20.00    -0.021 A 
HETATM    6  C6  UNL     1     -34.413  16.025  -1.959  1.00 20.00     0.016 C 
HETATM    7  C7  UNL     1     -33.899  17.605  -3.853  1.00 20.00     0.016 C 
HETATM    8  O8  UNL     1     -32.570  13.055  -3.578  1.00 20.00    -0.264 OA
HETATM    9  O9  UNL     1     -37.011  14.022  -3.978  1.00 20.00    -0.264 OA
HETATM   10  O10 UNL     1     -34.875  13.185  -3.695  1.00 20.00    -0.244 OA
ENDROOT
TORSDOF 0
ENDMDL
MODEL 3
REMARK VINA RESULT:      -4.7      2.071      2.953
REMARK  0 active torsions:
REMARK  status: ('A' for Active; 'I' for Inactive)
ROOT
HETATM    1  C1  UNL     1     -35.981  14.111  -4.044  1.00 20.00     0.272 A 
HETATM    2  C2  UNL     1     -33.796  13.551  -3.908  1.00 20.00     0.272 A 
HETATM    3  C3  UNL     1     -35.256  15.386  -4.214  1.00 20.00     0.109 A 
HETATM    4  C4  UNL     1     -33.795  15.012  -4.123  1.00 20.00     0.109 A 
HETATM    5  C5  UNL     1     -34.332  15.660  -5.380  1.00 20.00    -0.021 A 
HETATM    6  C6  UNL     1     -34.461  14.849  -6.645  1.00 20.00     0.016 C 
HETATM    7  C7  UNL     1     -33.948  17.097  -5.629  1.00 20.00     0.016 C 
HETATM    8  O8  UNL     1     -37.196  14.007  -4.068  1.00 20.00    -0.264 OA
HETATM    9  O9  UNL     1     -32.785  12.877  -3.793  1.00 20.00    -0.264 OA
HETATM   10  O10 UNL     1     -35.086  13.090  -3.851  1.00 20.00    -0.244 OA
ENDROOT
TORSDOF 0
ENDMDL
MODEL 4
REMARK VINA RESULT:      -4.6      2.090      3.391
REMARK  0 active torsions:
REMARK  status: ('A' for Active; 'I' for Inactive)
ROOT
HETATM    1  C1  UNL     1     -33.937  13.657  -3.954  1.00 20.00     0.272 A 
HETATM    2  C2  UNL     1     -35.664  15.080  -3.638  1.00 20.00     0.272 A 
HETATM    3  C3  UNL     1     -34.726  13.570  -5.199  1.00 20.00     0.109 A 
HETATM    4  C4  UNL     1     -35.881  14.521  -4.988  1.00 20.00     0.109 A 
HETATM    5  C5  UNL     1     -34.920  14.742  -6.135  1.00 20.00    -0.021 A 
HETATM    6  C6  UNL     1     -33.957  15.901  -6.094  1.00 20.00     0.016 C 
HETATM    7  C7  UNL     1     -35.426  14.436  -7.522  1.00 20.00     0.016 C 
HETATM    8  O8  UNL     1     -32.909  13.030  -3.750  1.00 20.00    -0.264 OA
HETATM    9  O9  UNL     1     -36.396  15.903  -3.113  1.00 20.00    -0.264 OA
HETATM   10  O10 UNL     1     -34.537  14.529  -3.082  1.00 20.00    -0.244 OA
ENDROOT
TORSDOF 0
ENDMDL
MODEL 5
REMARK VINA RESULT:      -4.6      0.932      2.775
REMARK  0 active torsions:
REMARK  status: ('A' for Active; 'I' for Inactive)
ROOT
HETATM    1  C1  UNL     1     -34.499  15.618  -5.824  1.00 20.00     0.272 A 
HETATM    2  C2  UNL     1     -34.920  13.686  -4.730  1.00 20.00     0.272 A 
HETATM    3  C3  UNL     1     -34.787  16.030  -4.436  1.00 20.00     0.109 A 
HETATM    4  C4  UNL     1     -35.070  14.737  -3.704  1.00 20.00     0.109 A 
HETATM    5  C5  UNL     1     -33.927  15.623  -3.260  1.00 20.00    -0.021 A 
HETATM    6  C6  UNL     1     -32.503  15.183  -3.490  1.00 20.00     0.016 C 
HETATM    7  C7  UNL     1     -34.113  16.391  -1.975  1.00 20.00     0.016 C 
HETATM    8  O8  UNL     1     -34.213  16.394  -6.722  1.00 20.00    -0.264 OA
HETATM    9  O9  UNL     1     -35.064  12.494  -4.513  1.00 20.00    -0.264 OA
HETATM   10  O10 UNL     1     -34.610  14.256  -5.938  1.00 20.00    -0.244 OA
ENDROOT
TORSDOF 0
ENDMDL
MODEL 6
REMARK VINA RESULT:      -4.4      1.926      3.780
REMARK  0 active torsions:
REMARK  status: ('A' for Active; 'I' for Inactive)
ROOT
HETATM    1  C1  UNL     1     -33.634  15.683  -5.194  1.00 20.00     0.272 A 
HETATM    2  C2  UNL     1     -34.630  13.686  -4.837  1.00 20.00     0.272 A 
HETATM    3  C3  UNL     1     -34.345  15.390  -6.454  1.00 20.00     0.109 A 
HETATM    4  C4  UNL     1     -35.011  14.054  -6.216  1.00 20.00     0.109 A 
HETATM    5  C5  UNL     1     -35.850  15.269  -6.542  1.00 20.00    -0.021 A 
HETATM    6  C6  UNL     1     -36.715  15.892  -5.475  1.00 20.00     0.016 C 
HETATM    7  C7  UNL     1     -36.464  15.330  -7.918  1.00 20.00     0.016 C 
HETATM    8  O8  UNL     1     -32.979  16.694  -4.998  1.00 20.00    -0.264 OA
HETATM    9  O9  UNL     1     -34.990  12.663  -4.279  1.00 20.00    -0.264 OA
HETATM   10  O10 UNL     1     -33.818  14.656  -4.305  1.00 20.00    -0.244 OA
ENDROOT
TORSDOF 0
ENDMDL
MODEL 7
REMARK VINA RESULT:      -4.4      2.120      3.156
REMARK  0 active torsions:
REMARK  status: ('A' for Active; 'I' for Inactive)
ROOT
HETATM    1  C1  UNL     1     -34.406  16.406  -2.063  1.00 20.00     0.272 A 
HETATM    2  C2  UNL     1     -33.819  17.000  -4.163  1.00 20.00     0.272 A 
HETATM    3  C3  UNL     1     -35.083  15.424  -2.932  1.00 20.00     0.109 A 
HETATM    4  C4  UNL     1     -34.691  15.821  -4.337  1.00 20.00     0.109 A 
HETATM    5  C5  UNL     1     -34.335  14.447  -3.813  1.00 20.00    -0.021 A 
HETATM    6  C6  UNL     1     -32.897  14.112  -3.506  1.00 20.00     0.016 C 
HETATM    7  C7  UNL     1     -35.116  13.280  -4.361  1.00 20.00     0.016 C 
HETATM    8  O8  UNL     1     -34.477  16.404  -0.845  1.00 20.00    -0.264 OA
HETATM    9  O9  UNL     1     -33.294  17.603  -5.085  1.00 20.00    -0.264 OA
HETATM   10  O10 UNL     1     -33.707  17.302  -2.830  1.00 20.00    -0.244 OA
ENDROOT
TORSDOF 0
ENDMDL
MODEL 8
REMARK VINA RESULT:      -4.4      1.862      2.488
REMARK  0 active torsions:
REMARK  status: ('A' for Active; 'I' for Inactive)
ROOT
HETATM    1  C1  UNL     1     -36.926  14.616  -4.248  1.00 20.00     0.272 A 
HETATM    2  C2  UNL     1     -35.659  15.875  -5.633  1.00 20.00     0.272 A 
HETATM    3  C3  UNL     1     -35.638  13.900  -4.329  1.00 20.00     0.109 A 
HETATM    4  C4  UNL     1     -34.790  14.742  -5.256  1.00 20.00     0.109 A 
HETATM    5  C5  UNL     1     -34.335  14.490  -3.835  1.00 20.00    -0.021 A 
HETATM    6  C6  UNL     1     -34.354  15.614  -2.831  1.00 20.00     0.016 C 
HETATM    7  C7  UNL     1     -33.180  13.538  -3.643  1.00 20.00     0.016 C 
HETATM    8  O8  UNL     1     -37.875  14.243  -3.577  1.00 20.00    -0.264 OA
HETATM    9  O9  UNL     1     -35.316  16.782  -6.373  1.00 20.00    -0.264 OA
HETATM   10  O10 UNL     1     -36.886  15.738  -5.036  1.00 20.00    -0.244 OA
ENDROOT
TORSDOF 0
ENDMDL
MODEL 9
REMARK VINA RESULT:      -4.4      1.753      3.322
REMARK  0 active torsions:
REMARK  status: ('A' for Active; 'I' for Inactive)
ROOT
HETATM    1  C1  UNL     1     -33.842  15.505  -3.281  1.00 20.00     0.272 A 
HETATM    2  C2  UNL     1     -34.596  13.641  -4.313  1.00 20.00     0.272 A 
HETATM    3  C3  UNL     1     -33.663  15.777  -4.721  1.00 20.00     0.109 A 
HETATM    4  C4  UNL     1     -34.168  14.530  -5.412  1.00 20.00     0.109 A 
HETATM    5  C5  UNL     1     -34.820  15.866  -5.693  1.00 20.00    -0.021 A 
HETATM    6  C6  UNL     1     -36.210  16.145  -5.179  1.00 20.00     0.016 C 
HETATM    7  C7  UNL     1     -34.541  16.497  -7.034  1.00 20.00     0.016 C 
HETATM    8  O8  UNL     1     -33.553  16.293  -2.395  1.00 20.00    -0.264 OA
HETATM    9  O9  UNL     1     -35.075  12.531  -4.480  1.00 20.00    -0.264 OA
HETATM   10  O10 UNL     1     -34.366  14.250  -3.105  1.00 20.00    -0.244 OA
ENDROOT
TORSDOF 0
ENDMDL
