MODEL 1
REMARK VINA RESULT:      -3.6      0.000      0.000
REMARK  0 active torsions:
REMARK  status: ('A' for Active; 'I' for Inactive)
ROOT
HETATM    1  C1  UNL     1     -35.115   4.618   4.944  1.00 20.00    -0.019 C 
HETATM    2  C2  UNL     1     -34.750   5.037   6.158  1.00 20.00     0.080 C 
HETATM    3  C3  UNL     1     -34.930   5.426   3.703  1.00 20.00     0.037 C 
HETATM    4 CL4  UNL     1     -34.019   6.561   6.439  1.00 20.00    -0.097 Cl
ENDROOT
TORSDOF 0
ENDMDL
MODEL 2
REMARK VINA RESULT:      -3.6      1.810      2.388
REMARK  0 active torsions:
REMARK  status: ('A' for Active; 'I' for Inactive)
ROOT
HETATM    1  C1  UNL     1     -34.759   5.015   6.134  1.00 20.00    -0.019 C 
HETATM    2  C2  UNL     1     -35.116   4.547   4.935  1.00 20.00     0.080 C 
HETATM    3  C3  UNL     1     -34.102   6.339   6.340  1.00 20.00     0.037 C 
HETATM    4 CL4  UNL     1     -34.860   5.416   3.480  1.00 20.00    -0.097 Cl
ENDROOT
TORSDOF 0
ENDMDL
MODEL 3
REMARK VINA RESULT:      -3.4      1.427      2.262
REMARK  0 active torsions:
REMARK  status: ('A' for Active; 'I' for Inactive)
ROOT
HETATM    1  C1  UNL     1     -35.265   4.877   4.657  1.00 20.00    -0.019 C 
HETATM    2  C2  UNL     1     -34.631   5.437   3.623  1.00 20.00     0.080 C 
HETATM    3  C3  UNL     1     -34.762   4.932   6.061  1.00 20.00     0.037 C 
HETATM    4 CL4  UNL     1     -33.154   6.291   3.787  1.00 20.00    -0.097 Cl
ENDROOT
TORSDOF 0
ENDMDL
MODEL 4
REMARK VINA RESULT:      -3.3      1.179      1.618
REMARK  0 active torsions:
REMARK  status: ('A' for Active; 'I' for Inactive)
ROOT
HETATM    1  C1  UNL     1     -34.680   5.396   3.576  1.00 20.00    -0.019 C 
HETATM    2  C2  UNL     1     -35.273   4.906   4.668  1.00 20.00     0.080 C 
HETATM    3  C3  UNL     1     -33.432   6.215   3.613  1.00 20.00     0.037 C 
HETATM    4 CL4  UNL     1     -34.670   5.160   6.251  1.00 20.00    -0.097 Cl
ENDROOT
TORSDOF 0
ENDMDL
MODEL 5
REMARK VINA RESULT:      -3.3      1.995      2.464
REMARK  0 active torsions:
REMARK  status: ('A' for Active; 'I' for Inactive)
ROOT
HETATM    1  C1  UNL     1     -34.345   5.617   5.882  1.00 20.00    -0.019 C 
HETATM    2  C2  UNL     1     -33.957   6.212   4.751  1.00 20.00     0.080 C 
HETATM    3  C3  UNL     1     -35.021   4.287   5.923  1.00 20.00     0.037 C 
HETATM    4 CL4  UNL     1     -34.191   5.516   3.202  1.00 20.00    -0.097 Cl
ENDROOT
TORSDOF 0
ENDMDL
MODEL 6
REMARK VINA RESULT:      -3.2      1.844      1.955
REMARK  0 active torsions:
REMARK  status: ('A' for Active; 'I' for Inactive)
ROOT
HETATM    1  C1  UNL     1     -33.916   6.397   5.399  1.00 20.00    -0.019 C 
HETATM    2  C2  UNL     1     -34.493   5.547   6.252  1.00 20.00     0.080 C 
HETATM    3  C3  UNL     1     -33.673   6.083   3.960  1.00 20.00     0.037 C 
HETATM    4 CL4  UNL     1     -35.027   3.984   5.795  1.00 20.00    -0.097 Cl
ENDROOT
TORSDOF 0
ENDMDL
MODEL 7
REMARK VINA RESULT:      -2.6      3.548      3.987
REMARK  0 active torsions:
REMARK  status: ('A' for Active; 'I' for Inactive)
ROOT
HETATM    1  C1  UNL     1     -31.902   7.312   3.344  1.00 20.00    -0.019 C 
HETATM    2  C2  UNL     1     -32.634   6.261   3.721  1.00 20.00     0.080 C 
HETATM    3  C3  UNL     1     -32.138   8.069   2.079  1.00 20.00     0.037 C 
HETATM    4 CL4  UNL     1     -33.940   5.651   2.794  1.00 20.00    -0.097 Cl
ENDROOT
TORSDOF 0
ENDMDL
MODEL 8
REMARK VINA RESULT:      -2.6      3.491      3.930
REMARK  0 active torsions:
REMARK  status: ('A' for Active; 'I' for Inactive)
ROOT
HETATM    1  C1  UNL     1     -32.592   6.285   3.695  1.00 20.00    -0.019 C 
HETATM    2  C2  UNL     1     -31.827   7.308   3.305  1.00 20.00     0.080 C 
HETATM    3  C3  UNL     1     -33.780   5.806   2.929  1.00 20.00     0.037 C 
HETATM    4 CL4  UNL     1     -32.120   8.199   1.871  1.00 20.00    -0.097 Cl
ENDROOT
TORSDOF 0
ENDMDL
MODEL 9
REMARK VINA RESULT:      -2.4      9.053      9.375
REMARK  0 active torsions:
REMARK  status: ('A' for Active; 'I' for Inactive)
ROOT
HETATM    1  C1  UNL     1     -40.648   5.959  -0.322  1.00 20.00    -0.019 C 
HETATM    2  C2  UNL     1     -40.861   4.758  -0.866  1.00 20.00     0.080 C 
HETATM    3  C3  UNL     1     -41.233   7.223  -0.860  1.00 20.00     0.037 C 
HETATM    4 CL4  UNL     1     -41.838   4.522  -2.254  1.00 20.00    -0.097 Cl
ENDROOT
TORSDOF 0
ENDMDL
