MODEL 1
REMARK VINA RESULT:      -3.9      0.000      0.000
REMARK  1 active torsions:
REMARK  status: ('A' for Active; 'I' for Inactive)
REMARK    1  A    between atoms: C7_7  and  N9_9 
ROOT
HETATM    1  C1  UNL     1     -34.659  13.691  -3.993  1.00 20.00     0.031 C 
HETATM    2  C4  UNL     1     -34.448  14.192  -5.424  1.00 20.00     0.019 C 
HETATM    3  C5  UNL     1     -35.144  14.784  -3.033  1.00 20.00     0.273 C 
HETATM    4  C6  UNL     1     -34.728  16.577  -4.640  1.00 20.00     0.288 C 
HETATM    5  C8  UNL     1     -35.177  15.508  -5.643  1.00 20.00     0.086 C 
HETATM    6  N9  UNL     1     -34.448  16.043  -3.296  1.00 20.00     0.094 N 
HETATM    7 BR10 UNL     1     -34.870  16.141  -7.464  1.00 20.00    -0.089 Br
ENDROOT
BRANCH   6   8
HETATM    8  C7  UNL     1     -34.670  17.053  -2.233  1.00 20.00     0.223 A 
HETATM    9  C2  UNL     1     -34.707  16.642  -0.787  1.00 20.00     0.038 A 
HETATM   10  C3  UNL     1     -33.552  17.447  -1.308  1.00 20.00     0.038 A 
ENDBRANCH   6   8
TORSDOF 1
ENDMDL
MODEL 2
REMARK VINA RESULT:      -3.8      2.626      4.493
REMARK  1 active torsions:
REMARK  status: ('A' for Active; 'I' for Inactive)
REMARK    1  A    between atoms: C7_7  and  N9_9 
ROOT
HETATM    1  C1  UNL     1     -34.428  13.313  -4.798  1.00 20.00     0.031 C 
HETATM    2  C4  UNL     1     -34.426  14.004  -3.431  1.00 20.00     0.019 C 
HETATM    3  C5  UNL     1     -34.910  14.221  -5.936  1.00 20.00     0.273 C 
HETATM    4  C6  UNL     1     -35.699  15.956  -4.406  1.00 20.00     0.288 C 
HETATM    5  C8  UNL     1     -34.475  15.514  -3.595  1.00 20.00     0.086 C 
HETATM    6  N9  UNL     1     -36.046  15.030  -5.499  1.00 20.00     0.094 N 
HETATM    7 BR10 UNL     1     -34.501  16.371  -1.841  1.00 20.00    -0.089 Br
ENDROOT
BRANCH   6   8
HETATM    8  C7  UNL     1     -36.725  15.720  -6.622  1.00 20.00     0.223 A 
HETATM    9  C2  UNL     1     -36.978  14.998  -7.917  1.00 20.00     0.038 A 
HETATM   10  C3  UNL     1     -38.127  15.343  -7.015  1.00 20.00     0.038 A 
ENDBRANCH   6   8
TORSDOF 1
ENDMDL
MODEL 3
REMARK VINA RESULT:      -3.7      3.704      5.731
REMARK  1 active torsions:
REMARK  status: ('A' for Active; 'I' for Inactive)
REMARK    1  A    between atoms: C7_7  and  N9_9 
ROOT
HETATM    1  C1  UNL     1     -32.548  19.106  -0.284  1.00 20.00     0.031 C 
HETATM    2  C4  UNL     1     -33.187  18.693   1.045  1.00 20.00     0.019 C 
HETATM    3  C5  UNL     1     -33.306  18.581  -1.510  1.00 20.00     0.273 C 
HETATM    4  C6  UNL     1     -34.722  17.102  -0.177  1.00 20.00     0.288 C 
HETATM    5  C8  UNL     1     -34.625  18.252   0.833  1.00 20.00     0.086 C 
HETATM    6  N9  UNL     1     -33.757  17.209  -1.285  1.00 20.00     0.094 N 
HETATM    7 BR10 UNL     1     -35.408  17.703   2.535  1.00 20.00    -0.089 Br
ENDROOT
BRANCH   6   8
HETATM    8  C7  UNL     1     -34.249  16.557  -2.522  1.00 20.00     0.223 A 
HETATM    9  C2  UNL     1     -33.613  16.863  -3.850  1.00 20.00     0.038 A 
HETATM   10  C3  UNL     1     -33.419  15.515  -3.220  1.00 20.00     0.038 A 
ENDBRANCH   6   8
TORSDOF 1
ENDMDL
MODEL 4
REMARK VINA RESULT:      -3.7      1.464      2.525
REMARK  1 active torsions:
REMARK  status: ('A' for Active; 'I' for Inactive)
REMARK    1  A    between atoms: C7_7  and  N9_9 
ROOT
HETATM    1  C1  UNL     1     -33.960  18.200  -5.964  1.00 20.00     0.031 C 
HETATM    2  C4  UNL     1     -34.729  17.229  -6.864  1.00 20.00     0.019 C 
HETATM    3  C5  UNL     1     -33.370  17.532  -4.715  1.00 20.00     0.273 C 
HETATM    4  C6  UNL     1     -34.608  15.456  -5.069  1.00 20.00     0.288 C 
HETATM    5  C8  UNL     1     -34.354  15.792  -6.544  1.00 20.00     0.086 C 
HETATM    6  N9  UNL     1     -34.317  16.571  -4.152  1.00 20.00     0.094 N 
HETATM    7 BR10 UNL     1     -35.367  14.573  -7.682  1.00 20.00    -0.089 Br
ENDROOT
BRANCH   6   8
HETATM    8  C7  UNL     1     -33.921  16.100  -2.804  1.00 20.00     0.223 A 
HETATM    9  C2  UNL     1     -33.651  17.086  -1.701  1.00 20.00     0.038 A 
HETATM   10  C3  UNL     1     -34.872  16.216  -1.644  1.00 20.00     0.038 A 
ENDBRANCH   6   8
TORSDOF 1
ENDMDL
MODEL 5
REMARK VINA RESULT:      -3.7      2.587      4.518
REMARK  1 active torsions:
REMARK  status: ('A' for Active; 'I' for Inactive)
REMARK    1  A    between atoms: C7_7  and  N9_9 
ROOT
HETATM    1  C1  UNL     1     -33.827  17.916  -4.074  1.00 20.00     0.031 C 
HETATM    2  C4  UNL     1     -33.761  17.984  -2.545  1.00 20.00     0.019 C 
HETATM    3  C5  UNL     1     -34.763  16.817  -4.593  1.00 20.00     0.273 C 
HETATM    4  C6  UNL     1     -35.023  15.802  -2.386  1.00 20.00     0.288 C 
HETATM    5  C8  UNL     1     -34.947  17.262  -1.926  1.00 20.00     0.086 C 
HETATM    6  N9  UNL     1     -34.623  15.604  -3.790  1.00 20.00     0.094 N 
HETATM    7 BR10 UNL     1     -34.826  17.337   0.020  1.00 20.00    -0.089 Br
ENDROOT
BRANCH   6   8
HETATM    8  C7  UNL     1     -35.291  14.431  -4.403  1.00 20.00     0.223 A 
HETATM    9  C2  UNL     1     -35.064  14.097  -5.852  1.00 20.00     0.038 A 
HETATM   10  C3  UNL     1     -34.497  13.211  -4.781  1.00 20.00     0.038 A 
ENDBRANCH   6   8
TORSDOF 1
ENDMDL
MODEL 6
REMARK VINA RESULT:      -3.7      2.423      4.264
REMARK  1 active torsions:
REMARK  status: ('A' for Active; 'I' for Inactive)
REMARK    1  A    between atoms: C7_7  and  N9_9 
ROOT
HETATM    1  C1  UNL     1     -34.017  16.978  -1.034  1.00 20.00     0.031 C 
HETATM    2  C4  UNL     1     -35.424  17.553  -0.851  1.00 20.00     0.019 C 
HETATM    3  C5  UNL     1     -33.784  16.378  -2.427  1.00 20.00     0.273 C 
HETATM    4  C6  UNL     1     -36.148  16.499  -3.029  1.00 20.00     0.288 C 
HETATM    5  C8  UNL     1     -36.087  17.786  -2.198  1.00 20.00     0.086 C 
HETATM    6  N9  UNL     1     -34.964  15.638  -2.870  1.00 20.00     0.094 N 
HETATM    7 BR10 UNL     1     -37.888  18.491  -1.938  1.00 20.00    -0.089 Br
ENDROOT
BRANCH   6   8
HETATM    8  C7  UNL     1     -34.704  14.813  -4.074  1.00 20.00     0.223 A 
HETATM    9  C2  UNL     1     -33.684  13.709  -4.036  1.00 20.00     0.038 A 
HETATM   10  C3  UNL     1     -35.144  13.376  -4.126  1.00 20.00     0.038 A 
ENDBRANCH   6   8
TORSDOF 1
ENDMDL
MODEL 7
REMARK VINA RESULT:      -3.6      1.588      2.511
REMARK  1 active torsions:
REMARK  status: ('A' for Active; 'I' for Inactive)
REMARK    1  A    between atoms: C7_7  and  N9_9 
ROOT
HETATM    1  C1  UNL     1     -34.371  17.616  -4.598  1.00 20.00     0.031 C 
HETATM    2  C4  UNL     1     -34.824  16.245  -5.107  1.00 20.00     0.019 C 
HETATM    3  C5  UNL     1     -33.795  17.574  -3.177  1.00 20.00     0.273 C 
HETATM    4  C6  UNL     1     -34.537  15.278  -2.791  1.00 20.00     0.288 C 
HETATM    5  C8  UNL     1     -34.200  15.133  -4.280  1.00 20.00     0.086 C 
HETATM    6  N9  UNL     1     -34.580  16.677  -2.331  1.00 20.00     0.094 N 
HETATM    7 BR10 UNL     1     -34.815  13.398  -4.929  1.00 20.00    -0.089 Br
ENDROOT
BRANCH   6   8
HETATM    8  C7  UNL     1     -34.244  16.805  -0.893  1.00 20.00     0.223 A 
HETATM    9  C2  UNL     1     -33.892  18.146  -0.309  1.00 20.00     0.038 A 
HETATM   10  C3  UNL     1     -35.191  17.487   0.056  1.00 20.00     0.038 A 
ENDBRANCH   6   8
TORSDOF 1
ENDMDL
MODEL 8
REMARK VINA RESULT:      -3.6      2.404      4.276
REMARK  1 active torsions:
REMARK  status: ('A' for Active; 'I' for Inactive)
REMARK    1  A    between atoms: C7_7  and  N9_9 
ROOT
HETATM    1  C1  UNL     1     -34.749  14.503  -3.157  1.00 20.00     0.031 C 
HETATM    2  C4  UNL     1     -34.725  15.793  -2.334  1.00 20.00     0.019 C 
HETATM    3  C5  UNL     1     -34.110  14.656  -4.544  1.00 20.00     0.273 C 
HETATM    4  C6  UNL     1     -33.980  17.089  -4.370  1.00 20.00     0.288 C 
HETATM    5  C8  UNL     1     -33.703  16.768  -2.897  1.00 20.00     0.086 C 
HETATM    6  N9  UNL     1     -34.481  15.938  -5.140  1.00 20.00     0.094 N 
HETATM    7 BR10 UNL     1     -33.711  18.415  -1.849  1.00 20.00    -0.089 Br
ENDROOT
BRANCH   6   8
HETATM    8  C7  UNL     1     -34.125  16.026  -6.576  1.00 20.00     0.223 A 
HETATM    9  C2  UNL     1     -34.558  14.952  -7.536  1.00 20.00     0.038 A 
HETATM   10  C3  UNL     1     -35.179  16.316  -7.609  1.00 20.00     0.038 A 
ENDBRANCH   6   8
TORSDOF 1
ENDMDL
MODEL 9
REMARK VINA RESULT:      -3.6      5.217      7.427
REMARK  1 active torsions:
REMARK  status: ('A' for Active; 'I' for Inactive)
REMARK    1  A    between atoms: C7_7  and  N9_9 
ROOT
HETATM    1  C1  UNL     1     -33.062  18.501   3.139  1.00 20.00     0.031 C 
HETATM    2  C4  UNL     1     -34.240  18.193   4.067  1.00 20.00     0.019 C 
HETATM    3  C5  UNL     1     -33.482  18.739   1.683  1.00 20.00     0.273 C 
HETATM    4  C6  UNL     1     -35.765  17.958   2.067  1.00 20.00     0.288 C 
HETATM    5  C8  UNL     1     -35.550  18.627   3.430  1.00 20.00     0.086 C 
HETATM    6  N9  UNL     1     -34.525  17.793   1.289  1.00 20.00     0.094 N 
HETATM    7 BR10 UNL     1     -37.039  18.198   4.617  1.00 20.00    -0.089 Br
ENDROOT
BRANCH   6   8
HETATM    8  C7  UNL     1     -34.775  17.792  -0.172  1.00 20.00     0.223 A 
HETATM    9  C2  UNL     1     -33.635  17.630  -1.139  1.00 20.00     0.038 A 
HETATM   10  C3  UNL     1     -34.636  16.524  -0.970  1.00 20.00     0.038 A 
ENDBRANCH   6   8
TORSDOF 1
ENDMDL
