MODEL 1
REMARK VINA RESULT:      -3.7      0.000      0.000
REMARK  1 active torsions:
REMARK  status: ('A' for Active; 'I' for Inactive)
REMARK    1  A    between atoms: C5_5  and  O7_7 
ROOT
HETATM    1  C1  UNL     1     -34.653  16.220  -1.600  1.00 20.00     0.015 C 
HETATM    2  C2  UNL     1     -34.608  15.621  -2.639  1.00 20.00    -0.075 C 
HETATM    3  C3  UNL     1     -33.731  13.603  -3.866  1.00 20.00     0.221 A 
HETATM    4  C4  UNL     1     -35.744  13.965  -4.160  1.00 20.00     0.221 A 
HETATM    5  C5  UNL     1     -34.555  14.900  -3.891  1.00 20.00     0.162 A 
HETATM    6  O6  UNL     1     -34.887  12.802  -4.196  1.00 20.00    -0.383 OA
ENDROOT
BRANCH   5   7
HETATM    7  O7  UNL     1     -34.233  15.828  -4.945  1.00 20.00    -0.373 OA
HETATM    8  H13 UNL     1     -33.469  15.451  -5.400  1.00 20.00     0.212 HD
ENDBRANCH   5   7
TORSDOF 1
ENDMDL
MODEL 2
REMARK VINA RESULT:      -3.7      1.670      3.136
REMARK  1 active torsions:
REMARK  status: ('A' for Active; 'I' for Inactive)
REMARK    1  A    between atoms: C5_5  and  O7_7 
ROOT
HETATM    1  C1  UNL     1     -35.069  14.426  -6.989  1.00 20.00     0.015 C 
HETATM    2  C2  UNL     1     -35.005  14.185  -5.815  1.00 20.00    -0.075 C 
HETATM    3  C3  UNL     1     -33.609  14.287  -3.722  1.00 20.00     0.221 A 
HETATM    4  C4  UNL     1     -35.548  14.957  -3.480  1.00 20.00     0.221 A 
HETATM    5  C5  UNL     1     -34.930  13.894  -4.401  1.00 20.00     0.162 A 
HETATM    6  O6  UNL     1     -34.279  15.213  -2.838  1.00 20.00    -0.383 OA
ENDROOT
BRANCH   5   7
HETATM    7  O7  UNL     1     -35.370  12.540  -4.185  1.00 20.00    -0.373 OA
HETATM    8  H13 UNL     1     -34.814  12.196  -3.473  1.00 20.00     0.212 HD
ENDBRANCH   5   7
TORSDOF 1
ENDMDL
MODEL 3
REMARK VINA RESULT:      -3.7      1.449      1.612
REMARK  1 active torsions:
REMARK  status: ('A' for Active; 'I' for Inactive)
REMARK    1  A    between atoms: C5_5  and  O7_7 
ROOT
HETATM    1  C1  UNL     1     -34.015  16.593  -1.882  1.00 20.00     0.015 C 
HETATM    2  C2  UNL     1     -33.690  15.893  -2.801  1.00 20.00    -0.075 C 
HETATM    3  C3  UNL     1     -33.945  13.657  -3.932  1.00 20.00     0.221 A 
HETATM    4  C4  UNL     1     -34.082  15.275  -5.211  1.00 20.00     0.221 A 
HETATM    5  C5  UNL     1     -33.298  15.051  -3.908  1.00 20.00     0.162 A 
HETATM    6  O6  UNL     1     -34.588  13.921  -5.199  1.00 20.00    -0.383 OA
ENDROOT
BRANCH   5   7
HETATM    7  O7  UNL     1     -31.862  15.079  -4.024  1.00 20.00    -0.373 OA
HETATM    8  H13 UNL     1     -31.633  14.335  -4.596  1.00 20.00     0.212 HD
ENDBRANCH   5   7
TORSDOF 1
ENDMDL
MODEL 4
REMARK VINA RESULT:      -3.7      1.799      3.243
REMARK  1 active torsions:
REMARK  status: ('A' for Active; 'I' for Inactive)
REMARK    1  A    between atoms: C5_5  and  O7_7 
ROOT
HETATM    1  C1  UNL     1     -34.937  13.251  -4.319  1.00 20.00     0.015 C 
HETATM    2  C2  UNL     1     -34.152  14.132  -4.103  1.00 20.00    -0.075 C 
HETATM    3  C3  UNL     1     -33.262  16.377  -4.819  1.00 20.00     0.221 A 
HETATM    4  C4  UNL     1     -33.654  16.227  -2.796  1.00 20.00     0.221 A 
HETATM    5  C5  UNL     1     -33.206  15.194  -3.840  1.00 20.00     0.162 A 
HETATM    6  O6  UNL     1     -33.608  17.300  -3.763  1.00 20.00    -0.383 OA
ENDROOT
BRANCH   5   7
HETATM    7  O7  UNL     1     -31.905  14.611  -3.632  1.00 20.00    -0.373 OA
HETATM    8  H13 UNL     1     -31.810  13.936  -4.316  1.00 20.00     0.212 HD
ENDBRANCH   5   7
TORSDOF 1
ENDMDL
MODEL 5
REMARK VINA RESULT:      -3.7     11.916     12.737
REMARK  1 active torsions:
REMARK  status: ('A' for Active; 'I' for Inactive)
REMARK    1  A    between atoms: C5_5  and  O7_7 
ROOT
HETATM    1  C1  UNL     1     -32.593   6.182   3.169  1.00 20.00     0.015 C 
HETATM    2  C2  UNL     1     -33.571   5.790   3.743  1.00 20.00    -0.075 C 
HETATM    3  C3  UNL     1     -34.728   3.836   4.832  1.00 20.00     0.221 A 
HETATM    4  C4  UNL     1     -34.768   5.574   5.949  1.00 20.00     0.221 A 
HETATM    5  C5  UNL     1     -34.751   5.320   4.434  1.00 20.00     0.162 A 
HETATM    6  O6  UNL     1     -34.822   4.159   6.237  1.00 20.00    -0.383 OA
ENDROOT
BRANCH   5   7
HETATM    7  O7  UNL     1     -35.916   5.757   3.708  1.00 20.00    -0.373 OA
HETATM    8  H13 UNL     1     -35.732   5.565   2.780  1.00 20.00     0.212 HD
ENDBRANCH   5   7
TORSDOF 1
ENDMDL
MODEL 6
REMARK VINA RESULT:      -3.5      1.768      2.635
REMARK  1 active torsions:
REMARK  status: ('A' for Active; 'I' for Inactive)
REMARK    1  A    between atoms: C5_5  and  O7_7 
ROOT
HETATM    1  C1  UNL     1     -32.807  14.744  -3.581  1.00 20.00     0.015 C 
HETATM    2  C2  UNL     1     -33.904  14.392  -3.916  1.00 20.00    -0.075 C 
HETATM    3  C3  UNL     1     -36.384  14.797  -3.748  1.00 20.00     0.221 A 
HETATM    4  C4  UNL     1     -35.701  14.508  -5.677  1.00 20.00     0.221 A 
HETATM    5  C5  UNL     1     -35.225  13.966  -4.320  1.00 20.00     0.162 A 
HETATM    6  O6  UNL     1     -36.814  15.200  -5.067  1.00 20.00    -0.383 OA
ENDROOT
BRANCH   5   7
HETATM    7  O7  UNL     1     -35.325  12.540  -4.141  1.00 20.00    -0.373 OA
HETATM    8  H13 UNL     1     -34.789  12.151  -4.844  1.00 20.00     0.212 HD
ENDBRANCH   5   7
TORSDOF 1
ENDMDL
MODEL 7
REMARK VINA RESULT:      -3.5      1.236      2.802
REMARK  1 active torsions:
REMARK  status: ('A' for Active; 'I' for Inactive)
REMARK    1  A    between atoms: C5_5  and  O7_7 
ROOT
HETATM    1  C1  UNL     1     -37.843  14.812  -4.051  1.00 20.00     0.015 C 
HETATM    2  C2  UNL     1     -36.710  14.422  -4.124  1.00 20.00    -0.075 C 
HETATM    3  C3  UNL     1     -34.515  14.557  -5.351  1.00 20.00     0.221 A 
HETATM    4  C4  UNL     1     -34.345  14.672  -3.295  1.00 20.00     0.221 A 
HETATM    5  C5  UNL     1     -35.347  13.951  -4.210  1.00 20.00     0.162 A 
HETATM    6  O6  UNL     1     -33.574  15.141  -4.424  1.00 20.00    -0.383 OA
ENDROOT
BRANCH   5   7
HETATM    7  O7  UNL     1     -35.349  12.512  -4.130  1.00 20.00    -0.373 OA
HETATM    8  H13 UNL     1     -34.992  12.300  -3.258  1.00 20.00     0.212 HD
ENDBRANCH   5   7
TORSDOF 1
ENDMDL
MODEL 8
REMARK VINA RESULT:      -3.4      1.471      1.988
REMARK  1 active torsions:
REMARK  status: ('A' for Active; 'I' for Inactive)
REMARK    1  A    between atoms: C5_5  and  O7_7 
ROOT
HETATM    1  C1  UNL     1     -34.510  16.646  -0.990  1.00 20.00     0.015 C 
HETATM    2  C2  UNL     1     -34.896  16.045  -1.956  1.00 20.00    -0.075 C 
HETATM    3  C3  UNL     1     -34.956  15.928  -4.471  1.00 20.00     0.221 A 
HETATM    4  C4  UNL     1     -34.477  14.141  -3.550  1.00 20.00     0.221 A 
HETATM    5  C5  UNL     1     -35.360  15.322  -3.117  1.00 20.00     0.162 A 
HETATM    6  O6  UNL     1     -34.208  14.747  -4.834  1.00 20.00    -0.383 OA
ENDROOT
BRANCH   5   7
HETATM    7  O7  UNL     1     -36.761  15.032  -2.951  1.00 20.00    -0.373 OA
HETATM    8  H13 UNL     1     -37.038  14.605  -3.772  1.00 20.00     0.212 HD
ENDBRANCH   5   7
TORSDOF 1
ENDMDL
MODEL 9
REMARK VINA RESULT:      -3.4     11.378     12.201
REMARK  1 active torsions:
REMARK  status: ('A' for Active; 'I' for Inactive)
REMARK    1  A    between atoms: C5_5  and  O7_7 
ROOT
HETATM    1  C1  UNL     1     -34.915   3.987   6.003  1.00 20.00     0.015 C 
HETATM    2  C2  UNL     1     -34.860   4.705   5.043  1.00 20.00    -0.075 C 
HETATM    3  C3  UNL     1     -33.850   6.774   4.022  1.00 20.00     0.221 A 
HETATM    4  C4  UNL     1     -33.823   5.119   2.785  1.00 20.00     0.221 A 
HETATM    5  C5  UNL     1     -34.795   5.570   3.886  1.00 20.00     0.162 A 
HETATM    6  O6  UNL     1     -33.029   6.318   2.924  1.00 20.00    -0.383 OA
ENDROOT
BRANCH   5   7
HETATM    7  O7  UNL     1     -36.137   5.870   3.458  1.00 20.00    -0.373 OA
HETATM    8  H13 UNL     1     -36.478   5.050   3.077  1.00 20.00     0.212 HD
ENDBRANCH   5   7
TORSDOF 1
ENDMDL
