MODEL 1
REMARK VINA RESULT:      -4.7      0.000      0.000
REMARK  5 active torsions:
REMARK  status: ('A' for Active; 'I' for Inactive)
REMARK    1  A    between atoms: C1_1  and  C3_3 
REMARK    2  A    between atoms: C3_3  and  C7_7 
REMARK    3  A    between atoms: C4_4  and  C5_5 
REMARK    4  A    between atoms: C4_4  and  C6_6 
REMARK    5  A    between atoms: C5_5  and  C7_7 
ROOT
HETATM    1  C2  UNL     1     -34.950   5.428   3.354  1.00 20.00     0.010 C 
HETATM    2  C7  UNL     1     -33.973   6.425   3.985  1.00 20.00    -0.012 C 
ENDROOT
BRANCH   2   3
HETATM    3  C3  UNL     1     -33.954   6.219   5.510  1.00 20.00     0.073 C 
BRANCH   3   4
HETATM    4  C1  UNL     1     -34.853   5.102   5.991  1.00 20.00     0.231 C 
HETATM    5  O8  UNL     1     -34.485   3.960   6.240  1.00 20.00    -0.307 OA
ENDBRANCH   3   4
ENDBRANCH   2   3
BRANCH   2   6
HETATM    6  C5  UNL     1     -32.552   6.273   3.398  1.00 20.00     0.005 C 
BRANCH   6   7
HETATM    7  C4  UNL     1     -31.838   7.613   3.183  1.00 20.00     0.015 C 
BRANCH   7   8
HETATM    8  C6  UNL     1     -31.972   8.142   1.756  1.00 20.00     0.114 C 
HETATM    9 CL9  UNL     1     -32.570   9.817   1.717  1.00 20.00    -0.130 Cl
ENDBRANCH   7   8
ENDBRANCH   6   7
ENDBRANCH   2   6
TORSDOF 5
ENDMDL
MODEL 2
REMARK VINA RESULT:      -4.6      1.151      2.047
REMARK  5 active torsions:
REMARK  status: ('A' for Active; 'I' for Inactive)
REMARK    1  A    between atoms: C1_1  and  C3_3 
REMARK    2  A    between atoms: C3_3  and  C7_7 
REMARK    3  A    between atoms: C4_4  and  C5_5 
REMARK    4  A    between atoms: C4_4  and  C6_6 
REMARK    5  A    between atoms: C5_5  and  C7_7 
ROOT
HETATM    1  C2  UNL     1     -33.447   7.338   6.637  1.00 20.00     0.010 C 
HETATM    2  C7  UNL     1     -33.701   6.154   5.699  1.00 20.00    -0.012 C 
ENDROOT
BRANCH   2   3
HETATM    3  C3  UNL     1     -34.867   5.313   6.249  1.00 20.00     0.073 C 
BRANCH   3   4
HETATM    4  C1  UNL     1     -34.857   3.873   5.787  1.00 20.00     0.231 C 
HETATM    5  O8  UNL     1     -35.155   3.493   4.661  1.00 20.00    -0.307 OA
ENDBRANCH   3   4
ENDBRANCH   2   3
BRANCH   2   6
HETATM    6  C5  UNL     1     -34.002   6.627   4.260  1.00 20.00     0.005 C 
BRANCH   6   7
HETATM    7  C4  UNL     1     -32.908   6.245   3.255  1.00 20.00     0.015 C 
BRANCH   7   8
HETATM    8  C6  UNL     1     -31.813   7.302   3.129  1.00 20.00     0.114 C 
HETATM    9 CL9  UNL     1     -32.059   8.354   1.716  1.00 20.00    -0.130 Cl
ENDBRANCH   7   8
ENDBRANCH   6   7
ENDBRANCH   2   6
TORSDOF 5
ENDMDL
MODEL 3
REMARK VINA RESULT:      -4.4      1.284      1.344
REMARK  5 active torsions:
REMARK  status: ('A' for Active; 'I' for Inactive)
REMARK    1  A    between atoms: C1_1  and  C3_3 
REMARK    2  A    between atoms: C3_3  and  C7_7 
REMARK    3  A    between atoms: C4_4  and  C5_5 
REMARK    4  A    between atoms: C4_4  and  C6_6 
REMARK    5  A    between atoms: C5_5  and  C7_7 
ROOT
HETATM    1  C2  UNL     1     -35.294   5.659   3.153  1.00 20.00     0.010 C 
HETATM    2  C7  UNL     1     -34.163   6.237   4.011  1.00 20.00    -0.012 C 
ENDROOT
BRANCH   2   3
HETATM    3  C3  UNL     1     -34.110   5.486   5.352  1.00 20.00     0.073 C 
BRANCH   3   4
HETATM    4  C1  UNL     1     -34.097   6.392   6.564  1.00 20.00     0.231 C 
HETATM    5  O8  UNL     1     -33.248   7.246   6.795  1.00 20.00    -0.307 OA
ENDBRANCH   3   4
ENDBRANCH   2   3
BRANCH   2   6
HETATM    6  C5  UNL     1     -32.802   6.151   3.284  1.00 20.00     0.005 C 
BRANCH   6   7
HETATM    7  C4  UNL     1     -32.058   7.491   3.232  1.00 20.00     0.015 C 
BRANCH   7   8
HETATM    8  C6  UNL     1     -31.967   8.074   1.823  1.00 20.00     0.114 C 
HETATM    9 CL9  UNL     1     -32.612   9.729   1.741  1.00 20.00    -0.130 Cl
ENDBRANCH   7   8
ENDBRANCH   6   7
ENDBRANCH   2   6
TORSDOF 5
ENDMDL
MODEL 4
REMARK VINA RESULT:      -4.3      3.431      4.806
REMARK  5 active torsions:
REMARK  status: ('A' for Active; 'I' for Inactive)
REMARK    1  A    between atoms: C1_1  and  C3_3 
REMARK    2  A    between atoms: C3_3  and  C7_7 
REMARK    3  A    between atoms: C4_4  and  C5_5 
REMARK    4  A    between atoms: C4_4  and  C6_6 
REMARK    5  A    between atoms: C5_5  and  C7_7 
ROOT
HETATM    1  C2  UNL     1     -32.447   5.483   2.322  1.00 20.00     0.010 C 
HETATM    2  C7  UNL     1     -32.522   6.343   3.588  1.00 20.00    -0.012 C 
ENDROOT
BRANCH   2   3
HETATM    3  C3  UNL     1     -31.818   7.687   3.331  1.00 20.00     0.073 C 
BRANCH   3   4
HETATM    4  C1  UNL     1     -32.025   8.231   1.935  1.00 20.00     0.231 C 
HETATM    5  O8  UNL     1     -32.420   9.361   1.671  1.00 20.00    -0.307 OA
ENDBRANCH   3   4
ENDBRANCH   2   3
BRANCH   2   6
HETATM    6  C5  UNL     1     -33.985   6.570   4.031  1.00 20.00     0.005 C 
BRANCH   6   7
HETATM    7  C4  UNL     1     -34.905   5.384   3.715  1.00 20.00     0.015 C 
BRANCH   7   8
HETATM    8  C6  UNL     1     -35.179   4.497   4.927  1.00 20.00     0.114 C 
HETATM    9 CL9  UNL     1     -34.610   5.237   6.441  1.00 20.00    -0.130 Cl
ENDBRANCH   7   8
ENDBRANCH   6   7
ENDBRANCH   2   6
TORSDOF 5
ENDMDL
MODEL 5
REMARK VINA RESULT:      -4.3      0.825      1.403
REMARK  5 active torsions:
REMARK  status: ('A' for Active; 'I' for Inactive)
REMARK    1  A    between atoms: C1_1  and  C3_3 
REMARK    2  A    between atoms: C3_3  and  C7_7 
REMARK    3  A    between atoms: C4_4  and  C5_5 
REMARK    4  A    between atoms: C4_4  and  C6_6 
REMARK    5  A    between atoms: C5_5  and  C7_7 
ROOT
HETATM    1  C2  UNL     1     -33.418   6.877   5.221  1.00 20.00     0.010 C 
HETATM    2  C7  UNL     1     -33.342   5.771   4.163  1.00 20.00    -0.012 C 
ENDROOT
BRANCH   2   3
HETATM    3  C3  UNL     1     -34.764   5.422   3.691  1.00 20.00     0.073 C 
BRANCH   3   4
HETATM    4  C1  UNL     1     -35.511   4.494   4.623  1.00 20.00     0.231 C 
HETATM    5  O8  UNL     1     -35.000   3.593   5.277  1.00 20.00    -0.307 OA
ENDBRANCH   3   4
ENDBRANCH   2   3
BRANCH   2   6
HETATM    6  C5  UNL     1     -32.459   6.193   2.967  1.00 20.00     0.005 C 
BRANCH   6   7
HETATM    7  C4  UNL     1     -31.989   7.651   3.046  1.00 20.00     0.015 C 
BRANCH   7   8
HETATM    8  C6  UNL     1     -31.954   8.344   1.685  1.00 20.00     0.114 C 
HETATM    9 CL9  UNL     1     -32.640   9.984   1.753  1.00 20.00    -0.130 Cl
ENDBRANCH   7   8
ENDBRANCH   6   7
ENDBRANCH   2   6
TORSDOF 5
ENDMDL
MODEL 6
REMARK VINA RESULT:      -4.0     11.110     12.356
REMARK  5 active torsions:
REMARK  status: ('A' for Active; 'I' for Inactive)
REMARK    1  A    between atoms: C1_1  and  C3_3 
REMARK    2  A    between atoms: C3_3  and  C7_7 
REMARK    3  A    between atoms: C4_4  and  C5_5 
REMARK    4  A    between atoms: C4_4  and  C6_6 
REMARK    5  A    between atoms: C5_5  and  C7_7 
ROOT
HETATM    1  C2  UNL     1     -34.551  15.851  -2.598  1.00 20.00     0.010 C 
HETATM    2  C7  UNL     1     -33.301  15.487  -3.406  1.00 20.00    -0.012 C 
ENDROOT
BRANCH   2   3
HETATM    3  C3  UNL     1     -33.303  13.975  -3.690  1.00 20.00     0.073 C 
BRANCH   3   4
HETATM    4  C1  UNL     1     -34.675  13.405  -3.973  1.00 20.00     0.231 C 
HETATM    5  O8  UNL     1     -34.924  12.561  -4.825  1.00 20.00    -0.307 OA
ENDBRANCH   3   4
ENDBRANCH   2   3
BRANCH   2   6
HETATM    6  C5  UNL     1     -33.227  16.289  -4.725  1.00 20.00     0.005 C 
BRANCH   6   7
HETATM    7  C4  UNL     1     -34.541  16.995  -5.079  1.00 20.00     0.015 C 
BRANCH   7   8
HETATM    8  C6  UNL     1     -35.250  16.376  -6.282  1.00 20.00     0.114 C 
HETATM    9 CL9  UNL     1     -34.244  15.155  -7.095  1.00 20.00    -0.130 Cl
ENDBRANCH   7   8
ENDBRANCH   6   7
ENDBRANCH   2   6
TORSDOF 5
ENDMDL
MODEL 7
REMARK VINA RESULT:      -4.0     11.001     12.107
REMARK  5 active torsions:
REMARK  status: ('A' for Active; 'I' for Inactive)
REMARK    1  A    between atoms: C1_1  and  C3_3 
REMARK    2  A    between atoms: C3_3  and  C7_7 
REMARK    3  A    between atoms: C4_4  and  C5_5 
REMARK    4  A    between atoms: C4_4  and  C6_6 
REMARK    5  A    between atoms: C5_5  and  C7_7 
ROOT
HETATM    1  C2  UNL     1     -34.811  14.640  -7.026  1.00 20.00     0.010 C 
HETATM    2  C7  UNL     1     -35.084  14.782  -5.525  1.00 20.00    -0.012 C 
ENDROOT
BRANCH   2   3
HETATM    3  C3  UNL     1     -36.577  15.086  -5.308  1.00 20.00     0.073 C 
BRANCH   3   4
HETATM    4  C1  UNL     1     -37.096  14.675  -3.948  1.00 20.00     0.231 C 
HETATM    5  O8  UNL     1     -38.199  14.183  -3.735  1.00 20.00    -0.307 OA
ENDBRANCH   3   4
ENDBRANCH   2   3
BRANCH   2   6
HETATM    6  C5  UNL     1     -34.670  13.509  -4.753  1.00 20.00     0.005 C 
BRANCH   6   7
HETATM    7  C4  UNL     1     -33.482  13.733  -3.810  1.00 20.00     0.015 C 
BRANCH   7   8
HETATM    8  C6  UNL     1     -33.126  15.208  -3.631  1.00 20.00     0.114 C 
HETATM    9 CL9  UNL     1     -34.071  15.970  -2.331  1.00 20.00    -0.130 Cl
ENDBRANCH   7   8
ENDBRANCH   6   7
ENDBRANCH   2   6
TORSDOF 5
ENDMDL
MODEL 8
REMARK VINA RESULT:      -3.9     11.185     11.996
REMARK  5 active torsions:
REMARK  status: ('A' for Active; 'I' for Inactive)
REMARK    1  A    between atoms: C1_1  and  C3_3 
REMARK    2  A    between atoms: C3_3  and  C7_7 
REMARK    3  A    between atoms: C4_4  and  C5_5 
REMARK    4  A    between atoms: C4_4  and  C6_6 
REMARK    5  A    between atoms: C5_5  and  C7_7 
ROOT
HETATM    1  C2  UNL     1     -33.429  16.926  -4.826  1.00 20.00     0.010 C 
HETATM    2  C7  UNL     1     -34.101  16.109  -3.718  1.00 20.00    -0.012 C 
ENDROOT
BRANCH   2   3
HETATM    3  C3  UNL     1     -33.786  14.617  -3.925  1.00 20.00     0.073 C 
BRANCH   3   4
HETATM    4  C1  UNL     1     -35.012  13.745  -4.076  1.00 20.00     0.231 C 
HETATM    5  O8  UNL     1     -35.003  12.575  -4.442  1.00 20.00    -0.307 OA
ENDBRANCH   3   4
ENDBRANCH   2   3
BRANCH   2   6
HETATM    6  C5  UNL     1     -33.644  16.573  -2.317  1.00 20.00     0.005 C 
BRANCH   6   7
HETATM    7  C4  UNL     1     -34.713  16.379  -1.235  1.00 20.00     0.015 C 
BRANCH   7   8
HETATM    8  C6  UNL     1     -34.627  17.412  -0.113  1.00 20.00     0.114 C 
HETATM    9 CL9  UNL     1     -33.072  18.275  -0.116  1.00 20.00    -0.130 Cl
ENDBRANCH   7   8
ENDBRANCH   6   7
ENDBRANCH   2   6
TORSDOF 5
ENDMDL
MODEL 9
REMARK VINA RESULT:      -3.8     11.085     11.825
REMARK  5 active torsions:
REMARK  status: ('A' for Active; 'I' for Inactive)
REMARK    1  A    between atoms: C1_1  and  C3_3 
REMARK    2  A    between atoms: C3_3  and  C7_7 
REMARK    3  A    between atoms: C4_4  and  C5_5 
REMARK    4  A    between atoms: C4_4  and  C6_6 
REMARK    5  A    between atoms: C5_5  and  C7_7 
ROOT
HETATM    1  C2  UNL     1     -34.400  17.017  -3.780  1.00 20.00     0.010 C 
HETATM    2  C7  UNL     1     -34.946  15.931  -2.848  1.00 20.00    -0.012 C 
ENDROOT
BRANCH   2   3
HETATM    3  C3  UNL     1     -34.311  14.579  -3.218  1.00 20.00     0.073 C 
BRANCH   3   4
HETATM    4  C1  UNL     1     -35.072  13.812  -4.278  1.00 20.00     0.231 C 
HETATM    5  O8  UNL     1     -35.001  12.602  -4.458  1.00 20.00    -0.307 OA
ENDBRANCH   3   4
ENDBRANCH   2   3
BRANCH   2   6
HETATM    6  C5  UNL     1     -34.677  16.271  -1.365  1.00 20.00     0.005 C 
BRANCH   6   7
HETATM    7  C4  UNL     1     -33.715  17.451  -1.179  1.00 20.00     0.015 C 
BRANCH   7   8
HETATM    8  C6  UNL     1     -33.826  18.106   0.196  1.00 20.00     0.114 C 
HETATM    9 CL9  UNL     1     -35.224  17.499   1.114  1.00 20.00    -0.130 Cl
ENDBRANCH   7   8
ENDBRANCH   6   7
ENDBRANCH   2   6
TORSDOF 5
ENDMDL
