MODEL 1
REMARK VINA RESULT:      -4.8      0.000      0.000
REMARK  3 active torsions:
REMARK  status: ('A' for Active; 'I' for Inactive)
REMARK    1  A    between atoms: C6_6  and  C7_7 
REMARK    2  A    between atoms: C7_7  and  C8_8 
REMARK    3  A    between atoms: C8_8  and  C9_9 
ROOT
HETATM    1  C1  UNL     1     -36.918  14.659  -3.764  1.00 20.00     0.069 C 
HETATM    2  C2  UNL     1     -34.445  13.258  -4.923  1.00 20.00     0.002 C 
HETATM    3  C3  UNL     1     -34.764  14.362  -5.930  1.00 20.00     0.002 C 
HETATM    4  C4  UNL     1     -34.569  13.895  -3.538  1.00 20.00     0.024 C 
HETATM    5  C5  UNL     1     -35.066  15.615  -5.107  1.00 20.00     0.024 C 
HETATM    6  C6  UNL     1     -35.505  15.093  -3.733  1.00 20.00     0.049 C 
HETATM    7  N10 UNL     1     -38.027  14.317  -3.787  1.00 20.00    -0.196 NA
ENDROOT
BRANCH   6   8
HETATM    8  C7  UNL     1     -35.324  16.144  -2.639  1.00 20.00     0.026 C 
BRANCH   8   9
HETATM    9  C8  UNL     1     -33.848  16.371  -2.329  1.00 20.00     0.017 C 
BRANCH   9  10
HETATM   10  C9  UNL     1     -33.680  17.364  -1.187  1.00 20.00     0.114 C 
HETATM   11 CL11 UNL     1     -34.879  17.052   0.089  1.00 20.00    -0.130 Cl
ENDBRANCH   9  10
ENDBRANCH   8   9
ENDBRANCH   6   8
TORSDOF 3
ENDMDL
MODEL 2
REMARK VINA RESULT:      -4.6      2.095      2.576
REMARK  3 active torsions:
REMARK  status: ('A' for Active; 'I' for Inactive)
REMARK    1  A    between atoms: C6_6  and  C7_7 
REMARK    2  A    between atoms: C7_7  and  C8_8 
REMARK    3  A    between atoms: C8_8  and  C9_9 
ROOT
HETATM    1  C1  UNL     1     -33.870  16.419  -4.721  1.00 20.00     0.069 C 
HETATM    2  C2  UNL     1     -35.619  13.926  -4.339  1.00 20.00     0.002 C 
HETATM    3  C3  UNL     1     -34.196  13.380  -4.444  1.00 20.00     0.002 C 
HETATM    4  C4  UNL     1     -35.543  15.140  -3.411  1.00 20.00     0.024 C 
HETATM    5  C5  UNL     1     -33.325  14.289  -3.575  1.00 20.00     0.024 C 
HETATM    6  C6  UNL     1     -34.089  15.617  -3.499  1.00 20.00     0.049 C 
HETATM    7  N10 UNL     1     -33.700  17.050  -5.681  1.00 20.00    -0.196 NA
ENDROOT
BRANCH   6   8
HETATM    8  C7  UNL     1     -33.683  16.440  -2.277  1.00 20.00     0.026 C 
BRANCH   8   9
HETATM    9  C8  UNL     1     -34.750  16.377  -1.189  1.00 20.00     0.017 C 
BRANCH   9  10
HETATM   10  C9  UNL     1     -34.498  17.432  -0.121  1.00 20.00     0.114 C 
HETATM   11 CL11 UNL     1     -32.963  18.276  -0.431  1.00 20.00    -0.130 Cl
ENDBRANCH   9  10
ENDBRANCH   8   9
ENDBRANCH   6   8
TORSDOF 3
ENDMDL
MODEL 3
REMARK VINA RESULT:      -4.6      1.732      2.514
REMARK  3 active torsions:
REMARK  status: ('A' for Active; 'I' for Inactive)
REMARK    1  A    between atoms: C6_6  and  C7_7 
REMARK    2  A    between atoms: C7_7  and  C8_8 
REMARK    3  A    between atoms: C8_8  and  C9_9 
ROOT
HETATM    1  C1  UNL     1     -34.719  13.717  -5.006  1.00 20.00     0.069 C 
HETATM    2  C2  UNL     1     -35.630  14.764  -7.743  1.00 20.00     0.002 C 
HETATM    3  C3  UNL     1     -36.716  15.233  -6.776  1.00 20.00     0.002 C 
HETATM    4  C4  UNL     1     -34.294  15.048  -7.055  1.00 20.00     0.024 C 
HETATM    5  C5  UNL     1     -35.987  15.779  -5.548  1.00 20.00     0.024 C 
HETATM    6  C6  UNL     1     -34.618  15.085  -5.556  1.00 20.00     0.049 C 
HETATM    7  N10 UNL     1     -34.798  12.643  -4.574  1.00 20.00    -0.196 NA
ENDROOT
BRANCH   6   8
HETATM    8  C7  UNL     1     -33.574  15.872  -4.765  1.00 20.00     0.026 C 
BRANCH   8   9
HETATM    9  C8  UNL     1     -33.669  15.571  -3.273  1.00 20.00     0.017 C 
BRANCH   9  10
HETATM   10  C9  UNL     1     -33.883  16.850  -2.475  1.00 20.00     0.114 C 
HETATM   11 CL11 UNL     1     -34.614  16.482  -0.896  1.00 20.00    -0.130 Cl
ENDBRANCH   9  10
ENDBRANCH   8   9
ENDBRANCH   6   8
TORSDOF 3
ENDMDL
MODEL 4
REMARK VINA RESULT:      -4.5      1.946      2.503
REMARK  3 active torsions:
REMARK  status: ('A' for Active; 'I' for Inactive)
REMARK    1  A    between atoms: C6_6  and  C7_7 
REMARK    2  A    between atoms: C7_7  and  C8_8 
REMARK    3  A    between atoms: C8_8  and  C9_9 
ROOT
HETATM    1  C1  UNL     1     -33.752  14.280  -3.833  1.00 20.00     0.069 C 
HETATM    2  C2  UNL     1     -34.058  16.100  -6.285  1.00 20.00     0.002 C 
HETATM    3  C3  UNL     1     -35.490  15.862  -5.806  1.00 20.00     0.002 C 
HETATM    4  C4  UNL     1     -33.232  16.389  -5.031  1.00 20.00     0.024 C 
HETATM    5  C5  UNL     1     -35.463  16.018  -4.285  1.00 20.00     0.024 C 
HETATM    6  C6  UNL     1     -34.009  15.735  -3.882  1.00 20.00     0.049 C 
HETATM    7  N10 UNL     1     -33.548  13.138  -3.794  1.00 20.00    -0.196 NA
ENDROOT
BRANCH   6   8
HETATM    8  C7  UNL     1     -33.661  16.355  -2.530  1.00 20.00     0.026 C 
BRANCH   8   9
HETATM    9  C8  UNL     1     -34.797  16.175  -1.529  1.00 20.00     0.017 C 
BRANCH   9  10
HETATM   10  C9  UNL     1     -34.657  17.151  -0.369  1.00 20.00     0.114 C 
HETATM   11 CL11 UNL     1     -33.141  18.070  -0.509  1.00 20.00    -0.130 Cl
ENDBRANCH   9  10
ENDBRANCH   8   9
ENDBRANCH   6   8
TORSDOF 3
ENDMDL
MODEL 5
REMARK VINA RESULT:      -4.4     11.182     12.238
REMARK  3 active torsions:
REMARK  status: ('A' for Active; 'I' for Inactive)
REMARK    1  A    between atoms: C6_6  and  C7_7 
REMARK    2  A    between atoms: C7_7  and  C8_8 
REMARK    3  A    between atoms: C8_8  and  C9_9 
ROOT
HETATM    1  C1  UNL     1     -35.653   5.865   3.613  1.00 20.00     0.069 C 
HETATM    2  C2  UNL     1     -34.744   5.532   6.525  1.00 20.00     0.002 C 
HETATM    3  C3  UNL     1     -34.867   4.102   5.999  1.00 20.00     0.002 C 
HETATM    4  C4  UNL     1     -34.032   6.329   5.432  1.00 20.00     0.024 C 
HETATM    5  C5  UNL     1     -34.224   4.102   4.612  1.00 20.00     0.024 C 
HETATM    6  C6  UNL     1     -34.305   5.558   4.135  1.00 20.00     0.049 C 
HETATM    7  N10 UNL     1     -36.712   6.107   3.203  1.00 20.00    -0.196 NA
ENDROOT
BRANCH   6   8
HETATM    8  C7  UNL     1     -33.265   5.865   3.058  1.00 20.00     0.026 C 
BRANCH   8   9
HETATM    9  C8  UNL     1     -32.474   7.124   3.397  1.00 20.00     0.017 C 
BRANCH   9  10
HETATM   10  C9  UNL     1     -31.858   7.730   2.144  1.00 20.00     0.114 C 
HETATM   11 CL11 UNL     1     -32.574   9.323   1.807  1.00 20.00    -0.130 Cl
ENDBRANCH   9  10
ENDBRANCH   8   9
ENDBRANCH   6   8
TORSDOF 3
ENDMDL
MODEL 6
REMARK VINA RESULT:      -4.3      2.671      4.352
REMARK  3 active torsions:
REMARK  status: ('A' for Active; 'I' for Inactive)
REMARK    1  A    between atoms: C6_6  and  C7_7 
REMARK    2  A    between atoms: C7_7  and  C8_8 
REMARK    3  A    between atoms: C8_8  and  C9_9 
ROOT
HETATM    1  C1  UNL     1     -36.667  14.522  -4.048  1.00 20.00     0.069 C 
HETATM    2  C2  UNL     1     -35.038  17.000  -3.257  1.00 20.00     0.002 C 
HETATM    3  C3  UNL     1     -34.556  15.907  -2.304  1.00 20.00     0.002 C 
HETATM    4  C4  UNL     1     -35.108  16.357  -4.643  1.00 20.00     0.024 C 
HETATM    5  C5  UNL     1     -34.356  14.654  -3.158  1.00 20.00     0.024 C 
HETATM    6  C6  UNL     1     -35.265  14.855  -4.377  1.00 20.00     0.049 C 
HETATM    7  N10 UNL     1     -37.769  14.262  -3.791  1.00 20.00    -0.196 NA
ENDROOT
BRANCH   6   8
HETATM    8  C7  UNL     1     -34.814  14.014  -5.571  1.00 20.00     0.026 C 
BRANCH   8   9
HETATM    9  C8  UNL     1     -34.623  14.876  -6.814  1.00 20.00     0.017 C 
BRANCH   9  10
HETATM   10  C9  UNL     1     -35.583  14.455  -7.918  1.00 20.00     0.114 C 
HETATM   11 CL11 UNL     1     -37.217  15.076  -7.590  1.00 20.00    -0.130 Cl
ENDBRANCH   9  10
ENDBRANCH   8   9
ENDBRANCH   6   8
TORSDOF 3
ENDMDL
MODEL 7
REMARK VINA RESULT:      -4.3      3.097      3.783
REMARK  3 active torsions:
REMARK  status: ('A' for Active; 'I' for Inactive)
REMARK    1  A    between atoms: C6_6  and  C7_7 
REMARK    2  A    between atoms: C7_7  and  C8_8 
REMARK    3  A    between atoms: C8_8  and  C9_9 
ROOT
HETATM    1  C1  UNL     1     -34.499  16.216  -2.099  1.00 20.00     0.069 C 
HETATM    2  C2  UNL     1     -33.196  13.881  -3.605  1.00 20.00     0.002 C 
HETATM    3  C3  UNL     1     -34.697  13.606  -3.701  1.00 20.00     0.002 C 
HETATM    4  C4  UNL     1     -33.016  15.371  -3.898  1.00 20.00     0.024 C 
HETATM    5  C5  UNL     1     -35.354  14.942  -4.048  1.00 20.00     0.024 C 
HETATM    6  C6  UNL     1     -34.368  16.010  -3.557  1.00 20.00     0.049 C 
HETATM    7  N10 UNL     1     -34.602  16.378  -0.954  1.00 20.00    -0.196 NA
ENDROOT
BRANCH   6   8
HETATM    8  C7  UNL     1     -34.566  17.344  -4.275  1.00 20.00     0.026 C 
BRANCH   8   9
HETATM    9  C8  UNL     1     -33.620  17.478  -5.463  1.00 20.00     0.017 C 
BRANCH   9  10
HETATM   10  C9  UNL     1     -34.372  17.316  -6.776  1.00 20.00     0.114 C 
HETATM   11 CL11 UNL     1     -34.332  15.620  -7.311  1.00 20.00    -0.130 Cl
ENDBRANCH   9  10
ENDBRANCH   8   9
ENDBRANCH   6   8
TORSDOF 3
ENDMDL
MODEL 8
REMARK VINA RESULT:      -4.2      2.740      4.125
REMARK  3 active torsions:
REMARK  status: ('A' for Active; 'I' for Inactive)
REMARK    1  A    between atoms: C6_6  and  C7_7 
REMARK    2  A    between atoms: C7_7  and  C8_8 
REMARK    3  A    between atoms: C8_8  and  C9_9 
ROOT
HETATM    1  C1  UNL     1     -34.656  13.806  -4.765  1.00 20.00     0.069 C 
HETATM    2  C2  UNL     1     -35.204  16.184  -2.904  1.00 20.00     0.002 C 
HETATM    3  C3  UNL     1     -33.695  15.962  -2.803  1.00 20.00     0.002 C 
HETATM    4  C4  UNL     1     -35.551  16.089  -4.390  1.00 20.00     0.024 C 
HETATM    5  C5  UNL     1     -33.200  15.742  -4.233  1.00 20.00     0.024 C 
HETATM    6  C6  UNL     1     -34.428  15.246  -5.008  1.00 20.00     0.049 C 
HETATM    7  N10 UNL     1     -34.836  12.675  -4.575  1.00 20.00    -0.196 NA
ENDROOT
BRANCH   6   8
HETATM    8  C7  UNL     1     -34.293  15.490  -6.510  1.00 20.00     0.026 C 
BRANCH   8   9
HETATM    9  C8  UNL     1     -35.220  16.608  -6.975  1.00 20.00     0.017 C 
BRANCH   9  10
HETATM   10  C9  UNL     1     -34.423  17.757  -7.577  1.00 20.00     0.114 C 
HETATM   11 CL11 UNL     1     -33.652  18.717  -6.294  1.00 20.00    -0.130 Cl
ENDBRANCH   9  10
ENDBRANCH   8   9
ENDBRANCH   6   8
TORSDOF 3
ENDMDL
MODEL 9
REMARK VINA RESULT:      -4.1      2.562      2.932
REMARK  3 active torsions:
REMARK  status: ('A' for Active; 'I' for Inactive)
REMARK    1  A    between atoms: C6_6  and  C7_7 
REMARK    2  A    between atoms: C7_7  and  C8_8 
REMARK    3  A    between atoms: C8_8  and  C9_9 
ROOT
HETATM    1  C1  UNL     1     -36.978  14.751  -4.086  1.00 20.00     0.069 C 
HETATM    2  C2  UNL     1     -34.183  13.619  -3.516  1.00 20.00     0.002 C 
HETATM    3  C3  UNL     1     -34.496  13.160  -4.940  1.00 20.00     0.002 C 
HETATM    4  C4  UNL     1     -34.607  15.086  -3.437  1.00 20.00     0.024 C 
HETATM    5  C5  UNL     1     -35.096  14.371  -5.656  1.00 20.00     0.024 C 
HETATM    6  C6  UNL     1     -35.663  15.254  -4.537  1.00 20.00     0.049 C 
HETATM    7  N10 UNL     1     -38.010  14.357  -3.732  1.00 20.00    -0.196 NA
ENDROOT
BRANCH   6   8
HETATM    8  C7  UNL     1     -35.803  16.711  -4.976  1.00 20.00     0.026 C 
BRANCH   8   9
HETATM    9  C8  UNL     1     -34.637  17.555  -4.471  1.00 20.00     0.017 C 
BRANCH   9  10
HETATM   10  C9  UNL     1     -33.693  17.910  -5.611  1.00 20.00     0.114 C 
HETATM   11 CL11 UNL     1     -34.465  17.589  -7.181  1.00 20.00    -0.130 Cl
ENDBRANCH   9  10
ENDBRANCH   8   9
ENDBRANCH   6   8
TORSDOF 3
ENDMDL
