MODEL 1
REMARK VINA RESULT:      -4.2      0.000      0.000
REMARK  3 active torsions:
REMARK  status: ('A' for Active; 'I' for Inactive)
REMARK    1  A    between atoms: C1_1  and  C5_5 
REMARK    2  A    between atoms: C3_3  and  C4_4 
REMARK    3  A    between atoms: C3_3  and  C5_5 
ROOT
HETATM    1  C2  UNL     1     -33.850   6.550   6.308  1.00 20.00     0.017 C 
HETATM    2  C5  UNL     1     -34.737   5.812   5.308  1.00 20.00     0.044 C 
ENDROOT
BRANCH   2   3
HETATM    3  C1  UNL     1     -34.754   4.344   5.700  1.00 20.00     0.235 C 
HETATM    4  O6  UNL     1     -35.089   3.424   4.963  1.00 20.00    -0.306 OA
ENDBRANCH   2   3
BRANCH   2   5
HETATM    5  C3  UNL     1     -34.248   6.042   3.871  1.00 20.00     0.026 C 
BRANCH   5   6
HETATM    6  C4  UNL     1     -32.735   6.228   3.799  1.00 20.00     0.115 C 
HETATM    7 CL7  UNL     1     -32.322   7.485   2.608  1.00 20.00    -0.130 Cl
ENDBRANCH   5   6
ENDBRANCH   2   5
TORSDOF 3
ENDMDL
MODEL 2
REMARK VINA RESULT:      -4.1      1.762      2.160
REMARK  3 active torsions:
REMARK  status: ('A' for Active; 'I' for Inactive)
REMARK    1  A    between atoms: C1_1  and  C5_5 
REMARK    2  A    between atoms: C3_3  and  C4_4 
REMARK    3  A    between atoms: C3_3  and  C5_5 
ROOT
HETATM    1  C2  UNL     1     -35.282   4.518   4.813  1.00 20.00     0.017 C 
HETATM    2  C5  UNL     1     -34.063   5.413   5.022  1.00 20.00     0.044 C 
ENDROOT
BRANCH   2   3
HETATM    3  C1  UNL     1     -34.246   6.143   6.342  1.00 20.00     0.235 C 
HETATM    4  O6  UNL     1     -33.549   7.073   6.733  1.00 20.00    -0.306 OA
ENDBRANCH   2   3
BRANCH   2   5
HETATM    5  C3  UNL     1     -33.875   6.364   3.832  1.00 20.00     0.026 C 
BRANCH   5   6
HETATM    6  C4  UNL     1     -32.437   6.372   3.321  1.00 20.00     0.115 C 
HETATM    7 CL7  UNL     1     -32.130   7.839   2.361  1.00 20.00    -0.130 Cl
ENDBRANCH   5   6
ENDBRANCH   2   5
TORSDOF 3
ENDMDL
MODEL 3
REMARK VINA RESULT:      -3.7      3.057      3.869
REMARK  3 active torsions:
REMARK  status: ('A' for Active; 'I' for Inactive)
REMARK    1  A    between atoms: C1_1  and  C5_5 
REMARK    2  A    between atoms: C3_3  and  C4_4 
REMARK    3  A    between atoms: C3_3  and  C5_5 
ROOT
HETATM    1  C2  UNL     1     -34.692   5.436   3.321  1.00 20.00     0.017 C 
HETATM    2  C5  UNL     1     -33.875   6.552   3.967  1.00 20.00     0.044 C 
ENDROOT
BRANCH   2   3
HETATM    3  C1  UNL     1     -32.525   6.601   3.271  1.00 20.00     0.235 C 
HETATM    4  O6  UNL     1     -32.108   7.547   2.612  1.00 20.00    -0.306 OA
ENDBRANCH   2   3
BRANCH   2   5
HETATM    5  C3  UNL     1     -33.760   6.336   5.482  1.00 20.00     0.026 C 
BRANCH   5   6
HETATM    6  C4  UNL     1     -34.868   5.438   6.024  1.00 20.00     0.115 C 
HETATM    7 CL7  UNL     1     -34.290   3.761   6.170  1.00 20.00    -0.130 Cl
ENDBRANCH   5   6
ENDBRANCH   2   5
TORSDOF 3
ENDMDL
MODEL 4
REMARK VINA RESULT:      -3.6      2.579      3.452
REMARK  3 active torsions:
REMARK  status: ('A' for Active; 'I' for Inactive)
REMARK    1  A    between atoms: C1_1  and  C5_5 
REMARK    2  A    between atoms: C3_3  and  C4_4 
REMARK    3  A    between atoms: C3_3  and  C5_5 
ROOT
HETATM    1  C2  UNL     1     -35.370   5.785   2.990  1.00 20.00     0.017 C 
HETATM    2  C5  UNL     1     -34.299   6.007   4.054  1.00 20.00     0.044 C 
ENDROOT
BRANCH   2   3
HETATM    3  C1  UNL     1     -32.954   6.072   3.351  1.00 20.00     0.235 C 
HETATM    4  O6  UNL     1     -32.065   6.878   3.605  1.00 20.00    -0.306 OA
ENDBRANCH   2   3
BRANCH   2   5
HETATM    5  C3  UNL     1     -34.361   4.912   5.128  1.00 20.00     0.026 C 
BRANCH   5   6
HETATM    6  C4  UNL     1     -34.570   5.485   6.527  1.00 20.00     0.115 C 
HETATM    7 CL7  UNL     1     -33.765   7.065   6.675  1.00 20.00    -0.130 Cl
ENDBRANCH   5   6
ENDBRANCH   2   5
TORSDOF 3
ENDMDL
MODEL 5
REMARK VINA RESULT:      -3.6      3.139      3.713
REMARK  3 active torsions:
REMARK  status: ('A' for Active; 'I' for Inactive)
REMARK    1  A    between atoms: C1_1  and  C5_5 
REMARK    2  A    between atoms: C3_3  and  C4_4 
REMARK    3  A    between atoms: C3_3  and  C5_5 
ROOT
HETATM    1  C2  UNL     1     -33.547   6.798   5.243  1.00 20.00     0.017 C 
HETATM    2  C5  UNL     1     -33.208   6.008   3.982  1.00 20.00     0.044 C 
ENDROOT
BRANCH   2   3
HETATM    3  C1  UNL     1     -32.445   6.932   3.048  1.00 20.00     0.235 C 
HETATM    4  O6  UNL     1     -31.525   7.669   3.385  1.00 20.00    -0.306 OA
ENDBRANCH   2   3
BRANCH   2   5
HETATM    5  C3  UNL     1     -34.478   5.427   3.345  1.00 20.00     0.026 C 
BRANCH   5   6
HETATM    6  C4  UNL     1     -35.528   5.052   4.387  1.00 20.00     0.115 C 
HETATM    7 CL7  UNL     1     -34.909   3.772   5.457  1.00 20.00    -0.130 Cl
ENDBRANCH   5   6
ENDBRANCH   2   5
TORSDOF 3
ENDMDL
MODEL 6
REMARK VINA RESULT:      -3.5     11.967     12.350
REMARK  3 active torsions:
REMARK  status: ('A' for Active; 'I' for Inactive)
REMARK    1  A    between atoms: C1_1  and  C5_5 
REMARK    2  A    between atoms: C3_3  and  C4_4 
REMARK    3  A    between atoms: C3_3  and  C5_5 
ROOT
HETATM    1  C2  UNL     1     -32.931  14.885  -3.705  1.00 20.00     0.017 C 
HETATM    2  C5  UNL     1     -34.314  14.448  -3.228  1.00 20.00     0.044 C 
ENDROOT
BRANCH   2   3
HETATM    3  C1  UNL     1     -35.010  13.763  -4.392  1.00 20.00     0.235 C 
HETATM    4  O6  UNL     1     -34.857  12.589  -4.709  1.00 20.00    -0.306 OA
ENDBRANCH   2   3
BRANCH   2   5
HETATM    5  C3  UNL     1     -35.103  15.644  -2.677  1.00 20.00     0.026 C 
BRANCH   5   6
HETATM    6  C4  UNL     1     -34.204  16.653  -1.969  1.00 20.00     0.115 C 
HETATM    7 CL7  UNL     1     -34.695  16.833  -0.268  1.00 20.00    -0.130 Cl
ENDBRANCH   5   6
ENDBRANCH   2   5
TORSDOF 3
ENDMDL
MODEL 7
REMARK VINA RESULT:      -3.5      2.475      3.204
REMARK  3 active torsions:
REMARK  status: ('A' for Active; 'I' for Inactive)
REMARK    1  A    between atoms: C1_1  and  C5_5 
REMARK    2  A    between atoms: C3_3  and  C4_4 
REMARK    3  A    between atoms: C3_3  and  C5_5 
ROOT
HETATM    1  C2  UNL     1     -32.437   6.409   3.367  1.00 20.00     0.017 C 
HETATM    2  C5  UNL     1     -33.576   5.719   4.113  1.00 20.00     0.044 C 
ENDROOT
BRANCH   2   3
HETATM    3  C1  UNL     1     -34.710   5.500   3.126  1.00 20.00     0.235 C 
HETATM    4  O6  UNL     1     -35.898   5.687   3.368  1.00 20.00    -0.306 OA
ENDBRANCH   2   3
BRANCH   2   5
HETATM    5  C3  UNL     1     -33.999   6.539   5.340  1.00 20.00     0.026 C 
BRANCH   5   6
HETATM    6  C4  UNL     1     -34.419   5.653   6.510  1.00 20.00     0.115 C 
HETATM    7 CL7  UNL     1     -34.715   3.990   5.952  1.00 20.00    -0.130 Cl
ENDBRANCH   5   6
ENDBRANCH   2   5
TORSDOF 3
ENDMDL
MODEL 8
REMARK VINA RESULT:      -3.4     11.901     12.655
REMARK  3 active torsions:
REMARK  status: ('A' for Active; 'I' for Inactive)
REMARK    1  A    between atoms: C1_1  and  C5_5 
REMARK    2  A    between atoms: C3_3  and  C4_4 
REMARK    3  A    between atoms: C3_3  and  C5_5 
ROOT
HETATM    1  C2  UNL     1     -34.160  15.448  -5.464  1.00 20.00     0.017 C 
HETATM    2  C5  UNL     1     -33.748  14.753  -4.168  1.00 20.00     0.044 C 
ENDROOT
BRANCH   2   3
HETATM    3  C1  UNL     1     -34.766  13.662  -3.884  1.00 20.00     0.235 C 
HETATM    4  O6  UNL     1     -34.901  12.637  -4.543  1.00 20.00    -0.306 OA
ENDBRANCH   2   3
BRANCH   2   5
HETATM    5  C3  UNL     1     -33.620  15.767  -3.022  1.00 20.00     0.026 C 
BRANCH   5   6
HETATM    6  C4  UNL     1     -34.940  15.976  -2.286  1.00 20.00     0.115 C 
HETATM    7 CL7  UNL     1     -34.643  16.609  -0.650  1.00 20.00    -0.130 Cl
ENDBRANCH   5   6
ENDBRANCH   2   5
TORSDOF 3
ENDMDL
MODEL 9
REMARK VINA RESULT:      -3.4      2.760      3.316
REMARK  3 active torsions:
REMARK  status: ('A' for Active; 'I' for Inactive)
REMARK    1  A    between atoms: C1_1  and  C5_5 
REMARK    2  A    between atoms: C3_3  and  C4_4 
REMARK    3  A    between atoms: C3_3  and  C5_5 
ROOT
HETATM    1  C2  UNL     1     -32.294   6.920   3.351  1.00 20.00     0.017 C 
HETATM    2  C5  UNL     1     -33.620   6.647   4.056  1.00 20.00     0.044 C 
ENDROOT
BRANCH   2   3
HETATM    3  C1  UNL     1     -33.329   6.464   5.536  1.00 20.00     0.235 C 
HETATM    4  O6  UNL     1     -33.963   6.984   6.447  1.00 20.00    -0.306 OA
ENDBRANCH   2   3
BRANCH   2   5
HETATM    5  C3  UNL     1     -34.332   5.439   3.431  1.00 20.00     0.026 C 
BRANCH   5   6
HETATM    6  C4  UNL     1     -35.531   4.983   4.257  1.00 20.00     0.115 C 
HETATM    7 CL7  UNL     1     -35.036   3.749   5.440  1.00 20.00    -0.130 Cl
ENDBRANCH   5   6
ENDBRANCH   2   5
TORSDOF 3
ENDMDL
