MODEL 1
REMARK VINA RESULT:      -4.4      0.000      0.000
REMARK  1 active torsions:
REMARK  status: ('A' for Active; 'I' for Inactive)
REMARK    1  A    between atoms: C6_6  and  C8_8 
ROOT
HETATM    1  C1  UNL     1     -36.704  14.680  -3.658  1.00 20.00     0.069 C 
HETATM    2  C2  UNL     1     -33.591  16.815  -3.907  1.00 20.00     0.002 C 
HETATM    3  C3  UNL     1     -33.716  16.626  -2.396  1.00 20.00     0.002 C 
HETATM    4  C4  UNL     1     -34.805  16.122  -4.525  1.00 20.00     0.024 C 
HETATM    5  C5  UNL     1     -34.999  15.827  -2.170  1.00 20.00     0.024 C 
HETATM    6  C6  UNL     1     -35.239  15.080  -3.487  1.00 20.00     0.049 C 
HETATM    7  N9  UNL     1     -37.815  14.375  -3.788  1.00 20.00    -0.196 NA
ENDROOT
BRANCH   6   8
HETATM    8  C8  UNL     1     -34.390  13.872  -3.569  1.00 20.00     0.020 C 
HETATM    9  C7  UNL     1     -34.516  13.198  -4.895  1.00 20.00     0.007 C 
ENDBRANCH   6   8
TORSDOF 1
ENDMDL
MODEL 2
REMARK VINA RESULT:      -4.3      1.204      2.040
REMARK  1 active torsions:
REMARK  status: ('A' for Active; 'I' for Inactive)
REMARK    1  A    between atoms: C6_6  and  C8_8 
ROOT
HETATM    1  C1  UNL     1     -37.039  14.522  -3.968  1.00 20.00     0.069 C 
HETATM    2  C2  UNL     1     -33.434  15.306  -3.131  1.00 20.00     0.002 C 
HETATM    3  C3  UNL     1     -33.310  13.921  -3.766  1.00 20.00     0.002 C 
HETATM    4  C4  UNL     1     -34.929  15.625  -3.092  1.00 20.00     0.024 C 
HETATM    5  C5  UNL     1     -34.735  13.467  -4.082  1.00 20.00     0.024 C 
HETATM    6  C6  UNL     1     -35.548  14.761  -4.199  1.00 20.00     0.049 C 
HETATM    7  N9  UNL     1     -38.171  14.341  -3.794  1.00 20.00    -0.196 NA
ENDROOT
BRANCH   6   8
HETATM    8  C8  UNL     1     -35.353  15.387  -5.524  1.00 20.00     0.020 C 
HETATM    9  C7  UNL     1     -35.529  14.400  -6.631  1.00 20.00     0.007 C 
ENDBRANCH   6   8
TORSDOF 1
ENDMDL
MODEL 3
REMARK VINA RESULT:      -4.1      2.219      3.497
REMARK  1 active torsions:
REMARK  status: ('A' for Active; 'I' for Inactive)
REMARK    1  A    between atoms: C6_6  and  C8_8 
ROOT
HETATM    1  C1  UNL     1     -33.839  17.227  -4.291  1.00 20.00     0.069 C 
HETATM    2  C2  UNL     1     -34.520  13.530  -4.715  1.00 20.00     0.002 C 
HETATM    3  C3  UNL     1     -33.327  13.517  -3.759  1.00 20.00     0.002 C 
HETATM    4  C4  UNL     1     -34.773  14.997  -5.062  1.00 20.00     0.024 C 
HETATM    5  C5  UNL     1     -32.914  14.976  -3.572  1.00 20.00     0.024 C 
HETATM    6  C6  UNL     1     -34.173  15.790  -3.893  1.00 20.00     0.049 C 
HETATM    7  N9  UNL     1     -33.585  18.318  -4.593  1.00 20.00    -0.196 NA
ENDROOT
BRANCH   6   8
HETATM    8  C8  UNL     1     -35.098  15.806  -2.740  1.00 20.00     0.020 C 
HETATM    9  C7  UNL     1     -34.454  16.388  -1.525  1.00 20.00     0.007 C 
ENDBRANCH   6   8
TORSDOF 1
ENDMDL
MODEL 4
REMARK VINA RESULT:      -4.1      1.555      2.383
REMARK  1 active torsions:
REMARK  status: ('A' for Active; 'I' for Inactive)
REMARK    1  A    between atoms: C6_6  and  C8_8 
ROOT
HETATM    1  C1  UNL     1     -34.729  13.726  -4.481  1.00 20.00     0.069 C 
HETATM    2  C2  UNL     1     -35.104  16.560  -2.003  1.00 20.00     0.002 C 
HETATM    3  C3  UNL     1     -33.612  16.631  -2.331  1.00 20.00     0.002 C 
HETATM    4  C4  UNL     1     -35.652  15.357  -2.771  1.00 20.00     0.024 C 
HETATM    5  C5  UNL     1     -33.328  15.469  -3.282  1.00 20.00     0.024 C 
HETATM    6  C6  UNL     1     -34.678  15.153  -3.938  1.00 20.00     0.049 C 
HETATM    7  N9  UNL     1     -34.768  12.643  -4.894  1.00 20.00    -0.196 NA
ENDROOT
BRANCH   6   8
HETATM    8  C8  UNL     1     -34.965  16.103  -5.034  1.00 20.00     0.020 C 
HETATM    9  C7  UNL     1     -33.975  15.979  -6.145  1.00 20.00     0.007 C 
ENDBRANCH   6   8
TORSDOF 1
ENDMDL
MODEL 5
REMARK VINA RESULT:      -4.1      1.658      2.506
REMARK  1 active torsions:
REMARK  status: ('A' for Active; 'I' for Inactive)
REMARK    1  A    between atoms: C6_6  and  C8_8 
ROOT
HETATM    1  C1  UNL     1     -36.755  14.434  -4.378  1.00 20.00     0.069 C 
HETATM    2  C2  UNL     1     -34.591  15.193  -7.387  1.00 20.00     0.002 C 
HETATM    3  C3  UNL     1     -33.952  16.077  -6.316  1.00 20.00     0.002 C 
HETATM    4  C4  UNL     1     -35.798  14.527  -6.726  1.00 20.00     0.024 C 
HETATM    5  C5  UNL     1     -34.802  15.905  -5.058  1.00 20.00     0.024 C 
HETATM    6  C6  UNL     1     -35.488  14.543  -5.224  1.00 20.00     0.049 C 
HETATM    7  N9  UNL     1     -37.717  14.351  -3.736  1.00 20.00    -0.196 NA
ENDROOT
BRANCH   6   8
HETATM    8  C8  UNL     1     -34.566  13.444  -4.867  1.00 20.00     0.020 C 
HETATM    9  C7  UNL     1     -33.886  13.696  -3.562  1.00 20.00     0.007 C 
ENDBRANCH   6   8
TORSDOF 1
ENDMDL
MODEL 6
REMARK VINA RESULT:      -4.0      2.221      2.832
REMARK  1 active torsions:
REMARK  status: ('A' for Active; 'I' for Inactive)
REMARK    1  A    between atoms: C6_6  and  C8_8 
ROOT
HETATM    1  C1  UNL     1     -34.700  13.817  -4.957  1.00 20.00     0.069 C 
HETATM    2  C2  UNL     1     -35.074  17.554  -5.412  1.00 20.00     0.002 C 
HETATM    3  C3  UNL     1     -33.567  17.419  -5.189  1.00 20.00     0.002 C 
HETATM    4  C4  UNL     1     -35.654  16.148  -5.264  1.00 20.00     0.024 C 
HETATM    5  C5  UNL     1     -33.307  15.938  -4.918  1.00 20.00     0.024 C 
HETATM    6  C6  UNL     1     -34.485  15.201  -5.567  1.00 20.00     0.049 C 
HETATM    7  N9  UNL     1     -34.863  12.766  -4.495  1.00 20.00    -0.196 NA
ENDROOT
BRANCH   6   8
HETATM    8  C8  UNL     1     -34.282  15.067  -7.025  1.00 20.00     0.020 C 
HETATM    9  C7  UNL     1     -35.485  14.495  -7.699  1.00 20.00     0.007 C 
ENDBRANCH   6   8
TORSDOF 1
ENDMDL
MODEL 7
REMARK VINA RESULT:      -4.0      1.758      3.334
REMARK  1 active torsions:
REMARK  status: ('A' for Active; 'I' for Inactive)
REMARK    1  A    between atoms: C6_6  and  C8_8 
ROOT
HETATM    1  C1  UNL     1     -34.515  15.922  -2.235  1.00 20.00     0.069 C 
HETATM    2  C2  UNL     1     -34.539  13.264  -4.927  1.00 20.00     0.002 C 
HETATM    3  C3  UNL     1     -35.482  14.312  -5.519  1.00 20.00     0.002 C 
HETATM    4  C4  UNL     1     -34.137  13.783  -3.547  1.00 20.00     0.024 C 
HETATM    5  C5  UNL     1     -35.607  15.415  -4.468  1.00 20.00     0.024 C 
HETATM    6  C6  UNL     1     -34.335  15.303  -3.620  1.00 20.00     0.049 C 
HETATM    7  N9  UNL     1     -34.651  16.393  -1.184  1.00 20.00    -0.196 NA
ENDROOT
BRANCH   6   8
HETATM    8  C8  UNL     1     -33.192  15.949  -4.300  1.00 20.00     0.020 C 
HETATM    9  C7  UNL     1     -33.520  17.341  -4.729  1.00 20.00     0.007 C 
ENDBRANCH   6   8
TORSDOF 1
ENDMDL
MODEL 8
REMARK VINA RESULT:      -4.0      0.943      2.462
REMARK  1 active torsions:
REMARK  status: ('A' for Active; 'I' for Inactive)
REMARK    1  A    between atoms: C6_6  and  C8_8 
ROOT
HETATM    1  C1  UNL     1     -36.573  14.766  -3.633  1.00 20.00     0.069 C 
HETATM    2  C2  UNL     1     -32.793  14.847  -3.770  1.00 20.00     0.002 C 
HETATM    3  C3  UNL     1     -33.157  16.126  -4.524  1.00 20.00     0.002 C 
HETATM    4  C4  UNL     1     -34.117  14.166  -3.421  1.00 20.00     0.024 C 
HETATM    5  C5  UNL     1     -34.684  16.160  -4.595  1.00 20.00     0.024 C 
HETATM    6  C6  UNL     1     -35.156  15.295  -3.420  1.00 20.00     0.049 C 
HETATM    7  N9  UNL     1     -37.649  14.364  -3.794  1.00 20.00    -0.196 NA
ENDROOT
BRANCH   6   8
HETATM    8  C8  UNL     1     -35.104  16.056  -2.153  1.00 20.00     0.020 C 
HETATM    9  C7  UNL     1     -35.887  17.324  -2.239  1.00 20.00     0.007 C 
ENDBRANCH   6   8
TORSDOF 1
ENDMDL
MODEL 9
REMARK VINA RESULT:      -4.0      1.731      2.200
REMARK  1 active torsions:
REMARK  status: ('A' for Active; 'I' for Inactive)
REMARK    1  A    between atoms: C6_6  and  C8_8 
ROOT
HETATM    1  C1  UNL     1     -34.853  16.169  -4.976  1.00 20.00     0.069 C 
HETATM    2  C2  UNL     1     -33.700  17.532  -1.640  1.00 20.00     0.002 C 
HETATM    3  C3  UNL     1     -34.619  16.390  -1.207  1.00 20.00     0.002 C 
HETATM    4  C4  UNL     1     -33.777  17.585  -3.166  1.00 20.00     0.024 C 
HETATM    5  C5  UNL     1     -35.207  15.805  -2.490  1.00 20.00     0.024 C 
HETATM    6  C6  UNL     1     -34.207  16.175  -3.592  1.00 20.00     0.049 C 
HETATM    7  N9  UNL     1     -35.343  16.164  -6.027  1.00 20.00    -0.196 NA
ENDROOT
BRANCH   6   8
HETATM    8  C8  UNL     1     -33.053  15.250  -3.587  1.00 20.00     0.020 C 
HETATM    9  C7  UNL     1     -33.484  13.832  -3.766  1.00 20.00     0.007 C 
ENDBRANCH   6   8
TORSDOF 1
ENDMDL
