MODEL 1
REMARK VINA RESULT:      -4.1      0.000      0.000
REMARK  1 active torsions:
REMARK  status: ('A' for Active; 'I' for Inactive)
REMARK    1  A    between atoms: C5_5  and  C6_6 
ROOT
HETATM    1  C1  UNL     1     -34.602  13.709  -4.378  1.00 20.00     0.100 C 
HETATM    2  C2  UNL     1     -34.344  15.560  -2.673  1.00 20.00     0.038 A 
HETATM    3  C3  UNL     1     -33.959  16.027  -4.917  1.00 20.00     0.072 A 
HETATM    4  C4  UNL     1     -34.311  15.056  -4.005  1.00 20.00     0.052 A 
HETATM    5  C5  UNL     1     -34.016  16.897  -2.617  1.00 20.00    -0.002 A 
HETATM    6  N7  UNL     1     -34.838  12.614  -4.681  1.00 20.00    -0.191 NA
HETATM    7  S8  UNL     1     -33.672  17.540  -4.167  1.00 20.00    -0.104 SA
ENDROOT
BRANCH   5   8
HETATM    8  C6  UNL     1     -33.939  17.776  -1.430  1.00 20.00     0.160 C 
HETATM    9 CL9  UNL     1     -34.758  17.037  -0.030  1.00 20.00    -0.125 Cl
ENDBRANCH   5   8
TORSDOF 1
ENDMDL
MODEL 2
REMARK VINA RESULT:      -3.8      3.373      4.248
REMARK  1 active torsions:
REMARK  status: ('A' for Active; 'I' for Inactive)
REMARK    1  A    between atoms: C5_5  and  C6_6 
ROOT
HETATM    1  C1  UNL     1     -34.581  16.680  -1.066  1.00 20.00     0.100 C 
HETATM    2  C2  UNL     1     -34.687  15.083  -3.027  1.00 20.00     0.038 A 
HETATM    3  C3  UNL     1     -33.686  17.162  -3.312  1.00 20.00     0.072 A 
HETATM    4  C4  UNL     1     -34.324  16.323  -2.424  1.00 20.00     0.052 A 
HETATM    5  C5  UNL     1     -34.312  15.022  -4.351  1.00 20.00    -0.002 A 
HETATM    6  N7  UNL     1     -34.791  16.969   0.038  1.00 20.00    -0.191 NA
HETATM    7  S8  UNL     1     -33.525  16.454  -4.863  1.00 20.00    -0.104 SA
ENDROOT
BRANCH   5   8
HETATM    8  C6  UNL     1     -34.507  13.915  -5.311  1.00 20.00     0.160 C 
HETATM    9 CL9  UNL     1     -34.777  14.537  -6.960  1.00 20.00    -0.125 Cl
ENDBRANCH   5   8
TORSDOF 1
ENDMDL
MODEL 3
REMARK VINA RESULT:      -3.7      3.156      4.121
REMARK  1 active torsions:
REMARK  status: ('A' for Active; 'I' for Inactive)
REMARK    1  A    between atoms: C5_5  and  C6_6 
ROOT
HETATM    1  C1  UNL     1     -34.771  17.102  -0.350  1.00 20.00     0.100 C 
HETATM    2  C2  UNL     1     -34.522  15.594  -2.366  1.00 20.00     0.038 A 
HETATM    3  C3  UNL     1     -34.034  17.857  -2.578  1.00 20.00     0.072 A 
HETATM    4  C4  UNL     1     -34.452  16.863  -1.720  1.00 20.00     0.052 A 
HETATM    5  C5  UNL     1     -34.157  15.667  -3.692  1.00 20.00    -0.002 A 
HETATM    6  N7  UNL     1     -35.031  17.297   0.764  1.00 20.00    -0.191 NA
HETATM    7  S8  UNL     1     -33.729  17.261  -4.154  1.00 20.00    -0.104 SA
ENDROOT
BRANCH   5   8
HETATM    8  C6  UNL     1     -34.098  14.579  -4.692  1.00 20.00     0.160 C 
HETATM    9 CL9  UNL     1     -35.176  13.234  -4.239  1.00 20.00    -0.125 Cl
ENDBRANCH   5   8
TORSDOF 1
ENDMDL
MODEL 4
REMARK VINA RESULT:      -3.7      2.495      2.710
REMARK  1 active torsions:
REMARK  status: ('A' for Active; 'I' for Inactive)
REMARK    1  A    between atoms: C5_5  and  C6_6 
ROOT
HETATM    1  C1  UNL     1     -38.014  14.579  -4.068  1.00 20.00     0.100 C 
HETATM    2  C2  UNL     1     -36.090  15.776  -2.942  1.00 20.00     0.038 A 
HETATM    3  C3  UNL     1     -35.654  13.882  -4.216  1.00 20.00     0.072 A 
HETATM    4  C4  UNL     1     -36.631  14.738  -3.755  1.00 20.00     0.052 A 
HETATM    5  C5  UNL     1     -34.723  15.674  -2.812  1.00 20.00    -0.002 A 
HETATM    6  N7  UNL     1     -39.139  14.451  -4.323  1.00 20.00    -0.191 NA
HETATM    7  S8  UNL     1     -34.094  14.332  -3.670  1.00 20.00    -0.104 SA
ENDROOT
BRANCH   5   8
HETATM    8  C6  UNL     1     -33.802  16.552  -2.058  1.00 20.00     0.160 C 
HETATM    9 CL9  UNL     1     -34.467  16.948  -0.452  1.00 20.00    -0.125 Cl
ENDBRANCH   5   8
TORSDOF 1
ENDMDL
MODEL 5
REMARK VINA RESULT:      -3.6      3.729      4.557
REMARK  1 active torsions:
REMARK  status: ('A' for Active; 'I' for Inactive)
REMARK    1  A    between atoms: C5_5  and  C6_6 
ROOT
HETATM    1  C1  UNL     1     -34.454  16.094  -1.939  1.00 20.00     0.100 C 
HETATM    2  C2  UNL     1     -34.358  16.069  -4.468  1.00 20.00     0.038 A 
HETATM    3  C3  UNL     1     -34.545  14.055  -3.323  1.00 20.00     0.072 A 
HETATM    4  C4  UNL     1     -34.453  15.424  -3.200  1.00 20.00     0.052 A 
HETATM    5  C5  UNL     1     -34.380  15.169  -5.510  1.00 20.00    -0.002 A 
HETATM    6  N7  UNL     1     -34.454  16.638  -0.915  1.00 20.00    -0.191 NA
HETATM    7  S8  UNL     1     -34.518  13.552  -4.959  1.00 20.00    -0.104 SA
ENDROOT
BRANCH   5   8
HETATM    8  C6  UNL     1     -34.304  15.439  -6.962  1.00 20.00     0.160 C 
HETATM    9 CL9  UNL     1     -35.447  14.412  -7.865  1.00 20.00    -0.125 Cl
ENDBRANCH   5   8
TORSDOF 1
ENDMDL
MODEL 6
REMARK VINA RESULT:      -3.6     12.722     13.829
REMARK  1 active torsions:
REMARK  status: ('A' for Active; 'I' for Inactive)
REMARK    1  A    between atoms: C5_5  and  C6_6 
ROOT
HETATM    1  C1  UNL     1     -41.650   1.991  -3.430  1.00 20.00     0.100 C 
HETATM    2  C2  UNL     1     -40.995   3.859  -1.853  1.00 20.00     0.038 A 
HETATM    3  C3  UNL     1     -42.951   4.059  -3.094  1.00 20.00     0.072 A 
HETATM    4  C4  UNL     1     -41.862   3.262  -2.814  1.00 20.00     0.052 A 
HETATM    5  C5  UNL     1     -41.453   5.089  -1.436  1.00 20.00    -0.002 A 
HETATM    6  N7  UNL     1     -41.478   0.959  -3.930  1.00 20.00    -0.191 NA
HETATM    7  S8  UNL     1     -42.925   5.519  -2.200  1.00 20.00    -0.104 SA
ENDROOT
BRANCH   5   8
HETATM    8  C6  UNL     1     -40.844   6.014  -0.457  1.00 20.00     0.160 C 
HETATM    9 CL9  UNL     1     -41.188   7.711  -0.879  1.00 20.00    -0.125 Cl
ENDBRANCH   5   8
TORSDOF 1
ENDMDL
MODEL 7
REMARK VINA RESULT:      -3.5      2.565      2.914
REMARK  1 active torsions:
REMARK  status: ('A' for Active; 'I' for Inactive)
REMARK    1  A    between atoms: C5_5  and  C6_6 
ROOT
HETATM    1  C1  UNL     1     -34.633  13.767  -4.317  1.00 20.00     0.100 C 
HETATM    2  C2  UNL     1     -34.025  16.155  -4.890  1.00 20.00     0.038 A 
HETATM    3  C3  UNL     1     -34.381  15.581  -2.666  1.00 20.00     0.072 A 
HETATM    4  C4  UNL     1     -34.355  15.123  -3.966  1.00 20.00     0.052 A 
HETATM    5  C5  UNL     1     -33.811  17.363  -4.264  1.00 20.00    -0.002 A 
HETATM    6  N7  UNL     1     -34.859  12.665  -4.602  1.00 20.00    -0.191 NA
HETATM    7  S8  UNL     1     -34.007  17.249  -2.566  1.00 20.00    -0.104 SA
ENDROOT
BRANCH   5   8
HETATM    8  C6  UNL     1     -33.451  18.663  -4.870  1.00 20.00     0.160 C 
HETATM    9 CL9  UNL     1     -33.802  18.675  -6.617  1.00 20.00    -0.125 Cl
ENDBRANCH   5   8
TORSDOF 1
ENDMDL
MODEL 8
REMARK VINA RESULT:      -3.5      1.406      1.509
REMARK  1 active torsions:
REMARK  status: ('A' for Active; 'I' for Inactive)
REMARK    1  A    between atoms: C5_5  and  C6_6 
ROOT
HETATM    1  C1  UNL     1     -34.741  13.599  -4.195  1.00 20.00     0.100 C 
HETATM    2  C2  UNL     1     -35.809  15.582  -3.042  1.00 20.00     0.038 A 
HETATM    3  C3  UNL     1     -33.491  15.452  -3.155  1.00 20.00     0.072 A 
HETATM    4  C4  UNL     1     -34.678  14.837  -3.488  1.00 20.00     0.052 A 
HETATM    5  C5  UNL     1     -35.443  16.736  -2.386  1.00 20.00    -0.002 A 
HETATM    6  N7  UNL     1     -34.792  12.592  -4.770  1.00 20.00    -0.191 NA
HETATM    7  S8  UNL     1     -33.741  16.920  -2.310  1.00 20.00    -0.104 SA
ENDROOT
BRANCH   5   8
HETATM    8  C6  UNL     1     -36.314  17.767  -1.781  1.00 20.00     0.160 C 
HETATM    9 CL9  UNL     1     -35.808  18.133  -0.111  1.00 20.00    -0.125 Cl
ENDBRANCH   5   8
TORSDOF 1
ENDMDL
MODEL 9
REMARK VINA RESULT:      -3.5     12.298     13.223
REMARK  1 active torsions:
REMARK  status: ('A' for Active; 'I' for Inactive)
REMARK    1  A    between atoms: C5_5  and  C6_6 
ROOT
HETATM    1  C1  UNL     1     -41.721   2.912  -2.824  1.00 20.00     0.100 C 
HETATM    2  C2  UNL     1     -42.390   5.348  -2.672  1.00 20.00     0.038 A 
HETATM    3  C3  UNL     1     -40.843   4.503  -1.157  1.00 20.00     0.072 A 
HETATM    4  C4  UNL     1     -41.651   4.211  -2.234  1.00 20.00     0.052 A 
HETATM    5  C5  UNL     1     -42.120   6.465  -1.912  1.00 20.00    -0.002 A 
HETATM    6  N7  UNL     1     -41.779   1.857  -3.302  1.00 20.00    -0.191 NA
HETATM    7  S8  UNL     1     -40.977   6.141  -0.678  1.00 20.00    -0.104 SA
ENDROOT
BRANCH   5   8
HETATM    8  C6  UNL     1     -42.679   7.827  -2.048  1.00 20.00     0.160 C 
HETATM    9 CL9  UNL     1     -42.763   8.317  -3.760  1.00 20.00    -0.125 Cl
ENDBRANCH   5   8
TORSDOF 1
ENDMDL
