MODEL 1
REMARK VINA RESULT:      -3.3      0.000      0.000
REMARK  2 active torsions:
REMARK  status: ('A' for Active; 'I' for Inactive)
REMARK    1  A    between atoms: C3_3  and  C4_4 
REMARK    2  A    between atoms: C3_3  and  O6_6 
ROOT
HETATM    1  C1  UNL     1     -34.594   4.622   5.198  1.00 20.00     0.081 C 
HETATM    2  C4  UNL     1     -33.677   5.766   5.123  1.00 20.00     0.212 C 
HETATM    3  N5  UNL     1     -35.316   3.716   5.254  1.00 20.00    -0.196 NA
HETATM    4 CL7  UNL     1     -33.981   6.816   6.534  1.00 20.00    -0.107 Cl
ENDROOT
BRANCH   2   5
HETATM    5  C3  UNL     1     -33.834   6.547   3.823  1.00 20.00     0.202 C 
BRANCH   5   6
HETATM    6  O6  UNL     1     -32.697   6.378   2.984  1.00 20.00    -0.394 OA
HETATM    7  C2  UNL     1     -32.145   7.629   2.597  1.00 20.00     0.201 C 
ENDBRANCH   5   6
ENDBRANCH   2   5
TORSDOF 2
ENDMDL
MODEL 2
REMARK VINA RESULT:      -3.3      2.099      2.164
REMARK  2 active torsions:
REMARK  status: ('A' for Active; 'I' for Inactive)
REMARK    1  A    between atoms: C3_3  and  C4_4 
REMARK    2  A    between atoms: C3_3  and  O6_6 
ROOT
HETATM    1  C1  UNL     1     -34.025   6.421   5.649  1.00 20.00     0.081 C 
HETATM    2  C4  UNL     1     -34.479   5.858   4.371  1.00 20.00     0.212 C 
HETATM    3  N5  UNL     1     -33.666   6.871   6.656  1.00 20.00    -0.196 NA
HETATM    4 CL7  UNL     1     -35.103   4.214   4.679  1.00 20.00    -0.107 Cl
ENDROOT
BRANCH   2   5
HETATM    5  C3  UNL     1     -33.368   5.829   3.326  1.00 20.00     0.202 C 
BRANCH   5   6
HETATM    6  O6  UNL     1     -32.363   6.792   3.622  1.00 20.00    -0.394 OA
HETATM    7  C2  UNL     1     -32.155   7.679   2.533  1.00 20.00     0.201 C 
ENDBRANCH   5   6
ENDBRANCH   2   5
TORSDOF 2
ENDMDL
MODEL 3
REMARK VINA RESULT:      -3.3      3.017      3.859
REMARK  2 active torsions:
REMARK  status: ('A' for Active; 'I' for Inactive)
REMARK    1  A    between atoms: C3_3  and  C4_4 
REMARK    2  A    between atoms: C3_3  and  O6_6 
ROOT
HETATM    1  C1  UNL     1     -32.916   6.579   3.449  1.00 20.00     0.081 C 
HETATM    2  C4  UNL     1     -33.856   5.752   4.215  1.00 20.00     0.212 C 
HETATM    3  N5  UNL     1     -32.169   7.231   2.846  1.00 20.00    -0.196 NA
HETATM    4 CL7  UNL     1     -35.416   5.736   3.349  1.00 20.00    -0.107 Cl
ENDROOT
BRANCH   2   5
HETATM    5  C3  UNL     1     -34.034   6.255   5.644  1.00 20.00     0.202 C 
BRANCH   5   6
HETATM    6  O6  UNL     1     -34.919   5.413   6.375  1.00 20.00    -0.394 OA
HETATM    7  C2  UNL     1     -34.717   4.044   6.055  1.00 20.00     0.201 C 
ENDBRANCH   5   6
ENDBRANCH   2   5
TORSDOF 2
ENDMDL
MODEL 4
REMARK VINA RESULT:      -3.3     12.019     12.484
REMARK  2 active torsions:
REMARK  status: ('A' for Active; 'I' for Inactive)
REMARK    1  A    between atoms: C3_3  and  C4_4 
REMARK    2  A    between atoms: C3_3  and  O6_6 
ROOT
HETATM    1  C1  UNL     1     -35.052  13.710  -4.313  1.00 20.00     0.081 C 
HETATM    2  C4  UNL     1     -35.361  15.080  -3.888  1.00 20.00     0.212 C 
HETATM    3  N5  UNL     1     -34.811  12.627  -4.653  1.00 20.00    -0.196 NA
HETATM    4 CL7  UNL     1     -34.119  15.592  -2.713  1.00 20.00    -0.107 Cl
ENDROOT
BRANCH   2   5
HETATM    5  C3  UNL     1     -36.757  15.197  -3.286  1.00 20.00     0.202 C 
BRANCH   5   6
HETATM    6  O6  UNL     1     -37.622  14.192  -3.802  1.00 20.00    -0.394 OA
HETATM    7  C2  UNL     1     -38.895  14.724  -4.141  1.00 20.00     0.201 C 
ENDBRANCH   5   6
ENDBRANCH   2   5
TORSDOF 2
ENDMDL
MODEL 5
REMARK VINA RESULT:      -3.2     12.054     12.903
REMARK  2 active torsions:
REMARK  status: ('A' for Active; 'I' for Inactive)
REMARK    1  A    between atoms: C3_3  and  C4_4 
REMARK    2  A    between atoms: C3_3  and  O6_6 
ROOT
HETATM    1  C1  UNL     1     -34.334  13.757  -3.981  1.00 20.00     0.081 C 
HETATM    2  C4  UNL     1     -33.613  14.946  -3.511  1.00 20.00     0.212 C 
HETATM    3  N5  UNL     1     -34.900  12.815  -4.354  1.00 20.00    -0.196 NA
HETATM    4 CL7  UNL     1     -34.599  15.731  -2.248  1.00 20.00    -0.107 Cl
ENDROOT
BRANCH   2   5
HETATM    5  C3  UNL     1     -33.306  15.920  -4.644  1.00 20.00     0.202 C 
BRANCH   5   6
HETATM    6  O6  UNL     1     -33.500  17.267  -4.226  1.00 20.00    -0.394 OA
HETATM    7  C2  UNL     1     -33.567  18.151  -5.335  1.00 20.00     0.201 C 
ENDBRANCH   5   6
ENDBRANCH   2   5
TORSDOF 2
ENDMDL
MODEL 6
REMARK VINA RESULT:      -3.2     12.772     13.130
REMARK  2 active torsions:
REMARK  status: ('A' for Active; 'I' for Inactive)
REMARK    1  A    between atoms: C3_3  and  C4_4 
REMARK    2  A    between atoms: C3_3  and  O6_6 
ROOT
HETATM    1  C1  UNL     1     -34.637  13.873  -4.881  1.00 20.00     0.081 C 
HETATM    2  C4  UNL     1     -34.439  15.272  -5.278  1.00 20.00     0.212 C 
HETATM    3  N5  UNL     1     -34.795  12.768  -4.563  1.00 20.00    -0.196 NA
HETATM    4 CL7  UNL     1     -34.176  15.317  -7.043  1.00 20.00    -0.107 Cl
ENDROOT
BRANCH   2   5
HETATM    5  C3  UNL     1     -33.275  15.923  -4.539  1.00 20.00     0.202 C 
BRANCH   5   6
HETATM    6  O6  UNL     1     -33.241  15.512  -3.177  1.00 20.00    -0.394 OA
HETATM    7  C2  UNL     1     -33.842  16.479  -2.327  1.00 20.00     0.201 C 
ENDBRANCH   5   6
ENDBRANCH   2   5
TORSDOF 2
ENDMDL
MODEL 7
REMARK VINA RESULT:      -3.2     12.323     12.552
REMARK  2 active torsions:
REMARK  status: ('A' for Active; 'I' for Inactive)
REMARK    1  A    between atoms: C3_3  and  C4_4 
REMARK    2  A    between atoms: C3_3  and  O6_6 
ROOT
HETATM    1  C1  UNL     1     -36.836  14.443  -4.116  1.00 20.00     0.081 C 
HETATM    2  C4  UNL     1     -35.476  14.561  -4.657  1.00 20.00     0.212 C 
HETATM    3  N5  UNL     1     -37.909  14.347  -3.685  1.00 20.00    -0.196 NA
HETATM    4 CL7  UNL     1     -35.588  15.258  -6.296  1.00 20.00    -0.107 Cl
ENDROOT
BRANCH   2   5
HETATM    5  C3  UNL     1     -34.748  13.222  -4.686  1.00 20.00     0.202 C 
BRANCH   5   6
HETATM    6  O6  UNL     1     -33.616  13.237  -3.823  1.00 20.00    -0.394 OA
HETATM    7  C2  UNL     1     -33.078  14.544  -3.693  1.00 20.00     0.201 C 
ENDBRANCH   5   6
ENDBRANCH   2   5
TORSDOF 2
ENDMDL
MODEL 8
REMARK VINA RESULT:      -3.1     12.364     12.971
REMARK  2 active torsions:
REMARK  status: ('A' for Active; 'I' for Inactive)
REMARK    1  A    between atoms: C3_3  and  C4_4 
REMARK    2  A    between atoms: C3_3  and  O6_6 
ROOT
HETATM    1  C1  UNL     1     -33.565  16.699  -4.481  1.00 20.00     0.081 C 
HETATM    2  C4  UNL     1     -34.057  15.637  -3.594  1.00 20.00     0.212 C 
HETATM    3  N5  UNL     1     -33.176  17.535  -5.185  1.00 20.00    -0.196 NA
HETATM    4 CL7  UNL     1     -34.092  16.276  -1.928  1.00 20.00    -0.107 Cl
ENDROOT
BRANCH   2   5
HETATM    5  C3  UNL     1     -33.204  14.376  -3.674  1.00 20.00     0.202 C 
BRANCH   5   6
HETATM    6  O6  UNL     1     -34.004  13.208  -3.536  1.00 20.00    -0.394 OA
HETATM    7  C2  UNL     1     -35.191  13.296  -4.312  1.00 20.00     0.201 C 
ENDBRANCH   5   6
ENDBRANCH   2   5
TORSDOF 2
ENDMDL
MODEL 9
REMARK VINA RESULT:      -3.0     12.322     12.648
REMARK  2 active torsions:
REMARK  status: ('A' for Active; 'I' for Inactive)
REMARK    1  A    between atoms: C3_3  and  C4_4 
REMARK    2  A    between atoms: C3_3  and  O6_6 
ROOT
HETATM    1  C1  UNL     1     -36.668  14.476  -3.988  1.00 20.00     0.081 C 
HETATM    2  C4  UNL     1     -35.240  14.650  -4.277  1.00 20.00     0.212 C 
HETATM    3  N5  UNL     1     -37.798  14.342  -3.758  1.00 20.00    -0.196 NA
HETATM    4 CL7  UNL     1     -34.589  13.084  -4.832  1.00 20.00    -0.107 Cl
ENDROOT
BRANCH   2   5
HETATM    5  C3  UNL     1     -34.464  15.162  -3.068  1.00 20.00     0.202 C 
BRANCH   5   6
HETATM    6  O6  UNL     1     -33.815  16.395  -3.362  1.00 20.00    -0.394 OA
HETATM    7  C2  UNL     1     -33.282  16.401  -4.678  1.00 20.00     0.201 C 
ENDBRANCH   5   6
ENDBRANCH   2   5
TORSDOF 2
ENDMDL
