MODEL 1
REMARK VINA RESULT:      -3.5      0.000      0.000
REMARK  2 active torsions:
REMARK  status: ('A' for Active; 'I' for Inactive)
REMARK    1  A    between atoms: C3_3  and  C4_4 
REMARK    2  A    between atoms: C3_3  and  O6_6 
ROOT
HETATM    1  C1  UNL     1     -34.832   4.724   4.950  1.00 20.00     0.081 C 
HETATM    2  C4  UNL     1     -34.355   6.069   4.608  1.00 20.00     0.212 C 
HETATM    3  N5  UNL     1     -35.212   3.661   5.223  1.00 20.00    -0.196 NA
HETATM    4 CL7  UNL     1     -33.632   6.792   6.071  1.00 20.00    -0.107 Cl
ENDROOT
BRANCH   2   5
HETATM    5  C3  UNL     1     -33.350   6.051   3.461  1.00 20.00     0.202 C 
BRANCH   5   6
HETATM    6  O6  UNL     1     -32.293   6.975   3.692  1.00 20.00    -0.394 OA
HETATM    7  C2  UNL     1     -32.048   7.783   2.550  1.00 20.00     0.201 C 
ENDBRANCH   5   6
ENDBRANCH   2   5
TORSDOF 2
ENDMDL
MODEL 2
REMARK VINA RESULT:      -3.3     11.980     12.658
REMARK  2 active torsions:
REMARK  status: ('A' for Active; 'I' for Inactive)
REMARK    1  A    between atoms: C3_3  and  C4_4 
REMARK    2  A    between atoms: C3_3  and  O6_6 
ROOT
HETATM    1  C1  UNL     1     -34.766  13.930  -4.065  1.00 20.00     0.081 C 
HETATM    2  C4  UNL     1     -34.464  15.339  -3.789  1.00 20.00     0.212 C 
HETATM    3  N5  UNL     1     -35.008  12.816  -4.283  1.00 20.00    -0.196 NA
HETATM    4 CL7  UNL     1     -34.913  15.684  -2.096  1.00 20.00    -0.107 Cl
ENDROOT
BRANCH   2   5
HETATM    5  C3  UNL     1     -32.997  15.675  -4.038  1.00 20.00     0.202 C 
BRANCH   5   6
HETATM    6  O6  UNL     1     -32.853  16.532  -5.165  1.00 20.00    -0.394 OA
HETATM    7  C2  UNL     1     -33.568  17.748  -4.988  1.00 20.00     0.201 C 
ENDBRANCH   5   6
ENDBRANCH   2   5
TORSDOF 2
ENDMDL
MODEL 3
REMARK VINA RESULT:      -3.3      2.725      3.673
REMARK  2 active torsions:
REMARK  status: ('A' for Active; 'I' for Inactive)
REMARK    1  A    between atoms: C3_3  and  C4_4 
REMARK    2  A    between atoms: C3_3  and  O6_6 
ROOT
HETATM    1  C1  UNL     1     -32.703   6.858   3.307  1.00 20.00     0.081 C 
HETATM    2  C4  UNL     1     -33.404   5.961   4.233  1.00 20.00     0.212 C 
HETATM    3  N5  UNL     1     -32.147   7.568   2.577  1.00 20.00    -0.196 NA
HETATM    4 CL7  UNL     1     -33.662   6.835   5.768  1.00 20.00    -0.107 Cl
ENDROOT
BRANCH   2   5
HETATM    5  C3  UNL     1     -34.730   5.464   3.664  1.00 20.00     0.202 C 
BRANCH   5   6
HETATM    6  O6  UNL     1     -35.574   4.968   4.696  1.00 20.00    -0.394 OA
HETATM    7  C2  UNL     1     -34.966   3.889   5.393  1.00 20.00     0.201 C 
ENDBRANCH   5   6
ENDBRANCH   2   5
TORSDOF 2
ENDMDL
MODEL 4
REMARK VINA RESULT:      -3.3     11.943     12.185
REMARK  2 active torsions:
REMARK  status: ('A' for Active; 'I' for Inactive)
REMARK    1  A    between atoms: C3_3  and  C4_4 
REMARK    2  A    between atoms: C3_3  and  O6_6 
ROOT
HETATM    1  C1  UNL     1     -34.314  13.776  -3.988  1.00 20.00     0.081 C 
HETATM    2  C4  UNL     1     -33.696  14.982  -3.422  1.00 20.00     0.212 C 
HETATM    3  N5  UNL     1     -34.800  12.823  -4.437  1.00 20.00    -0.196 NA
HETATM    4 CL7  UNL     1     -33.199  16.039  -4.771  1.00 20.00    -0.107 Cl
ENDROOT
BRANCH   2   5
HETATM    5  C3  UNL     1     -34.635  15.720  -2.473  1.00 20.00     0.202 C 
BRANCH   5   6
HETATM    6  O6  UNL     1     -33.907  16.566  -1.590  1.00 20.00    -0.394 OA
HETATM    7  C2  UNL     1     -34.681  16.919  -0.452  1.00 20.00     0.201 C 
ENDBRANCH   5   6
ENDBRANCH   2   5
TORSDOF 2
ENDMDL
MODEL 5
REMARK VINA RESULT:      -3.3      2.304      2.408
REMARK  2 active torsions:
REMARK  status: ('A' for Active; 'I' for Inactive)
REMARK    1  A    between atoms: C3_3  and  C4_4 
REMARK    2  A    between atoms: C3_3  and  O6_6 
ROOT
HETATM    1  C1  UNL     1     -33.922   6.427   6.172  1.00 20.00     0.081 C 
HETATM    2  C4  UNL     1     -34.056   5.322   5.215  1.00 20.00     0.212 C 
HETATM    3  N5  UNL     1     -33.815   7.298   6.931  1.00 20.00    -0.196 NA
HETATM    4 CL7  UNL     1     -35.198   4.130   5.896  1.00 20.00    -0.107 Cl
ENDROOT
BRANCH   2   5
HETATM    5  C3  UNL     1     -34.526   5.798   3.844  1.00 20.00     0.202 C 
BRANCH   5   6
HETATM    6  O6  UNL     1     -33.478   5.711   2.886  1.00 20.00    -0.394 OA
HETATM    7  C2  UNL     1     -32.579   6.806   2.997  1.00 20.00     0.201 C 
ENDBRANCH   5   6
ENDBRANCH   2   5
TORSDOF 2
ENDMDL
MODEL 6
REMARK VINA RESULT:      -3.3      2.023      2.114
REMARK  2 active torsions:
REMARK  status: ('A' for Active; 'I' for Inactive)
REMARK    1  A    between atoms: C3_3  and  C4_4 
REMARK    2  A    between atoms: C3_3  and  O6_6 
ROOT
HETATM    1  C1  UNL     1     -33.842   6.375   5.829  1.00 20.00     0.081 C 
HETATM    2  C4  UNL     1     -33.894   5.489   4.660  1.00 20.00     0.212 C 
HETATM    3  N5  UNL     1     -33.802   7.073   6.755  1.00 20.00    -0.196 NA
HETATM    4 CL7  UNL     1     -35.520   4.756   4.587  1.00 20.00    -0.107 Cl
ENDROOT
BRANCH   2   5
HETATM    5  C3  UNL     1     -33.574   6.225   3.362  1.00 20.00     0.202 C 
BRANCH   5   6
HETATM    6  O6  UNL     1     -32.209   6.624   3.325  1.00 20.00    -0.394 OA
HETATM    7  C2  UNL     1     -32.025   7.775   2.512  1.00 20.00     0.201 C 
ENDBRANCH   5   6
ENDBRANCH   2   5
TORSDOF 2
ENDMDL
MODEL 7
REMARK VINA RESULT:      -3.2     11.954     12.465
REMARK  2 active torsions:
REMARK  status: ('A' for Active; 'I' for Inactive)
REMARK    1  A    between atoms: C3_3  and  C4_4 
REMARK    2  A    between atoms: C3_3  and  O6_6 
ROOT
HETATM    1  C1  UNL     1     -35.033  13.627  -4.127  1.00 20.00     0.081 C 
HETATM    2  C4  UNL     1     -35.315  14.808  -3.303  1.00 20.00     0.212 C 
HETATM    3  N5  UNL     1     -34.807  12.692  -4.777  1.00 20.00    -0.196 NA
HETATM    4 CL7  UNL     1     -34.111  16.064  -3.699  1.00 20.00    -0.107 Cl
ENDROOT
BRANCH   2   5
HETATM    5  C3  UNL     1     -36.733  15.332  -3.511  1.00 20.00     0.202 C 
BRANCH   5   6
HETATM    6  O6  UNL     1     -37.657  14.261  -3.659  1.00 20.00    -0.394 OA
HETATM    7  C2  UNL     1     -38.884  14.706  -4.221  1.00 20.00     0.201 C 
ENDBRANCH   5   6
ENDBRANCH   2   5
TORSDOF 2
ENDMDL
MODEL 8
REMARK VINA RESULT:      -3.1     12.335     12.758
REMARK  2 active torsions:
REMARK  status: ('A' for Active; 'I' for Inactive)
REMARK    1  A    between atoms: C3_3  and  C4_4 
REMARK    2  A    between atoms: C3_3  and  O6_6 
ROOT
HETATM    1  C1  UNL     1     -33.368  16.480  -4.239  1.00 20.00     0.081 C 
HETATM    2  C4  UNL     1     -33.618  15.644  -3.059  1.00 20.00     0.212 C 
HETATM    3  N5  UNL     1     -33.168  17.142  -5.171  1.00 20.00    -0.196 NA
HETATM    4 CL7  UNL     1     -33.884  16.720  -1.660  1.00 20.00    -0.107 Cl
ENDROOT
BRANCH   2   5
HETATM    5  C3  UNL     1     -34.807  14.708  -3.255  1.00 20.00     0.202 C 
BRANCH   5   6
HETATM    6  O6  UNL     1     -34.374  13.392  -3.578  1.00 20.00    -0.394 OA
HETATM    7  C2  UNL     1     -34.662  13.066  -4.931  1.00 20.00     0.201 C 
ENDBRANCH   5   6
ENDBRANCH   2   5
TORSDOF 2
ENDMDL
MODEL 9
REMARK VINA RESULT:      -3.1     12.260     12.592
REMARK  2 active torsions:
REMARK  status: ('A' for Active; 'I' for Inactive)
REMARK    1  A    between atoms: C3_3  and  C4_4 
REMARK    2  A    between atoms: C3_3  and  O6_6 
ROOT
HETATM    1  C1  UNL     1     -34.481  13.805  -4.479  1.00 20.00     0.081 C 
HETATM    2  C4  UNL     1     -33.897  15.149  -4.554  1.00 20.00     0.212 C 
HETATM    3  N5  UNL     1     -34.941  12.741  -4.422  1.00 20.00    -0.196 NA
HETATM    4 CL7  UNL     1     -34.042  15.727  -6.236  1.00 20.00    -0.107 Cl
ENDROOT
BRANCH   2   5
HETATM    5  C3  UNL     1     -34.564  16.123  -3.587  1.00 20.00     0.202 C 
BRANCH   5   6
HETATM    6  O6  UNL     1     -34.708  15.544  -2.296  1.00 20.00    -0.394 OA
HETATM    7  C2  UNL     1     -34.547  16.513  -1.270  1.00 20.00     0.201 C 
ENDBRANCH   5   6
ENDBRANCH   2   5
TORSDOF 2
ENDMDL
