MODEL 1
REMARK VINA RESULT:      -4.0      0.000      0.000
REMARK  2 active torsions:
REMARK  status: ('A' for Active; 'I' for Inactive)
REMARK    1  A    between atoms: C1_1  and  C2_2 
REMARK    2  A    between atoms: C3_3  and  C7_7 
ROOT
HETATM    1  C1  UNL     1     -34.538  14.590  -3.307  1.00 20.00     0.061 C 
HETATM    2  C3  UNL     1     -34.196  15.887  -3.397  1.00 20.00     0.022 C 
HETATM    3 CL9  UNL     1     -33.169  16.443  -4.702  1.00 20.00    -0.088 Cl
ENDROOT
BRANCH   2   4
HETATM    4  C7  UNL     1     -34.643  16.990  -2.416  1.00 20.00    -0.013 C 
HETATM    5  C4  UNL     1     -36.099  17.413  -2.712  1.00 20.00     0.020 C 
HETATM    6  C5  UNL     1     -34.597  16.544  -0.934  1.00 20.00     0.020 C 
HETATM    7  C6  UNL     1     -33.722  18.223  -2.541  1.00 20.00     0.020 C 
ENDBRANCH   2   4
BRANCH   1   8
HETATM    8  C2  UNL     1     -34.114  13.522  -4.245  1.00 20.00     0.260 C 
HETATM    9  O8  UNL     1     -34.878  12.625  -4.585  1.00 20.00    -0.302 OA
ENDBRANCH   1   8
TORSDOF 2
ENDMDL
MODEL 2
REMARK VINA RESULT:      -4.0      0.056      1.441
REMARK  2 active torsions:
REMARK  status: ('A' for Active; 'I' for Inactive)
REMARK    1  A    between atoms: C1_1  and  C2_2 
REMARK    2  A    between atoms: C3_3  and  C7_7 
ROOT
HETATM    1  C1  UNL     1     -34.561  14.615  -3.304  1.00 20.00     0.061 C 
HETATM    2  C3  UNL     1     -34.211  15.909  -3.414  1.00 20.00     0.022 C 
HETATM    3 CL9  UNL     1     -33.175  16.438  -4.723  1.00 20.00    -0.088 Cl
ENDROOT
BRANCH   2   4
HETATM    4  C7  UNL     1     -34.655  17.030  -2.453  1.00 20.00    -0.013 C 
HETATM    5  C4  UNL     1     -33.738  18.263  -2.606  1.00 20.00     0.020 C 
HETATM    6  C5  UNL     1     -36.104  17.513  -2.707  1.00 20.00     0.020 C 
HETATM    7  C6  UNL     1     -34.599  16.535  -0.991  1.00 20.00     0.020 C 
ENDBRANCH   2   4
BRANCH   1   8
HETATM    8  C2  UNL     1     -34.139  13.530  -4.222  1.00 20.00     0.260 C 
HETATM    9  O8  UNL     1     -34.909  12.635  -4.556  1.00 20.00    -0.302 OA
ENDBRANCH   1   8
TORSDOF 2
ENDMDL
MODEL 3
REMARK VINA RESULT:      -3.9      2.440      3.043
REMARK  2 active torsions:
REMARK  status: ('A' for Active; 'I' for Inactive)
REMARK    1  A    between atoms: C1_1  and  C2_2 
REMARK    2  A    between atoms: C3_3  and  C7_7 
ROOT
HETATM    1  C1  UNL     1     -36.298  15.559  -4.095  1.00 20.00     0.061 C 
HETATM    2  C3  UNL     1     -35.119  14.915  -4.033  1.00 20.00     0.022 C 
HETATM    3 CL9  UNL     1     -35.032  13.196  -4.354  1.00 20.00    -0.088 Cl
ENDROOT
BRANCH   2   4
HETATM    4  C7  UNL     1     -33.768  15.575  -3.691  1.00 20.00    -0.013 C 
HETATM    5  C4  UNL     1     -33.865  16.333  -2.349  1.00 20.00     0.020 C 
HETATM    6  C5  UNL     1     -32.611  14.557  -3.549  1.00 20.00     0.020 C 
HETATM    7  C6  UNL     1     -33.359  16.565  -4.804  1.00 20.00     0.020 C 
ENDBRANCH   2   4
BRANCH   1   8
HETATM    8  C2  UNL     1     -37.603  14.935  -4.422  1.00 20.00     0.260 C 
HETATM    9  O8  UNL     1     -38.212  14.254  -3.605  1.00 20.00    -0.302 OA
ENDBRANCH   1   8
TORSDOF 2
ENDMDL
MODEL 4
REMARK VINA RESULT:      -3.9      2.433      3.236
REMARK  2 active torsions:
REMARK  status: ('A' for Active; 'I' for Inactive)
REMARK    1  A    between atoms: C1_1  and  C2_2 
REMARK    2  A    between atoms: C3_3  and  C7_7 
ROOT
HETATM    1  C1  UNL     1     -36.328  15.547  -4.080  1.00 20.00     0.061 C 
HETATM    2  C3  UNL     1     -35.140  14.922  -4.007  1.00 20.00     0.022 C 
HETATM    3 CL9  UNL     1     -35.022  13.206  -4.332  1.00 20.00    -0.088 Cl
ENDROOT
BRANCH   2   4
HETATM    4  C7  UNL     1     -33.803  15.602  -3.649  1.00 20.00    -0.013 C 
HETATM    5  C4  UNL     1     -32.673  14.553  -3.564  1.00 20.00     0.020 C 
HETATM    6  C5  UNL     1     -33.357  16.658  -4.690  1.00 20.00     0.020 C 
HETATM    7  C6  UNL     1     -33.920  16.332  -2.293  1.00 20.00     0.020 C 
ENDBRANCH   2   4
BRANCH   1   8
HETATM    8  C2  UNL     1     -37.619  14.903  -4.423  1.00 20.00     0.260 C 
HETATM    9  O8  UNL     1     -38.247  14.244  -3.601  1.00 20.00    -0.302 OA
ENDBRANCH   1   8
TORSDOF 2
ENDMDL
MODEL 5
REMARK VINA RESULT:      -3.9      2.419      3.030
REMARK  2 active torsions:
REMARK  status: ('A' for Active; 'I' for Inactive)
REMARK    1  A    between atoms: C1_1  and  C2_2 
REMARK    2  A    between atoms: C3_3  and  C7_7 
ROOT
HETATM    1  C1  UNL     1     -36.318  15.575  -4.079  1.00 20.00     0.061 C 
HETATM    2  C3  UNL     1     -35.127  14.956  -3.997  1.00 20.00     0.022 C 
HETATM    3 CL9  UNL     1     -34.999  13.239  -4.316  1.00 20.00    -0.088 Cl
ENDROOT
BRANCH   2   4
HETATM    4  C7  UNL     1     -33.796  15.644  -3.635  1.00 20.00    -0.013 C 
HETATM    5  C4  UNL     1     -33.430  16.701  -4.700  1.00 20.00     0.020 C 
HETATM    6  C5  UNL     1     -33.839  16.377  -2.272  1.00 20.00     0.020 C 
HETATM    7  C6  UNL     1     -32.661  14.601  -3.546  1.00 20.00     0.020 C 
ENDBRANCH   2   4
BRANCH   1   8
HETATM    8  C2  UNL     1     -37.604  14.923  -4.427  1.00 20.00     0.260 C 
HETATM    9  O8  UNL     1     -38.209  14.225  -3.621  1.00 20.00    -0.302 OA
ENDBRANCH   1   8
TORSDOF 2
ENDMDL
MODEL 6
REMARK VINA RESULT:      -3.9     12.050     12.990
REMARK  2 active torsions:
REMARK  status: ('A' for Active; 'I' for Inactive)
REMARK    1  A    between atoms: C1_1  and  C2_2 
REMARK    2  A    between atoms: C3_3  and  C7_7 
ROOT
HETATM    1  C1  UNL     1     -32.991   6.234   3.618  1.00 20.00     0.061 C 
HETATM    2  C3  UNL     1     -33.623   6.076   4.795  1.00 20.00     0.022 C 
HETATM    3 CL9  UNL     1     -33.187   7.065   6.173  1.00 20.00    -0.088 Cl
ENDROOT
BRANCH   2   4
HETATM    4  C7  UNL     1     -34.751   5.060   5.064  1.00 20.00    -0.013 C 
HETATM    5  C4  UNL     1     -35.931   5.300   4.097  1.00 20.00     0.020 C 
HETATM    6  C5  UNL     1     -34.306   3.590   4.873  1.00 20.00     0.020 C 
HETATM    7  C6  UNL     1     -35.253   5.191   6.519  1.00 20.00     0.020 C 
ENDBRANCH   2   4
BRANCH   1   8
HETATM    8  C2  UNL     1     -31.905   7.208   3.349  1.00 20.00     0.260 C 
HETATM    9  O8  UNL     1     -31.951   7.971   2.391  1.00 20.00    -0.302 OA
ENDBRANCH   1   8
TORSDOF 2
ENDMDL
MODEL 7
REMARK VINA RESULT:      -3.8      2.536      3.942
REMARK  2 active torsions:
REMARK  status: ('A' for Active; 'I' for Inactive)
REMARK    1  A    between atoms: C1_1  and  C2_2 
REMARK    2  A    between atoms: C3_3  and  C7_7 
ROOT
HETATM    1  C1  UNL     1     -35.044  15.979  -2.321  1.00 20.00     0.061 C 
HETATM    2  C3  UNL     1     -34.501  15.298  -3.345  1.00 20.00     0.022 C 
HETATM    3 CL9  UNL     1     -32.761  15.160  -3.493  1.00 20.00    -0.088 Cl
ENDROOT
BRANCH   2   4
HETATM    4  C7  UNL     1     -35.298  14.589  -4.458  1.00 20.00    -0.013 C 
HETATM    5  C4  UNL     1     -35.193  15.379  -5.781  1.00 20.00     0.020 C 
HETATM    6  C5  UNL     1     -34.795  13.154  -4.751  1.00 20.00     0.020 C 
HETATM    7  C6  UNL     1     -36.785  14.468  -4.057  1.00 20.00     0.020 C 
ENDBRANCH   2   4
BRANCH   1   8
HETATM    8  C2  UNL     1     -34.287  16.664  -1.246  1.00 20.00     0.260 C 
HETATM    9  O8  UNL     1     -34.757  16.811  -0.123  1.00 20.00    -0.302 OA
ENDBRANCH   1   8
TORSDOF 2
ENDMDL
MODEL 8
REMARK VINA RESULT:      -3.8     11.646     12.563
REMARK  2 active torsions:
REMARK  status: ('A' for Active; 'I' for Inactive)
REMARK    1  A    between atoms: C1_1  and  C2_2 
REMARK    2  A    between atoms: C3_3  and  C7_7 
ROOT
HETATM    1  C1  UNL     1     -32.601   6.848   3.993  1.00 20.00     0.061 C 
HETATM    2  C3  UNL     1     -33.519   5.882   3.812  1.00 20.00     0.022 C 
HETATM    3 CL9  UNL     1     -33.725   5.141   2.239  1.00 20.00    -0.088 Cl
ENDROOT
BRANCH   2   4
HETATM    4  C7  UNL     1     -34.456   5.335   4.908  1.00 20.00    -0.013 C 
HETATM    5  C4  UNL     1     -35.916   5.315   4.406  1.00 20.00     0.020 C 
HETATM    6  C5  UNL     1     -34.110   3.889   5.340  1.00 20.00     0.020 C 
HETATM    7  C6  UNL     1     -34.367   6.214   6.175  1.00 20.00     0.020 C 
ENDBRANCH   2   4
BRANCH   1   8
HETATM    8  C2  UNL     1     -31.696   7.382   2.946  1.00 20.00     0.260 C 
HETATM    9  O8  UNL     1     -32.061   8.254   2.165  1.00 20.00    -0.302 OA
ENDBRANCH   1   8
TORSDOF 2
ENDMDL
MODEL 9
REMARK VINA RESULT:      -3.7      2.501      3.911
REMARK  2 active torsions:
REMARK  status: ('A' for Active; 'I' for Inactive)
REMARK    1  A    between atoms: C1_1  and  C2_2 
REMARK    2  A    between atoms: C3_3  and  C7_7 
ROOT
HETATM    1  C1  UNL     1     -34.640  15.931  -1.896  1.00 20.00     0.061 C 
HETATM    2  C3  UNL     1     -34.322  15.955  -3.203  1.00 20.00     0.022 C 
HETATM    3 CL9  UNL     1     -33.628  17.395  -3.917  1.00 20.00    -0.088 Cl
ENDROOT
BRANCH   2   4
HETATM    4  C7  UNL     1     -34.516  14.781  -4.183  1.00 20.00    -0.013 C 
HETATM    5  C4  UNL     1     -33.524  13.642  -3.859  1.00 20.00     0.020 C 
HETATM    6  C5  UNL     1     -35.937  14.168  -4.126  1.00 20.00     0.020 C 
HETATM    7  C6  UNL     1     -34.289  15.253  -5.635  1.00 20.00     0.020 C 
ENDBRANCH   2   4
BRANCH   1   8
HETATM    8  C2  UNL     1     -34.458  17.054  -0.945  1.00 20.00     0.260 C 
HETATM    9  O8  UNL     1     -34.903  17.008   0.196  1.00 20.00    -0.302 OA
ENDBRANCH   1   8
TORSDOF 2
ENDMDL
