MODEL 1
REMARK VINA RESULT:      -4.5      0.000      0.000
REMARK  2 active torsions:
REMARK  status: ('A' for Active; 'I' for Inactive)
REMARK    1  A    between atoms: C3_3  and  C4_4 
REMARK    2  A    between atoms: C5_5  and  C6_6 
ROOT
HETATM    1  C1  UNL     1     -31.926   8.255   1.727  1.00 20.00     0.087 C 
HETATM    2  C2  UNL     1     -32.308   7.604   2.931  1.00 20.00     0.093 C 
HETATM    3  C3  UNL     1     -32.991   6.451   2.918  1.00 20.00     0.011 C 
HETATM    4  N7  UNL     1     -31.612   8.789   0.746  1.00 20.00    -0.192 NA
ENDROOT
BRANCH   3   5
HETATM    5  C4  UNL     1     -33.396   5.762   4.123  1.00 20.00    -0.002 C 
HETATM    6  C5  UNL     1     -33.998   6.375   5.153  1.00 20.00    -0.012 C 
BRANCH   6   7
HETATM    7  C6  UNL     1     -34.428   5.667   6.396  1.00 20.00     0.141 C 
HETATM    8 CL8  UNL     1     -35.100   4.075   5.984  1.00 20.00    -0.126 Cl
ENDBRANCH   6   7
ENDBRANCH   3   5
TORSDOF 2
ENDMDL
MODEL 2
REMARK VINA RESULT:      -4.4      4.072      5.334
REMARK  2 active torsions:
REMARK  status: ('A' for Active; 'I' for Inactive)
REMARK    1  A    between atoms: C3_3  and  C4_4 
REMARK    2  A    between atoms: C5_5  and  C6_6 
ROOT
HETATM    1  C1  UNL     1     -34.888   4.795   5.336  1.00 20.00     0.087 C 
HETATM    2  C2  UNL     1     -34.523   5.447   4.127  1.00 20.00     0.093 C 
HETATM    3  C3  UNL     1     -33.300   5.964   3.951  1.00 20.00     0.011 C 
HETATM    4  N7  UNL     1     -35.190   4.262   6.321  1.00 20.00    -0.192 NA
ENDROOT
BRANCH   3   5
HETATM    5  C4  UNL     1     -32.894   6.634   2.735  1.00 20.00    -0.002 C 
HETATM    6  C5  UNL     1     -32.145   7.746   2.725  1.00 20.00    -0.012 C 
BRANCH   6   7
HETATM    7  C6  UNL     1     -31.714   8.437   1.473  1.00 20.00     0.141 C 
HETATM    8 CL8  UNL     1     -32.486  10.033   1.364  1.00 20.00    -0.126 Cl
ENDBRANCH   6   7
ENDBRANCH   3   5
TORSDOF 2
ENDMDL
MODEL 3
REMARK VINA RESULT:      -4.3     11.217     11.548
REMARK  2 active torsions:
REMARK  status: ('A' for Active; 'I' for Inactive)
REMARK    1  A    between atoms: C3_3  and  C4_4 
REMARK    2  A    between atoms: C5_5  and  C6_6 
ROOT
HETATM    1  C1  UNL     1     -34.426  13.698  -3.961  1.00 20.00     0.087 C 
HETATM    2  C2  UNL     1     -33.915  14.783  -3.200  1.00 20.00     0.093 C 
HETATM    3  C3  UNL     1     -34.707  15.522  -2.412  1.00 20.00     0.011 C 
HETATM    4  N7  UNL     1     -34.840  12.810  -4.584  1.00 20.00    -0.192 NA
ENDROOT
BRANCH   3   5
HETATM    5  C4  UNL     1     -34.221  16.633  -1.625  1.00 20.00    -0.002 C 
HETATM    6  C5  UNL     1     -34.687  16.925  -0.401  1.00 20.00    -0.012 C 
BRANCH   6   7
HETATM    7  C6  UNL     1     -34.182  18.065   0.422  1.00 20.00     0.141 C 
HETATM    8 CL8  UNL     1     -32.584  18.574  -0.165  1.00 20.00    -0.126 Cl
ENDBRANCH   6   7
ENDBRANCH   3   5
TORSDOF 2
ENDMDL
MODEL 4
REMARK VINA RESULT:      -3.8     11.388     11.863
REMARK  2 active torsions:
REMARK  status: ('A' for Active; 'I' for Inactive)
REMARK    1  A    between atoms: C3_3  and  C4_4 
REMARK    2  A    between atoms: C5_5  and  C6_6 
ROOT
HETATM    1  C1  UNL     1     -34.556  17.096  -0.405  1.00 20.00     0.087 C 
HETATM    2  C2  UNL     1     -34.716  16.241  -1.529  1.00 20.00     0.093 C 
HETATM    3  C3  UNL     1     -33.802  16.191  -2.507  1.00 20.00     0.011 C 
HETATM    4  N7  UNL     1     -34.428  17.792   0.514  1.00 20.00    -0.192 NA
ENDROOT
BRANCH   3   5
HETATM    5  C4  UNL     1     -33.932  15.334  -3.664  1.00 20.00    -0.002 C 
HETATM    6  C5  UNL     1     -34.410  14.082  -3.601  1.00 20.00    -0.012 C 
BRANCH   6   7
HETATM    7  C6  UNL     1     -34.558  13.196  -4.794  1.00 20.00     0.141 C 
HETATM    8 CL8  UNL     1     -34.913  14.173  -6.234  1.00 20.00    -0.126 Cl
ENDBRANCH   6   7
ENDBRANCH   3   5
TORSDOF 2
ENDMDL
MODEL 5
REMARK VINA RESULT:      -3.7     11.523     11.989
REMARK  2 active torsions:
REMARK  status: ('A' for Active; 'I' for Inactive)
REMARK    1  A    between atoms: C3_3  and  C4_4 
REMARK    2  A    between atoms: C5_5  and  C6_6 
ROOT
HETATM    1  C1  UNL     1     -33.678  18.467   0.868  1.00 20.00     0.087 C 
HETATM    2  C2  UNL     1     -33.729  17.772  -0.370  1.00 20.00     0.093 C 
HETATM    3  C3  UNL     1     -34.644  16.822  -0.603  1.00 20.00     0.011 C 
HETATM    4  N7  UNL     1     -33.632  19.036   1.878  1.00 20.00    -0.192 NA
ENDROOT
BRANCH   3   5
HETATM    5  C4  UNL     1     -34.725  16.095  -1.851  1.00 20.00    -0.002 C 
HETATM    6  C5  UNL     1     -33.729  16.062  -2.748  1.00 20.00    -0.012 C 
BRANCH   6   7
HETATM    7  C6  UNL     1     -33.803  15.305  -4.033  1.00 20.00     0.141 C 
HETATM    8 CL8  UNL     1     -33.276  13.628  -3.779  1.00 20.00    -0.126 Cl
ENDBRANCH   6   7
ENDBRANCH   3   5
TORSDOF 2
ENDMDL
MODEL 6
REMARK VINA RESULT:      -3.5     11.006     11.413
REMARK  2 active torsions:
REMARK  status: ('A' for Active; 'I' for Inactive)
REMARK    1  A    between atoms: C3_3  and  C4_4 
REMARK    2  A    between atoms: C5_5  and  C6_6 
ROOT
HETATM    1  C1  UNL     1     -41.798   1.596  -4.177  1.00 20.00     0.087 C 
HETATM    2  C2  UNL     1     -41.501   2.588  -3.205  1.00 20.00     0.093 C 
HETATM    3  C3  UNL     1     -42.391   3.532  -2.872  1.00 20.00     0.011 C 
HETATM    4  N7  UNL     1     -42.037   0.783  -4.970  1.00 20.00    -0.192 NA
ENDROOT
BRANCH   3   5
HETATM    5  C4  UNL     1     -42.123   4.557  -1.888  1.00 20.00    -0.002 C 
HETATM    6  C5  UNL     1     -40.957   4.657  -1.230  1.00 20.00    -0.012 C 
BRANCH   6   7
HETATM    7  C6  UNL     1     -40.670   5.719  -0.221  1.00 20.00     0.141 C 
HETATM    8 CL8  UNL     1     -41.102   7.313  -0.878  1.00 20.00    -0.126 Cl
ENDBRANCH   6   7
ENDBRANCH   3   5
TORSDOF 2
ENDMDL
MODEL 7
REMARK VINA RESULT:      -3.4     11.960     12.409
REMARK  2 active torsions:
REMARK  status: ('A' for Active; 'I' for Inactive)
REMARK    1  A    between atoms: C3_3  and  C4_4 
REMARK    2  A    between atoms: C5_5  and  C6_6 
ROOT
HETATM    1  C1  UNL     1     -32.326  18.864  -0.254  1.00 20.00     0.087 C 
HETATM    2  C2  UNL     1     -33.434  18.380  -0.999  1.00 20.00     0.093 C 
HETATM    3  C3  UNL     1     -33.867  17.118  -0.872  1.00 20.00     0.011 C 
HETATM    4  N7  UNL     1     -31.421  19.263   0.353  1.00 20.00    -0.192 NA
ENDROOT
BRANCH   3   5
HETATM    5  C4  UNL     1     -34.991  16.592  -1.614  1.00 20.00    -0.002 C 
HETATM    6  C5  UNL     1     -34.864  15.682  -2.592  1.00 20.00    -0.012 C 
BRANCH   6   7
HETATM    7  C6  UNL     1     -36.021  15.127  -3.355  1.00 20.00     0.141 C 
HETATM    8 CL8  UNL     1     -37.023  16.451  -3.987  1.00 20.00    -0.126 Cl
ENDBRANCH   6   7
ENDBRANCH   3   5
TORSDOF 2
ENDMDL
MODEL 8
REMARK VINA RESULT:      -3.4     11.768     12.251
REMARK  2 active torsions:
REMARK  status: ('A' for Active; 'I' for Inactive)
REMARK    1  A    between atoms: C3_3  and  C4_4 
REMARK    2  A    between atoms: C5_5  and  C6_6 
ROOT
HETATM    1  C1  UNL     1     -34.527  15.218  -6.239  1.00 20.00     0.087 C 
HETATM    2  C2  UNL     1     -34.551  15.783  -4.936  1.00 20.00     0.093 C 
HETATM    3  C3  UNL     1     -33.598  15.507  -4.035  1.00 20.00     0.011 C 
HETATM    4  N7  UNL     1     -34.512  14.759  -7.305  1.00 20.00    -0.192 NA
ENDROOT
BRANCH   3   5
HETATM    5  C4  UNL     1     -33.590  16.064  -2.700  1.00 20.00    -0.002 C 
HETATM    6  C5  UNL     1     -34.693  16.175  -1.945  1.00 20.00    -0.012 C 
BRANCH   6   7
HETATM    7  C6  UNL     1     -34.691  16.739  -0.562  1.00 20.00     0.141 C 
HETATM    8 CL8  UNL     1     -33.449  18.003  -0.425  1.00 20.00    -0.126 Cl
ENDBRANCH   6   7
ENDBRANCH   3   5
TORSDOF 2
ENDMDL
MODEL 9
REMARK VINA RESULT:      -3.4     11.372     11.752
REMARK  2 active torsions:
REMARK  status: ('A' for Active; 'I' for Inactive)
REMARK    1  A    between atoms: C3_3  and  C4_4 
REMARK    2  A    between atoms: C5_5  and  C6_6 
ROOT
HETATM    1  C1  UNL     1     -34.677  15.129  -4.600  1.00 20.00     0.087 C 
HETATM    2  C2  UNL     1     -35.015  15.845  -3.420  1.00 20.00     0.093 C 
HETATM    3  C3  UNL     1     -34.231  15.814  -2.334  1.00 20.00     0.011 C 
HETATM    4  N7  UNL     1     -34.405  14.546  -5.566  1.00 20.00    -0.192 NA
ENDROOT
BRANCH   3   5
HETATM    5  C4  UNL     1     -34.544  16.530  -1.116  1.00 20.00    -0.002 C 
HETATM    6  C5  UNL     1     -33.828  17.575  -0.675  1.00 20.00    -0.012 C 
BRANCH   6   7
HETATM    7  C6  UNL     1     -34.152  18.325   0.575  1.00 20.00     0.141 C 
HETATM    8 CL8  UNL     1     -35.369  17.437   1.517  1.00 20.00    -0.126 Cl
ENDBRANCH   6   7
ENDBRANCH   3   5
TORSDOF 2
ENDMDL
