MODEL 1
REMARK VINA RESULT:      -3.8      0.000      0.000
REMARK  1 active torsions:
REMARK  status: ('A' for Active; 'I' for Inactive)
REMARK    1  A    between atoms: C1_1  and  C5_5 
ROOT
HETATM    1  C2  UNL     1     -33.947  15.981  -2.599  1.00 20.00     0.029 C 
HETATM    2  C3  UNL     1     -33.297  15.787  -3.949  1.00 20.00     0.047 C 
HETATM    3  C4  UNL     1     -35.410  16.088  -2.968  1.00 20.00     0.169 C 
HETATM    4  C5  UNL     1     -34.329  14.946  -4.689  1.00 20.00     0.110 C 
HETATM    5  C6  UNL     1     -34.360  15.212  -6.185  1.00 20.00     0.053 C 
HETATM    6  O8  UNL     1     -35.607  15.247  -4.113  1.00 20.00    -0.373 OA
ENDROOT
BRANCH   4   7
HETATM    7  C1  UNL     1     -34.114  13.477  -4.460  1.00 20.00     0.268 C 
HETATM    8  O7  UNL     1     -35.030  12.664  -4.379  1.00 20.00    -0.304 OA
ENDBRANCH   4   7
TORSDOF 1
ENDMDL
MODEL 2
REMARK VINA RESULT:      -3.6      1.615      2.928
REMARK  1 active torsions:
REMARK  status: ('A' for Active; 'I' for Inactive)
REMARK    1  A    between atoms: C1_1  and  C5_5 
ROOT
HETATM    1  C2  UNL     1     -35.035  13.495  -4.456  1.00 20.00     0.029 C 
HETATM    2  C3  UNL     1     -34.103  14.070  -3.416  1.00 20.00     0.047 C 
HETATM    3  C4  UNL     1     -36.327  14.221  -4.153  1.00 20.00     0.169 C 
HETATM    4  C5  UNL     1     -34.578  15.513  -3.315  1.00 20.00     0.110 C 
HETATM    5  C6  UNL     1     -34.404  16.107  -1.927  1.00 20.00     0.053 C 
HETATM    6  O8  UNL     1     -35.965  15.525  -3.679  1.00 20.00    -0.373 OA
ENDROOT
BRANCH   4   7
HETATM    7  C1  UNL     1     -33.886  16.397  -4.313  1.00 20.00     0.268 C 
HETATM    8  O7  UNL     1     -32.735  16.214  -4.695  1.00 20.00    -0.304 OA
ENDBRANCH   4   7
TORSDOF 1
ENDMDL
MODEL 3
REMARK VINA RESULT:      -3.6      1.382      2.976
REMARK  1 active torsions:
REMARK  status: ('A' for Active; 'I' for Inactive)
REMARK    1  A    between atoms: C1_1  and  C5_5 
ROOT
HETATM    1  C2  UNL     1     -34.813  14.346  -5.960  1.00 20.00     0.029 C 
HETATM    2  C3  UNL     1     -34.777  15.544  -5.040  1.00 20.00     0.047 C 
HETATM    3  C4  UNL     1     -34.539  13.208  -5.002  1.00 20.00     0.169 C 
HETATM    4  C5  UNL     1     -35.385  14.989  -3.759  1.00 20.00     0.110 C 
HETATM    5  C6  UNL     1     -34.827  15.632  -2.501  1.00 20.00     0.053 C 
HETATM    6  O8  UNL     1     -35.121  13.580  -3.745  1.00 20.00    -0.373 OA
ENDROOT
BRANCH   4   7
HETATM    7  C1  UNL     1     -36.882  15.123  -3.751  1.00 20.00     0.268 C 
HETATM    8  O7  UNL     1     -37.647  14.164  -3.733  1.00 20.00    -0.304 OA
ENDBRANCH   4   7
TORSDOF 1
ENDMDL
MODEL 4
REMARK VINA RESULT:      -3.6      1.273      2.510
REMARK  1 active torsions:
REMARK  status: ('A' for Active; 'I' for Inactive)
REMARK    1  A    between atoms: C1_1  and  C5_5 
ROOT
HETATM    1  C2  UNL     1     -34.425  15.812  -6.032  1.00 20.00     0.029 C 
HETATM    2  C3  UNL     1     -35.364  15.524  -4.885  1.00 20.00     0.047 C 
HETATM    3  C4  UNL     1     -33.257  16.463  -5.324  1.00 20.00     0.169 C 
HETATM    4  C5  UNL     1     -34.403  15.173  -3.757  1.00 20.00     0.110 C 
HETATM    5  C6  UNL     1     -34.918  15.567  -2.383  1.00 20.00     0.053 C 
HETATM    6  O8  UNL     1     -33.171  15.854  -4.029  1.00 20.00    -0.373 OA
ENDROOT
BRANCH   4   7
HETATM    7  C1  UNL     1     -34.066  13.708  -3.750  1.00 20.00     0.268 C 
HETATM    8  O7  UNL     1     -34.838  12.835  -4.134  1.00 20.00    -0.304 OA
ENDBRANCH   4   7
TORSDOF 1
ENDMDL
MODEL 5
REMARK VINA RESULT:      -3.6      1.722      2.423
REMARK  1 active torsions:
REMARK  status: ('A' for Active; 'I' for Inactive)
REMARK    1  A    between atoms: C1_1  and  C5_5 
ROOT
HETATM    1  C2  UNL     1     -33.829  13.704  -3.681  1.00 20.00     0.029 C 
HETATM    2  C3  UNL     1     -34.917  13.387  -4.679  1.00 20.00     0.047 C 
HETATM    3  C4  UNL     1     -33.490  15.136  -4.032  1.00 20.00     0.169 C 
HETATM    4  C5  UNL     1     -35.653  14.716  -4.791  1.00 20.00     0.110 C 
HETATM    5  C6  UNL     1     -36.251  14.959  -6.167  1.00 20.00     0.053 C 
HETATM    6  O8  UNL     1     -34.706  15.747  -4.482  1.00 20.00    -0.373 OA
ENDROOT
BRANCH   4   7
HETATM    7  C1  UNL     1     -36.739  14.838  -3.760  1.00 20.00     0.268 C 
HETATM    8  O7  UNL     1     -37.762  14.161  -3.772  1.00 20.00    -0.304 OA
ENDBRANCH   4   7
TORSDOF 1
ENDMDL
MODEL 6
REMARK VINA RESULT:      -3.5     12.128     13.228
REMARK  1 active torsions:
REMARK  status: ('A' for Active; 'I' for Inactive)
REMARK    1  A    between atoms: C1_1  and  C5_5 
ROOT
HETATM    1  C2  UNL     1     -34.512   5.583   2.836  1.00 20.00     0.029 C 
HETATM    2  C3  UNL     1     -35.218   5.955   4.118  1.00 20.00     0.047 C 
HETATM    3  C4  UNL     1     -33.090   6.012   3.125  1.00 20.00     0.169 C 
HETATM    4  C5  UNL     1     -34.154   5.668   5.170  1.00 20.00     0.110 C 
HETATM    5  C6  UNL     1     -34.236   6.590   6.376  1.00 20.00     0.053 C 
HETATM    6  O8  UNL     1     -32.880   5.816   4.530  1.00 20.00    -0.373 OA
ENDROOT
BRANCH   4   7
HETATM    7  C1  UNL     1     -34.211   4.243   5.643  1.00 20.00     0.268 C 
HETATM    8  O7  UNL     1     -35.084   3.452   5.302  1.00 20.00    -0.304 OA
ENDBRANCH   4   7
TORSDOF 1
ENDMDL
MODEL 7
REMARK VINA RESULT:      -3.4      1.304      1.861
REMARK  1 active torsions:
REMARK  status: ('A' for Active; 'I' for Inactive)
REMARK    1  A    between atoms: C1_1  and  C5_5 
ROOT
HETATM    1  C2  UNL     1     -36.028  16.470  -3.574  1.00 20.00     0.029 C 
HETATM    2  C3  UNL     1     -35.079  15.577  -2.810  1.00 20.00     0.047 C 
HETATM    3  C4  UNL     1     -35.256  16.728  -4.849  1.00 20.00     0.169 C 
HETATM    4  C5  UNL     1     -34.445  14.750  -3.921  1.00 20.00     0.110 C 
HETATM    5  C6  UNL     1     -33.009  14.347  -3.626  1.00 20.00     0.053 C 
HETATM    6  O8  UNL     1     -34.493  15.544  -5.114  1.00 20.00    -0.373 OA
ENDROOT
BRANCH   4   7
HETATM    7  C1  UNL     1     -35.245  13.515  -4.220  1.00 20.00     0.268 C 
HETATM    8  O7  UNL     1     -34.795  12.547  -4.825  1.00 20.00    -0.304 OA
ENDBRANCH   4   7
TORSDOF 1
ENDMDL
MODEL 8
REMARK VINA RESULT:      -3.4      1.605      2.096
REMARK  1 active torsions:
REMARK  status: ('A' for Active; 'I' for Inactive)
REMARK    1  A    between atoms: C1_1  and  C5_5 
ROOT
HETATM    1  C2  UNL     1     -33.711  16.371  -3.199  1.00 20.00     0.029 C 
HETATM    2  C3  UNL     1     -34.079  14.925  -2.962  1.00 20.00     0.047 C 
HETATM    3  C4  UNL     1     -33.662  16.438  -4.709  1.00 20.00     0.169 C 
HETATM    4  C5  UNL     1     -35.018  14.634  -4.125  1.00 20.00     0.110 C 
HETATM    5  C6  UNL     1     -34.956  13.193  -4.603  1.00 20.00     0.053 C 
HETATM    6  O8  UNL     1     -34.650  15.518  -5.193  1.00 20.00    -0.373 OA
ENDROOT
BRANCH   4   7
HETATM    7  C1  UNL     1     -36.443  14.974  -3.788  1.00 20.00     0.268 C 
HETATM    8  O7  UNL     1     -37.351  14.150  -3.782  1.00 20.00    -0.304 OA
ENDBRANCH   4   7
TORSDOF 1
ENDMDL
MODEL 9
REMARK VINA RESULT:      -3.4      1.748      2.755
REMARK  1 active torsions:
REMARK  status: ('A' for Active; 'I' for Inactive)
REMARK    1  A    between atoms: C1_1  and  C5_5 
ROOT
HETATM    1  C2  UNL     1     -36.104  14.509  -3.976  1.00 20.00     0.029 C 
HETATM    2  C3  UNL     1     -36.106  15.207  -5.316  1.00 20.00     0.047 C 
HETATM    3  C4  UNL     1     -35.084  13.414  -4.194  1.00 20.00     0.169 C 
HETATM    4  C5  UNL     1     -34.645  15.105  -5.737  1.00 20.00     0.110 C 
HETATM    5  C6  UNL     1     -34.459  15.006  -7.242  1.00 20.00     0.053 C 
HETATM    6  O8  UNL     1     -34.105  13.939  -5.101  1.00 20.00    -0.373 OA
ENDROOT
BRANCH   4   7
HETATM    7  C1  UNL     1     -33.837  16.262  -5.222  1.00 20.00     0.268 C 
HETATM    8  O7  UNL     1     -32.738  16.137  -4.692  1.00 20.00    -0.304 OA
ENDBRANCH   4   7
TORSDOF 1
ENDMDL
