MODEL 1
REMARK VINA RESULT:      -4.5      0.000      0.000
REMARK  0 active torsions:
REMARK  status: ('A' for Active; 'I' for Inactive)
ROOT
HETATM    1  C1  UNL     1     -33.067   6.226   3.479  1.00 20.00     0.069 C 
HETATM    2  C2  UNL     1     -34.906   3.948   5.875  1.00 20.00     0.002 C 
HETATM    3  C3  UNL     1     -34.984   5.291   6.603  1.00 20.00     0.002 C 
HETATM    4  C4  UNL     1     -34.077   4.195   4.615  1.00 20.00     0.024 C 
HETATM    5  C5  UNL     1     -34.199   6.286   5.749  1.00 20.00     0.024 C 
HETATM    6  C6  UNL     1     -34.217   5.695   4.334  1.00 20.00     0.045 C 
HETATM    7  C7  UNL     1     -35.501   5.986   3.659  1.00 20.00     0.031 C 
HETATM    8  N8  UNL     1     -32.194   6.629   2.829  1.00 20.00    -0.196 NA
ENDROOT
TORSDOF 0
ENDMDL
MODEL 2
REMARK VINA RESULT:      -4.2     12.068     12.980
REMARK  0 active torsions:
REMARK  status: ('A' for Active; 'I' for Inactive)
ROOT
HETATM    1  C1  UNL     1     -37.086  14.525  -3.940  1.00 20.00     0.069 C 
HETATM    2  C2  UNL     1     -33.433  15.306  -3.336  1.00 20.00     0.002 C 
HETATM    3  C3  UNL     1     -33.365  13.852  -3.804  1.00 20.00     0.002 C 
HETATM    4  C4  UNL     1     -34.917  15.666  -3.281  1.00 20.00     0.024 C 
HETATM    5  C5  UNL     1     -34.811  13.402  -4.011  1.00 20.00     0.024 C 
HETATM    6  C6  UNL     1     -35.599  14.696  -4.251  1.00 20.00     0.045 C 
HETATM    7  C7  UNL     1     -35.444  15.153  -5.649  1.00 20.00     0.031 C 
HETATM    8  N8  UNL     1     -38.214  14.396  -3.704  1.00 20.00    -0.196 NA
ENDROOT
TORSDOF 0
ENDMDL
MODEL 3
REMARK VINA RESULT:      -4.1     12.112     13.216
REMARK  0 active torsions:
REMARK  status: ('A' for Active; 'I' for Inactive)
ROOT
HETATM    1  C1  UNL     1     -34.506  13.673  -4.168  1.00 20.00     0.069 C 
HETATM    2  C2  UNL     1     -33.707  17.371  -4.117  1.00 20.00     0.002 C 
HETATM    3  C3  UNL     1     -33.997  17.097  -2.641  1.00 20.00     0.002 C 
HETATM    4  C4  UNL     1     -33.957  16.054  -4.851  1.00 20.00     0.024 C 
HETATM    5  C5  UNL     1     -34.409  15.627  -2.552  1.00 20.00     0.024 C 
HETATM    6  C6  UNL     1     -33.785  14.965  -3.787  1.00 20.00     0.045 C 
HETATM    7  C7  UNL     1     -32.352  14.674  -3.559  1.00 20.00     0.031 C 
HETATM    8  N8  UNL     1     -35.054  12.692  -4.458  1.00 20.00    -0.196 NA
ENDROOT
TORSDOF 0
ENDMDL
MODEL 4
REMARK VINA RESULT:      -4.1     12.346     13.288
REMARK  0 active torsions:
REMARK  status: ('A' for Active; 'I' for Inactive)
ROOT
HETATM    1  C1  UNL     1     -36.826  14.454  -3.963  1.00 20.00     0.069 C 
HETATM    2  C2  UNL     1     -33.549  16.041  -4.992  1.00 20.00     0.002 C 
HETATM    3  C3  UNL     1     -33.288  15.720  -3.520  1.00 20.00     0.002 C 
HETATM    4  C4  UNL     1     -34.996  15.633  -5.267  1.00 20.00     0.024 C 
HETATM    5  C5  UNL     1     -34.590  15.133  -2.974  1.00 20.00     0.024 C 
HETATM    6  C6  UNL     1     -35.322  14.579  -4.203  1.00 20.00     0.045 C 
HETATM    7  C7  UNL     1     -34.778  13.258  -4.587  1.00 20.00     0.031 C 
HETATM    8  N8  UNL     1     -37.968  14.358  -3.781  1.00 20.00    -0.196 NA
ENDROOT
TORSDOF 0
ENDMDL
MODEL 5
REMARK VINA RESULT:      -4.0     12.130     13.156
REMARK  0 active torsions:
REMARK  status: ('A' for Active; 'I' for Inactive)
ROOT
HETATM    1  C1  UNL     1     -36.568  14.757  -3.623  1.00 20.00     0.069 C 
HETATM    2  C2  UNL     1     -32.789  14.838  -3.774  1.00 20.00     0.002 C 
HETATM    3  C3  UNL     1     -33.155  16.129  -4.507  1.00 20.00     0.002 C 
HETATM    4  C4  UNL     1     -34.111  14.154  -3.430  1.00 20.00     0.024 C 
HETATM    5  C5  UNL     1     -34.682  16.165  -4.572  1.00 20.00     0.024 C 
HETATM    6  C6  UNL     1     -35.149  15.282  -3.408  1.00 20.00     0.045 C 
HETATM    7  C7  UNL     1     -35.092  16.024  -2.129  1.00 20.00     0.031 C 
HETATM    8  N8  UNL     1     -37.646  14.359  -3.785  1.00 20.00    -0.196 NA
ENDROOT
TORSDOF 0
ENDMDL
MODEL 6
REMARK VINA RESULT:      -3.9      1.330      2.378
REMARK  0 active torsions:
REMARK  status: ('A' for Active; 'I' for Inactive)
ROOT
HETATM    1  C1  UNL     1     -32.611   7.530   2.645  1.00 20.00     0.069 C 
HETATM    2  C2  UNL     1     -34.329   5.574   5.390  1.00 20.00     0.002 C 
HETATM    3  C3  UNL     1     -35.048   5.056   4.145  1.00 20.00     0.002 C 
HETATM    4  C4  UNL     1     -33.357   6.649   4.904  1.00 20.00     0.024 C 
HETATM    5  C5  UNL     1     -34.478   5.842   2.964  1.00 20.00     0.024 C 
HETATM    6  C6  UNL     1     -33.095   6.313   3.432  1.00 20.00     0.045 C 
HETATM    7  C7  UNL     1     -32.100   5.226   3.309  1.00 20.00     0.031 C 
HETATM    8  N8  UNL     1     -32.243   8.454   2.047  1.00 20.00    -0.196 NA
ENDROOT
TORSDOF 0
ENDMDL
MODEL 7
REMARK VINA RESULT:      -3.9      9.002     10.235
REMARK  0 active torsions:
REMARK  status: ('A' for Active; 'I' for Inactive)
ROOT
HETATM    1  C1  UNL     1     -41.697   3.254  -2.653  1.00 20.00     0.069 C 
HETATM    2  C2  UNL     1     -40.800   6.174  -0.422  1.00 20.00     0.002 C 
HETATM    3  C3  UNL     1     -41.740   6.834  -1.430  1.00 20.00     0.002 C 
HETATM    4  C4  UNL     1     -40.648   4.721  -0.868  1.00 20.00     0.024 C 
HETATM    5  C5  UNL     1     -42.114   5.748  -2.439  1.00 20.00     0.024 C 
HETATM    6  C6  UNL     1     -41.906   4.424  -1.693  1.00 20.00     0.045 C 
HETATM    7  C7  UNL     1     -43.057   4.132  -0.811  1.00 20.00     0.031 C 
HETATM    8  N8  UNL     1     -41.539   2.365  -3.382  1.00 20.00    -0.196 NA
ENDROOT
TORSDOF 0
ENDMDL
MODEL 8
REMARK VINA RESULT:      -3.9     12.369     12.970
REMARK  0 active torsions:
REMARK  status: ('A' for Active; 'I' for Inactive)
ROOT
HETATM    1  C1  UNL     1     -34.702  13.750  -4.454  1.00 20.00     0.069 C 
HETATM    2  C2  UNL     1     -35.257  16.658  -2.098  1.00 20.00     0.002 C 
HETATM    3  C3  UNL     1     -33.734  16.652  -2.228  1.00 20.00     0.002 C 
HETATM    4  C4  UNL     1     -35.759  15.464  -2.909  1.00 20.00     0.024 C 
HETATM    5  C5  UNL     1     -33.386  15.455  -3.112  1.00 20.00     0.024 C 
HETATM    6  C6  UNL     1     -34.653  15.186  -3.934  1.00 20.00     0.045 C 
HETATM    7  C7  UNL     1     -34.746  16.122  -5.076  1.00 20.00     0.031 C 
HETATM    8  N8  UNL     1     -34.740  12.660  -4.849  1.00 20.00    -0.196 NA
ENDROOT
TORSDOF 0
ENDMDL
MODEL 9
REMARK VINA RESULT:      -3.9     11.961     13.027
REMARK  0 active torsions:
REMARK  status: ('A' for Active; 'I' for Inactive)
ROOT
HETATM    1  C1  UNL     1     -34.418  15.765  -2.341  1.00 20.00     0.069 C 
HETATM    2  C2  UNL     1     -34.728  13.362  -5.247  1.00 20.00     0.002 C 
HETATM    3  C3  UNL     1     -34.555  14.698  -5.969  1.00 20.00     0.002 C 
HETATM    4  C4  UNL     1     -34.762  13.686  -3.754  1.00 20.00     0.024 C 
HETATM    5  C5  UNL     1     -34.492  15.768  -4.878  1.00 20.00     0.024 C 
HETATM    6  C6  UNL     1     -34.027  15.024  -3.619  1.00 20.00     0.045 C 
HETATM    7  C7  UNL     1     -32.562  14.824  -3.639  1.00 20.00     0.031 C 
HETATM    8  N8  UNL     1     -34.714  16.328  -1.371  1.00 20.00    -0.196 NA
ENDROOT
TORSDOF 0
ENDMDL
