MODEL 1
REMARK VINA RESULT:      -4.2      0.000      0.000
REMARK  2 active torsions:
REMARK  status: ('A' for Active; 'I' for Inactive)
REMARK    1  A    between atoms: C1_1  and  C7_7 
REMARK    2  A    between atoms: C2_2  and  C3_3 
ROOT
HETATM    1  C1  UNL     1     -33.240   6.573   4.479  1.00 20.00    -0.013 C 
HETATM    2  C3  UNL     1     -34.181   5.891   5.156  1.00 20.00    -0.028 C 
HETATM    3  C4  UNL     1     -34.471   5.938   6.622  1.00 20.00     0.051 C 
ENDROOT
BRANCH   1   4
HETATM    4  C7  UNL     1     -32.954   6.511   2.997  1.00 20.00     0.000 C 
HETATM    5  C5  UNL     1     -32.248   7.790   2.547  1.00 20.00     0.013 C 
HETATM    6  C6  UNL     1     -32.095   5.286   2.682  1.00 20.00     0.013 C 
ENDBRANCH   1   4
BRANCH   2   7
HETATM    7  C2  UNL     1     -35.029   4.976   4.340  1.00 20.00     0.265 C 
HETATM    8  O8  UNL     1     -35.234   3.807   4.645  1.00 20.00    -0.302 OA
ENDBRANCH   2   7
TORSDOF 2
ENDMDL
MODEL 2
REMARK VINA RESULT:      -4.1     11.564     12.227
REMARK  2 active torsions:
REMARK  status: ('A' for Active; 'I' for Inactive)
REMARK    1  A    between atoms: C1_1  and  C7_7 
REMARK    2  A    between atoms: C2_2  and  C3_3 
ROOT
HETATM    1  C1  UNL     1     -35.145  15.745  -2.653  1.00 20.00    -0.013 C 
HETATM    2  C3  UNL     1     -34.913  14.713  -3.482  1.00 20.00    -0.028 C 
HETATM    3  C4  UNL     1     -35.915  13.916  -4.257  1.00 20.00     0.051 C 
ENDROOT
BRANCH   1   4
HETATM    4  C7  UNL     1     -34.123  16.538  -1.871  1.00 20.00     0.000 C 
HETATM    5  C5  UNL     1     -33.796  17.838  -2.605  1.00 20.00     0.013 C 
HETATM    6  C6  UNL     1     -34.654  16.834  -0.468  1.00 20.00     0.013 C 
ENDBRANCH   1   4
BRANCH   2   7
HETATM    7  C2  UNL     1     -33.485  14.316  -3.639  1.00 20.00     0.265 C 
HETATM    8  O8  UNL     1     -33.122  13.149  -3.722  1.00 20.00    -0.302 OA
ENDBRANCH   2   7
TORSDOF 2
ENDMDL
MODEL 3
REMARK VINA RESULT:      -4.0     11.536     12.393
REMARK  2 active torsions:
REMARK  status: ('A' for Active; 'I' for Inactive)
REMARK    1  A    between atoms: C1_1  and  C7_7 
REMARK    2  A    between atoms: C2_2  and  C3_3 
ROOT
HETATM    1  C1  UNL     1     -34.450  15.383  -2.920  1.00 20.00    -0.013 C 
HETATM    2  C3  UNL     1     -35.267  14.551  -3.589  1.00 20.00    -0.028 C 
HETATM    3  C4  UNL     1     -34.916  13.254  -4.247  1.00 20.00     0.051 C 
ENDROOT
BRANCH   1   4
HETATM    4  C7  UNL     1     -34.816  16.694  -2.265  1.00 20.00     0.000 C 
HETATM    5  C5  UNL     1     -34.655  16.585  -0.749  1.00 20.00     0.013 C 
HETATM    6  C6  UNL     1     -33.938  17.818  -2.817  1.00 20.00     0.013 C 
ENDBRANCH   1   4
BRANCH   2   7
HETATM    7  C2  UNL     1     -36.690  14.983  -3.687  1.00 20.00     0.265 C 
HETATM    8  O8  UNL     1     -37.626  14.192  -3.715  1.00 20.00    -0.302 OA
ENDBRANCH   2   7
TORSDOF 2
ENDMDL
MODEL 4
REMARK VINA RESULT:      -3.9     11.852     12.724
REMARK  2 active torsions:
REMARK  status: ('A' for Active; 'I' for Inactive)
REMARK    1  A    between atoms: C1_1  and  C7_7 
REMARK    2  A    between atoms: C2_2  and  C3_3 
ROOT
HETATM    1  C1  UNL     1     -34.822  15.656  -2.343  1.00 20.00    -0.013 C 
HETATM    2  C3  UNL     1     -34.227  14.880  -3.266  1.00 20.00    -0.028 C 
HETATM    3  C4  UNL     1     -34.763  13.636  -3.901  1.00 20.00     0.051 C 
ENDROOT
BRANCH   1   4
HETATM    4  C7  UNL     1     -34.267  16.908  -1.705  1.00 20.00     0.000 C 
HETATM    5  C5  UNL     1     -34.748  18.142  -2.468  1.00 20.00     0.013 C 
HETATM    6  C6  UNL     1     -34.697  16.982  -0.240  1.00 20.00     0.013 C 
ENDBRANCH   1   4
BRANCH   2   7
HETATM    7  C2  UNL     1     -32.868  15.315  -3.698  1.00 20.00     0.265 C 
HETATM    8  O8  UNL     1     -32.679  16.059  -4.653  1.00 20.00    -0.302 OA
ENDBRANCH   2   7
TORSDOF 2
ENDMDL
MODEL 5
REMARK VINA RESULT:      -3.7     11.952     12.872
REMARK  2 active torsions:
REMARK  status: ('A' for Active; 'I' for Inactive)
REMARK    1  A    between atoms: C1_1  and  C7_7 
REMARK    2  A    between atoms: C2_2  and  C3_3 
ROOT
HETATM    1  C1  UNL     1     -35.155  15.377  -2.835  1.00 20.00    -0.013 C 
HETATM    2  C3  UNL     1     -34.240  16.360  -2.764  1.00 20.00    -0.028 C 
HETATM    3  C4  UNL     1     -33.711  17.034  -1.538  1.00 20.00     0.051 C 
ENDROOT
BRANCH   1   4
HETATM    4  C7  UNL     1     -35.685  14.709  -4.082  1.00 20.00     0.000 C 
HETATM    5  C5  UNL     1     -35.056  13.325  -4.241  1.00 20.00     0.013 C 
HETATM    6  C6  UNL     1     -37.209  14.599  -4.008  1.00 20.00     0.013 C 
ENDBRANCH   1   4
BRANCH   2   7
HETATM    7  C2  UNL     1     -33.696  16.832  -4.069  1.00 20.00     0.265 C 
HETATM    8  O8  UNL     1     -32.751  16.293  -4.632  1.00 20.00    -0.302 OA
ENDBRANCH   2   7
TORSDOF 2
ENDMDL
MODEL 6
REMARK VINA RESULT:      -3.6     11.758     12.911
REMARK  2 active torsions:
REMARK  status: ('A' for Active; 'I' for Inactive)
REMARK    1  A    between atoms: C1_1  and  C7_7 
REMARK    2  A    between atoms: C2_2  and  C3_3 
ROOT
HETATM    1  C1  UNL     1     -35.044  16.045  -4.194  1.00 20.00    -0.013 C 
HETATM    2  C3  UNL     1     -34.971  14.934  -4.948  1.00 20.00    -0.028 C 
HETATM    3  C4  UNL     1     -34.514  14.819  -6.368  1.00 20.00     0.051 C 
ENDROOT
BRANCH   1   4
HETATM    4  C7  UNL     1     -35.514  16.149  -2.762  1.00 20.00     0.000 C 
HETATM    5  C5  UNL     1     -34.318  16.357  -1.833  1.00 20.00     0.013 C 
HETATM    6  C6  UNL     1     -36.509  17.301  -2.621  1.00 20.00     0.013 C 
ENDBRANCH   1   4
BRANCH   2   7
HETATM    7  C2  UNL     1     -35.404  13.672  -4.285  1.00 20.00     0.265 C 
HETATM    8  O8  UNL     1     -34.927  12.577  -4.559  1.00 20.00    -0.302 OA
ENDBRANCH   2   7
TORSDOF 2
ENDMDL
MODEL 7
REMARK VINA RESULT:      -3.6     11.719     13.097
REMARK  2 active torsions:
REMARK  status: ('A' for Active; 'I' for Inactive)
REMARK    1  A    between atoms: C1_1  and  C7_7 
REMARK    2  A    between atoms: C2_2  and  C3_3 
ROOT
HETATM    1  C1  UNL     1     -34.785  15.808  -4.824  1.00 20.00    -0.013 C 
HETATM    2  C3  UNL     1     -34.250  15.397  -3.660  1.00 20.00    -0.028 C 
HETATM    3  C4  UNL     1     -34.635  15.814  -2.276  1.00 20.00     0.051 C 
ENDROOT
BRANCH   1   4
HETATM    4  C7  UNL     1     -34.383  15.382  -6.216  1.00 20.00     0.000 C 
HETATM    5  C5  UNL     1     -35.326  14.291  -6.723  1.00 20.00     0.013 C 
HETATM    6  C6  UNL     1     -34.404  16.587  -7.157  1.00 20.00     0.013 C 
ENDBRANCH   1   4
BRANCH   2   7
HETATM    7  C2  UNL     1     -33.137  14.412  -3.772  1.00 20.00     0.265 C 
HETATM    8  O8  UNL     1     -33.310  13.200  -3.708  1.00 20.00    -0.302 OA
ENDBRANCH   2   7
TORSDOF 2
ENDMDL
MODEL 8
REMARK VINA RESULT:      -3.6      2.047      3.800
REMARK  2 active torsions:
REMARK  status: ('A' for Active; 'I' for Inactive)
REMARK    1  A    between atoms: C1_1  and  C7_7 
REMARK    2  A    between atoms: C2_2  and  C3_3 
ROOT
HETATM    1  C1  UNL     1     -34.743   5.282   4.382  1.00 20.00    -0.013 C 
HETATM    2  C3  UNL     1     -34.059   5.585   3.264  1.00 20.00    -0.028 C 
HETATM    3  C4  UNL     1     -34.574   5.636   1.860  1.00 20.00     0.051 C 
ENDROOT
BRANCH   1   4
HETATM    4  C7  UNL     1     -34.209   5.228   5.794  1.00 20.00     0.000 C 
HETATM    5  C5  UNL     1     -34.124   6.640   6.375  1.00 20.00     0.013 C 
HETATM    6  C6  UNL     1     -35.108   4.346   6.660  1.00 20.00     0.013 C 
ENDBRANCH   1   4
BRANCH   2   7
HETATM    7  C2  UNL     1     -32.616   5.901   3.454  1.00 20.00     0.265 C 
HETATM    8  O8  UNL     1     -32.173   7.043   3.417  1.00 20.00    -0.302 OA
ENDBRANCH   2   7
TORSDOF 2
ENDMDL
MODEL 9
REMARK VINA RESULT:      -3.5      9.654     10.926
REMARK  2 active torsions:
REMARK  status: ('A' for Active; 'I' for Inactive)
REMARK    1  A    between atoms: C1_1  and  C7_7 
REMARK    2  A    between atoms: C2_2  and  C3_3 
ROOT
HETATM    1  C1  UNL     1     -41.318   4.200  -1.621  1.00 20.00    -0.013 C 
HETATM    2  C3  UNL     1     -41.915   3.553  -2.638  1.00 20.00    -0.028 C 
HETATM    3  C4  UNL     1     -41.389   2.392  -3.420  1.00 20.00     0.051 C 
ENDROOT
BRANCH   1   4
HETATM    4  C7  UNL     1     -41.858   5.376  -0.843  1.00 20.00     0.000 C 
HETATM    5  C5  UNL     1     -42.283   4.928   0.556  1.00 20.00     0.013 C 
HETATM    6  C6  UNL     1     -40.798   6.475  -0.754  1.00 20.00     0.013 C 
ENDBRANCH   1   4
BRANCH   2   7
HETATM    7  C2  UNL     1     -43.259   4.064  -3.029  1.00 20.00     0.265 C 
HETATM    8  O8  UNL     1     -43.417   5.008  -3.793  1.00 20.00    -0.302 OA
ENDBRANCH   2   7
TORSDOF 2
ENDMDL
