MODEL 1
REMARK VINA RESULT:      -5.1      0.000      0.000
REMARK  0 active torsions:
REMARK  status: ('A' for Active; 'I' for Inactive)
ROOT
HETATM    1  C1  UNL     1     -32.712   6.947   3.185  1.00 20.00     0.095 C 
HETATM    2  C2  UNL     1     -34.391   5.826   6.403  1.00 20.00    -0.026 C 
HETATM    3  C3  UNL     1     -35.135   4.815   5.935  1.00 20.00    -0.001 C 
HETATM    4  C4  UNL     1     -33.509   6.637   5.499  1.00 20.00     0.077 C 
HETATM    5  C5  UNL     1     -35.160   4.459   4.478  1.00 20.00     0.298 C 
HETATM    6  C6  UNL     1     -33.301   5.976   4.122  1.00 20.00     0.329 C 
HETATM    7  N7  UNL     1     -32.248   7.712   2.447  1.00 20.00    -0.195 NA
HETATM    8  N8  UNL     1     -34.579   5.480   3.597  1.00 20.00     0.105 N 
HETATM    9  H16 UNL     1     -34.442   5.076   2.671  1.00 20.00     0.318 HD
ENDROOT
TORSDOF 0
ENDMDL
MODEL 2
REMARK VINA RESULT:      -4.0     11.521     12.275
REMARK  0 active torsions:
REMARK  status: ('A' for Active; 'I' for Inactive)
ROOT
HETATM    1  C1  UNL     1     -37.228  14.478  -3.918  1.00 20.00     0.095 C 
HETATM    2  C2  UNL     1     -33.696  15.593  -3.073  1.00 20.00    -0.026 C 
HETATM    3  C3  UNL     1     -33.004  14.557  -3.566  1.00 20.00    -0.001 C 
HETATM    4  C4  UNL     1     -35.194  15.644  -3.150  1.00 20.00     0.077 C 
HETATM    5  C5  UNL     1     -33.684  13.373  -4.188  1.00 20.00     0.298 C 
HETATM    6  C6  UNL     1     -35.776  14.600  -4.125  1.00 20.00     0.329 C 
HETATM    7  N7  UNL     1     -38.372  14.382  -3.754  1.00 20.00    -0.195 NA
HETATM    8  N8  UNL     1     -35.127  13.299  -3.923  1.00 20.00     0.105 N 
HETATM    9  H16 UNL     1     -35.540  12.604  -4.545  1.00 20.00     0.318 HD
ENDROOT
TORSDOF 0
ENDMDL
MODEL 3
REMARK VINA RESULT:      -3.9     11.894     13.181
REMARK  0 active torsions:
REMARK  status: ('A' for Active; 'I' for Inactive)
ROOT
HETATM    1  C1  UNL     1     -34.699  13.718  -4.564  1.00 20.00     0.095 C 
HETATM    2  C2  UNL     1     -34.125  16.872  -2.525  1.00 20.00    -0.026 C 
HETATM    3  C3  UNL     1     -33.650  17.681  -3.481  1.00 20.00    -0.001 C 
HETATM    4  C4  UNL     1     -34.515  15.453  -2.819  1.00 20.00     0.077 C 
HETATM    5  C5  UNL     1     -33.445  17.207  -4.890  1.00 20.00     0.298 C 
HETATM    6  C6  UNL     1     -34.637  15.170  -4.330  1.00 20.00     0.329 C 
HETATM    7  N7  UNL     1     -34.747  12.573  -4.747  1.00 20.00    -0.195 NA
HETATM    8  N8  UNL     1     -33.495  15.748  -5.049  1.00 20.00     0.105 N 
HETATM    9  H16 UNL     1     -33.562  15.528  -6.043  1.00 20.00     0.318 HD
ENDROOT
TORSDOF 0
ENDMDL
MODEL 4
REMARK VINA RESULT:      -3.9     11.849     12.717
REMARK  0 active torsions:
REMARK  status: ('A' for Active; 'I' for Inactive)
ROOT
HETATM    1  C1  UNL     1     -37.085  14.611  -3.739  1.00 20.00     0.095 C 
HETATM    2  C2  UNL     1     -33.342  13.968  -3.822  1.00 20.00    -0.026 C 
HETATM    3  C3  UNL     1     -32.892  15.229  -3.821  1.00 20.00    -0.001 C 
HETATM    4  C4  UNL     1     -34.811  13.658  -3.800  1.00 20.00     0.077 C 
HETATM    5  C5  UNL     1     -33.826  16.404  -3.836  1.00 20.00     0.298 C 
HETATM    6  C6  UNL     1     -35.672  14.883  -3.433  1.00 20.00     0.329 C 
HETATM    7  N7  UNL     1     -38.199  14.395  -3.982  1.00 20.00    -0.195 NA
HETATM    8  N8  UNL     1     -35.215  16.066  -4.172  1.00 20.00     0.105 N 
HETATM    9  H16 UNL     1     -35.810  16.865  -3.953  1.00 20.00     0.318 HD
ENDROOT
TORSDOF 0
ENDMDL
MODEL 5
REMARK VINA RESULT:      -3.8     12.134     13.409
REMARK  0 active torsions:
REMARK  status: ('A' for Active; 'I' for Inactive)
ROOT
HETATM    1  C1  UNL     1     -35.451  14.532  -6.893  1.00 20.00     0.095 C 
HETATM    2  C2  UNL     1     -33.480  13.733  -3.746  1.00 20.00    -0.026 C 
HETATM    3  C3  UNL     1     -32.876  14.912  -3.547  1.00 20.00    -0.001 C 
HETATM    4  C4  UNL     1     -34.402  13.509  -4.908  1.00 20.00     0.077 C 
HETATM    5  C5  UNL     1     -33.056  16.064  -4.491  1.00 20.00     0.298 C 
HETATM    6  C6  UNL     1     -34.827  14.824  -5.592  1.00 20.00     0.329 C 
HETATM    7  N7  UNL     1     -35.943  14.301  -7.918  1.00 20.00    -0.195 NA
HETATM    8  N8  UNL     1     -33.663  15.699  -5.778  1.00 20.00     0.105 N 
HETATM    9  H16 UNL     1     -33.942  16.552  -6.263  1.00 20.00     0.318 HD
ENDROOT
TORSDOF 0
ENDMDL
MODEL 6
REMARK VINA RESULT:      -3.8     12.043     13.705
REMARK  0 active torsions:
REMARK  status: ('A' for Active; 'I' for Inactive)
ROOT
HETATM    1  C1  UNL     1     -34.436  16.590  -6.778  1.00 20.00     0.095 C 
HETATM    2  C2  UNL     1     -34.367  13.373  -4.758  1.00 20.00    -0.026 C 
HETATM    3  C3  UNL     1     -33.535  13.738  -3.773  1.00 20.00    -0.001 C 
HETATM    4  C4  UNL     1     -34.734  14.318  -5.865  1.00 20.00     0.077 C 
HETATM    5  C5  UNL     1     -32.895  15.095  -3.738  1.00 20.00     0.298 C 
HETATM    6  C6  UNL     1     -34.352  15.779  -5.553  1.00 20.00     0.329 C 
HETATM    7  N7  UNL     1     -34.502  17.229  -7.744  1.00 20.00    -0.195 NA
HETATM    8  N8  UNL     1     -32.994  15.841  -4.999  1.00 20.00     0.105 N 
HETATM    9  H16 UNL     1     -32.732  16.812  -4.828  1.00 20.00     0.318 HD
ENDROOT
TORSDOF 0
ENDMDL
MODEL 7
REMARK VINA RESULT:      -3.8      9.237     10.415
REMARK  0 active torsions:
REMARK  status: ('A' for Active; 'I' for Inactive)
ROOT
HETATM    1  C1  UNL     1     -41.808   3.291  -2.652  1.00 20.00     0.095 C 
HETATM    2  C2  UNL     1     -40.698   6.124  -0.378  1.00 20.00    -0.026 C 
HETATM    3  C3  UNL     1     -41.491   7.105  -0.828  1.00 20.00    -0.001 C 
HETATM    4  C4  UNL     1     -40.740   4.746  -0.971  1.00 20.00     0.077 C 
HETATM    5  C5  UNL     1     -42.440   6.895  -1.972  1.00 20.00     0.298 C 
HETATM    6  C6  UNL     1     -41.982   4.516  -1.855  1.00 20.00     0.329 C 
HETATM    7  N7  UNL     1     -41.671   2.326  -3.281  1.00 20.00    -0.195 NA
HETATM    8  N8  UNL     1     -42.196   5.667  -2.740  1.00 20.00     0.105 N 
HETATM    9  H16 UNL     1     -42.997   5.495  -3.347  1.00 20.00     0.318 HD
ENDROOT
TORSDOF 0
ENDMDL
MODEL 8
REMARK VINA RESULT:      -3.7     11.523     12.614
REMARK  0 active torsions:
REMARK  status: ('A' for Active; 'I' for Inactive)
ROOT
HETATM    1  C1  UNL     1     -34.627  13.743  -3.853  1.00 20.00     0.095 C 
HETATM    2  C2  UNL     1     -33.679  17.405  -3.501  1.00 20.00    -0.026 C 
HETATM    3  C3  UNL     1     -34.048  17.617  -2.231  1.00 20.00    -0.001 C 
HETATM    4  C4  UNL     1     -33.853  16.066  -4.156  1.00 20.00     0.077 C 
HETATM    5  C5  UNL     1     -34.690  16.543  -1.402  1.00 20.00     0.298 C 
HETATM    6  C6  UNL     1     -34.152  14.942  -3.143  1.00 20.00     0.329 C 
HETATM    7  N7  UNL     1     -35.001  12.798  -4.412  1.00 20.00    -0.195 NA
HETATM    8  N8  UNL     1     -35.161  15.386  -2.174  1.00 20.00     0.105 N 
HETATM    9  H16 UNL     1     -35.382  14.628  -1.529  1.00 20.00     0.318 HD
ENDROOT
TORSDOF 0
ENDMDL
MODEL 9
REMARK VINA RESULT:      -3.7     11.756     12.173
REMARK  0 active torsions:
REMARK  status: ('A' for Active; 'I' for Inactive)
ROOT
HETATM    1  C1  UNL     1     -34.704  16.348  -1.555  1.00 20.00     0.095 C 
HETATM    2  C2  UNL     1     -34.333  13.680  -4.234  1.00 20.00    -0.026 C 
HETATM    3  C3  UNL     1     -35.561  13.717  -4.767  1.00 20.00    -0.001 C 
HETATM    4  C4  UNL     1     -33.946  14.573  -3.091  1.00 20.00     0.077 C 
HETATM    5  C5  UNL     1     -36.631  14.622  -4.231  1.00 20.00     0.298 C 
HETATM    6  C6  UNL     1     -34.955  15.716  -2.860  1.00 20.00     0.329 C 
HETATM    7  N7  UNL     1     -34.506  16.846  -0.526  1.00 20.00    -0.195 NA
HETATM    8  N8  UNL     1     -36.328  15.201  -2.916  1.00 20.00     0.105 N 
HETATM    9  H16 UNL     1     -36.990  15.953  -2.727  1.00 20.00     0.318 HD
ENDROOT
TORSDOF 0
ENDMDL
