MODEL 1
REMARK VINA RESULT:      -5.5      0.000      0.000
REMARK  3 active torsions:
REMARK  status: ('A' for Active; 'I' for Inactive)
REMARK    1  A    between atoms: C3_3  and  C8_8 
REMARK    2  A    between atoms: C3_3  and  O10_10 
REMARK    3  A    between atoms: C6_6  and  C8_8 
ROOT
HETATM    1  C1  UNL     1     -35.276   4.565   4.343  1.00 20.00    -0.026 C 
HETATM    2  C2  UNL     1     -35.004   5.494   3.422  1.00 20.00    -0.025 C 
HETATM    3  C4  UNL     1     -33.904   6.173   5.400  1.00 20.00     0.017 C 
HETATM    4  C5  UNL     1     -34.454   4.749   5.581  1.00 20.00     0.004 C 
HETATM    5  C6  UNL     1     -33.963   6.464   3.892  1.00 20.00     0.018 C 
HETATM    6  C7  UNL     1     -35.259   4.600   6.863  1.00 20.00     0.014 C 
ENDROOT
BRANCH   5   7
HETATM    7  C8  UNL     1     -32.626   6.238   3.195  1.00 20.00     0.118 C 
BRANCH   7   8
HETATM    8  C3  UNL     1     -31.926   7.536   2.887  1.00 20.00     0.140 C 
HETATM    9  O9  UNL     1     -32.042   8.195   1.864  1.00 20.00    -0.650 OA
BRANCH   8  10
HETATM   10  O10 UNL     1     -31.127   7.889   3.925  1.00 20.00    -0.776 OA
HETATM   11  H22 UNL     1     -30.287   7.380   3.929  1.00 20.00     0.167 HD
ENDBRANCH   8  10
ENDBRANCH   7   8
ENDBRANCH   5   7
TORSDOF 3
ENDMDL
MODEL 2
REMARK VINA RESULT:      -4.6     10.982     12.934
REMARK  3 active torsions:
REMARK  status: ('A' for Active; 'I' for Inactive)
REMARK    1  A    between atoms: C3_3  and  C8_8 
REMARK    2  A    between atoms: C3_3  and  O10_10 
REMARK    3  A    between atoms: C6_6  and  C8_8 
ROOT
HETATM    1  C1  UNL     1     -33.665  17.813  -4.361  1.00 20.00    -0.026 C 
HETATM    2  C2  UNL     1     -33.329  16.542  -4.598  1.00 20.00    -0.025 C 
HETATM    3  C4  UNL     1     -33.636  16.725  -2.263  1.00 20.00     0.017 C 
HETATM    4  C5  UNL     1     -34.114  18.016  -2.947  1.00 20.00     0.004 C 
HETATM    5  C6  UNL     1     -33.484  15.682  -3.382  1.00 20.00     0.018 C 
HETATM    6  C7  UNL     1     -33.523  19.263  -2.304  1.00 20.00     0.014 C 
ENDROOT
BRANCH   5   7
HETATM    7  C8  UNL     1     -34.692  14.758  -3.493  1.00 20.00     0.118 C 
BRANCH   7   8
HETATM    8  C3  UNL     1     -34.296  13.361  -3.894  1.00 20.00     0.140 C 
HETATM    9  O9  UNL     1     -33.155  12.939  -4.013  1.00 20.00    -0.650 OA
BRANCH   8  10
HETATM   10  O10 UNL     1     -35.405  12.610  -4.112  1.00 20.00    -0.776 OA
HETATM   11  H22 UNL     1     -35.885  12.892  -4.919  1.00 20.00     0.167 HD
ENDBRANCH   8  10
ENDBRANCH   7   8
ENDBRANCH   5   7
TORSDOF 3
ENDMDL
MODEL 3
REMARK VINA RESULT:      -4.5     11.574     12.661
REMARK  3 active torsions:
REMARK  status: ('A' for Active; 'I' for Inactive)
REMARK    1  A    between atoms: C3_3  and  C8_8 
REMARK    2  A    between atoms: C3_3  and  O10_10 
REMARK    3  A    between atoms: C6_6  and  C8_8 
ROOT
HETATM    1  C1  UNL     1     -33.689  17.471  -3.685  1.00 20.00    -0.026 C 
HETATM    2  C2  UNL     1     -33.371  16.605  -4.653  1.00 20.00    -0.025 C 
HETATM    3  C4  UNL     1     -34.042  15.310  -2.795  1.00 20.00     0.017 C 
HETATM    4  C5  UNL     1     -34.351  16.791  -2.526  1.00 20.00     0.004 C 
HETATM    5  C6  UNL     1     -33.755  15.201  -4.301  1.00 20.00     0.018 C 
HETATM    6  C7  UNL     1     -33.821  17.256  -1.177  1.00 20.00     0.014 C 
ENDROOT
BRANCH   5   7
HETATM    7  C8  UNL     1     -34.966  14.730  -5.099  1.00 20.00     0.118 C 
BRANCH   7   8
HETATM    8  C3  UNL     1     -35.817  13.766  -4.313  1.00 20.00     0.140 C 
HETATM    9  O9  UNL     1     -36.926  13.990  -3.853  1.00 20.00    -0.650 OA
BRANCH   8  10
HETATM   10  O10 UNL     1     -35.169  12.581  -4.179  1.00 20.00    -0.776 OA
HETATM   11  H22 UNL     1     -34.889  12.217  -5.046  1.00 20.00     0.167 HD
ENDBRANCH   8  10
ENDBRANCH   7   8
ENDBRANCH   5   7
TORSDOF 3
ENDMDL
MODEL 4
REMARK VINA RESULT:      -4.5     11.542     12.166
REMARK  3 active torsions:
REMARK  status: ('A' for Active; 'I' for Inactive)
REMARK    1  A    between atoms: C3_3  and  C8_8 
REMARK    2  A    between atoms: C3_3  and  O10_10 
REMARK    3  A    between atoms: C6_6  and  C8_8 
ROOT
HETATM    1  C1  UNL     1     -35.825  16.266  -2.423  1.00 20.00    -0.026 C 
HETATM    2  C2  UNL     1     -35.490  15.915  -3.668  1.00 20.00    -0.025 C 
HETATM    3  C4  UNL     1     -33.463  16.248  -2.503  1.00 20.00     0.017 C 
HETATM    4  C5  UNL     1     -34.637  16.285  -1.512  1.00 20.00     0.004 C 
HETATM    5  C6  UNL     1     -34.022  15.651  -3.804  1.00 20.00     0.018 C 
HETATM    6  C7  UNL     1     -34.592  17.510  -0.610  1.00 20.00     0.014 C 
ENDROOT
BRANCH   5   7
HETATM    7  C8  UNL     1     -33.727  14.161  -3.943  1.00 20.00     0.118 C 
BRANCH   7   8
HETATM    8  C3  UNL     1     -34.715  13.475  -4.851  1.00 20.00     0.140 C 
HETATM    9  O9  UNL     1     -34.902  13.721  -6.033  1.00 20.00    -0.650 OA
BRANCH   8  10
HETATM   10  O10 UNL     1     -35.389  12.519  -4.162  1.00 20.00    -0.776 OA
HETATM   11  H22 UNL     1     -35.949  12.904  -3.456  1.00 20.00     0.167 HD
ENDBRANCH   8  10
ENDBRANCH   7   8
ENDBRANCH   5   7
TORSDOF 3
ENDMDL
MODEL 5
REMARK VINA RESULT:      -4.4     11.719     12.407
REMARK  3 active torsions:
REMARK  status: ('A' for Active; 'I' for Inactive)
REMARK    1  A    between atoms: C3_3  and  C8_8 
REMARK    2  A    between atoms: C3_3  and  O10_10 
REMARK    3  A    between atoms: C6_6  and  C8_8 
ROOT
HETATM    1  C1  UNL     1     -35.781  17.373  -1.926  1.00 20.00    -0.026 C 
HETATM    2  C2  UNL     1     -35.879  16.949  -3.189  1.00 20.00    -0.025 C 
HETATM    3  C4  UNL     1     -33.834  16.107  -2.361  1.00 20.00     0.017 C 
HETATM    4  C5  UNL     1     -34.642  16.720  -1.206  1.00 20.00     0.004 C 
HETATM    5  C6  UNL     1     -34.816  15.952  -3.533  1.00 20.00     0.018 C 
HETATM    6  C7  UNL     1     -33.817  17.696  -0.380  1.00 20.00     0.014 C 
ENDROOT
BRANCH   5   7
HETATM    7  C8  UNL     1     -35.382  14.540  -3.645  1.00 20.00     0.118 C 
BRANCH   7   8
HETATM    8  C3  UNL     1     -34.681  13.736  -4.709  1.00 20.00     0.140 C 
HETATM    9  O9  UNL     1     -34.730  12.524  -4.849  1.00 20.00    -0.650 OA
BRANCH   8  10
HETATM   10  O10 UNL     1     -33.965  14.561  -5.515  1.00 20.00    -0.776 OA
HETATM   11  H22 UNL     1     -33.197  14.954  -5.047  1.00 20.00     0.167 HD
ENDBRANCH   8  10
ENDBRANCH   7   8
ENDBRANCH   5   7
TORSDOF 3
ENDMDL
MODEL 6
REMARK VINA RESULT:      -4.4     11.294     12.573
REMARK  3 active torsions:
REMARK  status: ('A' for Active; 'I' for Inactive)
REMARK    1  A    between atoms: C3_3  and  C8_8 
REMARK    2  A    between atoms: C3_3  and  O10_10 
REMARK    3  A    between atoms: C6_6  and  C8_8 
ROOT
HETATM    1  C1  UNL     1     -34.457  13.547  -4.921  1.00 20.00    -0.026 C 
HETATM    2  C2  UNL     1     -33.918  13.776  -3.719  1.00 20.00    -0.025 C 
HETATM    3  C4  UNL     1     -34.114  15.881  -4.772  1.00 20.00     0.017 C 
HETATM    4  C5  UNL     1     -34.850  14.820  -5.605  1.00 20.00     0.004 C 
HETATM    5  C6  UNL     1     -33.848  15.238  -3.402  1.00 20.00     0.018 C 
HETATM    6  C7  UNL     1     -34.450  14.859  -7.073  1.00 20.00     0.014 C 
ENDROOT
BRANCH   5   7
HETATM    7  C8  UNL     1     -34.879  15.638  -2.353  1.00 20.00     0.118 C 
BRANCH   7   8
HETATM    8  C3  UNL     1     -34.329  16.649  -1.381  1.00 20.00     0.140 C 
HETATM    9  O9  UNL     1     -33.401  17.417  -1.585  1.00 20.00    -0.650 OA
BRANCH   8  10
HETATM   10  O10 UNL     1     -35.020  16.592  -0.214  1.00 20.00    -0.776 OA
HETATM   11  H22 UNL     1     -34.752  15.823   0.333  1.00 20.00     0.167 HD
ENDBRANCH   8  10
ENDBRANCH   7   8
ENDBRANCH   5   7
TORSDOF 3
ENDMDL
MODEL 7
REMARK VINA RESULT:      -4.3     12.037     14.222
REMARK  3 active torsions:
REMARK  status: ('A' for Active; 'I' for Inactive)
REMARK    1  A    between atoms: C3_3  and  C8_8 
REMARK    2  A    between atoms: C3_3  and  O10_10 
REMARK    3  A    between atoms: C6_6  and  C8_8 
ROOT
HETATM    1  C1  UNL     1     -34.988  16.643  -7.641  1.00 20.00    -0.026 C 
HETATM    2  C2  UNL     1     -34.704  15.378  -7.320  1.00 20.00    -0.025 C 
HETATM    3  C4  UNL     1     -33.704  16.726  -5.658  1.00 20.00     0.017 C 
HETATM    4  C5  UNL     1     -34.611  17.593  -6.546  1.00 20.00     0.004 C 
HETATM    5  C6  UNL     1     -34.078  15.267  -5.964  1.00 20.00     0.018 C 
HETATM    6  C7  UNL     1     -33.901  18.840  -7.053  1.00 20.00     0.014 C 
ENDROOT
BRANCH   5   7
HETATM    7  C8  UNL     1     -35.045  14.680  -4.942  1.00 20.00     0.118 C 
BRANCH   7   8
HETATM    8  C3  UNL     1     -34.463  13.478  -4.243  1.00 20.00     0.140 C 
HETATM    9  O9  UNL     1     -33.316  13.362  -3.839  1.00 20.00    -0.650 OA
BRANCH   8  10
HETATM   10  O10 UNL     1     -35.409  12.513  -4.120  1.00 20.00    -0.776 OA
HETATM   11  H22 UNL     1     -36.316  12.875  -4.216  1.00 20.00     0.167 HD
ENDBRANCH   8  10
ENDBRANCH   7   8
ENDBRANCH   5   7
TORSDOF 3
ENDMDL
MODEL 8
REMARK VINA RESULT:      -4.2     11.096     12.590
REMARK  3 active torsions:
REMARK  status: ('A' for Active; 'I' for Inactive)
REMARK    1  A    between atoms: C3_3  and  C8_8 
REMARK    2  A    between atoms: C3_3  and  O10_10 
REMARK    3  A    between atoms: C6_6  and  C8_8 
ROOT
HETATM    1  C1  UNL     1     -34.401  17.362  -1.929  1.00 20.00    -0.026 C 
HETATM    2  C2  UNL     1     -34.381  16.026  -1.960  1.00 20.00    -0.025 C 
HETATM    3  C4  UNL     1     -36.317  16.691  -3.140  1.00 20.00     0.017 C 
HETATM    4  C5  UNL     1     -35.452  17.924  -2.836  1.00 20.00     0.004 C 
HETATM    5  C6  UNL     1     -35.421  15.469  -2.882  1.00 20.00     0.018 C 
HETATM    6  C7  UNL     1     -36.254  19.050  -2.199  1.00 20.00     0.014 C 
ENDROOT
BRANCH   5   7
HETATM    7  C8  UNL     1     -34.803  14.912  -4.160  1.00 20.00     0.118 C 
BRANCH   7   8
HETATM    8  C3  UNL     1     -34.335  13.490  -3.984  1.00 20.00     0.140 C 
HETATM    9  O9  UNL     1     -33.192  13.130  -3.746  1.00 20.00    -0.650 OA
BRANCH   8  10
HETATM   10  O10 UNL     1     -35.381  12.638  -4.130  1.00 20.00    -0.776 OA
HETATM   11  H22 UNL     1     -35.655  12.553  -5.069  1.00 20.00     0.167 HD
ENDBRANCH   8  10
ENDBRANCH   7   8
ENDBRANCH   5   7
TORSDOF 3
ENDMDL
MODEL 9
REMARK VINA RESULT:      -4.2     11.545     12.281
REMARK  3 active torsions:
REMARK  status: ('A' for Active; 'I' for Inactive)
REMARK    1  A    between atoms: C3_3  and  C8_8 
REMARK    2  A    between atoms: C3_3  and  O10_10 
REMARK    3  A    between atoms: C6_6  and  C8_8 
ROOT
HETATM    1  C1  UNL     1     -35.880  17.676  -1.382  1.00 20.00    -0.026 C 
HETATM    2  C2  UNL     1     -35.638  17.373  -2.660  1.00 20.00    -0.025 C 
HETATM    3  C4  UNL     1     -33.706  16.752  -1.452  1.00 20.00     0.017 C 
HETATM    4  C5  UNL     1     -34.828  17.123  -0.470  1.00 20.00     0.004 C 
HETATM    5  C6  UNL     1     -34.379  16.578  -2.823  1.00 20.00     0.018 C 
HETATM    6  C7  UNL     1     -34.366  18.118   0.585  1.00 20.00     0.014 C 
ENDROOT
BRANCH   5   7
HETATM    7  C8  UNL     1     -34.673  15.119  -3.154  1.00 20.00     0.118 C 
BRANCH   7   8
HETATM    8  C3  UNL     1     -33.491  14.440  -3.798  1.00 20.00     0.140 C 
HETATM    9  O9  UNL     1     -33.216  13.252  -3.732  1.00 20.00    -0.650 OA
BRANCH   8  10
HETATM   10  O10 UNL     1     -32.752  15.350  -4.482  1.00 20.00    -0.776 OA
HETATM   11  H22 UNL     1     -32.921  15.308  -5.447  1.00 20.00     0.167 HD
ENDBRANCH   8  10
ENDBRANCH   7   8
ENDBRANCH   5   7
TORSDOF 3
ENDMDL
