MODEL 1
REMARK VINA RESULT:      -4.2      0.000      0.000
REMARK  2 active torsions:
REMARK  status: ('A' for Active; 'I' for Inactive)
REMARK    1  A    between atoms: C6_6  and  C7_7 
REMARK    2  A    between atoms: C7_7  and  C8_8 
ROOT
HETATM    1  C1  UNL     1     -35.169  13.617  -4.182  1.00 20.00     0.059 C 
HETATM    2  C6  UNL     1     -35.558  14.850  -3.475  1.00 20.00     0.129 C 
HETATM    3  N9  UNL     1     -34.865  12.646  -4.741  1.00 20.00    -0.197 NA
ENDROOT
BRANCH   2   4
HETATM    4  C7  UNL     1     -34.373  15.480  -2.704  1.00 20.00     0.002 C 
HETATM    5  C2  UNL     1     -33.145  15.559  -3.633  1.00 20.00     0.011 C 
BRANCH   4   6
HETATM    6  C8  UNL     1     -34.737  16.862  -2.037  1.00 20.00    -0.047 C 
HETATM    7  C3  UNL     1     -34.680  16.803  -0.499  1.00 20.00     0.015 C 
HETATM    8  C4  UNL     1     -36.161  17.296  -2.453  1.00 20.00     0.015 C 
HETATM    9  C5  UNL     1     -33.773  17.971  -2.515  1.00 20.00     0.015 C 
ENDBRANCH   4   6
ENDBRANCH   2   4
TORSDOF 2
ENDMDL
MODEL 2
REMARK VINA RESULT:      -4.2      0.027      1.441
REMARK  2 active torsions:
REMARK  status: ('A' for Active; 'I' for Inactive)
REMARK    1  A    between atoms: C6_6  and  C7_7 
REMARK    2  A    between atoms: C7_7  and  C8_8 
ROOT
HETATM    1  C1  UNL     1     -35.173  13.620  -4.177  1.00 20.00     0.059 C 
HETATM    2  C6  UNL     1     -35.574  14.852  -3.475  1.00 20.00     0.129 C 
HETATM    3  N9  UNL     1     -34.861  12.649  -4.731  1.00 20.00    -0.197 NA
ENDROOT
BRANCH   2   4
HETATM    4  C7  UNL     1     -34.395  15.491  -2.700  1.00 20.00     0.002 C 
HETATM    5  C2  UNL     1     -33.161  15.568  -3.621  1.00 20.00     0.011 C 
BRANCH   4   6
HETATM    6  C8  UNL     1     -34.769  16.877  -2.046  1.00 20.00    -0.047 C 
HETATM    7  C3  UNL     1     -36.189  17.339  -2.425  1.00 20.00     0.015 C 
HETATM    8  C4  UNL     1     -33.768  17.966  -2.495  1.00 20.00     0.015 C 
HETATM    9  C5  UNL     1     -34.682  16.796  -0.505  1.00 20.00     0.015 C 
ENDBRANCH   4   6
ENDBRANCH   2   4
TORSDOF 2
ENDMDL
MODEL 3
REMARK VINA RESULT:      -4.1      1.959      2.872
REMARK  2 active torsions:
REMARK  status: ('A' for Active; 'I' for Inactive)
REMARK    1  A    between atoms: C6_6  and  C7_7 
REMARK    2  A    between atoms: C7_7  and  C8_8 
ROOT
HETATM    1  C1  UNL     1     -37.415  14.725  -4.103  1.00 20.00     0.059 C 
HETATM    2  C6  UNL     1     -36.112  15.219  -4.583  1.00 20.00     0.129 C 
HETATM    3  N9  UNL     1     -38.443  14.337  -3.728  1.00 20.00    -0.197 NA
ENDROOT
BRANCH   2   4
HETATM    4  C7  UNL     1     -34.926  14.496  -3.899  1.00 20.00     0.002 C 
HETATM    5  C2  UNL     1     -34.575  13.224  -4.697  1.00 20.00     0.011 C 
BRANCH   4   6
HETATM    6  C8  UNL     1     -33.685  15.440  -3.659  1.00 20.00    -0.047 C 
HETATM    7  C3  UNL     1     -33.839  16.296  -2.387  1.00 20.00     0.015 C 
HETATM    8  C4  UNL     1     -33.497  16.390  -4.864  1.00 20.00     0.015 C 
HETATM    9  C5  UNL     1     -32.386  14.614  -3.532  1.00 20.00     0.015 C 
ENDBRANCH   4   6
ENDBRANCH   2   4
TORSDOF 2
ENDMDL
MODEL 4
REMARK VINA RESULT:      -3.9      1.196      1.578
REMARK  2 active torsions:
REMARK  status: ('A' for Active; 'I' for Inactive)
REMARK    1  A    between atoms: C6_6  and  C7_7 
REMARK    2  A    between atoms: C7_7  and  C8_8 
ROOT
HETATM    1  C1  UNL     1     -34.076  13.601  -4.138  1.00 20.00     0.059 C 
HETATM    2  C6  UNL     1     -33.084  14.579  -3.656  1.00 20.00     0.129 C 
HETATM    3  N9  UNL     1     -34.856  12.829  -4.515  1.00 20.00    -0.197 NA
ENDROOT
BRANCH   2   4
HETATM    4  C7  UNL     1     -33.355  16.003  -4.201  1.00 20.00     0.002 C 
HETATM    5  C2  UNL     1     -33.875  15.903  -5.649  1.00 20.00     0.011 C 
BRANCH   4   6
HETATM    6  C8  UNL     1     -34.294  16.852  -3.261  1.00 20.00    -0.047 C 
HETATM    7  C3  UNL     1     -34.296  16.333  -1.811  1.00 20.00     0.015 C 
HETATM    8  C4  UNL     1     -35.746  16.822  -3.789  1.00 20.00     0.015 C 
HETATM    9  C5  UNL     1     -33.855  18.334  -3.244  1.00 20.00     0.015 C 
ENDBRANCH   4   6
ENDBRANCH   2   4
TORSDOF 2
ENDMDL
MODEL 5
REMARK VINA RESULT:      -3.9      2.481      4.160
REMARK  2 active torsions:
REMARK  status: ('A' for Active; 'I' for Inactive)
REMARK    1  A    between atoms: C6_6  and  C7_7 
REMARK    2  A    between atoms: C7_7  and  C8_8 
ROOT
HETATM    1  C1  UNL     1     -34.482  16.883  -0.720  1.00 20.00     0.059 C 
HETATM    2  C6  UNL     1     -33.925  16.532  -2.039  1.00 20.00     0.129 C 
HETATM    3  N9  UNL     1     -34.919  17.162   0.318  1.00 20.00    -0.197 NA
ENDROOT
BRANCH   2   4
HETATM    4  C7  UNL     1     -34.761  15.443  -2.755  1.00 20.00     0.002 C 
HETATM    5  C2  UNL     1     -36.129  16.033  -3.156  1.00 20.00     0.011 C 
BRANCH   4   6
HETATM    6  C8  UNL     1     -33.996  14.774  -3.960  1.00 20.00    -0.047 C 
HETATM    7  C3  UNL     1     -34.584  13.400  -4.336  1.00 20.00     0.015 C 
HETATM    8  C4  UNL     1     -32.504  14.582  -3.606  1.00 20.00     0.015 C 
HETATM    9  C5  UNL     1     -34.046  15.680  -5.211  1.00 20.00     0.015 C 
ENDBRANCH   4   6
ENDBRANCH   2   4
TORSDOF 2
ENDMDL
MODEL 6
REMARK VINA RESULT:      -3.9      1.328      2.444
REMARK  2 active torsions:
REMARK  status: ('A' for Active; 'I' for Inactive)
REMARK    1  A    between atoms: C6_6  and  C7_7 
REMARK    2  A    between atoms: C7_7  and  C8_8 
ROOT
HETATM    1  C1  UNL     1     -34.428  13.660  -4.045  1.00 20.00     0.059 C 
HETATM    2  C6  UNL     1     -33.708  14.793  -3.436  1.00 20.00     0.129 C 
HETATM    3  N9  UNL     1     -34.992  12.766  -4.523  1.00 20.00    -0.197 NA
ENDROOT
BRANCH   2   4
HETATM    4  C7  UNL     1     -34.653  15.972  -3.098  1.00 20.00     0.002 C 
HETATM    5  C2  UNL     1     -34.571  16.275  -1.588  1.00 20.00     0.011 C 
BRANCH   4   6
HETATM    6  C8  UNL     1     -34.402  17.241  -4.000  1.00 20.00    -0.047 C 
HETATM    7  C3  UNL     1     -33.372  16.972  -5.114  1.00 20.00     0.015 C 
HETATM    8  C4  UNL     1     -33.887  18.415  -3.138  1.00 20.00     0.015 C 
HETATM    9  C5  UNL     1     -35.716  17.712  -4.661  1.00 20.00     0.015 C 
ENDBRANCH   4   6
ENDBRANCH   2   4
TORSDOF 2
ENDMDL
MODEL 7
REMARK VINA RESULT:      -3.8      2.368      4.002
REMARK  2 active torsions:
REMARK  status: ('A' for Active; 'I' for Inactive)
REMARK    1  A    between atoms: C6_6  and  C7_7 
REMARK    2  A    between atoms: C7_7  and  C8_8 
ROOT
HETATM    1  C1  UNL     1     -34.261  16.460  -1.646  1.00 20.00     0.059 C 
HETATM    2  C6  UNL     1     -33.483  16.004  -2.812  1.00 20.00     0.129 C 
HETATM    3  N9  UNL     1     -34.870  16.820  -0.726  1.00 20.00    -0.197 NA
ENDROOT
BRANCH   2   4
HETATM    4  C7  UNL     1     -34.306  16.066  -4.122  1.00 20.00     0.002 C 
HETATM    5  C2  UNL     1     -33.519  16.869  -5.179  1.00 20.00     0.011 C 
BRANCH   4   6
HETATM    6  C8  UNL     1     -34.759  14.645  -4.633  1.00 20.00    -0.047 C 
HETATM    7  C3  UNL     1     -34.723  14.537  -6.170  1.00 20.00     0.015 C 
HETATM    8  C4  UNL     1     -36.198  14.341  -4.159  1.00 20.00     0.015 C 
HETATM    9  C5  UNL     1     -33.852  13.539  -4.050  1.00 20.00     0.015 C 
ENDBRANCH   4   6
ENDBRANCH   2   4
TORSDOF 2
ENDMDL
MODEL 8
REMARK VINA RESULT:      -3.8      2.317      3.987
REMARK  2 active torsions:
REMARK  status: ('A' for Active; 'I' for Inactive)
REMARK    1  A    between atoms: C6_6  and  C7_7 
REMARK    2  A    between atoms: C7_7  and  C8_8 
ROOT
HETATM    1  C1  UNL     1     -34.229  16.333  -1.790  1.00 20.00     0.059 C 
HETATM    2  C6  UNL     1     -33.483  15.897  -2.984  1.00 20.00     0.129 C 
HETATM    3  N9  UNL     1     -34.813  16.678  -0.847  1.00 20.00    -0.197 NA
ENDROOT
BRANCH   2   4
HETATM    4  C7  UNL     1     -34.339  15.987  -4.271  1.00 20.00     0.002 C 
HETATM    5  C2  UNL     1     -33.524  16.689  -5.377  1.00 20.00     0.011 C 
BRANCH   4   6
HETATM    6  C8  UNL     1     -34.922  14.593  -4.720  1.00 20.00    -0.047 C 
HETATM    7  C3  UNL     1     -36.344  14.351  -4.179  1.00 20.00     0.015 C 
HETATM    8  C4  UNL     1     -34.013  13.447  -4.221  1.00 20.00     0.015 C 
HETATM    9  C5  UNL     1     -34.968  14.489  -6.261  1.00 20.00     0.015 C 
ENDBRANCH   4   6
ENDBRANCH   2   4
TORSDOF 2
ENDMDL
MODEL 9
REMARK VINA RESULT:      -3.7      2.315      3.986
REMARK  2 active torsions:
REMARK  status: ('A' for Active; 'I' for Inactive)
REMARK    1  A    between atoms: C6_6  and  C7_7 
REMARK    2  A    between atoms: C7_7  and  C8_8 
ROOT
HETATM    1  C1  UNL     1     -34.233  16.273  -1.826  1.00 20.00     0.059 C 
HETATM    2  C6  UNL     1     -33.532  15.770  -3.021  1.00 20.00     0.129 C 
HETATM    3  N9  UNL     1     -34.782  16.670  -0.883  1.00 20.00    -0.197 NA
ENDROOT
BRANCH   2   4
HETATM    4  C7  UNL     1     -34.379  15.935  -4.307  1.00 20.00     0.002 C 
HETATM    5  C2  UNL     1     -33.526  16.620  -5.394  1.00 20.00     0.011 C 
BRANCH   4   6
HETATM    6  C8  UNL     1     -35.032  14.584  -4.790  1.00 20.00    -0.047 C 
HETATM    7  C3  UNL     1     -34.178  13.355  -4.421  1.00 20.00     0.015 C 
HETATM    8  C4  UNL     1     -35.219  14.600  -6.324  1.00 20.00     0.015 C 
HETATM    9  C5  UNL     1     -36.435  14.401  -4.170  1.00 20.00     0.015 C 
ENDBRANCH   4   6
ENDBRANCH   2   4
TORSDOF 2
ENDMDL
