MODEL 1
REMARK VINA RESULT:      -5.3      0.000      0.000
REMARK  0 active torsions:
REMARK  status: ('A' for Active; 'I' for Inactive)
ROOT
HETATM    1  C1  UNL     1     -34.127  15.715  -2.629  1.00 20.00     0.068 C 
HETATM    2  C2  UNL     1     -35.146  14.540  -6.872  1.00 20.00     0.009 A 
HETATM    3  C3  UNL     1     -35.104  15.763  -7.546  1.00 20.00     0.019 A 
HETATM    4  C4  UNL     1     -33.826  16.768  -5.737  1.00 20.00     0.028 A 
HETATM    5  C5  UNL     1     -34.517  14.447  -5.642  1.00 20.00    -0.050 A 
HETATM    6  C6  UNL     1     -33.867  15.551  -5.075  1.00 20.00    -0.033 A 
HETATM    7  C7  UNL     1     -34.449  16.869  -6.983  1.00 20.00     0.011 A 
HETATM    8  C8  UNL     1     -34.456  13.263  -4.729  1.00 20.00     0.041 C 
HETATM    9  C9  UNL     1     -33.305  13.668  -3.792  1.00 20.00     0.028 C 
HETATM   10  C10 UNL     1     -33.294  15.212  -3.728  1.00 20.00     0.126 C 
HETATM   11  N11 UNL     1     -34.784  16.114  -1.761  1.00 20.00    -0.197 NA
HETATM   12 BR12 UNL     1     -34.416  18.513  -7.918  1.00 20.00    -0.051 Br
ENDROOT
TORSDOF 0
ENDMDL
MODEL 2
REMARK VINA RESULT:      -5.2      3.116      4.366
REMARK  0 active torsions:
REMARK  status: ('A' for Active; 'I' for Inactive)
ROOT
HETATM    1  C1  UNL     1     -36.500  14.362  -3.790  1.00 20.00     0.068 C 
HETATM    2  C2  UNL     1     -33.654  17.871  -3.705  1.00 20.00     0.009 A 
HETATM    3  C3  UNL     1     -33.717  18.283  -2.372  1.00 20.00     0.019 A 
HETATM    4  C4  UNL     1     -34.671  16.146  -1.709  1.00 20.00     0.028 A 
HETATM    5  C5  UNL     1     -34.092  16.596  -4.020  1.00 20.00    -0.050 A 
HETATM    6  C6  UNL     1     -34.602  15.741  -3.033  1.00 20.00    -0.033 A 
HETATM    7  C7  UNL     1     -34.222  17.427  -1.381  1.00 20.00     0.011 A 
HETATM    8  C8  UNL     1     -34.152  15.951  -5.368  1.00 20.00     0.041 C 
HETATM    9  C9  UNL     1     -34.314  14.471  -4.984  1.00 20.00     0.028 C 
HETATM   10  C10 UNL     1     -35.043  14.432  -3.623  1.00 20.00     0.126 C 
HETATM   11  N11 UNL     1     -37.650  14.306  -3.921  1.00 20.00    -0.197 NA
HETATM   12 BR12 UNL     1     -34.299  18.017   0.414  1.00 20.00    -0.051 Br
ENDROOT
TORSDOF 0
ENDMDL
MODEL 3
REMARK VINA RESULT:      -5.1      3.322      4.741
REMARK  0 active torsions:
REMARK  status: ('A' for Active; 'I' for Inactive)
ROOT
HETATM    1  C1  UNL     1     -33.892  14.200  -3.639  1.00 20.00     0.068 C 
HETATM    2  C2  UNL     1     -35.674  18.309  -3.040  1.00 20.00     0.009 A 
HETATM    3  C3  UNL     1     -35.806  18.386  -1.652  1.00 20.00     0.019 A 
HETATM    4  C4  UNL     1     -34.237  16.551  -1.355  1.00 20.00     0.028 A 
HETATM    5  C5  UNL     1     -34.815  17.360  -3.566  1.00 20.00    -0.050 A 
HETATM    6  C6  UNL     1     -34.106  16.483  -2.734  1.00 20.00    -0.033 A 
HETATM    7  C7  UNL     1     -35.093  17.513  -0.815  1.00 20.00     0.011 A 
HETATM    8  C8  UNL     1     -34.537  17.070  -5.008  1.00 20.00     0.041 C 
HETATM    9  C9  UNL     1     -33.241  16.249  -4.902  1.00 20.00     0.028 C 
HETATM   10  C10 UNL     1     -33.272  15.527  -3.537  1.00 20.00     0.126 C 
HETATM   11  N11 UNL     1     -34.382  13.152  -3.718  1.00 20.00    -0.197 NA
HETATM   12 BR12 UNL     1     -35.300  17.638   1.061  1.00 20.00    -0.051 Br
ENDROOT
TORSDOF 0
ENDMDL
MODEL 4
REMARK VINA RESULT:      -4.8      2.970      4.175
REMARK  0 active torsions:
REMARK  status: ('A' for Active; 'I' for Inactive)
ROOT
HETATM    1  C1  UNL     1     -35.113  14.162  -5.774  1.00 20.00     0.068 C 
HETATM    2  C2  UNL     1     -33.668  16.641  -2.284  1.00 20.00     0.009 A 
HETATM    3  C3  UNL     1     -34.785  17.421  -1.979  1.00 20.00     0.019 A 
HETATM    4  C4  UNL     1     -36.235  15.908  -3.214  1.00 20.00     0.028 A 
HETATM    5  C5  UNL     1     -33.852  15.498  -3.042  1.00 20.00    -0.050 A 
HETATM    6  C6  UNL     1     -35.122  15.135  -3.509  1.00 20.00    -0.033 A 
HETATM    7  C7  UNL     1     -36.060  17.057  -2.441  1.00 20.00     0.011 A 
HETATM    8  C8  UNL     1     -32.812  14.533  -3.516  1.00 20.00     0.041 C 
HETATM    9  C9  UNL     1     -33.682  13.327  -3.910  1.00 20.00     0.028 C 
HETATM   10  C10 UNL     1     -35.060  13.881  -4.334  1.00 20.00     0.126 C 
HETATM   11  N11 UNL     1     -35.156  14.384  -6.911  1.00 20.00    -0.197 NA
HETATM   12 BR12 UNL     1     -37.553  18.139  -2.017  1.00 20.00    -0.051 Br
ENDROOT
TORSDOF 0
ENDMDL
MODEL 5
REMARK VINA RESULT:      -4.8      2.012      2.119
REMARK  0 active torsions:
REMARK  status: ('A' for Active; 'I' for Inactive)
ROOT
HETATM    1  C1  UNL     1     -37.295  14.640  -3.789  1.00 20.00     0.068 C 
HETATM    2  C2  UNL     1     -34.356  15.150  -7.182  1.00 20.00     0.009 A 
HETATM    3  C3  UNL     1     -34.559  16.478  -7.566  1.00 20.00     0.019 A 
HETATM    4  C4  UNL     1     -35.661  16.967  -5.453  1.00 20.00     0.028 A 
HETATM    5  C5  UNL     1     -34.799  14.753  -5.933  1.00 20.00    -0.050 A 
HETATM    6  C6  UNL     1     -35.451  15.650  -5.076  1.00 20.00    -0.033 A 
HETATM    7  C7  UNL     1     -35.207  17.380  -6.708  1.00 20.00     0.011 A 
HETATM    8  C8  UNL     1     -34.724  13.389  -5.322  1.00 20.00     0.041 C 
HETATM    9  C9  UNL     1     -34.982  13.711  -3.840  1.00 20.00     0.028 C 
HETATM   10  C10 UNL     1     -35.866  14.977  -3.799  1.00 20.00     0.126 C 
HETATM   11  N11 UNL     1     -38.424  14.375  -3.780  1.00 20.00    -0.197 NA
HETATM   12 BR12 UNL     1     -35.474  19.169  -7.259  1.00 20.00    -0.051 Br
ENDROOT
TORSDOF 0
ENDMDL
MODEL 6
REMARK VINA RESULT:      -4.6      2.895      4.019
REMARK  0 active torsions:
REMARK  status: ('A' for Active; 'I' for Inactive)
ROOT
HETATM    1  C1  UNL     1     -34.531  13.686  -4.845  1.00 20.00     0.068 C 
HETATM    2  C2  UNL     1     -35.843  17.963  -4.209  1.00 20.00     0.009 A 
HETATM    3  C3  UNL     1     -35.306  18.265  -2.955  1.00 20.00     0.019 A 
HETATM    4  C4  UNL     1     -33.773  16.383  -3.109  1.00 20.00     0.028 A 
HETATM    5  C5  UNL     1     -35.328  16.880  -4.901  1.00 20.00    -0.050 A 
HETATM    6  C6  UNL     1     -34.306  16.092  -4.355  1.00 20.00    -0.033 A 
HETATM    7  C7  UNL     1     -34.279  17.480  -2.409  1.00 20.00     0.011 A 
HETATM    8  C8  UNL     1     -35.761  16.350  -6.231  1.00 20.00     0.041 C 
HETATM    9  C9  UNL     1     -34.563  15.458  -6.600  1.00 20.00     0.028 C 
HETATM   10  C10 UNL     1     -33.943  14.961  -5.275  1.00 20.00     0.126 C 
HETATM   11  N11 UNL     1     -34.995  12.680  -4.505  1.00 20.00    -0.197 NA
HETATM   12 BR12 UNL     1     -33.577  17.910  -0.706  1.00 20.00    -0.051 Br
ENDROOT
TORSDOF 0
ENDMDL
MODEL 7
REMARK VINA RESULT:      -4.6      3.002      3.735
REMARK  0 active torsions:
REMARK  status: ('A' for Active; 'I' for Inactive)
ROOT
HETATM    1  C1  UNL     1     -34.621  13.512  -4.115  1.00 20.00     0.068 C 
HETATM    2  C2  UNL     1     -35.233  17.928  -4.853  1.00 20.00     0.009 A 
HETATM    3  C3  UNL     1     -36.540  18.134  -4.407  1.00 20.00     0.019 A 
HETATM    4  C4  UNL     1     -36.489  16.050  -3.153  1.00 20.00     0.028 A 
HETATM    5  C5  UNL     1     -34.568  16.788  -4.434  1.00 20.00    -0.050 A 
HETATM    6  C6  UNL     1     -35.190  15.854  -3.595  1.00 20.00    -0.033 A 
HETATM    7  C7  UNL     1     -37.164  17.202  -3.562  1.00 20.00     0.011 A 
HETATM    8  C8  UNL     1     -33.189  16.341  -4.803  1.00 20.00     0.041 C 
HETATM    9  C9  UNL     1     -32.916  15.288  -3.716  1.00 20.00     0.028 C 
HETATM   10  C10 UNL     1     -34.282  14.692  -3.309  1.00 20.00     0.126 C 
HETATM   11  N11 UNL     1     -34.889  12.580  -4.750  1.00 20.00    -0.197 NA
HETATM   12 BR12 UNL     1     -38.937  17.507  -2.980  1.00 20.00    -0.051 Br
ENDROOT
TORSDOF 0
ENDMDL
MODEL 8
REMARK VINA RESULT:      -4.5      2.277      3.354
REMARK  0 active torsions:
REMARK  status: ('A' for Active; 'I' for Inactive)
ROOT
HETATM    1  C1  UNL     1     -35.933  18.708  -3.020  1.00 20.00     0.068 C 
HETATM    2  C2  UNL     1     -34.577  14.409  -3.325  1.00 20.00     0.009 A 
HETATM    3  C3  UNL     1     -34.628  14.169  -4.700  1.00 20.00     0.019 A 
HETATM    4  C4  UNL     1     -34.651  16.557  -5.162  1.00 20.00     0.028 A 
HETATM    5  C5  UNL     1     -34.553  15.722  -2.888  1.00 20.00    -0.050 A 
HETATM    6  C6  UNL     1     -34.595  16.789  -3.796  1.00 20.00    -0.033 A 
HETATM    7  C7  UNL     1     -34.665  15.235  -5.612  1.00 20.00     0.011 A 
HETATM    8  C8  UNL     1     -34.532  16.221  -1.478  1.00 20.00     0.041 C 
HETATM    9  C9  UNL     1     -34.095  17.681  -1.685  1.00 20.00     0.028 C 
HETATM   10  C10 UNL     1     -34.594  18.110  -3.082  1.00 20.00     0.126 C 
HETATM   11  N11 UNL     1     -36.991  19.181  -2.972  1.00 20.00    -0.197 NA
HETATM   12 BR12 UNL     1     -34.740  14.877  -7.468  1.00 20.00    -0.051 Br
ENDROOT
TORSDOF 0
ENDMDL
MODEL 9
REMARK VINA RESULT:      -4.5      3.023      4.205
REMARK  0 active torsions:
REMARK  status: ('A' for Active; 'I' for Inactive)
ROOT
HETATM    1  C1  UNL     1     -37.486  15.622  -6.380  1.00 20.00     0.068 C 
HETATM    2  C2  UNL     1     -33.236  16.433  -5.079  1.00 20.00     0.009 A 
HETATM    3  C3  UNL     1     -33.374  16.663  -3.708  1.00 20.00     0.019 A 
HETATM    4  C4  UNL     1     -35.563  15.601  -3.705  1.00 20.00     0.028 A 
HETATM    5  C5  UNL     1     -34.260  15.779  -5.741  1.00 20.00    -0.050 A 
HETATM    6  C6  UNL     1     -35.417  15.371  -5.064  1.00 20.00    -0.033 A 
HETATM    7  C7  UNL     1     -34.530  16.250  -3.026  1.00 20.00     0.011 A 
HETATM    8  C8  UNL     1     -34.351  15.453  -7.199  1.00 20.00     0.041 C 
HETATM    9  C9  UNL     1     -35.473  14.401  -7.200  1.00 20.00     0.028 C 
HETATM   10  C10 UNL     1     -36.393  14.718  -6.001  1.00 20.00     0.126 C 
HETATM   11  N11 UNL     1     -38.350  16.336  -6.679  1.00 20.00    -0.197 NA
HETATM   12 BR12 UNL     1     -34.690  16.583  -1.171  1.00 20.00    -0.051 Br
ENDROOT
TORSDOF 0
ENDMDL
