MODEL 1
REMARK VINA RESULT:      -4.5      0.000      0.000
REMARK  4 active torsions:
REMARK  status: ('A' for Active; 'I' for Inactive)
REMARK    1  A    between atoms: C1_1  and  C6_6 
REMARK    2  A    between atoms: C1_1  and  C8_8 
REMARK    3  A    between atoms: C7_7  and  C8_8 
REMARK    4  A    between atoms: C7_7  and  C9_9 
ROOT
HETATM    1  C3  UNL     1     -32.672  13.758  -3.429  1.00 20.00     0.018 C 
HETATM    2  C8  UNL     1     -33.816  14.593  -4.002  1.00 20.00     0.051 C 
ENDROOT
BRANCH   2   3
HETATM    3  C1  UNL     1     -34.685  13.686  -4.870  1.00 20.00     0.130 C 
HETATM    4  O10 UNL     1     -35.080  12.592  -4.468  1.00 20.00    -0.298 OA
BRANCH   3   5
HETATM    5  C6  UNL     1     -34.999  14.197  -6.268  1.00 20.00     0.074 C 
HETATM    6  C2  UNL     1     -34.282  15.496  -6.590  1.00 20.00     0.013 C 
ENDBRANCH   3   5
ENDBRANCH   2   3
BRANCH   2   7
HETATM    7  C7  UNL     1     -34.630  15.251  -2.874  1.00 20.00     0.015 C 
BRANCH   7   8
HETATM    8  C9  UNL     1     -33.916  16.411  -2.149  1.00 20.00    -0.022 C 
HETATM    9  C4  UNL     1     -34.547  16.730  -0.793  1.00 20.00     0.009 C 
HETATM   10  C5  UNL     1     -33.937  17.661  -3.033  1.00 20.00     0.009 C 
ENDBRANCH   7   8
ENDBRANCH   2   7
TORSDOF 4
ENDMDL
MODEL 2
REMARK VINA RESULT:      -4.5     10.449     11.710
REMARK  4 active torsions:
REMARK  status: ('A' for Active; 'I' for Inactive)
REMARK    1  A    between atoms: C1_1  and  C6_6 
REMARK    2  A    between atoms: C1_1  and  C8_8 
REMARK    3  A    between atoms: C7_7  and  C8_8 
REMARK    4  A    between atoms: C7_7  and  C9_9 
ROOT
HETATM    1  C3  UNL     1     -33.081   5.475   2.071  1.00 20.00     0.018 C 
HETATM    2  C8  UNL     1     -32.706   6.104   3.412  1.00 20.00     0.051 C 
ENDROOT
BRANCH   2   3
HETATM    3  C1  UNL     1     -31.930   7.391   3.138  1.00 20.00     0.130 C 
HETATM    4  O10 UNL     1     -31.262   7.940   4.012  1.00 20.00    -0.298 OA
BRANCH   3   5
HETATM    5  C6  UNL     1     -32.064   7.968   1.737  1.00 20.00     0.074 C 
HETATM    6  C2  UNL     1     -32.420   9.443   1.743  1.00 20.00     0.013 C 
ENDBRANCH   3   5
ENDBRANCH   2   3
BRANCH   2   7
HETATM    7  C7  UNL     1     -33.962   6.367   4.261  1.00 20.00     0.015 C 
BRANCH   7   8
HETATM    8  C9  UNL     1     -33.923   5.767   5.682  1.00 20.00    -0.022 C 
HETATM    9  C4  UNL     1     -35.095   4.821   5.950  1.00 20.00     0.009 C 
HETATM   10  C5  UNL     1     -33.925   6.895   6.717  1.00 20.00     0.009 C 
ENDBRANCH   7   8
ENDBRANCH   2   7
TORSDOF 4
ENDMDL
MODEL 3
REMARK VINA RESULT:      -4.4     11.125     12.570
REMARK  4 active torsions:
REMARK  status: ('A' for Active; 'I' for Inactive)
REMARK    1  A    between atoms: C1_1  and  C6_6 
REMARK    2  A    between atoms: C1_1  and  C8_8 
REMARK    3  A    between atoms: C7_7  and  C8_8 
REMARK    4  A    between atoms: C7_7  and  C9_9 
ROOT
HETATM    1  C3  UNL     1     -35.168   5.748   3.317  1.00 20.00     0.018 C 
HETATM    2  C8  UNL     1     -34.030   6.456   4.050  1.00 20.00     0.051 C 
ENDROOT
BRANCH   2   3
HETATM    3  C1  UNL     1     -34.172   6.172   5.544  1.00 20.00     0.130 C 
HETATM    4  O10 UNL     1     -33.567   6.832   6.387  1.00 20.00    -0.298 OA
BRANCH   3   5
HETATM    5  C6  UNL     1     -35.074   5.006   5.921  1.00 20.00     0.074 C 
HETATM    6  C2  UNL     1     -34.326   3.687   5.989  1.00 20.00     0.013 C 
ENDBRANCH   3   5
ENDBRANCH   2   3
BRANCH   2   7
HETATM    7  C7  UNL     1     -32.665   5.996   3.511  1.00 20.00     0.015 C 
BRANCH   7   8
HETATM    8  C9  UNL     1     -31.720   7.137   3.078  1.00 20.00    -0.022 C 
HETATM    9  C4  UNL     1     -31.157   7.915   4.268  1.00 20.00     0.009 C 
HETATM   10  C5  UNL     1     -32.464   8.094   2.143  1.00 20.00     0.009 C 
ENDBRANCH   7   8
ENDBRANCH   2   7
TORSDOF 4
ENDMDL
MODEL 4
REMARK VINA RESULT:      -4.3     10.420     11.719
REMARK  4 active torsions:
REMARK  status: ('A' for Active; 'I' for Inactive)
REMARK    1  A    between atoms: C1_1  and  C6_6 
REMARK    2  A    between atoms: C1_1  and  C8_8 
REMARK    3  A    between atoms: C7_7  and  C8_8 
REMARK    4  A    between atoms: C7_7  and  C9_9 
ROOT
HETATM    1  C3  UNL     1     -32.642   5.250   2.388  1.00 20.00     0.018 C 
HETATM    2  C8  UNL     1     -32.727   6.170   3.605  1.00 20.00     0.051 C 
ENDROOT
BRANCH   2   3
HETATM    3  C1  UNL     1     -31.935   7.441   3.302  1.00 20.00     0.130 C 
HETATM    4  O10 UNL     1     -31.285   8.019   4.172  1.00 20.00    -0.298 OA
BRANCH   3   5
HETATM    5  C6  UNL     1     -32.029   7.963   1.877  1.00 20.00     0.074 C 
HETATM    6  C2  UNL     1     -32.444   9.422   1.815  1.00 20.00     0.013 C 
ENDBRANCH   3   5
ENDBRANCH   2   3
BRANCH   2   7
HETATM    7  C7  UNL     1     -34.193   6.482   3.951  1.00 20.00     0.015 C 
BRANCH   7   8
HETATM    8  C9  UNL     1     -34.634   6.045   5.363  1.00 20.00    -0.022 C 
HETATM    9  C4  UNL     1     -33.741   6.624   6.462  1.00 20.00     0.009 C 
HETATM   10  C5  UNL     1     -34.633   4.516   5.452  1.00 20.00     0.009 C 
ENDBRANCH   7   8
ENDBRANCH   2   7
TORSDOF 4
ENDMDL
MODEL 5
REMARK VINA RESULT:      -4.3     11.041     12.524
REMARK  4 active torsions:
REMARK  status: ('A' for Active; 'I' for Inactive)
REMARK    1  A    between atoms: C1_1  and  C6_6 
REMARK    2  A    between atoms: C1_1  and  C8_8 
REMARK    3  A    between atoms: C7_7  and  C8_8 
REMARK    4  A    between atoms: C7_7  and  C9_9 
ROOT
HETATM    1  C3  UNL     1     -35.521   5.787   2.875  1.00 20.00     0.018 C 
HETATM    2  C8  UNL     1     -34.495   6.020   3.983  1.00 20.00     0.051 C 
ENDROOT
BRANCH   2   3
HETATM    3  C1  UNL     1     -34.665   4.925   5.034  1.00 20.00     0.130 C 
HETATM    4  O10 UNL     1     -34.993   3.780   4.726  1.00 20.00    -0.298 OA
BRANCH   3   5
HETATM    5  C6  UNL     1     -34.441   5.344   6.478  1.00 20.00     0.074 C 
HETATM    6  C2  UNL     1     -33.904   6.759   6.601  1.00 20.00     0.013 C 
ENDBRANCH   3   5
ENDBRANCH   2   3
BRANCH   2   7
HETATM    7  C7  UNL     1     -33.068   6.040   3.408  1.00 20.00     0.015 C 
BRANCH   7   8
HETATM    8  C9  UNL     1     -32.461   7.447   3.225  1.00 20.00    -0.022 C 
HETATM    9  C4  UNL     1     -32.138   7.760   1.763  1.00 20.00     0.009 C 
HETATM   10  C5  UNL     1     -31.190   7.573   4.070  1.00 20.00     0.009 C 
ENDBRANCH   7   8
ENDBRANCH   2   7
TORSDOF 4
ENDMDL
MODEL 6
REMARK VINA RESULT:      -4.2      1.016      1.883
REMARK  4 active torsions:
REMARK  status: ('A' for Active; 'I' for Inactive)
REMARK    1  A    between atoms: C1_1  and  C6_6 
REMARK    2  A    between atoms: C1_1  and  C8_8 
REMARK    3  A    between atoms: C7_7  and  C8_8 
REMARK    4  A    between atoms: C7_7  and  C9_9 
ROOT
HETATM    1  C3  UNL     1     -36.495  15.123  -3.562  1.00 20.00     0.018 C 
HETATM    2  C8  UNL     1     -35.127  14.458  -3.420  1.00 20.00     0.051 C 
ENDROOT
BRANCH   2   3
HETATM    3  C1  UNL     1     -34.783  13.780  -4.744  1.00 20.00     0.130 C 
HETATM    4  O10 UNL     1     -34.752  12.555  -4.854  1.00 20.00    -0.298 OA
BRANCH   3   5
HETATM    5  C6  UNL     1     -34.448  14.707  -5.903  1.00 20.00     0.074 C 
HETATM    6  C2  UNL     1     -35.309  14.450  -7.126  1.00 20.00     0.013 C 
ENDBRANCH   3   5
ENDBRANCH   2   3
BRANCH   2   7
HETATM    7  C7  UNL     1     -34.059  15.488  -3.014  1.00 20.00     0.015 C 
BRANCH   7   8
HETATM    8  C9  UNL     1     -34.610  16.771  -2.358  1.00 20.00    -0.022 C 
HETATM    9  C4  UNL     1     -33.835  18.022  -2.776  1.00 20.00     0.009 C 
HETATM   10  C5  UNL     1     -34.572  16.627  -0.834  1.00 20.00     0.009 C 
ENDBRANCH   7   8
ENDBRANCH   2   7
TORSDOF 4
ENDMDL
MODEL 7
REMARK VINA RESULT:      -4.2      1.530      2.242
REMARK  4 active torsions:
REMARK  status: ('A' for Active; 'I' for Inactive)
REMARK    1  A    between atoms: C1_1  and  C6_6 
REMARK    2  A    between atoms: C1_1  and  C8_8 
REMARK    3  A    between atoms: C7_7  and  C8_8 
REMARK    4  A    between atoms: C7_7  and  C9_9 
ROOT
HETATM    1  C3  UNL     1     -33.149  16.234  -4.821  1.00 20.00     0.018 C 
HETATM    2  C8  UNL     1     -34.103  15.645  -3.783  1.00 20.00     0.051 C 
ENDROOT
BRANCH   2   3
HETATM    3  C1  UNL     1     -34.039  14.123  -3.880  1.00 20.00     0.130 C 
HETATM    4  O10 UNL     1     -32.998  13.506  -3.657  1.00 20.00    -0.298 OA
BRANCH   3   5
HETATM    5  C6  UNL     1     -35.322  13.424  -4.302  1.00 20.00     0.074 C 
HETATM    6  C2  UNL     1     -36.548  14.305  -4.142  1.00 20.00     0.013 C 
ENDBRANCH   3   5
ENDBRANCH   2   3
BRANCH   2   7
HETATM    7  C7  UNL     1     -33.747  16.141  -2.371  1.00 20.00     0.015 C 
BRANCH   7   8
HETATM    8  C9  UNL     1     -34.956  16.534  -1.496  1.00 20.00    -0.022 C 
HETATM    9  C4  UNL     1     -35.948  17.433  -2.235  1.00 20.00     0.009 C 
HETATM   10  C5  UNL     1     -34.466  17.241  -0.229  1.00 20.00     0.009 C 
ENDBRANCH   7   8
ENDBRANCH   2   7
TORSDOF 4
ENDMDL
MODEL 8
REMARK VINA RESULT:      -4.0      1.729      1.814
REMARK  4 active torsions:
REMARK  status: ('A' for Active; 'I' for Inactive)
REMARK    1  A    between atoms: C1_1  and  C6_6 
REMARK    2  A    between atoms: C1_1  and  C8_8 
REMARK    3  A    between atoms: C7_7  and  C8_8 
REMARK    4  A    between atoms: C7_7  and  C9_9 
ROOT
HETATM    1  C3  UNL     1     -33.972  13.573  -3.623  1.00 20.00     0.018 C 
HETATM    2  C8  UNL     1     -33.682  15.064  -3.457  1.00 20.00     0.051 C 
ENDROOT
BRANCH   2   3
HETATM    3  C1  UNL     1     -33.697  15.713  -4.839  1.00 20.00     0.130 C 
HETATM    4  O10 UNL     1     -32.845  16.534  -5.176  1.00 20.00    -0.298 OA
BRANCH   3   5
HETATM    5  C6  UNL     1     -34.844  15.312  -5.754  1.00 20.00     0.074 C 
HETATM    6  C2  UNL     1     -34.397  15.082  -7.186  1.00 20.00     0.013 C 
ENDBRANCH   3   5
ENDBRANCH   2   3
BRANCH   2   7
HETATM    7  C7  UNL     1     -34.705  15.716  -2.511  1.00 20.00     0.015 C 
BRANCH   7   8
HETATM    8  C9  UNL     1     -34.196  16.968  -1.766  1.00 20.00    -0.022 C 
HETATM    9  C4  UNL     1     -34.636  16.998  -0.302  1.00 20.00     0.009 C 
HETATM   10  C5  UNL     1     -34.695  18.229  -2.479  1.00 20.00     0.009 C 
ENDBRANCH   7   8
ENDBRANCH   2   7
TORSDOF 4
ENDMDL
MODEL 9
REMARK VINA RESULT:      -4.0      9.998     11.470
REMARK  4 active torsions:
REMARK  status: ('A' for Active; 'I' for Inactive)
REMARK    1  A    between atoms: C1_1  and  C6_6 
REMARK    2  A    between atoms: C1_1  and  C8_8 
REMARK    3  A    between atoms: C7_7  and  C8_8 
REMARK    4  A    between atoms: C7_7  and  C9_9 
ROOT
HETATM    1  C3  UNL     1     -32.145   5.230   2.839  1.00 20.00     0.018 C 
HETATM    2  C8  UNL     1     -33.093   6.408   3.058  1.00 20.00     0.051 C 
ENDROOT
BRANCH   2   3
HETATM    3  C1  UNL     1     -33.796   6.217   4.400  1.00 20.00     0.130 C 
HETATM    4  O10 UNL     1     -33.415   6.796   5.416  1.00 20.00    -0.298 OA
BRANCH   3   5
HETATM    5  C6  UNL     1     -34.964   5.244   4.411  1.00 20.00     0.074 C 
HETATM    6  C2  UNL     1     -34.922   4.291   5.592  1.00 20.00     0.013 C 
ENDBRANCH   3   5
ENDBRANCH   2   3
BRANCH   2   7
HETATM    7  C7  UNL     1     -32.328   7.742   3.001  1.00 20.00     0.015 C 
BRANCH   7   8
HETATM    8  C9  UNL     1     -32.577   8.580   1.730  1.00 20.00    -0.022 C 
HETATM    9  C4  UNL     1     -31.452   8.435   0.703  1.00 20.00     0.009 C 
HETATM   10  C5  UNL     1     -32.739  10.054   2.110  1.00 20.00     0.009 C 
ENDBRANCH   7   8
ENDBRANCH   2   7
TORSDOF 4
ENDMDL
