MODEL 1
REMARK VINA RESULT:      -4.5      0.000      0.000
REMARK  3 active torsions:
REMARK  status: ('A' for Active; 'I' for Inactive)
REMARK    1  A    between atoms: C4_4  and  C7_7 
REMARK    2  A    between atoms: C7_7  and  C8_8 
REMARK    3  A    between atoms: C8_8  and  C9_9 
ROOT
HETATM    1  C1  UNL     1     -33.603  15.803  -4.680  1.00 20.00     0.141 C 
HETATM    2  C2  UNL     1     -34.329  14.874  -5.621  1.00 20.00     0.152 C 
HETATM    3  C3  UNL     1     -35.046  14.702  -3.067  1.00 20.00     0.086 C 
HETATM    4  C4  UNL     1     -33.721  15.439  -3.209  1.00 20.00     0.065 C 
HETATM    5  O10 UNL     1     -32.931  16.745  -5.090  1.00 20.00    -0.297 OA
HETATM    6  S11 UNL     1     -35.177  13.686  -4.556  1.00 20.00    -0.161 SA
ENDROOT
BRANCH   4   7
HETATM    7  C7  UNL     1     -33.657  16.662  -2.308  1.00 20.00     0.013 C 
BRANCH   7   8
HETATM    8  C8  UNL     1     -34.607  16.526  -1.116  1.00 20.00     0.005 C 
BRANCH   8   9
HETATM    9  C9  UNL     1     -34.644  17.775  -0.216  1.00 20.00    -0.023 C 
HETATM   10  C5  UNL     1     -33.237  18.364  -0.089  1.00 20.00     0.009 C 
HETATM   11  C6  UNL     1     -35.205  17.476   1.175  1.00 20.00     0.009 C 
ENDBRANCH   8   9
ENDBRANCH   7   8
ENDBRANCH   4   7
TORSDOF 3
ENDMDL
MODEL 2
REMARK VINA RESULT:      -4.5      1.941      2.526
REMARK  3 active torsions:
REMARK  status: ('A' for Active; 'I' for Inactive)
REMARK    1  A    between atoms: C4_4  and  C7_7 
REMARK    2  A    between atoms: C7_7  and  C8_8 
REMARK    3  A    between atoms: C8_8  and  C9_9 
ROOT
HETATM    1  C1  UNL     1     -34.925  13.862  -5.000  1.00 20.00     0.141 C 
HETATM    2  C2  UNL     1     -34.900  13.881  -6.507  1.00 20.00     0.152 C 
HETATM    3  C3  UNL     1     -34.115  16.129  -5.325  1.00 20.00     0.086 C 
HETATM    4  C4  UNL     1     -34.862  15.232  -4.345  1.00 20.00     0.065 C 
HETATM    5  O10 UNL     1     -35.039  12.817  -4.366  1.00 20.00    -0.297 OA
HETATM    6  S11 UNL     1     -34.696  15.619  -6.958  1.00 20.00    -0.161 SA
ENDROOT
BRANCH   4   7
HETATM    7  C7  UNL     1     -34.177  15.189  -2.989  1.00 20.00     0.013 C 
BRANCH   7   8
HETATM    8  C8  UNL     1     -34.960  15.988  -1.944  1.00 20.00     0.005 C 
BRANCH   8   9
HETATM    9  C9  UNL     1     -34.079  16.942  -1.115  1.00 20.00    -0.023 C 
HETATM   10  C5  UNL     1     -34.818  17.354   0.161  1.00 20.00     0.009 C 
HETATM   11  C6  UNL     1     -33.672  18.190  -1.900  1.00 20.00     0.009 C 
ENDBRANCH   8   9
ENDBRANCH   7   8
ENDBRANCH   4   7
TORSDOF 3
ENDMDL
MODEL 3
REMARK VINA RESULT:      -4.3     11.133     12.053
REMARK  3 active torsions:
REMARK  status: ('A' for Active; 'I' for Inactive)
REMARK    1  A    between atoms: C4_4  and  C7_7 
REMARK    2  A    between atoms: C7_7  and  C8_8 
REMARK    3  A    between atoms: C8_8  and  C9_9 
ROOT
HETATM    1  C1  UNL     1     -33.774   6.435   5.819  1.00 20.00     0.141 C 
HETATM    2  C2  UNL     1     -34.669   5.305   6.259  1.00 20.00     0.152 C 
HETATM    3  C3  UNL     1     -34.075   5.348   3.669  1.00 20.00     0.086 C 
HETATM    4  C4  UNL     1     -33.757   6.688   4.321  1.00 20.00     0.065 C 
HETATM    5  O10 UNL     1     -33.153   7.122   6.625  1.00 20.00    -0.297 OA
HETATM    6  S11 UNL     1     -35.328   4.598   4.733  1.00 20.00    -0.161 SA
ENDROOT
BRANCH   4   7
HETATM    7  C7  UNL     1     -32.423   7.241   3.846  1.00 20.00     0.013 C 
BRANCH   7   8
HETATM    8  C8  UNL     1     -32.328   7.237   2.318  1.00 20.00     0.005 C 
BRANCH   8   9
HETATM    9  C9  UNL     1     -31.834   8.572   1.731  1.00 20.00    -0.023 C 
HETATM   10  C5  UNL     1     -32.787   9.700   2.133  1.00 20.00     0.009 C 
HETATM   11  C6  UNL     1     -31.703   8.526   0.208  1.00 20.00     0.009 C 
ENDBRANCH   8   9
ENDBRANCH   7   8
ENDBRANCH   4   7
TORSDOF 3
ENDMDL
MODEL 4
REMARK VINA RESULT:      -4.3      1.413      2.022
REMARK  3 active torsions:
REMARK  status: ('A' for Active; 'I' for Inactive)
REMARK    1  A    between atoms: C4_4  and  C7_7 
REMARK    2  A    between atoms: C7_7  and  C8_8 
REMARK    3  A    between atoms: C8_8  and  C9_9 
ROOT
HETATM    1  C1  UNL     1     -33.920  16.013  -5.380  1.00 20.00     0.141 C 
HETATM    2  C2  UNL     1     -34.772  16.441  -6.549  1.00 20.00     0.152 C 
HETATM    3  C3  UNL     1     -35.972  14.863  -4.779  1.00 20.00     0.086 C 
HETATM    4  C4  UNL     1     -34.460  14.826  -4.600  1.00 20.00     0.065 C 
HETATM    5  O10 UNL     1     -32.851  16.559  -5.123  1.00 20.00    -0.297 OA
HETATM    6  S11 UNL     1     -36.227  15.371  -6.494  1.00 20.00    -0.161 SA
ENDROOT
BRANCH   4   7
HETATM    7  C7  UNL     1     -34.066  14.876  -3.133  1.00 20.00     0.013 C 
BRANCH   7   8
HETATM    8  C8  UNL     1     -34.906  15.899  -2.364  1.00 20.00     0.005 C 
BRANCH   8   9
HETATM    9  C9  UNL     1     -34.074  16.795  -1.427  1.00 20.00    -0.023 C 
HETATM   10  C5  UNL     1     -34.851  17.057  -0.135  1.00 20.00     0.009 C 
HETATM   11  C6  UNL     1     -33.692  18.125  -2.077  1.00 20.00     0.009 C 
ENDBRANCH   8   9
ENDBRANCH   7   8
ENDBRANCH   4   7
TORSDOF 3
ENDMDL
MODEL 5
REMARK VINA RESULT:      -4.2      2.168      3.291
REMARK  3 active torsions:
REMARK  status: ('A' for Active; 'I' for Inactive)
REMARK    1  A    between atoms: C4_4  and  C7_7 
REMARK    2  A    between atoms: C7_7  and  C8_8 
REMARK    3  A    between atoms: C8_8  and  C9_9 
ROOT
HETATM    1  C1  UNL     1     -35.124  14.200  -5.795  1.00 20.00     0.141 C 
HETATM    2  C2  UNL     1     -34.467  14.812  -7.006  1.00 20.00     0.152 C 
HETATM    3  C3  UNL     1     -36.147  16.400  -5.695  1.00 20.00     0.086 C 
HETATM    4  C4  UNL     1     -36.348  14.946  -5.290  1.00 20.00     0.065 C 
HETATM    5  O10 UNL     1     -34.719  13.153  -5.297  1.00 20.00    -0.297 OA
HETATM    6  S11 UNL     1     -35.394  16.328  -7.336  1.00 20.00    -0.161 SA
ENDROOT
BRANCH   4   7
HETATM    7  C7  UNL     1     -36.530  14.800  -3.788  1.00 20.00     0.013 C 
BRANCH   7   8
HETATM    8  C8  UNL     1     -35.978  16.015  -3.038  1.00 20.00     0.005 C 
BRANCH   8   9
HETATM    9  C9  UNL     1     -34.693  15.715  -2.245  1.00 20.00    -0.023 C 
HETATM   10  C5  UNL     1     -34.636  16.597  -0.996  1.00 20.00     0.009 C 
HETATM   11  C6  UNL     1     -33.429  15.923  -3.081  1.00 20.00     0.009 C 
ENDBRANCH   8   9
ENDBRANCH   7   8
ENDBRANCH   4   7
TORSDOF 3
ENDMDL
MODEL 6
REMARK VINA RESULT:      -4.2      3.527      5.596
REMARK  3 active torsions:
REMARK  status: ('A' for Active; 'I' for Inactive)
REMARK    1  A    between atoms: C4_4  and  C7_7 
REMARK    2  A    between atoms: C7_7  and  C8_8 
REMARK    3  A    between atoms: C8_8  and  C9_9 
ROOT
HETATM    1  C1  UNL     1     -32.418  19.042   0.775  1.00 20.00     0.141 C 
HETATM    2  C2  UNL     1     -32.393  19.263   2.267  1.00 20.00     0.152 C 
HETATM    3  C3  UNL     1     -34.524  17.973   1.340  1.00 20.00     0.086 C 
HETATM    4  C4  UNL     1     -33.779  18.671   0.210  1.00 20.00     0.065 C 
HETATM    5  O10 UNL     1     -31.419  19.203   0.079  1.00 20.00    -0.297 OA
HETATM    6  S11 UNL     1     -34.066  18.883   2.832  1.00 20.00    -0.161 SA
ENDROOT
BRANCH   4   7
HETATM    7  C7  UNL     1     -33.667  17.786  -1.021  1.00 20.00     0.013 C 
BRANCH   7   8
HETATM    8  C8  UNL     1     -34.671  16.631  -0.971  1.00 20.00     0.005 C 
BRANCH   8   9
HETATM    9  C9  UNL     1     -34.966  16.015  -2.351  1.00 20.00    -0.023 C 
HETATM   10  C5  UNL     1     -33.653  15.640  -3.043  1.00 20.00     0.009 C 
HETATM   11  C6  UNL     1     -35.772  16.955  -3.249  1.00 20.00     0.009 C 
ENDBRANCH   8   9
ENDBRANCH   7   8
ENDBRANCH   4   7
TORSDOF 3
ENDMDL
MODEL 7
REMARK VINA RESULT:      -4.1     13.307     15.290
REMARK  3 active torsions:
REMARK  status: ('A' for Active; 'I' for Inactive)
REMARK    1  A    between atoms: C4_4  and  C7_7 
REMARK    2  A    between atoms: C7_7  and  C8_8 
REMARK    3  A    between atoms: C8_8  and  C9_9 
ROOT
HETATM    1  C1  UNL     1     -42.542   6.074  -2.762  1.00 20.00     0.141 C 
HETATM    2  C2  UNL     1     -41.667   7.047  -2.013  1.00 20.00     0.152 C 
HETATM    3  C3  UNL     1     -41.289   4.483  -1.423  1.00 20.00     0.086 C 
HETATM    4  C4  UNL     1     -42.608   4.681  -2.158  1.00 20.00     0.065 C 
HETATM    5  O10 UNL     1     -43.185   6.410  -3.753  1.00 20.00    -0.297 OA
HETATM    6  S11 UNL     1     -40.927   6.086  -0.673  1.00 20.00    -0.161 SA
ENDROOT
BRANCH   4   7
HETATM    7  C7  UNL     1     -42.832   3.608  -3.211  1.00 20.00     0.013 C 
BRANCH   7   8
HETATM    8  C8  UNL     1     -41.781   2.499  -3.110  1.00 20.00     0.005 C 
BRANCH   8   9
HETATM    9  C9  UNL     1     -41.753   1.569  -4.337  1.00 20.00    -0.023 C 
HETATM   10  C5  UNL     1     -43.007   1.791  -5.186  1.00 20.00     0.009 C 
HETATM   11  C6  UNL     1     -41.648   0.093  -3.948  1.00 20.00     0.009 C 
ENDBRANCH   8   9
ENDBRANCH   7   8
ENDBRANCH   4   7
TORSDOF 3
ENDMDL
MODEL 8
REMARK VINA RESULT:      -4.1      1.359      1.407
REMARK  3 active torsions:
REMARK  status: ('A' for Active; 'I' for Inactive)
REMARK    1  A    between atoms: C4_4  and  C7_7 
REMARK    2  A    between atoms: C7_7  and  C8_8 
REMARK    3  A    between atoms: C8_8  and  C9_9 
ROOT
HETATM    1  C1  UNL     1     -35.449  15.997  -4.352  1.00 20.00     0.141 C 
HETATM    2  C2  UNL     1     -35.744  15.042  -5.481  1.00 20.00     0.152 C 
HETATM    3  C3  UNL     1     -34.518  13.978  -3.377  1.00 20.00     0.086 C 
HETATM    4  C4  UNL     1     -34.424  15.498  -3.347  1.00 20.00     0.065 C 
HETATM    5  O10 UNL     1     -35.966  17.109  -4.291  1.00 20.00    -0.297 OA
HETATM    6  S11 UNL     1     -34.777  13.560  -5.115  1.00 20.00    -0.161 SA
ENDROOT
BRANCH   4   7
HETATM    7  C7  UNL     1     -34.671  16.050  -1.953  1.00 20.00     0.013 C 
BRANCH   7   8
HETATM    8  C8  UNL     1     -33.623  17.100  -1.575  1.00 20.00     0.005 C 
BRANCH   8   9
HETATM    9  C9  UNL     1     -34.087  18.056  -0.460  1.00 20.00    -0.023 C 
HETATM   10  C5  UNL     1     -32.872  18.614   0.284  1.00 20.00     0.009 C 
HETATM   11  C6  UNL     1     -35.034  17.379   0.533  1.00 20.00     0.009 C 
ENDBRANCH   8   9
ENDBRANCH   7   8
ENDBRANCH   4   7
TORSDOF 3
ENDMDL
MODEL 9
REMARK VINA RESULT:      -4.1      3.374      4.544
REMARK  3 active torsions:
REMARK  status: ('A' for Active; 'I' for Inactive)
REMARK    1  A    between atoms: C4_4  and  C7_7 
REMARK    2  A    between atoms: C7_7  and  C8_8 
REMARK    3  A    between atoms: C8_8  and  C9_9 
ROOT
HETATM    1  C1  UNL     1     -33.413  16.851  -5.328  1.00 20.00     0.141 C 
HETATM    2  C2  UNL     1     -33.594  18.323  -5.055  1.00 20.00     0.152 C 
HETATM    3  C3  UNL     1     -35.398  17.231  -6.673  1.00 20.00     0.086 C 
HETATM    4  C4  UNL     1     -34.181  16.327  -6.530  1.00 20.00     0.065 C 
HETATM    5  O10 UNL     1     -32.660  16.154  -4.653  1.00 20.00    -0.297 OA
HETATM    6  S11 UNL     1     -34.797  18.889  -6.279  1.00 20.00    -0.161 SA
ENDROOT
BRANCH   4   7
HETATM    7  C7  UNL     1     -34.579  14.869  -6.365  1.00 20.00     0.013 C 
BRANCH   7   8
HETATM    8  C8  UNL     1     -35.966  14.738  -5.730  1.00 20.00     0.005 C 
BRANCH   8   9
HETATM    9  C9  UNL     1     -35.935  14.150  -4.307  1.00 20.00    -0.023 C 
HETATM   10  C5  UNL     1     -36.089  15.274  -3.278  1.00 20.00     0.009 C 
HETATM   11  C6  UNL     1     -34.652  13.367  -4.026  1.00 20.00     0.009 C 
ENDBRANCH   8   9
ENDBRANCH   7   8
ENDBRANCH   4   7
TORSDOF 3
ENDMDL
