MODEL 1
REMARK VINA RESULT:      -6.4      0.000      0.000
REMARK  2 active torsions:
REMARK  status: ('A' for Active; 'I' for Inactive)
REMARK    1  A    between atoms: C5_5  and  C6_6 
REMARK    2  A    between atoms: C6_6  and  C7_7 
ROOT
HETATM    1  C1  UNL     1     -34.047   6.044   5.986  1.00 20.00     0.131 C 
HETATM    2  C2  UNL     1     -35.101   5.113   6.529  1.00 20.00     0.079 C 
HETATM    3  C3  UNL     1     -35.200   4.069   5.423  1.00 20.00     0.008 C 
HETATM    4  C4  UNL     1     -34.884   4.837   4.147  1.00 20.00     0.013 C 
HETATM    5  C5  UNL     1     -33.717   5.746   4.538  1.00 20.00     0.064 C 
HETATM    6  O8  UNL     1     -33.526   6.935   6.646  1.00 20.00    -0.298 OA
ENDROOT
BRANCH   5   7
HETATM    7  C6  UNL     1     -33.626   6.994   3.682  1.00 20.00     0.129 C 
BRANCH   7   8
HETATM    8  C7  UNL     1     -32.286   7.104   3.005  1.00 20.00     0.388 C 
HETATM    9  F9  UNL     1     -32.354   7.843   1.878  1.00 20.00    -0.171 F 
HETATM   10  F10 UNL     1     -31.846   5.873   2.661  1.00 20.00    -0.171 F 
HETATM   11  F11 UNL     1     -31.359   7.657   3.814  1.00 20.00    -0.171 F 
ENDBRANCH   7   8
ENDBRANCH   5   7
TORSDOF 2
ENDMDL
MODEL 2
REMARK VINA RESULT:      -5.3      1.543      2.270
REMARK  2 active torsions:
REMARK  status: ('A' for Active; 'I' for Inactive)
REMARK    1  A    between atoms: C5_5  and  C6_6 
REMARK    2  A    between atoms: C6_6  and  C7_7 
ROOT
HETATM    1  C1  UNL     1     -34.692   5.147   4.539  1.00 20.00     0.131 C 
HETATM    2  C2  UNL     1     -34.890   4.895   6.012  1.00 20.00     0.079 C 
HETATM    3  C3  UNL     1     -34.385   6.195   6.626  1.00 20.00     0.008 C 
HETATM    4  C4  UNL     1     -33.296   6.668   5.671  1.00 20.00     0.013 C 
HETATM    5  C5  UNL     1     -33.877   6.398   4.282  1.00 20.00     0.064 C 
HETATM    6  O8  UNL     1     -35.139   4.419   3.661  1.00 20.00    -0.298 OA
ENDROOT
BRANCH   5   7
HETATM    7  C6  UNL     1     -32.810   6.203   3.222  1.00 20.00     0.129 C 
BRANCH   7   8
HETATM    8  C7  UNL     1     -32.173   7.509   2.831  1.00 20.00     0.388 C 
HETATM    9  F9  UNL     1     -31.206   7.874   3.697  1.00 20.00    -0.171 F 
HETATM   10  F10 UNL     1     -33.106   8.488   2.823  1.00 20.00    -0.171 F 
HETATM   11  F11 UNL     1     -31.632   7.453   1.596  1.00 20.00    -0.171 F 
ENDBRANCH   7   8
ENDBRANCH   5   7
TORSDOF 2
ENDMDL
MODEL 3
REMARK VINA RESULT:      -4.9     11.748     12.608
REMARK  2 active torsions:
REMARK  status: ('A' for Active; 'I' for Inactive)
REMARK    1  A    between atoms: C5_5  and  C6_6 
REMARK    2  A    between atoms: C6_6  and  C7_7 
ROOT
HETATM    1  C1  UNL     1     -33.700  17.107  -3.358  1.00 20.00     0.131 C 
HETATM    2  C2  UNL     1     -33.693  18.286  -2.418  1.00 20.00     0.079 C 
HETATM    3  C3  UNL     1     -33.802  17.605  -1.058  1.00 20.00     0.008 C 
HETATM    4  C4  UNL     1     -34.617  16.347  -1.328  1.00 20.00     0.013 C 
HETATM    5  C5  UNL     1     -34.058  15.817  -2.650  1.00 20.00     0.064 C 
HETATM    6  O8  UNL     1     -33.447  17.194  -4.554  1.00 20.00    -0.298 OA
ENDROOT
BRANCH   5   7
HETATM    7  C6  UNL     1     -35.057  14.976  -3.420  1.00 20.00     0.129 C 
BRANCH   7   8
HETATM    8  C7  UNL     1     -34.385  13.838  -4.139  1.00 20.00     0.388 C 
HETATM    9  F9  UNL     1     -34.106  14.150  -5.422  1.00 20.00    -0.171 F 
HETATM   10  F10 UNL     1     -35.201  12.759  -4.149  1.00 20.00    -0.171 F 
HETATM   11  F11 UNL     1     -33.235  13.473  -3.536  1.00 20.00    -0.171 F 
ENDBRANCH   7   8
ENDBRANCH   5   7
TORSDOF 2
ENDMDL
MODEL 4
REMARK VINA RESULT:      -4.9     11.752     12.659
REMARK  2 active torsions:
REMARK  status: ('A' for Active; 'I' for Inactive)
REMARK    1  A    between atoms: C5_5  and  C6_6 
REMARK    2  A    between atoms: C6_6  and  C7_7 
ROOT
HETATM    1  C1  UNL     1     -33.702  17.121  -3.347  1.00 20.00     0.131 C 
HETATM    2  C2  UNL     1     -33.690  18.296  -2.403  1.00 20.00     0.079 C 
HETATM    3  C3  UNL     1     -33.796  17.610  -1.045  1.00 20.00     0.008 C 
HETATM    4  C4  UNL     1     -34.614  16.355  -1.317  1.00 20.00     0.013 C 
HETATM    5  C5  UNL     1     -34.061  15.829  -2.643  1.00 20.00     0.064 C 
HETATM    6  O8  UNL     1     -33.453  17.211  -4.543  1.00 20.00    -0.298 OA
ENDROOT
BRANCH   5   7
HETATM    7  C6  UNL     1     -35.064  14.993  -3.412  1.00 20.00     0.129 C 
BRANCH   7   8
HETATM    8  C7  UNL     1     -34.398  13.847  -4.126  1.00 20.00     0.388 C 
HETATM    9  F9  UNL     1     -33.233  13.501  -3.540  1.00 20.00    -0.171 F 
HETATM   10  F10 UNL     1     -34.125  14.201  -5.402  1.00 20.00    -0.171 F 
HETATM   11  F11 UNL     1     -35.189  12.754  -4.167  1.00 20.00    -0.171 F 
ENDBRANCH   7   8
ENDBRANCH   5   7
TORSDOF 2
ENDMDL
MODEL 5
REMARK VINA RESULT:      -4.8     11.848     12.861
REMARK  2 active torsions:
REMARK  status: ('A' for Active; 'I' for Inactive)
REMARK    1  A    between atoms: C5_5  and  C6_6 
REMARK    2  A    between atoms: C6_6  and  C7_7 
ROOT
HETATM    1  C1  UNL     1     -34.813  13.841  -4.792  1.00 20.00     0.131 C 
HETATM    2  C2  UNL     1     -34.939  14.067  -6.277  1.00 20.00     0.079 C 
HETATM    3  C3  UNL     1     -34.325  15.453  -6.439  1.00 20.00     0.008 C 
HETATM    4  C4  UNL     1     -34.646  16.165  -5.131  1.00 20.00     0.013 C 
HETATM    5  C5  UNL     1     -34.402  15.101  -4.059  1.00 20.00     0.064 C 
HETATM    6  O8  UNL     1     -35.024  12.763  -4.251  1.00 20.00    -0.298 OA
ENDROOT
BRANCH   5   7
HETATM    7  C6  UNL     1     -35.204  15.340  -2.795  1.00 20.00     0.129 C 
BRANCH   7   8
HETATM    8  C7  UNL     1     -34.546  16.361  -1.906  1.00 20.00     0.388 C 
HETATM    9  F9  UNL     1     -34.784  16.116  -0.601  1.00 20.00    -0.171 F 
HETATM   10  F10 UNL     1     -35.031  17.592  -2.186  1.00 20.00    -0.171 F 
HETATM   11  F11 UNL     1     -33.210  16.399  -2.089  1.00 20.00    -0.171 F 
ENDBRANCH   7   8
ENDBRANCH   5   7
TORSDOF 2
ENDMDL
MODEL 6
REMARK VINA RESULT:      -4.7     11.718     12.600
REMARK  2 active torsions:
REMARK  status: ('A' for Active; 'I' for Inactive)
REMARK    1  A    between atoms: C5_5  and  C6_6 
REMARK    2  A    between atoms: C6_6  and  C7_7 
ROOT
HETATM    1  C1  UNL     1     -35.255  15.435  -4.499  1.00 20.00     0.131 C 
HETATM    2  C2  UNL     1     -35.284  14.307  -5.498  1.00 20.00     0.079 C 
HETATM    3  C3  UNL     1     -34.765  13.138  -4.670  1.00 20.00     0.008 C 
HETATM    4  C4  UNL     1     -33.804  13.775  -3.675  1.00 20.00     0.013 C 
HETATM    5  C5  UNL     1     -34.520  15.052  -3.231  1.00 20.00     0.064 C 
HETATM    6  O8  UNL     1     -35.767  16.531  -4.698  1.00 20.00    -0.298 OA
ENDROOT
BRANCH   5   7
HETATM    7  C6  UNL     1     -33.567  16.129  -2.751  1.00 20.00     0.129 C 
BRANCH   7   8
HETATM    8  C7  UNL     1     -34.122  16.871  -1.565  1.00 20.00     0.388 C 
HETATM    9  F9  UNL     1     -33.144  17.431  -0.822  1.00 20.00    -0.171 F 
HETATM   10  F10 UNL     1     -34.802  16.016  -0.768  1.00 20.00    -0.171 F 
HETATM   11  F11 UNL     1     -34.976  17.846  -1.939  1.00 20.00    -0.171 F 
ENDBRANCH   7   8
ENDBRANCH   5   7
TORSDOF 2
ENDMDL
MODEL 7
REMARK VINA RESULT:      -4.7      3.146      4.506
REMARK  2 active torsions:
REMARK  status: ('A' for Active; 'I' for Inactive)
REMARK    1  A    between atoms: C5_5  and  C6_6 
REMARK    2  A    between atoms: C6_6  and  C7_7 
ROOT
HETATM    1  C1  UNL     1     -33.372   5.992   3.060  1.00 20.00     0.131 C 
HETATM    2  C2  UNL     1     -32.510   7.087   2.487  1.00 20.00     0.079 C 
HETATM    3  C3  UNL     1     -31.682   7.504   3.697  1.00 20.00     0.008 C 
HETATM    4  C4  UNL     1     -32.601   7.261   4.887  1.00 20.00     0.013 C 
HETATM    5  C5  UNL     1     -33.275   5.924   4.570  1.00 20.00     0.064 C 
HETATM    6  O8  UNL     1     -34.068   5.250   2.377  1.00 20.00    -0.298 OA
ENDROOT
BRANCH   5   7
HETATM    7  C6  UNL     1     -34.623   5.766   5.245  1.00 20.00     0.129 C 
BRANCH   7   8
HETATM    8  C7  UNL     1     -34.831   4.363   5.748  1.00 20.00     0.388 C 
HETATM    9  F9  UNL     1     -35.750   4.315   6.734  1.00 20.00    -0.171 F 
HETATM   10  F10 UNL     1     -33.670   3.881   6.247  1.00 20.00    -0.171 F 
HETATM   11  F11 UNL     1     -35.227   3.531   4.763  1.00 20.00    -0.171 F 
ENDBRANCH   7   8
ENDBRANCH   5   7
TORSDOF 2
ENDMDL
MODEL 8
REMARK VINA RESULT:      -4.4     10.791     11.677
REMARK  2 active torsions:
REMARK  status: ('A' for Active; 'I' for Inactive)
REMARK    1  A    between atoms: C5_5  and  C6_6 
REMARK    2  A    between atoms: C6_6  and  C7_7 
ROOT
HETATM    1  C1  UNL     1     -42.306   5.666  -2.539  1.00 20.00     0.131 C 
HETATM    2  C2  UNL     1     -41.997   6.768  -1.558  1.00 20.00     0.079 C 
HETATM    3  C3  UNL     1     -40.846   6.167  -0.759  1.00 20.00     0.008 C 
HETATM    4  C4  UNL     1     -41.123   4.669  -0.765  1.00 20.00     0.013 C 
HETATM    5  C5  UNL     1     -41.583   4.380  -2.195  1.00 20.00     0.064 C 
HETATM    6  O8  UNL     1     -43.058   5.803  -3.496  1.00 20.00    -0.298 OA
ENDROOT
BRANCH   5   7
HETATM    7  C6  UNL     1     -42.472   3.156  -2.294  1.00 20.00     0.129 C 
BRANCH   7   8
HETATM    8  C7  UNL     1     -42.023   2.234  -3.396  1.00 20.00     0.388 C 
HETATM    9  F9  UNL     1     -42.723   2.433  -4.532  1.00 20.00    -0.171 F 
HETATM   10  F10 UNL     1     -42.209   0.948  -3.020  1.00 20.00    -0.171 F 
HETATM   11  F11 UNL     1     -40.713   2.390  -3.678  1.00 20.00    -0.171 F 
ENDBRANCH   7   8
ENDBRANCH   5   7
TORSDOF 2
ENDMDL
MODEL 9
REMARK VINA RESULT:      -4.4     12.081     13.128
REMARK  2 active torsions:
REMARK  status: ('A' for Active; 'I' for Inactive)
REMARK    1  A    between atoms: C5_5  and  C6_6 
REMARK    2  A    between atoms: C6_6  and  C7_7 
ROOT
HETATM    1  C1  UNL     1     -33.913  15.850  -5.096  1.00 20.00     0.131 C 
HETATM    2  C2  UNL     1     -34.357  15.096  -6.324  1.00 20.00     0.079 C 
HETATM    3  C3  UNL     1     -35.779  14.692  -5.949  1.00 20.00     0.008 C 
HETATM    4  C4  UNL     1     -35.736  14.515  -4.436  1.00 20.00     0.013 C 
HETATM    5  C5  UNL     1     -34.887  15.690  -3.948  1.00 20.00     0.064 C 
HETATM    6  O8  UNL     1     -32.882  16.509  -5.043  1.00 20.00    -0.298 OA
ENDROOT
BRANCH   5   7
HETATM    7  C6  UNL     1     -34.202  15.415  -2.624  1.00 20.00     0.129 C 
BRANCH   7   8
HETATM    8  C7  UNL     1     -34.344  16.574  -1.675  1.00 20.00     0.388 C 
HETATM    9  F9  UNL     1     -34.871  16.193  -0.493  1.00 20.00    -0.171 F 
HETATM   10  F10 UNL     1     -35.170  17.503  -2.209  1.00 20.00    -0.171 F 
HETATM   11  F11 UNL     1     -33.160  17.173  -1.434  1.00 20.00    -0.171 F 
ENDBRANCH   7   8
ENDBRANCH   5   7
TORSDOF 2
ENDMDL
