MODEL 1
REMARK VINA RESULT:      -5.7      0.000      0.000
REMARK  2 active torsions:
REMARK  status: ('A' for Active; 'I' for Inactive)
REMARK    1  A    between atoms: C5_5  and  C6_6 
REMARK    2  A    between atoms: C6_6  and  C7_7 
ROOT
HETATM    1  C1  UNL     1     -34.561   5.185   3.911  1.00 20.00     0.131 C 
HETATM    2  C2  UNL     1     -35.494   4.557   4.916  1.00 20.00     0.079 C 
HETATM    3  C3  UNL     1     -34.797   4.873   6.234  1.00 20.00     0.008 C 
HETATM    4  C4  UNL     1     -34.092   6.200   5.983  1.00 20.00     0.013 C 
HETATM    5  C5  UNL     1     -33.510   6.053   4.576  1.00 20.00     0.064 C 
HETATM    6  O8  UNL     1     -34.649   5.010   2.703  1.00 20.00    -0.298 OA
ENDROOT
BRANCH   5   7
HETATM    7  C6  UNL     1     -33.311   7.382   3.876  1.00 20.00     0.129 C 
BRANCH   7   8
HETATM    8  C7  UNL     1     -32.051   7.390   3.051  1.00 20.00     0.388 C 
HETATM    9  F9  UNL     1     -31.732   6.154   2.612  1.00 20.00    -0.171 F 
HETATM   10  F10 UNL     1     -31.018   7.838   3.800  1.00 20.00    -0.171 F 
HETATM   11  F11 UNL     1     -32.159   8.202   1.978  1.00 20.00    -0.171 F 
ENDBRANCH   7   8
ENDBRANCH   5   7
TORSDOF 2
ENDMDL
MODEL 2
REMARK VINA RESULT:      -5.6      1.517      1.965
REMARK  2 active torsions:
REMARK  status: ('A' for Active; 'I' for Inactive)
REMARK    1  A    between atoms: C5_5  and  C6_6 
REMARK    2  A    between atoms: C6_6  and  C7_7 
ROOT
HETATM    1  C1  UNL     1     -33.809   6.225   5.389  1.00 20.00     0.131 C 
HETATM    2  C2  UNL     1     -34.771   5.203   5.941  1.00 20.00     0.079 C 
HETATM    3  C3  UNL     1     -35.550   4.798   4.695  1.00 20.00     0.008 C 
HETATM    4  C4  UNL     1     -34.549   4.947   3.556  1.00 20.00     0.013 C 
HETATM    5  C5  UNL     1     -33.814   6.250   3.873  1.00 20.00     0.064 C 
HETATM    6  O8  UNL     1     -33.110   6.945   6.090  1.00 20.00    -0.298 OA
ENDROOT
BRANCH   5   7
HETATM    7  C6  UNL     1     -32.422   6.305   3.277  1.00 20.00     0.129 C 
BRANCH   7   8
HETATM    8  C7  UNL     1     -32.065   7.697   2.828  1.00 20.00     0.388 C 
HETATM    9  F9  UNL     1     -31.490   7.696   1.607  1.00 20.00    -0.171 F 
HETATM   10  F10 UNL     1     -31.184   8.245   3.694  1.00 20.00    -0.171 F 
HETATM   11  F11 UNL     1     -33.148   8.502   2.782  1.00 20.00    -0.171 F 
ENDBRANCH   7   8
ENDBRANCH   5   7
TORSDOF 2
ENDMDL
MODEL 3
REMARK VINA RESULT:      -4.9     11.148     11.801
REMARK  2 active torsions:
REMARK  status: ('A' for Active; 'I' for Inactive)
REMARK    1  A    between atoms: C5_5  and  C6_6 
REMARK    2  A    between atoms: C6_6  and  C7_7 
ROOT
HETATM    1  C1  UNL     1     -34.024  13.873  -3.722  1.00 20.00     0.131 C 
HETATM    2  C2  UNL     1     -34.988  13.411  -4.786  1.00 20.00     0.079 C 
HETATM    3  C3  UNL     1     -36.284  14.086  -4.353  1.00 20.00     0.008 C 
HETATM    4  C4  UNL     1     -35.833  15.378  -3.684  1.00 20.00     0.013 C 
HETATM    5  C5  UNL     1     -34.617  14.964  -2.853  1.00 20.00     0.064 C 
HETATM    6  O8  UNL     1     -32.897  13.415  -3.584  1.00 20.00    -0.298 OA
ENDROOT
BRANCH   5   7
HETATM    7  C6  UNL     1     -33.655  16.108  -2.601  1.00 20.00     0.129 C 
BRANCH   7   8
HETATM    8  C7  UNL     1     -34.096  16.956  -1.438  1.00 20.00     0.388 C 
HETATM    9  F9  UNL     1     -33.045  17.501  -0.789  1.00 20.00    -0.171 F 
HETATM   10  F10 UNL     1     -34.776  16.196  -0.550  1.00 20.00    -0.171 F 
HETATM   11  F11 UNL     1     -34.913  17.957  -1.829  1.00 20.00    -0.171 F 
ENDBRANCH   7   8
ENDBRANCH   5   7
TORSDOF 2
ENDMDL
MODEL 4
REMARK VINA RESULT:      -4.6      2.955      4.055
REMARK  2 active torsions:
REMARK  status: ('A' for Active; 'I' for Inactive)
REMARK    1  A    between atoms: C5_5  and  C6_6 
REMARK    2  A    between atoms: C6_6  and  C7_7 
ROOT
HETATM    1  C1  UNL     1     -33.711   5.616   2.857  1.00 20.00     0.131 C 
HETATM    2  C2  UNL     1     -32.310   6.174   2.861  1.00 20.00     0.079 C 
HETATM    3  C3  UNL     1     -32.362   7.150   4.030  1.00 20.00     0.008 C 
HETATM    4  C4  UNL     1     -33.362   6.531   4.998  1.00 20.00     0.013 C 
HETATM    5  C5  UNL     1     -34.486   6.019   4.096  1.00 20.00     0.064 C 
HETATM    6  O8  UNL     1     -34.161   4.920   1.956  1.00 20.00    -0.298 OA
ENDROOT
BRANCH   5   7
HETATM    7  C6  UNL     1     -35.261   4.870   4.710  1.00 20.00     0.129 C 
BRANCH   7   8
HETATM    8  C7  UNL     1     -34.928   4.692   6.167  1.00 20.00     0.388 C 
HETATM    9  F9  UNL     1     -33.720   4.113   6.337  1.00 20.00    -0.171 F 
HETATM   10  F10 UNL     1     -35.850   3.896   6.753  1.00 20.00    -0.171 F 
HETATM   11  F11 UNL     1     -34.925   5.869   6.828  1.00 20.00    -0.171 F 
ENDBRANCH   7   8
ENDBRANCH   5   7
TORSDOF 2
ENDMDL
MODEL 5
REMARK VINA RESULT:      -4.5     11.340     12.035
REMARK  2 active torsions:
REMARK  status: ('A' for Active; 'I' for Inactive)
REMARK    1  A    between atoms: C5_5  and  C6_6 
REMARK    2  A    between atoms: C6_6  and  C7_7 
ROOT
HETATM    1  C1  UNL     1     -35.731  16.652  -2.847  1.00 20.00     0.131 C 
HETATM    2  C2  UNL     1     -36.102  17.805  -1.948  1.00 20.00     0.079 C 
HETATM    3  C3  UNL     1     -35.254  17.526  -0.713  1.00 20.00     0.008 C 
HETATM    4  C4  UNL     1     -34.009  16.836  -1.254  1.00 20.00     0.013 C 
HETATM    5  C5  UNL     1     -34.546  15.872  -2.313  1.00 20.00     0.064 C 
HETATM    6  O8  UNL     1     -36.324  16.386  -3.885  1.00 20.00    -0.298 OA
ENDROOT
BRANCH   5   7
HETATM    7  C6  UNL     1     -33.526  15.539  -3.383  1.00 20.00     0.129 C 
BRANCH   7   8
HETATM    8  C7  UNL     1     -33.674  14.121  -3.867  1.00 20.00     0.388 C 
HETATM    9  F9  UNL     1     -33.946  14.069  -5.189  1.00 20.00    -0.171 F 
HETATM   10  F10 UNL     1     -34.695  13.520  -3.216  1.00 20.00    -0.171 F 
HETATM   11  F11 UNL     1     -32.559  13.394  -3.640  1.00 20.00    -0.171 F 
ENDBRANCH   7   8
ENDBRANCH   5   7
TORSDOF 2
ENDMDL
MODEL 6
REMARK VINA RESULT:      -4.4     11.557     12.439
REMARK  2 active torsions:
REMARK  status: ('A' for Active; 'I' for Inactive)
REMARK    1  A    between atoms: C5_5  and  C6_6 
REMARK    2  A    between atoms: C6_6  and  C7_7 
ROOT
HETATM    1  C1  UNL     1     -34.387  15.621  -4.950  1.00 20.00     0.131 C 
HETATM    2  C2  UNL     1     -34.582  14.613  -6.055  1.00 20.00     0.079 C 
HETATM    3  C3  UNL     1     -34.639  13.302  -5.280  1.00 20.00     0.008 C 
HETATM    4  C4  UNL     1     -35.254  13.680  -3.938  1.00 20.00     0.013 C 
HETATM    5  C5  UNL     1     -34.579  15.005  -3.578  1.00 20.00     0.064 C 
HETATM    6  O8  UNL     1     -34.108  16.797  -5.147  1.00 20.00    -0.298 OA
ENDROOT
BRANCH   5   7
HETATM    7  C6  UNL     1     -35.417  15.865  -2.654  1.00 20.00     0.129 C 
BRANCH   7   8
HETATM    8  C7  UNL     1     -34.562  16.615  -1.667  1.00 20.00     0.388 C 
HETATM    9  F9  UNL     1     -34.796  16.216  -0.399  1.00 20.00    -0.171 F 
HETATM   10  F10 UNL     1     -34.837  17.937  -1.737  1.00 20.00    -0.171 F 
HETATM   11  F11 UNL     1     -33.246  16.457  -1.922  1.00 20.00    -0.171 F 
ENDBRANCH   7   8
ENDBRANCH   5   7
TORSDOF 2
ENDMDL
MODEL 7
REMARK VINA RESULT:      -4.4     11.419     12.516
REMARK  2 active torsions:
REMARK  status: ('A' for Active; 'I' for Inactive)
REMARK    1  A    between atoms: C5_5  and  C6_6 
REMARK    2  A    between atoms: C6_6  and  C7_7 
ROOT
HETATM    1  C1  UNL     1     -34.965  13.897  -4.847  1.00 20.00     0.131 C 
HETATM    2  C2  UNL     1     -34.791  13.965  -6.343  1.00 20.00     0.079 C 
HETATM    3  C3  UNL     1     -34.837  15.467  -6.598  1.00 20.00     0.008 C 
HETATM    4  C4  UNL     1     -34.248  16.084  -5.336  1.00 20.00     0.013 C 
HETATM    5  C5  UNL     1     -34.857  15.263  -4.199  1.00 20.00     0.064 C 
HETATM    6  O8  UNL     1     -35.169  12.856  -4.235  1.00 20.00    -0.298 OA
ENDROOT
BRANCH   5   7
HETATM    7  C6  UNL     1     -34.003  15.259  -2.947  1.00 20.00     0.129 C 
BRANCH   7   8
HETATM    8  C7  UNL     1     -34.394  16.367  -2.006  1.00 20.00     0.388 C 
HETATM    9  F9  UNL     1     -35.391  17.124  -2.511  1.00 20.00    -0.171 F 
HETATM   10  F10 UNL     1     -33.334  17.179  -1.791  1.00 20.00    -0.171 F 
HETATM   11  F11 UNL     1     -34.793  15.890  -0.808  1.00 20.00    -0.171 F 
ENDBRANCH   7   8
ENDBRANCH   5   7
TORSDOF 2
ENDMDL
MODEL 8
REMARK VINA RESULT:      -4.4     11.615     12.503
REMARK  2 active torsions:
REMARK  status: ('A' for Active; 'I' for Inactive)
REMARK    1  A    between atoms: C5_5  and  C6_6 
REMARK    2  A    between atoms: C6_6  and  C7_7 
ROOT
HETATM    1  C1  UNL     1     -33.707  16.974  -3.670  1.00 20.00     0.131 C 
HETATM    2  C2  UNL     1     -33.649  18.062  -2.628  1.00 20.00     0.079 C 
HETATM    3  C3  UNL     1     -34.742  17.628  -1.659  1.00 20.00     0.008 C 
HETATM    4  C4  UNL     1     -34.744  16.107  -1.743  1.00 20.00     0.013 C 
HETATM    5  C5  UNL     1     -34.584  15.816  -3.237  1.00 20.00     0.064 C 
HETATM    6  O8  UNL     1     -33.110  17.027  -4.739  1.00 20.00    -0.298 OA
ENDROOT
BRANCH   5   7
HETATM    7  C6  UNL     1     -33.959  14.464  -3.513  1.00 20.00     0.129 C 
BRANCH   7   8
HETATM    8  C7  UNL     1     -34.726  13.703  -4.561  1.00 20.00     0.388 C 
HETATM    9  F9  UNL     1     -35.905  13.248  -4.087  1.00 20.00    -0.171 F 
HETATM   10  F10 UNL     1     -34.007  12.631  -4.966  1.00 20.00    -0.171 F 
HETATM   11  F11 UNL     1     -34.976  14.462  -5.650  1.00 20.00    -0.171 F 
ENDBRANCH   7   8
ENDBRANCH   5   7
TORSDOF 2
ENDMDL
MODEL 9
REMARK VINA RESULT:      -4.3     11.633     12.524
REMARK  2 active torsions:
REMARK  status: ('A' for Active; 'I' for Inactive)
REMARK    1  A    between atoms: C5_5  and  C6_6 
REMARK    2  A    between atoms: C6_6  and  C7_7 
ROOT
HETATM    1  C1  UNL     1     -33.827  17.067  -3.551  1.00 20.00     0.131 C 
HETATM    2  C2  UNL     1     -33.694  18.128  -2.487  1.00 20.00     0.079 C 
HETATM    3  C3  UNL     1     -34.694  17.652  -1.441  1.00 20.00     0.008 C 
HETATM    4  C4  UNL     1     -34.683  16.134  -1.567  1.00 20.00     0.013 C 
HETATM    5  C5  UNL     1     -34.647  15.885  -3.076  1.00 20.00     0.064 C 
HETATM    6  O8  UNL     1     -33.325  17.159  -4.664  1.00 20.00    -0.298 OA
ENDROOT
BRANCH   5   7
HETATM    7  C6  UNL     1     -34.031  14.550  -3.442  1.00 20.00     0.129 C 
BRANCH   7   8
HETATM    8  C7  UNL     1     -34.834  13.840  -4.499  1.00 20.00     0.388 C 
HETATM    9  F9  UNL     1     -34.227  12.706  -4.911  1.00 20.00    -0.171 F 
HETATM   10  F10 UNL     1     -34.979  14.641  -5.578  1.00 20.00    -0.171 F 
HETATM   11  F11 UNL     1     -36.069  13.519  -4.059  1.00 20.00    -0.171 F 
ENDBRANCH   7   8
ENDBRANCH   5   7
TORSDOF 2
ENDMDL
