MODEL 1
REMARK VINA RESULT:      -4.9      0.000      0.000
REMARK  1 active torsions:
REMARK  status: ('A' for Active; 'I' for Inactive)
REMARK    1  A    between atoms: C4_4  and  O6_6 
ROOT
HETATM    1  C1  UNL     1     -34.655   5.674   5.915  1.00 20.00     0.038 C 
HETATM    2  C2  UNL     1     -33.356   6.207   5.317  1.00 20.00     0.081 C 
HETATM    3  C3  UNL     1     -34.528   5.181   3.511  1.00 20.00     0.110 C 
HETATM    4  C4  UNL     1     -35.334   4.895   4.782  1.00 20.00     0.124 C 
HETATM    5  C5  UNL     1     -33.714   6.408   3.862  1.00 20.00     0.246 C 
HETATM    6  F7  UNL     1     -32.627   6.536   3.082  1.00 20.00    -0.206 F 
HETATM    7  F8  UNL     1     -34.465   7.524   3.716  1.00 20.00    -0.206 F 
ENDROOT
BRANCH   4   8
HETATM    8  O6  UNL     1     -35.316   3.506   5.072  1.00 20.00    -0.395 OA
HETATM    9  H16 UNL     1     -35.923   3.083   4.445  1.00 20.00     0.210 HD
ENDBRANCH   4   8
TORSDOF 1
ENDMDL
MODEL 2
REMARK VINA RESULT:      -4.7      2.568      3.130
REMARK  1 active torsions:
REMARK  status: ('A' for Active; 'I' for Inactive)
REMARK    1  A    between atoms: C4_4  and  O6_6 
ROOT
HETATM    1  C1  UNL     1     -35.325   5.363   3.893  1.00 20.00     0.038 C 
HETATM    2  C2  UNL     1     -35.085   4.274   4.934  1.00 20.00     0.081 C 
HETATM    3  C3  UNL     1     -33.407   5.923   5.321  1.00 20.00     0.110 C 
HETATM    4  C4  UNL     1     -34.160   6.346   4.057  1.00 20.00     0.124 C 
HETATM    5  C5  UNL     1     -34.384   5.022   6.045  1.00 20.00     0.246 C 
HETATM    6  F7  UNL     1     -33.769   4.194   6.907  1.00 20.00    -0.206 F 
HETATM    7  F8  UNL     1     -35.275   5.763   6.744  1.00 20.00    -0.206 F 
ENDROOT
BRANCH   4   8
HETATM    8  O6  UNL     1     -33.302   6.272   2.928  1.00 20.00    -0.395 OA
HETATM    9  H16 UNL     1     -32.895   7.146   2.831  1.00 20.00     0.210 HD
ENDBRANCH   4   8
TORSDOF 1
ENDMDL
MODEL 3
REMARK VINA RESULT:      -4.6      2.514      3.030
REMARK  1 active torsions:
REMARK  status: ('A' for Active; 'I' for Inactive)
REMARK    1  A    between atoms: C4_4  and  O6_6 
ROOT
HETATM    1  C1  UNL     1     -33.675   6.692   4.463  1.00 20.00     0.038 C 
HETATM    2  C2  UNL     1     -33.793   5.234   4.026  1.00 20.00     0.081 C 
HETATM    3  C3  UNL     1     -34.709   5.328   6.225  1.00 20.00     0.110 C 
HETATM    4  C4  UNL     1     -34.134   6.716   5.926  1.00 20.00     0.124 C 
HETATM    5  C5  UNL     1     -34.950   4.728   4.856  1.00 20.00     0.246 C 
HETATM    6  F7  UNL     1     -35.002   3.386   4.892  1.00 20.00    -0.206 F 
HETATM    7  F8  UNL     1     -36.121   5.177   4.348  1.00 20.00    -0.206 F 
ENDROOT
BRANCH   4   8
HETATM    8  O6  UNL     1     -33.028   6.981   6.775  1.00 20.00    -0.395 OA
HETATM    9  H16 UNL     1     -32.361   7.429   6.231  1.00 20.00     0.210 HD
ENDBRANCH   4   8
TORSDOF 1
ENDMDL
MODEL 4
REMARK VINA RESULT:      -4.5      1.027      2.025
REMARK  1 active torsions:
REMARK  status: ('A' for Active; 'I' for Inactive)
REMARK    1  A    between atoms: C4_4  and  O6_6 
ROOT
HETATM    1  C1  UNL     1     -35.010   4.080   4.491  1.00 20.00     0.038 C 
HETATM    2  C2  UNL     1     -35.070   5.346   3.640  1.00 20.00     0.081 C 
HETATM    3  C3  UNL     1     -34.148   6.015   5.735  1.00 20.00     0.110 C 
HETATM    4  C4  UNL     1     -34.551   4.545   5.878  1.00 20.00     0.124 C 
HETATM    5  C5  UNL     1     -33.982   6.206   4.242  1.00 20.00     0.246 C 
HETATM    6  F7  UNL     1     -34.093   7.495   3.880  1.00 20.00    -0.206 F 
HETATM    7  F8  UNL     1     -32.766   5.766   3.847  1.00 20.00    -0.206 F 
ENDROOT
BRANCH   4   8
HETATM    8  O6  UNL     1     -35.616   4.417   6.808  1.00 20.00    -0.395 OA
HETATM    9  H16 UNL     1     -35.251   4.633   7.680  1.00 20.00     0.210 HD
ENDBRANCH   4   8
TORSDOF 1
ENDMDL
MODEL 5
REMARK VINA RESULT:      -4.4      1.963      2.650
REMARK  1 active torsions:
REMARK  status: ('A' for Active; 'I' for Inactive)
REMARK    1  A    between atoms: C4_4  and  O6_6 
ROOT
HETATM    1  C1  UNL     1     -34.248   4.700   5.827  1.00 20.00     0.038 C 
HETATM    2  C2  UNL     1     -35.458   4.586   4.904  1.00 20.00     0.081 C 
HETATM    3  C3  UNL     1     -34.421   6.662   4.359  1.00 20.00     0.110 C 
HETATM    4  C4  UNL     1     -33.672   6.098   5.570  1.00 20.00     0.124 C 
HETATM    5  C5  UNL     1     -35.063   5.447   3.726  1.00 20.00     0.246 C 
HETATM    6  F7  UNL     1     -36.116   5.772   2.957  1.00 20.00    -0.206 F 
HETATM    7  F8  UNL     1     -34.167   4.795   2.950  1.00 20.00    -0.206 F 
ENDROOT
BRANCH   4   8
HETATM    8  O6  UNL     1     -33.881   6.924   6.705  1.00 20.00    -0.395 OA
HETATM    9  H16 UNL     1     -34.139   7.797   6.369  1.00 20.00     0.210 HD
ENDBRANCH   4   8
TORSDOF 1
ENDMDL
MODEL 6
REMARK VINA RESULT:      -4.4      2.682      3.214
REMARK  1 active torsions:
REMARK  status: ('A' for Active; 'I' for Inactive)
REMARK    1  A    between atoms: C4_4  and  O6_6 
ROOT
HETATM    1  C1  UNL     1     -33.773   6.291   4.994  1.00 20.00     0.038 C 
HETATM    2  C2  UNL     1     -34.481   5.917   6.293  1.00 20.00     0.081 C 
HETATM    3  C3  UNL     1     -35.287   4.387   4.652  1.00 20.00     0.110 C 
HETATM    4  C4  UNL     1     -34.402   5.398   3.917  1.00 20.00     0.124 C 
HETATM    5  C5  UNL     1     -34.810   4.457   6.087  1.00 20.00     0.246 C 
HETATM    6  F7  UNL     1     -35.739   4.017   6.953  1.00 20.00    -0.206 F 
HETATM    7  F8  UNL     1     -33.700   3.700   6.247  1.00 20.00    -0.206 F 
ENDROOT
BRANCH   4   8
HETATM    8  O6  UNL     1     -35.186   6.185   3.033  1.00 20.00    -0.395 OA
HETATM    9  H16 UNL     1     -36.112   6.048   3.287  1.00 20.00     0.210 HD
ENDBRANCH   4   8
TORSDOF 1
ENDMDL
MODEL 7
REMARK VINA RESULT:      -4.2     11.713     12.482
REMARK  1 active torsions:
REMARK  status: ('A' for Active; 'I' for Inactive)
REMARK    1  A    between atoms: C4_4  and  O6_6 
ROOT
HETATM    1  C1  UNL     1     -35.107  14.752  -5.183  1.00 20.00     0.038 C 
HETATM    2  C2  UNL     1     -34.874  15.840  -4.139  1.00 20.00     0.081 C 
HETATM    3  C3  UNL     1     -33.588  13.965  -3.420  1.00 20.00     0.110 C 
HETATM    4  C4  UNL     1     -34.393  13.508  -4.641  1.00 20.00     0.124 C 
HETATM    5  C5  UNL     1     -33.525  15.470  -3.565  1.00 20.00     0.246 C 
HETATM    6  F7  UNL     1     -33.284  16.084  -2.394  1.00 20.00    -0.206 F 
HETATM    7  F8  UNL     1     -32.541  15.817  -4.427  1.00 20.00    -0.206 F 
ENDROOT
BRANCH   4   8
HETATM    8  O6  UNL     1     -35.348  12.530  -4.259  1.00 20.00    -0.395 OA
HETATM    9  H16 UNL     1     -36.023  12.990  -3.738  1.00 20.00     0.210 HD
ENDBRANCH   4   8
TORSDOF 1
ENDMDL
MODEL 8
REMARK VINA RESULT:      -4.0      2.567      3.069
REMARK  1 active torsions:
REMARK  status: ('A' for Active; 'I' for Inactive)
REMARK    1  A    between atoms: C4_4  and  O6_6 
ROOT
HETATM    1  C1  UNL     1     -33.089   6.395   4.880  1.00 20.00     0.038 C 
HETATM    2  C2  UNL     1     -34.595   6.317   5.111  1.00 20.00     0.081 C 
HETATM    3  C3  UNL     1     -34.240   5.553   2.880  1.00 20.00     0.110 C 
HETATM    4  C4  UNL     1     -32.885   6.039   3.402  1.00 20.00     0.124 C 
HETATM    5  C5  UNL     1     -35.028   5.246   4.135  1.00 20.00     0.246 C 
HETATM    6  F7  UNL     1     -36.354   5.261   3.918  1.00 20.00    -0.206 F 
HETATM    7  F8  UNL     1     -34.697   4.022   4.608  1.00 20.00    -0.206 F 
ENDROOT
BRANCH   4   8
HETATM    8  O6  UNL     1     -32.465   7.187   2.682  1.00 20.00    -0.395 OA
HETATM    9  H16 UNL     1     -31.496   7.163   2.660  1.00 20.00     0.210 HD
ENDBRANCH   4   8
TORSDOF 1
ENDMDL
MODEL 9
REMARK VINA RESULT:      -3.9      8.752      9.480
REMARK  1 active torsions:
REMARK  status: ('A' for Active; 'I' for Inactive)
REMARK    1  A    between atoms: C4_4  and  O6_6 
ROOT
HETATM    1  C1  UNL     1     -41.995   5.457  -2.182  1.00 20.00     0.038 C 
HETATM    2  C2  UNL     1     -40.902   5.122  -1.171  1.00 20.00     0.081 C 
HETATM    3  C3  UNL     1     -41.366   7.443  -0.880  1.00 20.00     0.110 C 
HETATM    4  C4  UNL     1     -42.185   6.976  -2.086  1.00 20.00     0.124 C 
HETATM    5  C5  UNL     1     -41.102   6.171  -0.102  1.00 20.00     0.246 C 
HETATM    6  F7  UNL     1     -40.035   6.284   0.707  1.00 20.00    -0.206 F 
HETATM    7  F8  UNL     1     -42.174   5.861   0.663  1.00 20.00    -0.206 F 
ENDROOT
BRANCH   4   8
HETATM    8  O6  UNL     1     -41.712   7.597  -3.272  1.00 20.00    -0.395 OA
HETATM    9  H16 UNL     1     -40.757   7.434  -3.308  1.00 20.00     0.210 HD
ENDBRANCH   4   8
TORSDOF 1
ENDMDL
