MODEL 1
REMARK VINA RESULT:      -5.8      0.000      0.000
REMARK  2 active torsions:
REMARK  status: ('A' for Active; 'I' for Inactive)
REMARK    1  A    between atoms: C6_6  and  C7_7 
REMARK    2  A    between atoms: C7_7  and  C8_8 
ROOT
HETATM    1  C1  UNL     1     -34.680   5.207   3.877  1.00 20.00     0.131 C 
HETATM    2  C2  UNL     1     -35.041   3.992   4.704  1.00 20.00     0.079 C 
HETATM    3  C3  UNL     1     -35.336   4.392   6.141  1.00 20.00     0.007 C 
HETATM    4  C4  UNL     1     -34.201   5.217   6.742  1.00 20.00     0.001 C 
HETATM    5  C5  UNL     1     -33.924   6.463   5.900  1.00 20.00     0.012 C 
HETATM    6  C6  UNL     1     -33.587   6.105   4.449  1.00 20.00     0.064 C 
HETATM    7  O9  UNL     1     -35.182   5.391   2.769  1.00 20.00    -0.298 OA
ENDROOT
BRANCH   6   8
HETATM    8  C7  UNL     1     -33.396   7.366   3.613  1.00 20.00     0.129 C 
BRANCH   8   9
HETATM    9  C8  UNL     1     -32.066   7.360   2.915  1.00 20.00     0.388 C 
HETATM   10  F10 UNL     1     -32.085   8.097   1.785  1.00 20.00    -0.171 F 
HETATM   11  F11 UNL     1     -31.745   6.092   2.571  1.00 20.00    -0.171 F 
HETATM   12  F12 UNL     1     -31.078   7.830   3.706  1.00 20.00    -0.171 F 
ENDBRANCH   8   9
ENDBRANCH   6   8
TORSDOF 2
ENDMDL
MODEL 2
REMARK VINA RESULT:      -5.0     11.576     13.008
REMARK  2 active torsions:
REMARK  status: ('A' for Active; 'I' for Inactive)
REMARK    1  A    between atoms: C6_6  and  C7_7 
REMARK    2  A    between atoms: C7_7  and  C8_8 
ROOT
HETATM    1  C1  UNL     1     -34.892  14.027  -4.972  1.00 20.00     0.131 C 
HETATM    2  C2  UNL     1     -35.299  14.112  -6.428  1.00 20.00     0.079 C 
HETATM    3  C3  UNL     1     -34.342  15.009  -7.199  1.00 20.00     0.007 C 
HETATM    4  C4  UNL     1     -34.187  16.373  -6.533  1.00 20.00     0.001 C 
HETATM    5  C5  UNL     1     -33.714  16.227  -5.087  1.00 20.00     0.012 C 
HETATM    6  C6  UNL     1     -34.668  15.359  -4.262  1.00 20.00     0.064 C 
HETATM    7  O9  UNL     1     -34.841  12.944  -4.391  1.00 20.00    -0.298 OA
ENDROOT
BRANCH   6   8
HETATM    8  C7  UNL     1     -34.131  15.162  -2.847  1.00 20.00     0.129 C 
BRANCH   8   9
HETATM    9  C8  UNL     1     -34.432  16.351  -1.981  1.00 20.00     0.388 C 
HETATM   10  F10 UNL     1     -35.421  17.113  -2.494  1.00 20.00    -0.171 F 
HETATM   11  F11 UNL     1     -33.329  17.126  -1.883  1.00 20.00    -0.171 F 
HETATM   12  F12 UNL     1     -34.788  15.989  -0.730  1.00 20.00    -0.171 F 
ENDBRANCH   8   9
ENDBRANCH   6   8
TORSDOF 2
ENDMDL
MODEL 3
REMARK VINA RESULT:      -5.0     11.410     12.200
REMARK  2 active torsions:
REMARK  status: ('A' for Active; 'I' for Inactive)
REMARK    1  A    between atoms: C6_6  and  C7_7 
REMARK    2  A    between atoms: C7_7  and  C8_8 
ROOT
HETATM    1  C1  UNL     1     -33.429  14.619  -3.530  1.00 20.00     0.131 C 
HETATM    2  C2  UNL     1     -34.003  13.337  -4.094  1.00 20.00     0.079 C 
HETATM    3  C3  UNL     1     -35.302  13.614  -4.836  1.00 20.00     0.007 C 
HETATM    4  C4  UNL     1     -36.291  14.391  -3.972  1.00 20.00     0.001 C 
HETATM    5  C5  UNL     1     -35.679  15.704  -3.484  1.00 20.00     0.012 C 
HETATM    6  C6  UNL     1     -34.384  15.471  -2.699  1.00 20.00     0.064 C 
HETATM    7  O9  UNL     1     -32.238  14.894  -3.666  1.00 20.00    -0.298 OA
ENDROOT
BRANCH   6   8
HETATM    8  C7  UNL     1     -33.752  16.799  -2.295  1.00 20.00     0.129 C 
BRANCH   8   9
HETATM    9  C8  UNL     1     -34.268  17.264  -0.963  1.00 20.00     0.388 C 
HETATM   10  F10 UNL     1     -35.200  18.233  -1.093  1.00 20.00    -0.171 F 
HETATM   11  F11 UNL     1     -33.248  17.773  -0.238  1.00 20.00    -0.171 F 
HETATM   12  F12 UNL     1     -34.811  16.254  -0.251  1.00 20.00    -0.171 F 
ENDBRANCH   8   9
ENDBRANCH   6   8
TORSDOF 2
ENDMDL
MODEL 4
REMARK VINA RESULT:      -4.8     11.574     12.398
REMARK  2 active torsions:
REMARK  status: ('A' for Active; 'I' for Inactive)
REMARK    1  A    between atoms: C6_6  and  C7_7 
REMARK    2  A    between atoms: C7_7  and  C8_8 
ROOT
HETATM    1  C1  UNL     1     -35.515  16.866  -3.277  1.00 20.00     0.131 C 
HETATM    2  C2  UNL     1     -36.596  17.521  -2.444  1.00 20.00     0.079 C 
HETATM    3  C3  UNL     1     -35.987  18.255  -1.259  1.00 20.00     0.007 C 
HETATM    4  C4  UNL     1     -35.064  17.350  -0.448  1.00 20.00     0.001 C 
HETATM    5  C5  UNL     1     -33.956  16.769  -1.327  1.00 20.00     0.012 C 
HETATM    6  C6  UNL     1     -34.524  15.989  -2.517  1.00 20.00     0.064 C 
HETATM    7  O9  UNL     1     -35.508  16.972  -4.503  1.00 20.00    -0.298 OA
ENDROOT
BRANCH   6   8
HETATM    8  C7  UNL     1     -33.401  15.490  -3.421  1.00 20.00     0.129 C 
BRANCH   8   9
HETATM    9  C8  UNL     1     -33.655  14.081  -3.876  1.00 20.00     0.388 C 
HETATM   10  F10 UNL     1     -33.924  14.018  -5.197  1.00 20.00    -0.171 F 
HETATM   11  F11 UNL     1     -34.724  13.582  -3.217  1.00 20.00    -0.171 F 
HETATM   12  F12 UNL     1     -32.605  13.271  -3.624  1.00 20.00    -0.171 F 
ENDBRANCH   8   9
ENDBRANCH   6   8
TORSDOF 2
ENDMDL
MODEL 5
REMARK VINA RESULT:      -4.7      1.443      2.332
REMARK  2 active torsions:
REMARK  status: ('A' for Active; 'I' for Inactive)
REMARK    1  A    between atoms: C6_6  and  C7_7 
REMARK    2  A    between atoms: C7_7  and  C8_8 
ROOT
HETATM    1  C1  UNL     1     -33.967   6.389   5.788  1.00 20.00     0.131 C 
HETATM    2  C2  UNL     1     -34.716   5.314   6.547  1.00 20.00     0.079 C 
HETATM    3  C3  UNL     1     -34.726   4.014   5.758  1.00 20.00     0.007 C 
HETATM    4  C4  UNL     1     -35.240   4.220   4.336  1.00 20.00     0.001 C 
HETATM    5  C5  UNL     1     -34.408   5.269   3.599  1.00 20.00     0.012 C 
HETATM    6  C6  UNL     1     -34.397   6.610   4.341  1.00 20.00     0.064 C 
HETATM    7  O9  UNL     1     -33.131   7.095   6.351  1.00 20.00    -0.298 OA
ENDROOT
BRANCH   6   8
HETATM    8  C7  UNL     1     -33.495   7.613   3.630  1.00 20.00     0.129 C 
BRANCH   8   9
HETATM    9  C8  UNL     1     -32.183   6.990   3.248  1.00 20.00     0.388 C 
HETATM   10  F10 UNL     1     -32.139   5.676   3.557  1.00 20.00    -0.171 F 
HETATM   11  F11 UNL     1     -31.182   7.601   3.921  1.00 20.00    -0.171 F 
HETATM   12  F12 UNL     1     -31.926   7.119   1.930  1.00 20.00    -0.171 F 
ENDBRANCH   8   9
ENDBRANCH   6   8
TORSDOF 2
ENDMDL
MODEL 6
REMARK VINA RESULT:      -4.7     10.153     11.283
REMARK  2 active torsions:
REMARK  status: ('A' for Active; 'I' for Inactive)
REMARK    1  A    between atoms: C6_6  and  C7_7 
REMARK    2  A    between atoms: C7_7  and  C8_8 
ROOT
HETATM    1  C1  UNL     1     -41.488   5.052  -0.606  1.00 20.00     0.131 C 
HETATM    2  C2  UNL     1     -40.817   6.399  -0.448  1.00 20.00     0.079 C 
HETATM    3  C3  UNL     1     -41.621   7.482  -1.150  1.00 20.00     0.007 C 
HETATM    4  C4  UNL     1     -41.912   7.117  -2.603  1.00 20.00     0.001 C 
HETATM    5  C5  UNL     1     -42.646   5.780  -2.696  1.00 20.00     0.012 C 
HETATM    6  C6  UNL     1     -41.854   4.649  -2.031  1.00 20.00     0.064 C 
HETATM    7  O9  UNL     1     -41.636   4.301   0.358  1.00 20.00    -0.298 OA
ENDROOT
BRANCH   6   8
HETATM    8  C7  UNL     1     -42.644   3.345  -2.066  1.00 20.00     0.129 C 
BRANCH   8   9
HETATM    9  C8  UNL     1     -42.171   2.451  -3.176  1.00 20.00     0.388 C 
HETATM   10  F10 UNL     1     -42.357   1.146  -2.888  1.00 20.00    -0.171 F 
HETATM   11  F11 UNL     1     -40.847   2.641  -3.372  1.00 20.00    -0.171 F 
HETATM   12  F12 UNL     1     -42.798   2.717  -4.341  1.00 20.00    -0.171 F 
ENDBRANCH   8   9
ENDBRANCH   6   8
TORSDOF 2
ENDMDL
MODEL 7
REMARK VINA RESULT:      -4.7     11.731     12.939
REMARK  2 active torsions:
REMARK  status: ('A' for Active; 'I' for Inactive)
REMARK    1  A    between atoms: C6_6  and  C7_7 
REMARK    2  A    between atoms: C7_7  and  C8_8 
ROOT
HETATM    1  C1  UNL     1     -33.665  16.991  -3.770  1.00 20.00     0.131 C 
HETATM    2  C2  UNL     1     -33.734  18.458  -3.405  1.00 20.00     0.079 C 
HETATM    3  C3  UNL     1     -33.606  18.641  -1.901  1.00 20.00     0.007 C 
HETATM    4  C4  UNL     1     -34.612  17.781  -1.140  1.00 20.00     0.001 C 
HETATM    5  C5  UNL     1     -34.453  16.304  -1.501  1.00 20.00     0.012 C 
HETATM    6  C6  UNL     1     -34.608  16.067  -3.007  1.00 20.00     0.064 C 
HETATM    7  O9  UNL     1     -32.951  16.601  -4.694  1.00 20.00    -0.298 OA
ENDROOT
BRANCH   6   8
HETATM    8  C7  UNL     1     -34.364  14.600  -3.349  1.00 20.00     0.129 C 
BRANCH   8   9
HETATM    9  C8  UNL     1     -35.485  14.042  -4.178  1.00 20.00     0.388 C 
HETATM   10  F10 UNL     1     -36.693  14.300  -3.634  1.00 20.00    -0.171 F 
HETATM   11  F11 UNL     1     -35.354  12.699  -4.265  1.00 20.00    -0.171 F 
HETATM   12  F12 UNL     1     -35.478  14.534  -5.435  1.00 20.00    -0.171 F 
ENDBRANCH   8   9
ENDBRANCH   6   8
TORSDOF 2
ENDMDL
MODEL 8
REMARK VINA RESULT:      -4.6     11.364     13.097
REMARK  2 active torsions:
REMARK  status: ('A' for Active; 'I' for Inactive)
REMARK    1  A    between atoms: C6_6  and  C7_7 
REMARK    2  A    between atoms: C7_7  and  C8_8 
ROOT
HETATM    1  C1  UNL     1     -36.812  14.680  -4.916  1.00 20.00     0.131 C 
HETATM    2  C2  UNL     1     -37.777  15.609  -5.621  1.00 20.00     0.079 C 
HETATM    3  C3  UNL     1     -37.787  15.334  -7.117  1.00 20.00     0.007 C 
HETATM    4  C4  UNL     1     -36.379  15.363  -7.706  1.00 20.00     0.001 C 
HETATM    5  C5  UNL     1     -35.468  14.360  -6.997  1.00 20.00     0.012 C 
HETATM    6  C6  UNL     1     -35.400  14.621  -5.489  1.00 20.00     0.064 C 
HETATM    7  O9  UNL     1     -37.140  14.087  -3.889  1.00 20.00    -0.298 OA
ENDROOT
BRANCH   6   8
HETATM    8  C7  UNL     1     -34.551  13.559  -4.796  1.00 20.00     0.129 C 
BRANCH   8   9
HETATM    9  C8  UNL     1     -33.573  14.182  -3.843  1.00 20.00     0.388 C 
HETATM   10  F10 UNL     1     -32.600  13.319  -3.482  1.00 20.00    -0.171 F 
HETATM   11  F11 UNL     1     -34.220  14.561  -2.718  1.00 20.00    -0.171 F 
HETATM   12  F12 UNL     1     -32.986  15.280  -4.366  1.00 20.00    -0.171 F 
ENDBRANCH   8   9
ENDBRANCH   6   8
TORSDOF 2
ENDMDL
MODEL 9
REMARK VINA RESULT:      -4.6     11.915     12.968
REMARK  2 active torsions:
REMARK  status: ('A' for Active; 'I' for Inactive)
REMARK    1  A    between atoms: C6_6  and  C7_7 
REMARK    2  A    between atoms: C7_7  and  C8_8 
ROOT
HETATM    1  C1  UNL     1     -34.873  16.251  -4.919  1.00 20.00     0.131 C 
HETATM    2  C2  UNL     1     -34.282  15.635  -6.169  1.00 20.00     0.079 C 
HETATM    3  C3  UNL     1     -34.838  14.236  -6.388  1.00 20.00     0.007 C 
HETATM    4  C4  UNL     1     -34.672  13.363  -5.147  1.00 20.00     0.001 C 
HETATM    5  C5  UNL     1     -35.342  14.004  -3.932  1.00 20.00     0.012 C 
HETATM    6  C6  UNL     1     -34.788  15.405  -3.652  1.00 20.00     0.064 C 
HETATM    7  O9  UNL     1     -35.305  17.403  -4.924  1.00 20.00    -0.298 OA
ENDROOT
BRANCH   6   8
HETATM    8  C7  UNL     1     -35.529  16.055  -2.487  1.00 20.00     0.129 C 
BRANCH   8   9
HETATM    9  C8  UNL     1     -34.573  16.716  -1.536  1.00 20.00     0.388 C 
HETATM   10  F10 UNL     1     -34.773  16.319  -0.261  1.00 20.00    -0.171 F 
HETATM   11  F11 UNL     1     -34.750  18.055  -1.579  1.00 20.00    -0.171 F 
HETATM   12  F12 UNL     1     -33.286  16.464  -1.856  1.00 20.00    -0.171 F 
ENDBRANCH   8   9
ENDBRANCH   6   8
TORSDOF 2
ENDMDL
