MODEL 1
REMARK VINA RESULT:      -5.4      0.000      0.000
REMARK  2 active torsions:
REMARK  status: ('A' for Active; 'I' for Inactive)
REMARK    1  A    between atoms: C1_1  and  C3_3 
REMARK    2  A    between atoms: C2_2  and  C4_4 
ROOT
HETATM    1  C1  UNL     1     -33.892   6.095   5.204  1.00 20.00     0.223 C 
HETATM    2  C2  UNL     1     -32.986   6.716   4.431  1.00 20.00     0.223 C 
HETATM    3  F5  UNL     1     -33.979   6.455   6.508  1.00 20.00    -0.200 F 
HETATM    4  F6  UNL     1     -32.180   7.643   5.001  1.00 20.00    -0.200 F 
ENDROOT
BRANCH   1   5
HETATM    5  C3  UNL     1     -34.837   5.039   4.733  1.00 20.00     0.377 C 
HETATM    6  F7  UNL     1     -34.281   4.201   3.817  1.00 20.00    -0.180 F 
HETATM    7  F8  UNL     1     -35.910   5.607   4.117  1.00 20.00    -0.180 F 
HETATM    8 CL11 UNL     1     -35.409   4.080   6.113  1.00 20.00    -0.040 Cl
ENDBRANCH   1   5
BRANCH   2   9
HETATM    9  C4  UNL     1     -32.781   6.448   2.976  1.00 20.00     0.377 C 
HETATM   10  F9  UNL     1     -31.945   5.388   2.804  1.00 20.00    -0.180 F 
HETATM   11  F10 UNL     1     -33.934   6.122   2.330  1.00 20.00    -0.180 F 
HETATM   12 CL12 UNL     1     -32.069   7.873   2.192  1.00 20.00    -0.040 Cl
ENDBRANCH   2   9
TORSDOF 2
ENDMDL
MODEL 2
REMARK VINA RESULT:      -5.4      0.036      3.707
REMARK  2 active torsions:
REMARK  status: ('A' for Active; 'I' for Inactive)
REMARK    1  A    between atoms: C1_1  and  C3_3 
REMARK    2  A    between atoms: C2_2  and  C4_4 
ROOT
HETATM    1  C1  UNL     1     -32.992   6.708   4.469  1.00 20.00     0.223 C 
HETATM    2  C2  UNL     1     -33.898   6.079   5.235  1.00 20.00     0.223 C 
HETATM    3  F5  UNL     1     -32.190   7.633   5.049  1.00 20.00    -0.200 F 
HETATM    4  F6  UNL     1     -33.989   6.427   6.541  1.00 20.00    -0.200 F 
ENDROOT
BRANCH   1   5
HETATM    5  C3  UNL     1     -32.782   6.452   3.012  1.00 20.00     0.377 C 
HETATM    6  F7  UNL     1     -33.932   6.132   2.360  1.00 20.00    -0.180 F 
HETATM    7  F8  UNL     1     -31.945   5.395   2.835  1.00 20.00    -0.180 F 
HETATM    8 CL11 UNL     1     -32.067   7.885   2.244  1.00 20.00    -0.040 Cl
ENDBRANCH   1   5
BRANCH   2   9
HETATM    9  C4  UNL     1     -34.839   5.025   4.752  1.00 20.00     0.377 C 
HETATM   10  F9  UNL     1     -35.910   5.594   4.137  1.00 20.00    -0.180 F 
HETATM   11  F10 UNL     1     -34.277   4.195   3.832  1.00 20.00    -0.180 F 
HETATM   12 CL12 UNL     1     -35.414   4.053   6.122  1.00 20.00    -0.040 Cl
ENDBRANCH   2   9
TORSDOF 2
ENDMDL
MODEL 3
REMARK VINA RESULT:      -5.2      1.495      4.050
REMARK  2 active torsions:
REMARK  status: ('A' for Active; 'I' for Inactive)
REMARK    1  A    between atoms: C1_1  and  C3_3 
REMARK    2  A    between atoms: C2_2  and  C4_4 
ROOT
HETATM    1  C1  UNL     1     -34.099   5.813   3.396  1.00 20.00     0.223 C 
HETATM    2  C2  UNL     1     -34.885   5.288   4.350  1.00 20.00     0.223 C 
HETATM    3  F5  UNL     1     -34.603   5.940   2.145  1.00 20.00    -0.200 F 
HETATM    4  F6  UNL     1     -36.129   4.878   4.005  1.00 20.00    -0.200 F 
ENDROOT
BRANCH   1   5
HETATM    5  C3  UNL     1     -32.700   6.293   3.610  1.00 20.00     0.377 C 
HETATM    6  F7  UNL     1     -31.787   5.285   3.591  1.00 20.00    -0.180 F 
HETATM    7  F8  UNL     1     -32.585   6.879   4.833  1.00 20.00    -0.180 F 
HETATM    8 CL11 UNL     1     -32.271   7.480   2.362  1.00 20.00    -0.040 Cl
ENDBRANCH   1   5
BRANCH   2   9
HETATM    9  C4  UNL     1     -34.485   5.101   5.777  1.00 20.00     0.377 C 
HETATM   10  F9  UNL     1     -35.474   4.468   6.465  1.00 20.00    -0.180 F 
HETATM   11  F10 UNL     1     -33.376   4.326   5.918  1.00 20.00    -0.180 F 
HETATM   12 CL12 UNL     1     -34.181   6.679   6.532  1.00 20.00    -0.040 Cl
ENDBRANCH   2   9
TORSDOF 2
ENDMDL
MODEL 4
REMARK VINA RESULT:      -5.2      1.493      2.448
REMARK  2 active torsions:
REMARK  status: ('A' for Active; 'I' for Inactive)
REMARK    1  A    between atoms: C1_1  and  C3_3 
REMARK    2  A    between atoms: C2_2  and  C4_4 
ROOT
HETATM    1  C1  UNL     1     -34.885   5.293   4.346  1.00 20.00     0.223 C 
HETATM    2  C2  UNL     1     -34.100   5.818   3.392  1.00 20.00     0.223 C 
HETATM    3  F5  UNL     1     -36.131   4.884   4.001  1.00 20.00    -0.200 F 
HETATM    4  F6  UNL     1     -34.604   5.946   2.141  1.00 20.00    -0.200 F 
ENDROOT
BRANCH   1   5
HETATM    5  C3  UNL     1     -34.485   5.104   5.773  1.00 20.00     0.377 C 
HETATM    6  F7  UNL     1     -33.375   4.330   5.912  1.00 20.00    -0.180 F 
HETATM    7  F8  UNL     1     -35.473   4.468   6.459  1.00 20.00    -0.180 F 
HETATM    8 CL11 UNL     1     -34.183   6.681   6.530  1.00 20.00    -0.040 Cl
ENDBRANCH   1   5
BRANCH   2   9
HETATM    9  C4  UNL     1     -32.701   6.295   3.606  1.00 20.00     0.377 C 
HETATM   10  F9  UNL     1     -32.585   6.882   4.828  1.00 20.00    -0.180 F 
HETATM   11  F10 UNL     1     -31.789   5.286   3.588  1.00 20.00    -0.180 F 
HETATM   12 CL12 UNL     1     -32.268   7.481   2.357  1.00 20.00    -0.040 Cl
ENDBRANCH   2   9
TORSDOF 2
ENDMDL
MODEL 5
REMARK VINA RESULT:      -4.7     11.653     13.031
REMARK  2 active torsions:
REMARK  status: ('A' for Active; 'I' for Inactive)
REMARK    1  A    between atoms: C1_1  and  C3_3 
REMARK    2  A    between atoms: C2_2  and  C4_4 
ROOT
HETATM    1  C1  UNL     1     -34.071  16.331  -3.880  1.00 20.00     0.223 C 
HETATM    2  C2  UNL     1     -34.010  15.996  -5.179  1.00 20.00     0.223 C 
HETATM    3  F5  UNL     1     -33.444  17.464  -3.478  1.00 20.00    -0.200 F 
HETATM    4  F6  UNL     1     -33.295  16.786  -6.015  1.00 20.00    -0.200 F 
ENDROOT
BRANCH   1   5
HETATM    5  C3  UNL     1     -34.799  15.556  -2.831  1.00 20.00     0.377 C 
HETATM    6  F7  UNL     1     -34.411  14.254  -2.770  1.00 20.00    -0.180 F 
HETATM    7  F8  UNL     1     -36.133  15.537  -3.099  1.00 20.00    -0.180 F 
HETATM    8 CL11 UNL     1     -34.544  16.304  -1.241  1.00 20.00    -0.040 Cl
ENDBRANCH   1   5
BRANCH   2   9
HETATM    9  C4  UNL     1     -34.662  14.794  -5.780  1.00 20.00     0.377 C 
HETATM   10  F9  UNL     1     -34.087  13.657  -5.302  1.00 20.00    -0.180 F 
HETATM   11  F10 UNL     1     -35.984  14.701  -5.475  1.00 20.00    -0.180 F 
HETATM   12 CL12 UNL     1     -34.482  14.827  -7.546  1.00 20.00    -0.040 Cl
ENDBRANCH   2   9
TORSDOF 2
ENDMDL
MODEL 6
REMARK VINA RESULT:      -4.7     11.608     13.263
REMARK  2 active torsions:
REMARK  status: ('A' for Active; 'I' for Inactive)
REMARK    1  A    between atoms: C1_1  and  C3_3 
REMARK    2  A    between atoms: C2_2  and  C4_4 
ROOT
HETATM    1  C1  UNL     1     -34.022  15.977  -5.149  1.00 20.00     0.223 C 
HETATM    2  C2  UNL     1     -34.089  16.316  -3.852  1.00 20.00     0.223 C 
HETATM    3  F5  UNL     1     -33.337  16.788  -5.991  1.00 20.00    -0.200 F 
HETATM    4  F6  UNL     1     -33.500  17.471  -3.457  1.00 20.00    -0.200 F 
ENDROOT
BRANCH   1   5
HETATM    5  C3  UNL     1     -34.633  14.751  -5.744  1.00 20.00     0.377 C 
HETATM    6  F7  UNL     1     -35.959  14.632  -5.464  1.00 20.00    -0.180 F 
HETATM    7  F8  UNL     1     -34.043  13.635  -5.237  1.00 20.00    -0.180 F 
HETATM    8 CL11 UNL     1     -34.419  14.763  -7.507  1.00 20.00    -0.040 Cl
ENDBRANCH   1   5
BRANCH   2   9
HETATM    9  C4  UNL     1     -34.787  15.521  -2.798  1.00 20.00     0.377 C 
HETATM   10  F9  UNL     1     -36.124  15.477  -3.047  1.00 20.00    -0.180 F 
HETATM   11  F10 UNL     1     -34.373  14.226  -2.751  1.00 20.00    -0.180 F 
HETATM   12 CL12 UNL     1     -34.524  16.263  -1.206  1.00 20.00    -0.040 Cl
ENDBRANCH   2   9
TORSDOF 2
ENDMDL
MODEL 7
REMARK VINA RESULT:      -4.7      9.355     10.639
REMARK  2 active torsions:
REMARK  status: ('A' for Active; 'I' for Inactive)
REMARK    1  A    between atoms: C1_1  and  C3_3 
REMARK    2  A    between atoms: C2_2  and  C4_4 
ROOT
HETATM    1  C1  UNL     1     -42.328   5.080  -2.635  1.00 20.00     0.223 C 
HETATM    2  C2  UNL     1     -41.725   5.812  -1.684  1.00 20.00     0.223 C 
HETATM    3  F5  UNL     1     -42.950   5.730  -3.648  1.00 20.00    -0.200 F 
HETATM    4  F6  UNL     1     -41.800   7.162  -1.766  1.00 20.00    -0.200 F 
ENDROOT
BRANCH   1   5
HETATM    5  C3  UNL     1     -42.353   3.587  -2.676  1.00 20.00     0.377 C 
HETATM    6  F7  UNL     1     -42.842   3.034  -1.533  1.00 20.00    -0.180 F 
HETATM    7  F8  UNL     1     -41.092   3.098  -2.819  1.00 20.00    -0.180 F 
HETATM    8 CL11 UNL     1     -43.341   3.037  -4.045  1.00 20.00    -0.040 Cl
ENDBRANCH   1   5
BRANCH   2   9
HETATM    9  C4  UNL     1     -40.983   5.248  -0.517  1.00 20.00     0.377 C 
HETATM   10  F9  UNL     1     -40.117   4.283  -0.929  1.00 20.00    -0.180 F 
HETATM   11  F10 UNL     1     -40.228   6.177   0.129  1.00 20.00    -0.180 F 
HETATM   12 CL12 UNL     1     -42.126   4.535   0.640  1.00 20.00    -0.040 Cl
ENDBRANCH   2   9
TORSDOF 2
ENDMDL
MODEL 8
REMARK VINA RESULT:      -4.7      9.345     10.625
REMARK  2 active torsions:
REMARK  status: ('A' for Active; 'I' for Inactive)
REMARK    1  A    between atoms: C1_1  and  C3_3 
REMARK    2  A    between atoms: C2_2  and  C4_4 
ROOT
HETATM    1  C1  UNL     1     -41.723   5.838  -1.677  1.00 20.00     0.223 C 
HETATM    2  C2  UNL     1     -42.321   5.103  -2.628  1.00 20.00     0.223 C 
HETATM    3  F5  UNL     1     -41.794   7.188  -1.767  1.00 20.00    -0.200 F 
HETATM    4  F6  UNL     1     -42.935   5.748  -3.649  1.00 20.00    -0.200 F 
ENDROOT
BRANCH   1   5
HETATM    5  C3  UNL     1     -40.990   5.279  -0.501  1.00 20.00     0.377 C 
HETATM    6  F7  UNL     1     -40.235   6.210   0.142  1.00 20.00    -0.180 F 
HETATM    7  F8  UNL     1     -40.126   4.308  -0.902  1.00 20.00    -0.180 F 
HETATM    8 CL11 UNL     1     -42.144   4.580   0.653  1.00 20.00    -0.040 Cl
ENDBRANCH   1   5
BRANCH   2   9
HETATM    9  C4  UNL     1     -42.349   3.610  -2.661  1.00 20.00     0.377 C 
HETATM   10  F9  UNL     1     -41.088   3.117  -2.798  1.00 20.00    -0.180 F 
HETATM   11  F10 UNL     1     -42.841   3.065  -1.516  1.00 20.00    -0.180 F 
HETATM   12 CL12 UNL     1     -43.334   3.053  -4.029  1.00 20.00    -0.040 Cl
ENDBRANCH   2   9
TORSDOF 2
ENDMDL
MODEL 9
REMARK VINA RESULT:      -4.7     11.668     12.601
REMARK  2 active torsions:
REMARK  status: ('A' for Active; 'I' for Inactive)
REMARK    1  A    between atoms: C1_1  and  C3_3 
REMARK    2  A    between atoms: C2_2  and  C4_4 
ROOT
HETATM    1  C1  UNL     1     -33.935  14.101  -4.003  1.00 20.00     0.223 C 
HETATM    2  C2  UNL     1     -35.274  14.161  -3.913  1.00 20.00     0.223 C 
HETATM    3  F5  UNL     1     -33.371  12.945  -4.428  1.00 20.00    -0.200 F 
HETATM    4  F6  UNL     1     -35.990  13.052  -4.215  1.00 20.00    -0.200 F 
ENDROOT
BRANCH   1   5
HETATM    5  C3  UNL     1     -33.006  15.228  -3.687  1.00 20.00     0.377 C 
HETATM    6  F7  UNL     1     -31.728  14.815  -3.475  1.00 20.00    -0.180 F 
HETATM    7  F8  UNL     1     -33.393  15.851  -2.541  1.00 20.00    -0.180 F 
HETATM    8 CL11 UNL     1     -33.014  16.408  -5.013  1.00 20.00    -0.040 Cl
ENDBRANCH   1   5
BRANCH   2   9
HETATM    9  C4  UNL     1     -36.046  15.365  -3.481  1.00 20.00     0.377 C 
HETATM   10  F9  UNL     1     -35.731  15.692  -2.198  1.00 20.00    -0.180 F 
HETATM   11  F10 UNL     1     -35.767  16.468  -4.227  1.00 20.00    -0.180 F 
HETATM   12 CL12 UNL     1     -37.787  15.034  -3.577  1.00 20.00    -0.040 Cl
ENDBRANCH   2   9
TORSDOF 2
ENDMDL
