MODEL 1
REMARK VINA RESULT:      -4.3      0.000      0.000
REMARK  1 active torsions:
REMARK  status: ('A' for Active; 'I' for Inactive)
REMARK    1  A    between atoms: C4_4  and  C6_6 
ROOT
HETATM    1  C1  UNL     1     -34.685  15.565  -5.192  1.00 20.00     0.039 A 
HETATM    2  C2  UNL     1     -34.475  14.096  -3.332  1.00 20.00     0.129 A 
HETATM    3  C3  UNL     1     -34.770  13.200  -5.427  1.00 20.00     0.140 A 
HETATM    4  C4  UNL     1     -34.508  15.392  -3.823  1.00 20.00    -0.000 A 
HETATM    5  C5  UNL     1     -34.819  14.453  -6.015  1.00 20.00     0.052 A 
HETATM    6  N8  UNL     1     -34.601  12.992  -4.101  1.00 20.00    -0.271 NA
HETATM    7 CL10 UNL     1     -35.037  14.626  -7.708  1.00 20.00    -0.083 Cl
ENDROOT
BRANCH   4   8
HETATM    8  C6  UNL     1     -34.365  16.533  -2.936  1.00 20.00     0.017 C 
HETATM    9  C7  UNL     1     -34.603  16.335  -1.437  1.00 20.00     0.062 C 
HETATM   10  S9  UNL     1     -33.893  18.083  -3.453  1.00 20.00    -0.084 SA
ENDBRANCH   4   8
TORSDOF 1
ENDMDL
MODEL 2
REMARK VINA RESULT:      -4.1      3.859      5.040
REMARK  1 active torsions:
REMARK  status: ('A' for Active; 'I' for Inactive)
REMARK    1  A    between atoms: C4_4  and  C6_6 
ROOT
HETATM    1  C1  UNL     1     -34.688  16.168  -1.460  1.00 20.00     0.039 A 
HETATM    2  C2  UNL     1     -33.798  17.178  -3.422  1.00 20.00     0.129 A 
HETATM    3  C3  UNL     1     -33.917  18.418  -1.492  1.00 20.00     0.140 A 
HETATM    4  C4  UNL     1     -34.347  16.064  -2.804  1.00 20.00    -0.000 A 
HETATM    5  C5  UNL     1     -34.473  17.364  -0.785  1.00 20.00     0.052 A 
HETATM    6  N8  UNL     1     -33.574  18.355  -2.798  1.00 20.00    -0.271 NA
HETATM    7 CL10 UNL     1     -34.880  17.529   0.874  1.00 20.00    -0.083 Cl
ENDROOT
BRANCH   4   8
HETATM    8  C6  UNL     1     -34.559  14.830  -3.539  1.00 20.00     0.017 C 
HETATM    9  C7  UNL     1     -33.381  13.872  -3.725  1.00 20.00     0.062 C 
HETATM   10  S9  UNL     1     -36.064  14.348  -4.169  1.00 20.00    -0.084 SA
ENDBRANCH   4   8
TORSDOF 1
ENDMDL
MODEL 3
REMARK VINA RESULT:      -4.0      3.392      4.509
REMARK  1 active torsions:
REMARK  status: ('A' for Active; 'I' for Inactive)
REMARK    1  A    between atoms: C4_4  and  C6_6 
ROOT
HETATM    1  C1  UNL     1     -34.489  15.674  -3.050  1.00 20.00     0.039 A 
HETATM    2  C2  UNL     1     -33.751  17.025  -4.864  1.00 20.00     0.129 A 
HETATM    3  C3  UNL     1     -33.826  17.939  -2.758  1.00 20.00     0.140 A 
HETATM    4  C4  UNL     1     -34.214  15.801  -4.408  1.00 20.00    -0.000 A 
HETATM    5  C5  UNL     1     -34.295  16.759  -2.204  1.00 20.00     0.052 A 
HETATM    6  N8  UNL     1     -33.549  18.101  -4.072  1.00 20.00    -0.271 NA
HETATM    7 CL10 UNL     1     -34.621  16.640  -0.524  1.00 20.00    -0.083 Cl
ENDROOT
BRANCH   4   8
HETATM    8  C6  UNL     1     -34.407  14.686  -5.319  1.00 20.00     0.017 C 
HETATM    9  C7  UNL     1     -34.456  13.268  -4.748  1.00 20.00     0.062 C 
HETATM   10  S9  UNL     1     -34.638  14.861  -6.995  1.00 20.00    -0.084 SA
ENDBRANCH   4   8
TORSDOF 1
ENDMDL
MODEL 4
REMARK VINA RESULT:      -4.0      2.213      2.733
REMARK  1 active torsions:
REMARK  status: ('A' for Active; 'I' for Inactive)
REMARK    1  A    between atoms: C4_4  and  C6_6 
ROOT
HETATM    1  C1  UNL     1     -34.441  15.523  -2.809  1.00 20.00     0.039 A 
HETATM    2  C2  UNL     1     -33.583  17.440  -3.927  1.00 20.00     0.129 A 
HETATM    3  C3  UNL     1     -33.985  15.533  -5.143  1.00 20.00     0.140 A 
HETATM    4  C4  UNL     1     -34.012  16.845  -2.751  1.00 20.00    -0.000 A 
HETATM    5  C5  UNL     1     -34.430  14.848  -4.025  1.00 20.00     0.052 A 
HETATM    6  N8  UNL     1     -33.559  16.816  -5.125  1.00 20.00    -0.271 NA
HETATM    7 CL10 UNL     1     -34.954  13.219  -4.136  1.00 20.00    -0.083 Cl
ENDROOT
BRANCH   4   8
HETATM    8  C6  UNL     1     -34.011  17.578  -1.497  1.00 20.00     0.017 C 
HETATM    9  C7  UNL     1     -34.714  16.965  -0.285  1.00 20.00     0.062 C 
HETATM   10  S9  UNL     1     -33.224  19.070  -1.272  1.00 20.00    -0.084 SA
ENDBRANCH   4   8
TORSDOF 1
ENDMDL
MODEL 5
REMARK VINA RESULT:      -3.9      5.843      7.510
REMARK  1 active torsions:
REMARK  status: ('A' for Active; 'I' for Inactive)
REMARK    1  A    between atoms: C4_4  and  C6_6 
ROOT
HETATM    1  C1  UNL     1     -33.755  18.413   1.709  1.00 20.00     0.039 A 
HETATM    2  C2  UNL     1     -32.555  18.651  -0.332  1.00 20.00     0.129 A 
HETATM    3  C3  UNL     1     -31.535  19.263   1.634  1.00 20.00     0.140 A 
HETATM    4  C4  UNL     1     -33.716  18.273   0.326  1.00 20.00    -0.000 A 
HETATM    5  C5  UNL     1     -32.648  18.916   2.382  1.00 20.00     0.052 A 
HETATM    6  N8  UNL     1     -31.460  19.143   0.289  1.00 20.00    -0.271 NA
HETATM    7 CL10 UNL     1     -32.658  19.101   4.088  1.00 20.00    -0.083 Cl
ENDROOT
BRANCH   4   8
HETATM    8  C6  UNL     1     -34.855  17.751  -0.408  1.00 20.00     0.017 C 
HETATM    9  C7  UNL     1     -34.691  16.448  -1.193  1.00 20.00     0.062 C 
HETATM   10  S9  UNL     1     -36.395  18.473  -0.408  1.00 20.00    -0.084 SA
ENDBRANCH   4   8
TORSDOF 1
ENDMDL
MODEL 6
REMARK VINA RESULT:      -3.9      2.915      3.914
REMARK  1 active torsions:
REMARK  status: ('A' for Active; 'I' for Inactive)
REMARK    1  A    between atoms: C4_4  and  C6_6 
ROOT
HETATM    1  C1  UNL     1     -35.085  15.689  -4.575  1.00 20.00     0.039 A 
HETATM    2  C2  UNL     1     -34.904  13.597  -5.694  1.00 20.00     0.129 A 
HETATM    3  C3  UNL     1     -34.355  13.715  -3.466  1.00 20.00     0.140 A 
HETATM    4  C4  UNL     1     -35.221  14.945  -5.743  1.00 20.00    -0.000 A 
HETATM    5  C5  UNL     1     -34.644  15.069  -3.412  1.00 20.00     0.052 A 
HETATM    6  N8  UNL     1     -34.474  12.961  -4.582  1.00 20.00    -0.271 NA
HETATM    7 CL10 UNL     1     -34.465  15.953  -1.952  1.00 20.00    -0.083 Cl
ENDROOT
BRANCH   4   8
HETATM    8  C6  UNL     1     -35.678  15.562  -6.976  1.00 20.00     0.017 C 
HETATM    9  C7  UNL     1     -34.804  16.632  -7.633  1.00 20.00     0.062 C 
HETATM   10  S9  UNL     1     -37.117  15.131  -7.774  1.00 20.00    -0.084 SA
ENDBRANCH   4   8
TORSDOF 1
ENDMDL
MODEL 7
REMARK VINA RESULT:      -3.9      4.115      5.291
REMARK  1 active torsions:
REMARK  status: ('A' for Active; 'I' for Inactive)
REMARK    1  A    between atoms: C4_4  and  C6_6 
ROOT
HETATM    1  C1  UNL     1     -34.723  16.521  -1.034  1.00 20.00     0.039 A 
HETATM    2  C2  UNL     1     -33.817  17.431  -3.037  1.00 20.00     0.129 A 
HETATM    3  C3  UNL     1     -33.626  18.630  -1.087  1.00 20.00     0.140 A 
HETATM    4  C4  UNL     1     -34.487  16.398  -2.399  1.00 20.00    -0.000 A 
HETATM    5  C5  UNL     1     -34.288  17.655  -0.359  1.00 20.00     0.052 A 
HETATM    6  N8  UNL     1     -33.379  18.547  -2.414  1.00 20.00    -0.271 NA
HETATM    7 CL10 UNL     1     -34.561  17.841   1.325  1.00 20.00    -0.083 Cl
ENDROOT
BRANCH   4   8
HETATM    8  C6  UNL     1     -34.928  15.226  -3.135  1.00 20.00     0.017 C 
HETATM    9  C7  UNL     1     -36.417  15.074  -3.452  1.00 20.00     0.062 C 
HETATM   10  S9  UNL     1     -33.879  14.022  -3.718  1.00 20.00    -0.084 SA
ENDBRANCH   4   8
TORSDOF 1
ENDMDL
MODEL 8
REMARK VINA RESULT:      -3.8     12.989     14.116
REMARK  1 active torsions:
REMARK  status: ('A' for Active; 'I' for Inactive)
REMARK    1  A    between atoms: C4_4  and  C6_6 
ROOT
HETATM    1  C1  UNL     1     -41.440   4.186  -1.631  1.00 20.00     0.039 A 
HETATM    2  C2  UNL     1     -43.047   4.653  -3.323  1.00 20.00     0.129 A 
HETATM    3  C3  UNL     1     -42.277   6.379  -2.016  1.00 20.00     0.140 A 
HETATM    4  C4  UNL     1     -42.252   3.728  -2.664  1.00 20.00    -0.000 A 
HETATM    5  C5  UNL     1     -41.448   5.535  -1.296  1.00 20.00     0.052 A 
HETATM    6  N8  UNL     1     -43.081   5.970  -3.025  1.00 20.00    -0.271 NA
HETATM    7 CL10 UNL     1     -40.460   6.137  -0.029  1.00 20.00    -0.083 Cl
ENDROOT
BRANCH   4   8
HETATM    8  C6  UNL     1     -42.268   2.325  -3.039  1.00 20.00     0.017 C 
HETATM    9  C7  UNL     1     -41.165   1.796  -3.958  1.00 20.00     0.062 C 
HETATM   10  S9  UNL     1     -43.417   1.205  -2.476  1.00 20.00    -0.084 SA
ENDBRANCH   4   8
TORSDOF 1
ENDMDL
MODEL 9
REMARK VINA RESULT:      -3.7      2.026      2.224
REMARK  1 active torsions:
REMARK  status: ('A' for Active; 'I' for Inactive)
REMARK    1  A    between atoms: C4_4  and  C6_6 
ROOT
HETATM    1  C1  UNL     1     -36.350  15.849  -3.067  1.00 20.00     0.039 A 
HETATM    2  C2  UNL     1     -34.158  14.925  -3.099  1.00 20.00     0.129 A 
HETATM    3  C3  UNL     1     -35.845  13.817  -4.196  1.00 20.00     0.140 A 
HETATM    4  C4  UNL     1     -35.014  15.934  -2.687  1.00 20.00    -0.000 A 
HETATM    5  C5  UNL     1     -36.781  14.773  -3.835  1.00 20.00     0.052 A 
HETATM    6  N8  UNL     1     -34.540  13.866  -3.845  1.00 20.00    -0.271 NA
HETATM    7 CL10 UNL     1     -38.419  14.635  -4.322  1.00 20.00    -0.083 Cl
ENDROOT
BRANCH   4   8
HETATM    8  C6  UNL     1     -34.532  17.045  -1.885  1.00 20.00     0.017 C 
HETATM    9  C7  UNL     1     -34.637  16.953  -0.362  1.00 20.00     0.062 C 
HETATM   10  S9  UNL     1     -33.802  18.437  -2.535  1.00 20.00    -0.084 SA
ENDBRANCH   4   8
TORSDOF 1
ENDMDL
