MODEL 1
REMARK VINA RESULT:      -4.9      0.000      0.000
REMARK  1 active torsions:
REMARK  status: ('A' for Active; 'I' for Inactive)
REMARK    1  A    between atoms: C3_3  and  C9_9 
ROOT
HETATM    1  C1  UNL     1     -34.352  13.968  -3.598  1.00 20.00     0.017 A 
HETATM    2  C2  UNL     1     -34.761  13.442  -4.858  1.00 20.00     0.032 A 
HETATM    3  C3  UNL     1     -34.176  15.333  -3.641  1.00 20.00    -0.011 A 
HETATM    4  C4  UNL     1     -34.881  14.425  -5.815  1.00 20.00     0.075 A 
HETATM    5  S11 UNL     1     -34.501  15.975  -5.195  1.00 20.00    -0.082 SA
HETATM    6 CL12 UNL     1     -35.343  14.244  -7.455  1.00 20.00    -0.076 Cl
ENDROOT
BRANCH   3   7
HETATM    7  C9  UNL     1     -33.750  16.262  -2.527  1.00 20.00     0.033 C 
HETATM    8  C7  UNL     1     -34.654  16.207  -1.290  1.00 20.00     0.088 C 
HETATM    9  C5  UNL     1     -34.394  17.554  -0.665  1.00 20.00     0.127 C 
HETATM   10  C6  UNL     1     -33.645  18.481  -1.588  1.00 20.00     0.079 C 
HETATM   11  O10 UNL     1     -34.749  17.860   0.467  1.00 20.00    -0.298 OA
HETATM   12  C8  UNL     1     -33.736  17.744  -2.919  1.00 20.00     0.018 C 
ENDBRANCH   3   7
TORSDOF 1
ENDMDL
MODEL 2
REMARK VINA RESULT:      -4.9      3.768      5.395
REMARK  1 active torsions:
REMARK  status: ('A' for Active; 'I' for Inactive)
REMARK    1  A    between atoms: C3_3  and  C9_9 
ROOT
HETATM    1  C1  UNL     1     -33.755  18.151  -3.102  1.00 20.00     0.017 A 
HETATM    2  C2  UNL     1     -33.438  18.814  -1.881  1.00 20.00     0.032 A 
HETATM    3  C3  UNL     1     -34.351  16.928  -2.886  1.00 20.00    -0.011 A 
HETATM    4  C4  UNL     1     -33.804  18.072  -0.779  1.00 20.00     0.075 A 
HETATM    5  S11 UNL     1     -34.525  16.583  -1.218  1.00 20.00    -0.082 SA
HETATM    6 CL12 UNL     1     -33.611  18.483   0.874  1.00 20.00    -0.076 Cl
ENDROOT
BRANCH   3   7
HETATM    7  C9  UNL     1     -34.833  15.923  -3.908  1.00 20.00     0.033 C 
HETATM    8  C7  UNL     1     -34.714  14.465  -3.451  1.00 20.00     0.088 C 
HETATM    9  C5  UNL     1     -34.672  13.736  -4.771  1.00 20.00     0.127 C 
HETATM   10  C6  UNL     1     -34.464  14.671  -5.936  1.00 20.00     0.079 C 
HETATM   11  O10 UNL     1     -34.794  12.523  -4.884  1.00 20.00    -0.298 OA
HETATM   12  C8  UNL     1     -34.069  15.967  -5.236  1.00 20.00     0.018 C 
ENDBRANCH   3   7
TORSDOF 1
ENDMDL
MODEL 3
REMARK VINA RESULT:      -4.6      1.071      1.581
REMARK  1 active torsions:
REMARK  status: ('A' for Active; 'I' for Inactive)
REMARK    1  A    between atoms: C3_3  and  C9_9 
ROOT
HETATM    1  C1  UNL     1     -34.814  14.429  -3.818  1.00 20.00     0.017 A 
HETATM    2  C2  UNL     1     -34.986  13.779  -5.075  1.00 20.00     0.032 A 
HETATM    3  C3  UNL     1     -34.956  15.796  -3.920  1.00 20.00    -0.011 A 
HETATM    4  C4  UNL     1     -35.254  14.673  -6.088  1.00 20.00     0.075 A 
HETATM    5  S11 UNL     1     -35.295  16.289  -5.524  1.00 20.00    -0.082 SA
HETATM    6 CL12 UNL     1     -35.528  14.331  -7.745  1.00 20.00    -0.076 Cl
ENDROOT
BRANCH   3   7
HETATM    7  C9  UNL     1     -34.848  16.836  -2.829  1.00 20.00     0.033 C 
HETATM    8  C7  UNL     1     -33.693  17.825  -3.024  1.00 20.00     0.088 C 
HETATM    9  C5  UNL     1     -33.457  18.299  -1.611  1.00 20.00     0.127 C 
HETATM   10  C6  UNL     1     -34.181  17.453  -0.594  1.00 20.00     0.079 C 
HETATM   11  O10 UNL     1     -32.759  19.263  -1.323  1.00 20.00    -0.298 OA
HETATM   12  C8  UNL     1     -34.614  16.253  -1.430  1.00 20.00     0.018 C 
ENDBRANCH   3   7
TORSDOF 1
ENDMDL
MODEL 4
REMARK VINA RESULT:      -4.6     13.662     15.549
REMARK  1 active torsions:
REMARK  status: ('A' for Active; 'I' for Inactive)
REMARK    1  A    between atoms: C3_3  and  C9_9 
ROOT
HETATM    1  C1  UNL     1     -40.942   4.147  -1.386  1.00 20.00     0.017 A 
HETATM    2  C2  UNL     1     -40.831   5.474  -0.876  1.00 20.00     0.032 A 
HETATM    3  C3  UNL     1     -41.907   4.048  -2.363  1.00 20.00    -0.011 A 
HETATM    4  C4  UNL     1     -41.716   6.337  -1.484  1.00 20.00     0.075 A 
HETATM    5  S11 UNL     1     -42.675   5.549  -2.662  1.00 20.00    -0.082 SA
HETATM    6 CL12 UNL     1     -41.924   8.011  -1.182  1.00 20.00    -0.076 Cl
ENDROOT
BRANCH   3   7
HETATM    7  C9  UNL     1     -42.331   2.827  -3.146  1.00 20.00     0.033 C 
HETATM    8  C7  UNL     1     -43.066   1.774  -2.309  1.00 20.00     0.088 C 
HETATM    9  C5  UNL     1     -42.826   0.523  -3.116  1.00 20.00     0.127 C 
HETATM   10  C6  UNL     1     -41.779   0.719  -4.182  1.00 20.00     0.079 C 
HETATM   11  O10 UNL     1     -43.417  -0.533  -2.928  1.00 20.00    -0.298 OA
HETATM   12  C8  UNL     1     -41.167   2.057  -3.782  1.00 20.00     0.018 C 
ENDBRANCH   3   7
TORSDOF 1
ENDMDL
MODEL 5
REMARK VINA RESULT:      -4.5      4.052      5.448
REMARK  1 active torsions:
REMARK  status: ('A' for Active; 'I' for Inactive)
REMARK    1  A    between atoms: C3_3  and  C9_9 
ROOT
HETATM    1  C1  UNL     1     -36.485  17.726  -2.304  1.00 20.00     0.017 A 
HETATM    2  C2  UNL     1     -36.677  18.462  -1.099  1.00 20.00     0.032 A 
HETATM    3  C3  UNL     1     -35.419  16.858  -2.215  1.00 20.00    -0.011 A 
HETATM    4  C4  UNL     1     -35.752  18.127  -0.135  1.00 20.00     0.075 A 
HETATM    5  S11 UNL     1     -34.656  16.931  -0.684  1.00 20.00    -0.082 SA
HETATM    6 CL12 UNL     1     -35.612  18.759   1.452  1.00 20.00    -0.076 Cl
ENDROOT
BRANCH   3   7
HETATM    7  C9  UNL     1     -34.889  15.908  -3.265  1.00 20.00     0.033 C 
HETATM    8  C7  UNL     1     -35.743  14.650  -3.455  1.00 20.00     0.088 C 
HETATM    9  C5  UNL     1     -34.740  13.688  -4.040  1.00 20.00     0.127 C 
HETATM   10  C6  UNL     1     -33.325  14.196  -3.929  1.00 20.00     0.079 C 
HETATM   11  O10 UNL     1     -35.041  12.615  -4.549  1.00 20.00    -0.298 OA
HETATM   12  C8  UNL     1     -33.485  15.370  -2.969  1.00 20.00     0.018 C 
ENDBRANCH   3   7
TORSDOF 1
ENDMDL
MODEL 6
REMARK VINA RESULT:      -4.5      3.832      5.308
REMARK  1 active torsions:
REMARK  status: ('A' for Active; 'I' for Inactive)
REMARK    1  A    between atoms: C3_3  and  C9_9 
ROOT
HETATM    1  C1  UNL     1     -34.415  16.256  -1.582  1.00 20.00     0.017 A 
HETATM    2  C2  UNL     1     -34.657  17.182  -0.526  1.00 20.00     0.032 A 
HETATM    3  C3  UNL     1     -35.307  16.413  -2.620  1.00 20.00    -0.011 A 
HETATM    4  C4  UNL     1     -35.723  18.011  -0.798  1.00 20.00     0.075 A 
HETATM    5  S11 UNL     1     -36.428  17.671  -2.320  1.00 20.00    -0.082 SA
HETATM    6 CL12 UNL     1     -36.358  19.262   0.186  1.00 20.00    -0.076 Cl
ENDROOT
BRANCH   3   7
HETATM    7  C9  UNL     1     -35.390  15.635  -3.913  1.00 20.00     0.033 C 
HETATM    8  C7  UNL     1     -35.235  14.120  -3.741  1.00 20.00     0.088 C 
HETATM    9  C5  UNL     1     -34.766  13.704  -5.112  1.00 20.00     0.127 C 
HETATM   10  C6  UNL     1     -34.365  14.882  -5.963  1.00 20.00     0.079 C 
HETATM   11  O10 UNL     1     -34.720  12.541  -5.493  1.00 20.00    -0.298 OA
HETATM   12  C8  UNL     1     -34.313  16.010  -4.938  1.00 20.00     0.018 C 
ENDBRANCH   3   7
TORSDOF 1
ENDMDL
MODEL 7
REMARK VINA RESULT:      -4.5     13.390     14.806
REMARK  1 active torsions:
REMARK  status: ('A' for Active; 'I' for Inactive)
REMARK    1  A    between atoms: C3_3  and  C9_9 
ROOT
HETATM    1  C1  UNL     1     -41.163   2.402  -3.427  1.00 20.00     0.017 A 
HETATM    2  C2  UNL     1     -41.482   1.106  -3.926  1.00 20.00     0.032 A 
HETATM    3  C3  UNL     1     -42.109   2.861  -2.538  1.00 20.00    -0.011 A 
HETATM    4  C4  UNL     1     -42.661   0.624  -3.399  1.00 20.00     0.075 A 
HETATM    5  S11 UNL     1     -43.376   1.732  -2.309  1.00 20.00    -0.082 SA
HETATM    6 CL12 UNL     1     -43.417  -0.880  -3.720  1.00 20.00    -0.076 Cl
ENDROOT
BRANCH   3   7
HETATM    7  C9  UNL     1     -42.140   4.176  -1.794  1.00 20.00     0.033 C 
HETATM    8  C7  UNL     1     -42.510   5.379  -2.669  1.00 20.00     0.088 C 
HETATM    9  C5  UNL     1     -41.902   6.519  -1.892  1.00 20.00     0.127 C 
HETATM   10  C6  UNL     1     -40.972   6.041  -0.806  1.00 20.00     0.079 C 
HETATM   11  O10 UNL     1     -42.138   7.699  -2.117  1.00 20.00    -0.298 OA
HETATM   12  C8  UNL     1     -40.800   4.568  -1.161  1.00 20.00     0.018 C 
ENDBRANCH   3   7
TORSDOF 1
ENDMDL
MODEL 8
REMARK VINA RESULT:      -4.5      2.546      3.677
REMARK  1 active torsions:
REMARK  status: ('A' for Active; 'I' for Inactive)
REMARK    1  A    between atoms: C3_3  and  C9_9 
ROOT
HETATM    1  C1  UNL     1     -34.487  16.271  -1.506  1.00 20.00     0.017 A 
HETATM    2  C2  UNL     1     -34.219  15.998  -2.878  1.00 20.00     0.032 A 
HETATM    3  C3  UNL     1     -34.273  17.595  -1.191  1.00 20.00    -0.011 A 
HETATM    4  C4  UNL     1     -33.811  17.123  -3.560  1.00 20.00     0.075 A 
HETATM    5  S11 UNL     1     -33.750  18.501  -2.547  1.00 20.00    -0.082 SA
HETATM    6 CL12 UNL     1     -33.387  17.252  -5.216  1.00 20.00    -0.076 Cl
ENDROOT
BRANCH   3   7
HETATM    7  C9  UNL     1     -34.440  18.283   0.144  1.00 20.00     0.033 C 
HETATM    8  C7  UNL     1     -33.118  18.606   0.849  1.00 20.00     0.088 C 
HETATM    9  C5  UNL     1     -33.556  18.696   2.289  1.00 20.00     0.127 C 
HETATM   10  C6  UNL     1     -34.953  18.170   2.499  1.00 20.00     0.079 C 
HETATM   11  O10 UNL     1     -32.856  19.149   3.187  1.00 20.00    -0.298 OA
HETATM   12  C8  UNL     1     -35.228  17.466   1.174  1.00 20.00     0.018 C 
ENDBRANCH   3   7
TORSDOF 1
ENDMDL
MODEL 9
REMARK VINA RESULT:      -4.4      3.932      5.325
REMARK  1 active torsions:
REMARK  status: ('A' for Active; 'I' for Inactive)
REMARK    1  A    between atoms: C3_3  and  C9_9 
ROOT
HETATM    1  C1  UNL     1     -34.912  16.068  -2.003  1.00 20.00     0.017 A 
HETATM    2  C2  UNL     1     -34.509  16.670  -0.776  1.00 20.00     0.032 A 
HETATM    3  C3  UNL     1     -34.589  16.848  -3.091  1.00 20.00    -0.011 A 
HETATM    4  C4  UNL     1     -33.894  17.887  -0.973  1.00 20.00     0.075 A 
HETATM    5  S11 UNL     1     -33.805  18.299  -2.632  1.00 20.00    -0.082 SA
HETATM    6 CL12 UNL     1     -33.258  18.946   0.214  1.00 20.00    -0.076 Cl
ENDROOT
BRANCH   3   7
HETATM    7  C9  UNL     1     -34.843  16.571  -4.556  1.00 20.00     0.033 C 
HETATM    8  C7  UNL     1     -35.408  15.174  -4.836  1.00 20.00     0.088 C 
HETATM    9  C5  UNL     1     -35.001  14.965  -6.273  1.00 20.00     0.127 C 
HETATM   10  C6  UNL     1     -34.007  15.995  -6.744  1.00 20.00     0.079 C 
HETATM   11  O10 UNL     1     -35.432  14.062  -6.979  1.00 20.00    -0.298 OA
HETATM   12  C8  UNL     1     -33.589  16.654  -5.434  1.00 20.00     0.018 C 
ENDBRANCH   3   7
TORSDOF 1
ENDMDL
