MODEL 1
REMARK VINA RESULT:      -4.7      0.000      0.000
REMARK  0 active torsions:
REMARK  status: ('A' for Active; 'I' for Inactive)
ROOT
HETATM    1  C1  UNL     1     -33.713   7.030   6.655  1.00 20.00     0.017 C 
HETATM    2  C2  UNL     1     -34.260   6.005   6.353  1.00 20.00    -0.090 C 
HETATM    3  C3  UNL     1     -34.906   4.788   6.005  1.00 20.00     0.059 C 
HETATM    4  C4  UNL     1     -35.188   4.481   4.732  1.00 20.00    -0.022 C 
HETATM    5  C5  UNL     1     -34.860   5.365   3.574  1.00 20.00     0.036 C 
ENDROOT
TORSDOF 0
ENDMDL
MODEL 2
REMARK VINA RESULT:      -4.6      1.411      2.565
REMARK  0 active torsions:
REMARK  status: ('A' for Active; 'I' for Inactive)
ROOT
HETATM    1  C1  UNL     1     -32.479   6.644   3.487  1.00 20.00     0.017 C 
HETATM    2  C2  UNL     1     -33.524   6.056   3.540  1.00 20.00    -0.090 C 
HETATM    3  C3  UNL     1     -34.764   5.362   3.593  1.00 20.00     0.059 C 
HETATM    4  C4  UNL     1     -35.266   4.907   4.749  1.00 20.00    -0.022 C 
HETATM    5  C5  UNL     1     -34.589   5.076   6.070  1.00 20.00     0.036 C 
ENDROOT
TORSDOF 0
ENDMDL
MODEL 3
REMARK VINA RESULT:      -4.5      0.652      2.754
REMARK  0 active torsions:
REMARK  status: ('A' for Active; 'I' for Inactive)
ROOT
HETATM    1  C1  UNL     1     -34.415   5.478   2.931  1.00 20.00     0.017 C 
HETATM    2  C2  UNL     1     -34.707   5.096   4.031  1.00 20.00    -0.090 C 
HETATM    3  C3  UNL     1     -35.058   4.638   5.330  1.00 20.00     0.059 C 
HETATM    4  C4  UNL     1     -34.710   5.315   6.433  1.00 20.00    -0.022 C 
HETATM    5  C5  UNL     1     -33.934   6.591   6.411  1.00 20.00     0.036 C 
ENDROOT
TORSDOF 0
ENDMDL
MODEL 4
REMARK VINA RESULT:      -4.3      1.294      2.112
REMARK  0 active torsions:
REMARK  status: ('A' for Active; 'I' for Inactive)
ROOT
HETATM    1  C1  UNL     1     -34.565   5.368   6.396  1.00 20.00     0.017 C 
HETATM    2  C2  UNL     1     -34.725   5.315   5.207  1.00 20.00    -0.090 C 
HETATM    3  C3  UNL     1     -34.921   5.247   3.801  1.00 20.00     0.059 C 
HETATM    4  C4  UNL     1     -33.987   5.671   2.939  1.00 20.00    -0.022 C 
HETATM    5  C5  UNL     1     -32.675   6.248   3.357  1.00 20.00     0.036 C 
ENDROOT
TORSDOF 0
ENDMDL
MODEL 5
REMARK VINA RESULT:      -4.0      1.227      2.240
REMARK  0 active torsions:
REMARK  status: ('A' for Active; 'I' for Inactive)
ROOT
HETATM    1  C1  UNL     1     -35.183   4.188   6.009  1.00 20.00     0.017 C 
HETATM    2  C2  UNL     1     -34.590   5.167   5.647  1.00 20.00    -0.090 C 
HETATM    3  C3  UNL     1     -33.890   6.330   5.225  1.00 20.00     0.059 C 
HETATM    4  C4  UNL     1     -33.531   6.511   3.947  1.00 20.00    -0.022 C 
HETATM    5  C5  UNL     1     -33.821   5.530   2.859  1.00 20.00     0.036 C 
ENDROOT
TORSDOF 0
ENDMDL
MODEL 6
REMARK VINA RESULT:      -3.5      3.554      4.431
REMARK  0 active torsions:
REMARK  status: ('A' for Active; 'I' for Inactive)
ROOT
HETATM    1  C1  UNL     1     -32.169   8.757   1.195  1.00 20.00     0.017 C 
HETATM    2  C2  UNL     1     -32.006   8.102   2.187  1.00 20.00    -0.090 C 
HETATM    3  C3  UNL     1     -31.806   7.331   3.364  1.00 20.00     0.059 C 
HETATM    4  C4  UNL     1     -32.604   6.300   3.674  1.00 20.00    -0.022 C 
HETATM    5  C5  UNL     1     -33.761   5.867   2.835  1.00 20.00     0.036 C 
ENDROOT
TORSDOF 0
ENDMDL
MODEL 7
REMARK VINA RESULT:      -3.3      2.906      3.994
REMARK  0 active torsions:
REMARK  status: ('A' for Active; 'I' for Inactive)
ROOT
HETATM    1  C1  UNL     1     -34.688   5.670   3.346  1.00 20.00     0.017 C 
HETATM    2  C2  UNL     1     -33.546   6.023   3.454  1.00 20.00    -0.090 C 
HETATM    3  C3  UNL     1     -32.192   6.436   3.590  1.00 20.00     0.059 C 
HETATM    4  C4  UNL     1     -31.709   7.492   2.922  1.00 20.00    -0.022 C 
HETATM    5  C5  UNL     1     -32.523   8.324   1.986  1.00 20.00     0.036 C 
ENDROOT
TORSDOF 0
ENDMDL
MODEL 8
REMARK VINA RESULT:      -3.1      8.611     10.090
REMARK  0 active torsions:
REMARK  status: ('A' for Active; 'I' for Inactive)
ROOT
HETATM    1  C1  UNL     1     -42.382   7.287  -3.140  1.00 20.00     0.017 C 
HETATM    2  C2  UNL     1     -41.818   7.181  -2.086  1.00 20.00    -0.090 C 
HETATM    3  C3  UNL     1     -41.149   7.064  -0.837  1.00 20.00     0.059 C 
HETATM    4  C4  UNL     1     -40.694   5.885  -0.391  1.00 20.00    -0.022 C 
HETATM    5  C5  UNL     1     -40.841   4.602  -1.142  1.00 20.00     0.036 C 
ENDROOT
TORSDOF 0
ENDMDL
MODEL 9
REMARK VINA RESULT:      -3.1     12.876     13.528
REMARK  0 active torsions:
REMARK  status: ('A' for Active; 'I' for Inactive)
ROOT
HETATM    1  C1  UNL     1     -34.351  15.936  -2.335  1.00 20.00     0.017 C 
HETATM    2  C2  UNL     1     -34.571  16.479  -1.288  1.00 20.00    -0.090 C 
HETATM    3  C3  UNL     1     -34.841  17.118  -0.047  1.00 20.00     0.059 C 
HETATM    4  C4  UNL     1     -34.042  18.078   0.437  1.00 20.00    -0.022 C 
HETATM    5  C5  UNL     1     -32.813  18.563  -0.259  1.00 20.00     0.036 C 
ENDROOT
TORSDOF 0
ENDMDL
