MODEL 1
REMARK VINA RESULT:      -4.7      0.000      0.000
REMARK  2 active torsions:
REMARK  status: ('A' for Active; 'I' for Inactive)
REMARK    1  A    between atoms: C1_1  and  C3_3 
REMARK    2  A    between atoms: C2_2  and  C8_8 
ROOT
HETATM    1  C4  UNL     1     -33.895   5.825   6.518  1.00 20.00     0.011 C 
HETATM    2  C5  UNL     1     -33.700   6.821   5.375  1.00 20.00     0.010 C 
HETATM    3  C6  UNL     1     -35.129   4.950   6.347  1.00 20.00     0.074 C 
HETATM    4  C7  UNL     1     -34.745   5.281   3.638  1.00 20.00     0.082 C 
HETATM    5  C8  UNL     1     -33.531   6.140   4.009  1.00 20.00     0.017 C 
HETATM    6  S11 UNL     1     -35.033   3.947   4.837  1.00 20.00    -0.168 SA
ENDROOT
BRANCH   5   7
HETATM    7  C2  UNL     1     -33.292   7.173   2.945  1.00 20.00    -0.018 C 
HETATM    8  C1  UNL     1     -32.071   7.579   2.575  1.00 20.00     0.046 C 
BRANCH   8   9
HETATM    9  C3  UNL     1     -31.902   8.609   1.512  1.00 20.00     0.145 C 
HETATM   10  C9  UNL     1     -32.658   9.898   1.688  1.00 20.00     0.096 C 
HETATM   11  O10 UNL     1     -31.191   8.421   0.527  1.00 20.00    -0.294 OA
ENDBRANCH   8   9
ENDBRANCH   5   7
TORSDOF 2
ENDMDL
MODEL 2
REMARK VINA RESULT:      -4.7     11.276     12.152
REMARK  2 active torsions:
REMARK  status: ('A' for Active; 'I' for Inactive)
REMARK    1  A    between atoms: C1_1  and  C3_3 
REMARK    2  A    between atoms: C2_2  and  C8_8 
ROOT
HETATM    1  C4  UNL     1     -34.492  13.345  -4.735  1.00 20.00     0.011 C 
HETATM    2  C5  UNL     1     -34.455  14.283  -3.530  1.00 20.00     0.010 C 
HETATM    3  C6  UNL     1     -35.159  13.963  -5.956  1.00 20.00     0.074 C 
HETATM    4  C7  UNL     1     -34.288  16.381  -4.962  1.00 20.00     0.082 C 
HETATM    5  C8  UNL     1     -33.681  15.582  -3.805  1.00 20.00     0.017 C 
HETATM    6  S11 UNL     1     -34.279  15.446  -6.521  1.00 20.00    -0.168 SA
ENDROOT
BRANCH   5   7
HETATM    7  C2  UNL     1     -33.640  16.429  -2.564  1.00 20.00    -0.018 C 
HETATM    8  C1  UNL     1     -34.520  16.309  -1.562  1.00 20.00     0.046 C 
BRANCH   8   9
HETATM    9  C3  UNL     1     -34.425  17.180  -0.359  1.00 20.00     0.145 C 
HETATM   10  C9  UNL     1     -33.296  18.176  -0.328  1.00 20.00     0.096 C 
HETATM   11  O10 UNL     1     -35.216  17.091   0.578  1.00 20.00    -0.294 OA
ENDBRANCH   8   9
ENDBRANCH   5   7
TORSDOF 2
ENDMDL
MODEL 3
REMARK VINA RESULT:      -4.6     11.453     12.212
REMARK  2 active torsions:
REMARK  status: ('A' for Active; 'I' for Inactive)
REMARK    1  A    between atoms: C1_1  and  C3_3 
REMARK    2  A    between atoms: C2_2  and  C8_8 
ROOT
HETATM    1  C4  UNL     1     -34.584  17.194  -0.310  1.00 20.00     0.011 C 
HETATM    2  C5  UNL     1     -34.649  16.235  -1.498  1.00 20.00     0.010 C 
HETATM    3  C6  UNL     1     -33.457  18.210  -0.420  1.00 20.00     0.074 C 
HETATM    4  C7  UNL     1     -33.765  17.960  -3.147  1.00 20.00     0.082 C 
HETATM    5  C8  UNL     1     -34.877  16.954  -2.836  1.00 20.00     0.017 C 
HETATM    6  S11 UNL     1     -33.646  19.263  -1.886  1.00 20.00    -0.168 SA
ENDROOT
BRANCH   5   7
HETATM    7  C2  UNL     1     -34.984  15.949  -3.948  1.00 20.00    -0.018 C 
HETATM    8  C1  UNL     1     -34.704  14.649  -3.794  1.00 20.00     0.046 C 
BRANCH   8   9
HETATM    9  C3  UNL     1     -34.829  13.704  -4.939  1.00 20.00     0.145 C 
HETATM   10  C9  UNL     1     -34.958  14.310  -6.311  1.00 20.00     0.096 C 
HETATM   11  O10 UNL     1     -34.843  12.485  -4.782  1.00 20.00    -0.294 OA
ENDBRANCH   8   9
ENDBRANCH   5   7
TORSDOF 2
ENDMDL
MODEL 4
REMARK VINA RESULT:      -4.6     11.354     11.973
REMARK  2 active torsions:
REMARK  status: ('A' for Active; 'I' for Inactive)
REMARK    1  A    between atoms: C1_1  and  C3_3 
REMARK    2  A    between atoms: C2_2  and  C8_8 
ROOT
HETATM    1  C4  UNL     1     -33.986  18.040  -0.089  1.00 20.00     0.011 C 
HETATM    2  C5  UNL     1     -33.697  17.073  -1.236  1.00 20.00     0.010 C 
HETATM    3  C6  UNL     1     -34.957  19.149  -0.470  1.00 20.00     0.074 C 
HETATM    4  C7  UNL     1     -36.011  17.340  -2.261  1.00 20.00     0.082 C 
HETATM    5  C8  UNL     1     -34.955  16.356  -1.747  1.00 20.00     0.017 C 
HETATM    6  S11 UNL     1     -36.571  18.484  -0.965  1.00 20.00    -0.168 SA
ENDROOT
BRANCH   5   7
HETATM    7  C2  UNL     1     -34.589  15.385  -2.834  1.00 20.00    -0.018 C 
HETATM    8  C1  UNL     1     -35.494  14.748  -3.587  1.00 20.00     0.046 C 
BRANCH   8   9
HETATM    9  C3  UNL     1     -35.064  13.796  -4.649  1.00 20.00     0.145 C 
HETATM   10  C9  UNL     1     -34.757  14.380  -6.002  1.00 20.00     0.096 C 
HETATM   11  O10 UNL     1     -34.974  12.587  -4.446  1.00 20.00    -0.294 OA
ENDBRANCH   8   9
ENDBRANCH   5   7
TORSDOF 2
ENDMDL
MODEL 5
REMARK VINA RESULT:      -4.5     11.432     12.272
REMARK  2 active torsions:
REMARK  status: ('A' for Active; 'I' for Inactive)
REMARK    1  A    between atoms: C1_1  and  C3_3 
REMARK    2  A    between atoms: C2_2  and  C8_8 
ROOT
HETATM    1  C4  UNL     1     -34.654  14.304  -3.929  1.00 20.00     0.011 C 
HETATM    2  C5  UNL     1     -34.747  15.181  -2.681  1.00 20.00     0.010 C 
HETATM    3  C6  UNL     1     -34.837  15.082  -5.224  1.00 20.00     0.074 C 
HETATM    4  C7  UNL     1     -33.789  17.229  -3.850  1.00 20.00     0.082 C 
HETATM    5  C8  UNL     1     -33.682  16.288  -2.646  1.00 20.00     0.017 C 
HETATM    6  S11 UNL     1     -33.559  16.354  -5.427  1.00 20.00    -0.168 SA
ENDROOT
BRANCH   5   7
HETATM    7  C2  UNL     1     -33.799  17.074  -1.371  1.00 20.00    -0.018 C 
HETATM    8  C1  UNL     1     -34.758  16.861  -0.461  1.00 20.00     0.046 C 
BRANCH   8   9
HETATM    9  C3  UNL     1     -34.819  17.677   0.784  1.00 20.00     0.145 C 
HETATM   10  C9  UNL     1     -33.659  18.600   1.050  1.00 20.00     0.096 C 
HETATM   11  O10 UNL     1     -35.759  17.598   1.572  1.00 20.00    -0.294 OA
ENDBRANCH   8   9
ENDBRANCH   5   7
TORSDOF 2
ENDMDL
MODEL 6
REMARK VINA RESULT:      -4.4     11.243     11.849
REMARK  2 active torsions:
REMARK  status: ('A' for Active; 'I' for Inactive)
REMARK    1  A    between atoms: C1_1  and  C3_3 
REMARK    2  A    between atoms: C2_2  and  C8_8 
ROOT
HETATM    1  C4  UNL     1     -36.617  14.803  -3.863  1.00 20.00     0.011 C 
HETATM    2  C5  UNL     1     -35.984  15.927  -3.044  1.00 20.00     0.010 C 
HETATM    3  C6  UNL     1     -35.754  14.355  -5.035  1.00 20.00     0.074 C 
HETATM    4  C7  UNL     1     -33.606  15.137  -3.495  1.00 20.00     0.082 C 
HETATM    5  C8  UNL     1     -34.632  15.532  -2.429  1.00 20.00     0.017 C 
HETATM    6  S11 UNL     1     -34.153  13.709  -4.478  1.00 20.00    -0.168 SA
ENDROOT
BRANCH   5   7
HETATM    7  C2  UNL     1     -34.096  16.662  -1.596  1.00 20.00    -0.018 C 
HETATM    8  C1  UNL     1     -34.604  17.004  -0.406  1.00 20.00     0.046 C 
BRANCH   8   9
HETATM    9  C3  UNL     1     -34.025  18.136   0.370  1.00 20.00     0.145 C 
HETATM   10  C9  UNL     1     -32.695  18.668  -0.092  1.00 20.00     0.096 C 
HETATM   11  O10 UNL     1     -34.592  18.614   1.351  1.00 20.00    -0.294 OA
ENDBRANCH   8   9
ENDBRANCH   5   7
TORSDOF 2
ENDMDL
MODEL 7
REMARK VINA RESULT:      -4.4     10.371     11.749
REMARK  2 active torsions:
REMARK  status: ('A' for Active; 'I' for Inactive)
REMARK    1  A    between atoms: C1_1  and  C3_3 
REMARK    2  A    between atoms: C2_2  and  C8_8 
ROOT
HETATM    1  C4  UNL     1     -40.860   5.930  -0.098  1.00 20.00     0.011 C 
HETATM    2  C5  UNL     1     -40.767   4.758  -1.072  1.00 20.00     0.010 C 
HETATM    3  C6  UNL     1     -41.163   7.256  -0.781  1.00 20.00     0.074 C 
HETATM    4  C7  UNL     1     -42.469   5.750  -2.684  1.00 20.00     0.082 C 
HETATM    5  C8  UNL     1     -42.068   4.525  -1.856  1.00 20.00     0.017 C 
HETATM    6  S11 UNL     1     -42.757   7.214  -1.647  1.00 20.00    -0.168 SA
ENDROOT
BRANCH   5   7
HETATM    7  C2  UNL     1     -41.922   3.328  -2.752  1.00 20.00    -0.018 C 
HETATM    8  C1  UNL     1     -42.750   3.065  -3.770  1.00 20.00     0.046 C 
BRANCH   8   9
HETATM    9  C3  UNL     1     -42.550   1.860  -4.622  1.00 20.00     0.145 C 
HETATM   10  C9  UNL     1     -41.904   0.666  -3.970  1.00 20.00     0.096 C 
HETATM   11  O10 UNL     1     -42.880   1.833  -5.806  1.00 20.00    -0.294 OA
ENDBRANCH   8   9
ENDBRANCH   5   7
TORSDOF 2
ENDMDL
MODEL 8
REMARK VINA RESULT:      -4.3     10.976     11.622
REMARK  2 active torsions:
REMARK  status: ('A' for Active; 'I' for Inactive)
REMARK    1  A    between atoms: C1_1  and  C3_3 
REMARK    2  A    between atoms: C2_2  and  C8_8 
ROOT
HETATM    1  C4  UNL     1     -33.862  13.727  -4.185  1.00 20.00     0.011 C 
HETATM    2  C5  UNL     1     -33.616  14.668  -3.007  1.00 20.00     0.010 C 
HETATM    3  C6  UNL     1     -35.316  13.294  -4.314  1.00 20.00     0.074 C 
HETATM    4  C7  UNL     1     -35.932  15.714  -3.148  1.00 20.00     0.082 C 
HETATM    5  C8  UNL     1     -34.423  15.971  -3.102  1.00 20.00     0.017 C 
HETATM    6  S11 UNL     1     -36.414  14.713  -4.586  1.00 20.00    -0.168 SA
ENDROOT
BRANCH   5   7
HETATM    7  C2  UNL     1     -34.091  16.868  -1.943  1.00 20.00    -0.018 C 
HETATM    8  C1  UNL     1     -34.683  16.771  -0.746  1.00 20.00     0.046 C 
BRANCH   8   9
HETATM    9  C3  UNL     1     -34.309  17.691   0.364  1.00 20.00     0.145 C 
HETATM   10  C9  UNL     1     -35.254  17.766   1.533  1.00 20.00     0.096 C 
HETATM   11  O10 UNL     1     -33.287  18.373   0.331  1.00 20.00    -0.294 OA
ENDBRANCH   8   9
ENDBRANCH   5   7
TORSDOF 2
ENDMDL
MODEL 9
REMARK VINA RESULT:      -4.2     11.136     11.787
REMARK  2 active torsions:
REMARK  status: ('A' for Active; 'I' for Inactive)
REMARK    1  A    between atoms: C1_1  and  C3_3 
REMARK    2  A    between atoms: C2_2  and  C8_8 
ROOT
HETATM    1  C4  UNL     1     -34.840  18.506   1.414  1.00 20.00     0.011 C 
HETATM    2  C5  UNL     1     -35.143  17.291   0.540  1.00 20.00     0.010 C 
HETATM    3  C6  UNL     1     -33.358  18.854   1.465  1.00 20.00     0.074 C 
HETATM    4  C7  UNL     1     -33.217  17.755  -1.059  1.00 20.00     0.082 C 
HETATM    5  C8  UNL     1     -34.719  17.484  -0.924  1.00 20.00     0.017 C 
HETATM    6  S11 UNL     1     -32.711  19.263  -0.180  1.00 20.00    -0.168 SA
ENDROOT
BRANCH   5   7
HETATM    7  C2  UNL     1     -35.095  16.275  -1.733  1.00 20.00    -0.018 C 
HETATM    8  C1  UNL     1     -34.260  15.673  -2.589  1.00 20.00     0.046 C 
BRANCH   8   9
HETATM    9  C3  UNL     1     -34.695  14.477  -3.362  1.00 20.00     0.145 C 
HETATM   10  C9  UNL     1     -36.075  14.520  -3.962  1.00 20.00     0.096 C 
HETATM   11  O10 UNL     1     -33.976  13.490  -3.499  1.00 20.00    -0.294 OA
ENDBRANCH   8   9
ENDBRANCH   5   7
TORSDOF 2
ENDMDL
