MODEL 1
REMARK VINA RESULT:      -4.5      0.000      0.000
REMARK  2 active torsions:
REMARK  status: ('A' for Active; 'I' for Inactive)
REMARK    1  A    between atoms: C6_6  and  O11_11 
REMARK    2  A    between atoms: C9_9  and  O11_11 
ROOT
HETATM    1  C1  UNL     1     -33.477  17.080  -5.339  1.00 20.00     0.002 C 
HETATM    2  C2  UNL     1     -32.943  15.939  -4.438  1.00 20.00     0.015 C 
HETATM    3  C3  UNL     1     -34.445  16.048  -5.970  1.00 20.00     0.015 C 
HETATM    4  C4  UNL     1     -35.762  13.867  -4.106  1.00 20.00     0.069 C 
HETATM    5  C5  UNL     1     -34.384  13.729  -4.815  1.00 20.00     0.173 C 
HETATM    6  C6  UNL     1     -35.382  15.316  -3.676  1.00 20.00     0.135 C 
HETATM    7  C7  UNL     1     -34.256  15.230  -4.697  1.00 20.00     0.015 C 
HETATM    8  O10 UNL     1     -33.465  12.997  -4.041  1.00 20.00    -0.234 OA
ENDROOT
BRANCH   6   9
HETATM    9  O11 UNL     1     -35.000  15.461  -2.295  1.00 20.00    -0.385 OA
BRANCH   9  10
HETATM   10  C9  UNL     1     -35.327  16.751  -1.813  1.00 20.00     0.163 C 
HETATM   11  C8  UNL     1     -34.554  17.013  -0.539  1.00 20.00     0.033 C 
ENDBRANCH   9  10
ENDBRANCH   6   9
TORSDOF 2
ENDMDL
MODEL 2
REMARK VINA RESULT:      -4.5      1.795      2.841
REMARK  2 active torsions:
REMARK  status: ('A' for Active; 'I' for Inactive)
REMARK    1  A    between atoms: C6_6  and  O11_11 
REMARK    2  A    between atoms: C9_9  and  O11_11 
ROOT
HETATM    1  C1  UNL     1     -33.719  16.226  -2.697  1.00 20.00     0.002 C 
HETATM    2  C2  UNL     1     -34.803  15.121  -2.741  1.00 20.00     0.015 C 
HETATM    3  C3  UNL     1     -33.011  15.494  -3.864  1.00 20.00     0.015 C 
HETATM    4  C4  UNL     1     -34.779  14.181  -6.127  1.00 20.00     0.069 C 
HETATM    5  C5  UNL     1     -34.359  13.487  -4.798  1.00 20.00     0.173 C 
HETATM    6  C6  UNL     1     -35.141  15.467  -5.325  1.00 20.00     0.135 C 
HETATM    7  C7  UNL     1     -34.364  14.859  -4.166  1.00 20.00     0.015 C 
HETATM    8  O10 UNL     1     -35.355  12.615  -4.323  1.00 20.00    -0.234 OA
ENDROOT
BRANCH   6   9
HETATM    9  O11 UNL     1     -36.552  15.682  -5.124  1.00 20.00    -0.385 OA
BRANCH   9  10
HETATM   10  C9  UNL     1     -36.887  17.044  -5.310  1.00 20.00     0.163 C 
HETATM   11  C8  UNL     1     -35.671  17.787  -5.821  1.00 20.00     0.033 C 
ENDBRANCH   9  10
ENDBRANCH   6   9
TORSDOF 2
ENDMDL
MODEL 3
REMARK VINA RESULT:      -4.3      1.909      3.204
REMARK  2 active torsions:
REMARK  status: ('A' for Active; 'I' for Inactive)
REMARK    1  A    between atoms: C6_6  and  O11_11 
REMARK    2  A    between atoms: C9_9  and  O11_11 
ROOT
HETATM    1  C1  UNL     1     -34.797  13.042  -4.965  1.00 20.00     0.002 C 
HETATM    2  C2  UNL     1     -34.562  14.439  -5.592  1.00 20.00     0.015 C 
HETATM    3  C3  UNL     1     -33.856  13.467  -3.811  1.00 20.00     0.015 C 
HETATM    4  C4  UNL     1     -33.989  16.442  -2.761  1.00 20.00     0.069 C 
HETATM    5  C5  UNL     1     -33.107  15.944  -3.943  1.00 20.00     0.173 C 
HETATM    6  C6  UNL     1     -35.189  15.628  -3.332  1.00 20.00     0.135 C 
HETATM    7  C7  UNL     1     -34.172  14.906  -4.205  1.00 20.00     0.015 C 
HETATM    8  O10 UNL     1     -32.975  16.920  -4.948  1.00 20.00    -0.234 OA
ENDROOT
BRANCH   6   9
HETATM    9  O11 UNL     1     -36.190  16.412  -4.009  1.00 20.00    -0.385 OA
BRANCH   9  10
HETATM   10  C9  UNL     1     -37.477  16.158  -3.477  1.00 20.00     0.163 C 
HETATM   11  C8  UNL     1     -37.939  14.791  -3.933  1.00 20.00     0.033 C 
ENDBRANCH   9  10
ENDBRANCH   6   9
TORSDOF 2
ENDMDL
MODEL 4
REMARK VINA RESULT:      -4.3      1.747      3.057
REMARK  2 active torsions:
REMARK  status: ('A' for Active; 'I' for Inactive)
REMARK    1  A    between atoms: C6_6  and  O11_11 
REMARK    2  A    between atoms: C9_9  and  O11_11 
ROOT
HETATM    1  C1  UNL     1     -36.244  14.959  -6.365  1.00 20.00     0.002 C 
HETATM    2  C2  UNL     1     -34.815  14.415  -6.118  1.00 20.00     0.015 C 
HETATM    3  C3  UNL     1     -36.523  14.744  -4.857  1.00 20.00     0.015 C 
HETATM    4  C4  UNL     1     -34.220  15.360  -2.786  1.00 20.00     0.069 C 
HETATM    5  C5  UNL     1     -34.435  14.001  -3.513  1.00 20.00     0.173 C 
HETATM    6  C6  UNL     1     -34.447  16.104  -4.136  1.00 20.00     0.135 C 
HETATM    7  C7  UNL     1     -35.010  14.792  -4.664  1.00 20.00     0.015 C 
HETATM    8  O10 UNL     1     -33.216  13.356  -3.793  1.00 20.00    -0.234 OA
ENDROOT
BRANCH   6   9
HETATM    9  O11 UNL     1     -33.251  16.601  -4.767  1.00 20.00    -0.385 OA
BRANCH   9  10
HETATM   10  C9  UNL     1     -33.399  17.961  -5.130  1.00 20.00     0.163 C 
HETATM   11  C8  UNL     1     -34.132  18.042  -6.451  1.00 20.00     0.033 C 
ENDBRANCH   9  10
ENDBRANCH   6   9
TORSDOF 2
ENDMDL
MODEL 5
REMARK VINA RESULT:      -4.3      0.888      1.285
REMARK  2 active torsions:
REMARK  status: ('A' for Active; 'I' for Inactive)
REMARK    1  A    between atoms: C6_6  and  O11_11 
REMARK    2  A    between atoms: C9_9  and  O11_11 
ROOT
HETATM    1  C1  UNL     1     -33.634  16.849  -5.795  1.00 20.00     0.002 C 
HETATM    2  C2  UNL     1     -33.084  16.015  -4.611  1.00 20.00     0.015 C 
HETATM    3  C3  UNL     1     -34.328  15.561  -6.302  1.00 20.00     0.015 C 
HETATM    4  C4  UNL     1     -35.582  13.579  -4.188  1.00 20.00     0.069 C 
HETATM    5  C5  UNL     1     -34.104  13.554  -4.677  1.00 20.00     0.173 C 
HETATM    6  C6  UNL     1     -35.492  15.128  -4.037  1.00 20.00     0.135 C 
HETATM    7  C7  UNL     1     -34.221  15.048  -4.870  1.00 20.00     0.015 C 
HETATM    8  O10 UNL     1     -33.219  13.159  -3.658  1.00 20.00    -0.234 OA
ENDROOT
BRANCH   6   9
HETATM    9  O11 UNL     1     -35.356  15.601  -2.683  1.00 20.00    -0.385 OA
BRANCH   9  10
HETATM   10  C9  UNL     1     -35.983  16.860  -2.522  1.00 20.00     0.163 C 
HETATM   11  C8  UNL     1     -37.046  17.022  -3.587  1.00 20.00     0.033 C 
ENDBRANCH   9  10
ENDBRANCH   6   9
TORSDOF 2
ENDMDL
MODEL 6
REMARK VINA RESULT:      -4.2      1.565      3.280
REMARK  2 active torsions:
REMARK  status: ('A' for Active; 'I' for Inactive)
REMARK    1  A    between atoms: C6_6  and  O11_11 
REMARK    2  A    between atoms: C9_9  and  O11_11 
ROOT
HETATM    1  C1  UNL     1     -36.444  16.529  -3.029  1.00 20.00     0.002 C 
HETATM    2  C2  UNL     1     -36.467  15.292  -3.961  1.00 20.00     0.015 C 
HETATM    3  C3  UNL     1     -35.249  15.877  -2.291  1.00 20.00     0.015 C 
HETATM    4  C4  UNL     1     -33.092  14.310  -3.983  1.00 20.00     0.069 C 
HETATM    5  C5  UNL     1     -34.403  13.698  -3.410  1.00 20.00     0.173 C 
HETATM    6  C6  UNL     1     -33.900  15.551  -4.470  1.00 20.00     0.135 C 
HETATM    7  C7  UNL     1     -35.023  15.067  -3.563  1.00 20.00     0.015 C 
HETATM    8  O10 UNL     1     -34.938  12.711  -4.259  1.00 20.00    -0.234 OA
ENDROOT
BRANCH   6   9
HETATM    9  O11 UNL     1     -34.172  15.584  -5.884  1.00 20.00    -0.385 OA
BRANCH   9  10
HETATM   10  C9  UNL     1     -34.120  16.909  -6.379  1.00 20.00     0.163 C 
HETATM   11  C8  UNL     1     -33.558  17.815  -5.304  1.00 20.00     0.033 C 
ENDBRANCH   9  10
ENDBRANCH   6   9
TORSDOF 2
ENDMDL
MODEL 7
REMARK VINA RESULT:      -4.2      1.911      2.692
REMARK  2 active torsions:
REMARK  status: ('A' for Active; 'I' for Inactive)
REMARK    1  A    between atoms: C6_6  and  O11_11 
REMARK    2  A    between atoms: C9_9  and  O11_11 
ROOT
HETATM    1  C1  UNL     1     -34.402  13.781  -5.325  1.00 20.00     0.002 C 
HETATM    2  C2  UNL     1     -35.485  13.447  -4.269  1.00 20.00     0.015 C 
HETATM    3  C3  UNL     1     -35.420  14.749  -5.975  1.00 20.00     0.015 C 
HETATM    4  C4  UNL     1     -37.317  16.441  -4.102  1.00 20.00     0.069 C 
HETATM    5  C5  UNL     1     -37.617  15.006  -4.624  1.00 20.00     0.173 C 
HETATM    6  C6  UNL     1     -35.863  15.998  -3.758  1.00 20.00     0.135 C 
HETATM    7  C7  UNL     1     -36.124  14.773  -4.623  1.00 20.00     0.015 C 
HETATM    8  O10 UNL     1     -38.333  14.243  -3.684  1.00 20.00    -0.234 OA
ENDROOT
BRANCH   6   9
HETATM    9  O11 UNL     1     -35.612  15.766  -2.358  1.00 20.00    -0.385 OA
BRANCH   9  10
HETATM   10  C9  UNL     1     -34.344  16.268  -1.981  1.00 20.00     0.163 C 
HETATM   11  C8  UNL     1     -34.483  17.040  -0.687  1.00 20.00     0.033 C 
ENDBRANCH   9  10
ENDBRANCH   6   9
TORSDOF 2
ENDMDL
MODEL 8
REMARK VINA RESULT:      -4.2      1.796      2.440
REMARK  2 active torsions:
REMARK  status: ('A' for Active; 'I' for Inactive)
REMARK    1  A    between atoms: C6_6  and  O11_11 
REMARK    2  A    between atoms: C9_9  and  O11_11 
ROOT
HETATM    1  C1  UNL     1     -37.544  16.296  -3.923  1.00 20.00     0.002 C 
HETATM    2  C2  UNL     1     -36.356  16.308  -4.918  1.00 20.00     0.015 C 
HETATM    3  C3  UNL     1     -37.276  14.785  -3.715  1.00 20.00     0.015 C 
HETATM    4  C4  UNL     1     -34.288  13.768  -3.645  1.00 20.00     0.069 C 
HETATM    5  C5  UNL     1     -35.152  13.931  -4.929  1.00 20.00     0.173 C 
HETATM    6  C6  UNL     1     -34.783  15.160  -3.151  1.00 20.00     0.135 C 
HETATM    7  C7  UNL     1     -35.863  15.058  -4.219  1.00 20.00     0.015 C 
HETATM    8  O10 UNL     1     -34.380  14.326  -6.036  1.00 20.00    -0.234 OA
ENDROOT
BRANCH   6   9
HETATM    9  O11 UNL     1     -33.828  16.231  -3.289  1.00 20.00    -0.385 OA
BRANCH   9  10
HETATM   10  C9  UNL     1     -33.653  16.913  -2.062  1.00 20.00     0.163 C 
HETATM   11  C8  UNL     1     -34.730  16.474  -1.094  1.00 20.00     0.033 C 
ENDBRANCH   9  10
ENDBRANCH   6   9
TORSDOF 2
ENDMDL
MODEL 9
REMARK VINA RESULT:      -4.1      1.827      2.720
REMARK  2 active torsions:
REMARK  status: ('A' for Active; 'I' for Inactive)
REMARK    1  A    between atoms: C6_6  and  O11_11 
REMARK    2  A    between atoms: C9_9  and  O11_11 
ROOT
HETATM    1  C1  UNL     1     -34.998  17.148  -2.785  1.00 20.00     0.002 C 
HETATM    2  C2  UNL     1     -34.953  15.668  -2.331  1.00 20.00     0.015 C 
HETATM    3  C3  UNL     1     -34.298  16.706  -4.093  1.00 20.00     0.015 C 
HETATM    4  C4  UNL     1     -35.107  13.942  -5.388  1.00 20.00     0.069 C 
HETATM    5  C5  UNL     1     -34.012  14.138  -4.299  1.00 20.00     0.173 C 
HETATM    6  C6  UNL     1     -36.057  14.879  -4.583  1.00 20.00     0.135 C 
HETATM    7  C7  UNL     1     -34.827  15.307  -3.796  1.00 20.00     0.015 C 
HETATM    8  O10 UNL     1     -33.945  13.044  -3.418  1.00 20.00    -0.234 OA
ENDROOT
BRANCH   6   9
HETATM    9  O11 UNL     1     -37.099  14.205  -3.849  1.00 20.00    -0.385 OA
BRANCH   9  10
HETATM   10  C9  UNL     1     -38.374  14.704  -4.208  1.00 20.00     0.163 C 
HETATM   11  C8  UNL     1     -38.768  15.796  -3.238  1.00 20.00     0.033 C 
ENDBRANCH   9  10
ENDBRANCH   6   9
TORSDOF 2
ENDMDL
