MODEL 1
REMARK VINA RESULT:      -4.5      0.000      0.000
REMARK  2 active torsions:
REMARK  status: ('A' for Active; 'I' for Inactive)
REMARK    1  A    between atoms: C6_6  and  O11_11 
REMARK    2  A    between atoms: C9_9  and  O11_11 
ROOT
HETATM    1  C1  UNL     1     -33.732  16.481  -2.621  1.00 20.00     0.002 C 
HETATM    2  C2  UNL     1     -34.974  15.623  -2.274  1.00 20.00     0.015 C 
HETATM    3  C3  UNL     1     -33.918  16.062  -4.101  1.00 20.00     0.015 C 
HETATM    4  C4  UNL     1     -35.074  13.186  -4.773  1.00 20.00     0.069 C 
HETATM    5  C5  UNL     1     -34.199  13.469  -3.521  1.00 20.00     0.173 C 
HETATM    6  C6  UNL     1     -35.924  14.438  -4.403  1.00 20.00     0.135 C 
HETATM    7  C7  UNL     1     -34.731  14.890  -3.578  1.00 20.00     0.015 C 
HETATM    8  O10 UNL     1     -32.830  13.296  -3.766  1.00 20.00    -0.234 OA
ENDROOT
BRANCH   6   9
HETATM    9  O11 UNL     1     -37.141  14.158  -3.684  1.00 20.00    -0.385 OA
BRANCH   9  10
HETATM   10  C9  UNL     1     -38.237  14.843  -4.259  1.00 20.00     0.163 C 
HETATM   11  C8  UNL     1     -37.726  15.769  -5.343  1.00 20.00     0.033 C 
ENDBRANCH   9  10
ENDBRANCH   6   9
TORSDOF 2
ENDMDL
MODEL 2
REMARK VINA RESULT:      -4.5      2.327      3.887
REMARK  2 active torsions:
REMARK  status: ('A' for Active; 'I' for Inactive)
REMARK    1  A    between atoms: C6_6  and  O11_11 
REMARK    2  A    between atoms: C9_9  and  O11_11 
ROOT
HETATM    1  C1  UNL     1     -35.586  14.446  -7.506  1.00 20.00     0.002 C 
HETATM    2  C2  UNL     1     -34.253  15.054  -7.000  1.00 20.00     0.015 C 
HETATM    3  C3  UNL     1     -36.222  14.837  -6.148  1.00 20.00     0.015 C 
HETATM    4  C4  UNL     1     -34.443  14.792  -3.523  1.00 20.00     0.069 C 
HETATM    5  C5  UNL     1     -34.218  13.812  -4.708  1.00 20.00     0.173 C 
HETATM    6  C6  UNL     1     -34.498  15.955  -4.557  1.00 20.00     0.135 C 
HETATM    7  C7  UNL     1     -34.807  14.892  -5.599  1.00 20.00     0.015 C 
HETATM    8  O10 UNL     1     -34.955  12.628  -4.579  1.00 20.00    -0.234 OA
ENDROOT
BRANCH   6   9
HETATM    9  O11 UNL     1     -33.266  16.685  -4.721  1.00 20.00    -0.385 OA
BRANCH   9  10
HETATM   10  C9  UNL     1     -33.494  18.080  -4.667  1.00 20.00     0.163 C 
HETATM   11  C8  UNL     1     -33.693  18.602  -6.073  1.00 20.00     0.033 C 
ENDBRANCH   9  10
ENDBRANCH   6   9
TORSDOF 2
ENDMDL
MODEL 3
REMARK VINA RESULT:      -4.3      1.561      3.493
REMARK  2 active torsions:
REMARK  status: ('A' for Active; 'I' for Inactive)
REMARK    1  A    between atoms: C6_6  and  O11_11 
REMARK    2  A    between atoms: C9_9  and  O11_11 
ROOT
HETATM    1  C1  UNL     1     -37.169  15.143  -5.196  1.00 20.00     0.002 C 
HETATM    2  C2  UNL     1     -35.828  15.915  -5.131  1.00 20.00     0.015 C 
HETATM    3  C3  UNL     1     -36.767  14.435  -3.878  1.00 20.00     0.015 C 
HETATM    4  C4  UNL     1     -33.709  13.826  -3.304  1.00 20.00     0.069 C 
HETATM    5  C5  UNL     1     -34.310  13.833  -4.736  1.00 20.00     0.173 C 
HETATM    6  C6  UNL     1     -34.423  15.187  -3.049  1.00 20.00     0.135 C 
HETATM    7  C7  UNL     1     -35.336  14.820  -4.207  1.00 20.00     0.015 C 
HETATM    8  O10 UNL     1     -34.787  12.575  -5.129  1.00 20.00    -0.234 OA
ENDROOT
BRANCH   6   9
HETATM    9  O11 UNL     1     -33.593  16.353  -3.222  1.00 20.00    -0.385 OA
BRANCH   9  10
HETATM   10  C9  UNL     1     -33.837  17.302  -2.201  1.00 20.00     0.163 C 
HETATM   11  C8  UNL     1     -34.548  16.620  -1.053  1.00 20.00     0.033 C 
ENDBRANCH   9  10
ENDBRANCH   6   9
TORSDOF 2
ENDMDL
MODEL 4
REMARK VINA RESULT:      -4.3      2.230      3.782
REMARK  2 active torsions:
REMARK  status: ('A' for Active; 'I' for Inactive)
REMARK    1  A    between atoms: C6_6  and  O11_11 
REMARK    2  A    between atoms: C9_9  and  O11_11 
ROOT
HETATM    1  C1  UNL     1     -35.210  13.286  -4.140  1.00 20.00     0.002 C 
HETATM    2  C2  UNL     1     -35.680  14.717  -3.775  1.00 20.00     0.015 C 
HETATM    3  C3  UNL     1     -33.763  13.837  -4.217  1.00 20.00     0.015 C 
HETATM    4  C4  UNL     1     -33.277  16.813  -5.195  1.00 20.00     0.069 C 
HETATM    5  C5  UNL     1     -34.447  15.937  -5.720  1.00 20.00     0.173 C 
HETATM    6  C6  UNL     1     -33.672  16.391  -3.749  1.00 20.00     0.135 C 
HETATM    7  C7  UNL     1     -34.386  15.211  -4.388  1.00 20.00     0.015 C 
HETATM    8  O10 UNL     1     -34.101  15.197  -6.859  1.00 20.00    -0.234 OA
ENDROOT
BRANCH   6   9
HETATM    9  O11 UNL     1     -34.492  17.339  -3.039  1.00 20.00    -0.385 OA
BRANCH   9  10
HETATM   10  C9  UNL     1     -33.956  17.613  -1.759  1.00 20.00     0.163 C 
HETATM   11  C8  UNL     1     -34.592  16.684  -0.748  1.00 20.00     0.033 C 
ENDBRANCH   9  10
ENDBRANCH   6   9
TORSDOF 2
ENDMDL
MODEL 5
REMARK VINA RESULT:      -4.0      2.256      2.889
REMARK  2 active torsions:
REMARK  status: ('A' for Active; 'I' for Inactive)
REMARK    1  A    between atoms: C6_6  and  O11_11 
REMARK    2  A    between atoms: C9_9  and  O11_11 
ROOT
HETATM    1  C1  UNL     1     -34.396  15.691  -2.360  1.00 20.00     0.002 C 
HETATM    2  C2  UNL     1     -35.362  16.214  -3.453  1.00 20.00     0.015 C 
HETATM    3  C3  UNL     1     -33.450  15.219  -3.493  1.00 20.00     0.015 C 
HETATM    4  C4  UNL     1     -34.683  14.223  -6.240  1.00 20.00     0.069 C 
HETATM    5  C5  UNL     1     -35.403  14.031  -4.877  1.00 20.00     0.173 C 
HETATM    6  C6  UNL     1     -34.437  15.710  -5.846  1.00 20.00     0.135 C 
HETATM    7  C7  UNL     1     -34.661  15.271  -4.409  1.00 20.00     0.015 C 
HETATM    8  O10 UNL     1     -35.069  12.821  -4.254  1.00 20.00    -0.234 OA
ENDROOT
BRANCH   6   9
HETATM    9  O11 UNL     1     -35.383  16.650  -6.392  1.00 20.00    -0.385 OA
BRANCH   9  10
HETATM   10  C9  UNL     1     -34.720  17.679  -7.102  1.00 20.00     0.163 C 
HETATM   11  C8  UNL     1     -33.781  18.402  -6.161  1.00 20.00     0.033 C 
ENDBRANCH   9  10
ENDBRANCH   6   9
TORSDOF 2
ENDMDL
MODEL 6
REMARK VINA RESULT:      -3.9      2.507      3.926
REMARK  2 active torsions:
REMARK  status: ('A' for Active; 'I' for Inactive)
REMARK    1  A    between atoms: C6_6  and  O11_11 
REMARK    2  A    between atoms: C9_9  and  O11_11 
ROOT
HETATM    1  C1  UNL     1     -33.905  13.916  -3.393  1.00 20.00     0.002 C 
HETATM    2  C2  UNL     1     -33.021  15.126  -3.787  1.00 20.00     0.015 C 
HETATM    3  C3  UNL     1     -35.136  14.854  -3.476  1.00 20.00     0.015 C 
HETATM    4  C4  UNL     1     -34.821  17.913  -2.699  1.00 20.00     0.069 C 
HETATM    5  C5  UNL     1     -33.992  16.785  -2.026  1.00 20.00     0.173 C 
HETATM    6  C6  UNL     1     -34.460  17.289  -4.081  1.00 20.00     0.135 C 
HETATM    7  C7  UNL     1     -34.161  16.008  -3.320  1.00 20.00     0.015 C 
HETATM    8  O10 UNL     1     -34.616  16.259  -0.887  1.00 20.00    -0.234 OA
ENDROOT
BRANCH   6   9
HETATM    9  O11 UNL     1     -33.354  17.913  -4.761  1.00 20.00    -0.385 OA
BRANCH   9  10
HETATM   10  C9  UNL     1     -33.731  18.334  -6.058  1.00 20.00     0.163 C 
HETATM   11  C8  UNL     1     -34.401  17.182  -6.775  1.00 20.00     0.033 C 
ENDBRANCH   9  10
ENDBRANCH   6   9
TORSDOF 2
ENDMDL
MODEL 7
REMARK VINA RESULT:      -3.9      1.671      2.663
REMARK  2 active torsions:
REMARK  status: ('A' for Active; 'I' for Inactive)
REMARK    1  A    between atoms: C6_6  and  O11_11 
REMARK    2  A    between atoms: C9_9  and  O11_11 
ROOT
HETATM    1  C1  UNL     1     -33.677  13.503  -3.819  1.00 20.00     0.002 C 
HETATM    2  C2  UNL     1     -34.632  13.627  -5.033  1.00 20.00     0.015 C 
HETATM    3  C3  UNL     1     -34.305  14.804  -3.257  1.00 20.00     0.015 C 
HETATM    4  C4  UNL     1     -35.308  17.045  -5.264  1.00 20.00     0.069 C 
HETATM    5  C5  UNL     1     -34.098  16.121  -5.572  1.00 20.00     0.173 C 
HETATM    6  C6  UNL     1     -36.111  15.776  -4.852  1.00 20.00     0.135 C 
HETATM    7  C7  UNL     1     -34.765  15.093  -4.675  1.00 20.00     0.015 C 
HETATM    8  O10 UNL     1     -32.881  16.654  -5.127  1.00 20.00    -0.234 OA
ENDROOT
BRANCH   6   9
HETATM    9  O11 UNL     1     -36.979  15.245  -5.873  1.00 20.00    -0.385 OA
BRANCH   9  10
HETATM   10  C9  UNL     1     -38.324  15.229  -5.435  1.00 20.00     0.163 C 
HETATM   11  C8  UNL     1     -38.365  14.804  -3.983  1.00 20.00     0.033 C 
ENDBRANCH   9  10
ENDBRANCH   6   9
TORSDOF 2
ENDMDL
MODEL 8
REMARK VINA RESULT:      -3.9      1.887      3.607
REMARK  2 active torsions:
REMARK  status: ('A' for Active; 'I' for Inactive)
REMARK    1  A    between atoms: C6_6  and  O11_11 
REMARK    2  A    between atoms: C9_9  and  O11_11 
ROOT
HETATM    1  C1  UNL     1     -33.692  17.404  -1.404  1.00 20.00     0.002 C 
HETATM    2  C2  UNL     1     -33.768  17.078  -2.917  1.00 20.00     0.015 C 
HETATM    3  C3  UNL     1     -34.768  16.315  -1.166  1.00 20.00     0.015 C 
HETATM    4  C4  UNL     1     -36.989  15.808  -3.371  1.00 20.00     0.069 C 
HETATM    5  C5  UNL     1     -36.364  17.207  -3.113  1.00 20.00     0.173 C 
HETATM    6  C6  UNL     1     -35.547  15.220  -3.389  1.00 20.00     0.135 C 
HETATM    7  C7  UNL     1     -35.127  16.469  -2.633  1.00 20.00     0.015 C 
HETATM    8  O10 UNL     1     -37.070  17.947  -2.155  1.00 20.00    -0.234 OA
ENDROOT
BRANCH   6   9
HETATM    9  O11 UNL     1     -34.981  15.034  -4.701  1.00 20.00    -0.385 OA
BRANCH   9  10
HETATM   10  C9  UNL     1     -34.467  13.725  -4.850  1.00 20.00     0.163 C 
HETATM   11  C8  UNL     1     -33.399  13.492  -3.803  1.00 20.00     0.033 C 
ENDBRANCH   9  10
ENDBRANCH   6   9
TORSDOF 2
ENDMDL
MODEL 9
REMARK VINA RESULT:      -3.9      2.048      3.383
REMARK  2 active torsions:
REMARK  status: ('A' for Active; 'I' for Inactive)
REMARK    1  A    between atoms: C6_6  and  O11_11 
REMARK    2  A    between atoms: C9_9  and  O11_11 
ROOT
HETATM    1  C1  UNL     1     -34.038  17.417  -6.130  1.00 20.00     0.002 C 
HETATM    2  C2  UNL     1     -33.414  16.769  -4.868  1.00 20.00     0.015 C 
HETATM    3  C3  UNL     1     -35.424  16.936  -5.630  1.00 20.00     0.015 C 
HETATM    4  C4  UNL     1     -35.640  14.221  -4.006  1.00 20.00     0.069 C 
HETATM    5  C5  UNL     1     -34.582  14.453  -5.119  1.00 20.00     0.173 C 
HETATM    6  C6  UNL     1     -35.243  15.603  -3.407  1.00 20.00     0.135 C 
HETATM    7  C7  UNL     1     -34.672  15.929  -4.777  1.00 20.00     0.015 C 
HETATM    8  O10 UNL     1     -35.037  14.069  -6.387  1.00 20.00    -0.234 OA
ENDROOT
BRANCH   6   9
HETATM    9  O11 UNL     1     -34.308  15.547  -2.311  1.00 20.00    -0.385 OA
BRANCH   9  10
HETATM   10  C9  UNL     1     -34.701  16.417  -1.267  1.00 20.00     0.163 C 
HETATM   11  C8  UNL     1     -33.647  17.490  -1.096  1.00 20.00     0.033 C 
ENDBRANCH   9  10
ENDBRANCH   6   9
TORSDOF 2
ENDMDL
