MODEL 1
REMARK VINA RESULT:      -4.7      0.000      0.000
REMARK  2 active torsions:
REMARK  status: ('A' for Active; 'I' for Inactive)
REMARK    1  A    between atoms: C6_6  and  C8_8 
REMARK    2  A    between atoms: C7_7  and  C9_9 
ROOT
HETATM    1  C1  UNL     1     -34.201   5.988   6.154  1.00 20.00     0.132 C 
HETATM    2  C2  UNL     1     -34.699   4.413   6.368  1.00 20.00     0.084 C 
HETATM    3  C6  UNL     1     -34.020   5.589   4.684  1.00 20.00     0.064 C 
HETATM    4  C7  UNL     1     -35.331   4.729   4.963  1.00 20.00     0.008 C 
HETATM    5  O10 UNL     1     -34.051   6.987   6.811  1.00 20.00    -0.298 OA
ENDROOT
BRANCH   3   6
HETATM    6  C8  UNL     1     -34.348   6.156   3.304  1.00 20.00    -0.003 C 
HETATM    7  C3  UNL     1     -33.550   7.487   3.270  1.00 20.00     0.006 C 
HETATM    8  C4  UNL     1     -32.088   6.980   3.364  1.00 20.00     0.005 C 
HETATM    9  C9  UNL     1     -32.217   5.466   3.124  1.00 20.00    -0.009 C 
HETATM   10  C5  UNL     1     -33.510   5.382   2.279  1.00 20.00     0.010 C 
ENDBRANCH   3   6
TORSDOF 2
ENDMDL
MODEL 2
REMARK VINA RESULT:      -4.4     11.976     13.009
REMARK  2 active torsions:
REMARK  status: ('A' for Active; 'I' for Inactive)
REMARK    1  A    between atoms: C6_6  and  C8_8 
REMARK    2  A    between atoms: C7_7  and  C9_9 
ROOT
HETATM    1  C1  UNL     1     -33.792  18.105  -2.007  1.00 20.00     0.132 C 
HETATM    2  C2  UNL     1     -33.614  17.677  -0.408  1.00 20.00     0.084 C 
HETATM    3  C6  UNL     1     -33.975  16.602  -2.250  1.00 20.00     0.064 C 
HETATM    4  C7  UNL     1     -34.739  16.672  -0.854  1.00 20.00     0.008 C 
HETATM    5  O10 UNL     1     -33.792  19.103  -2.682  1.00 20.00    -0.298 OA
ENDROOT
BRANCH   3   6
HETATM    6  C8  UNL     1     -34.911  15.682  -3.033  1.00 20.00    -0.003 C 
HETATM    7  C3  UNL     1     -34.845  16.255  -4.473  1.00 20.00     0.006 C 
HETATM    8  C4  UNL     1     -33.356  16.023  -4.837  1.00 20.00     0.005 C 
HETATM    9  C9  UNL     1     -32.855  15.091  -3.720  1.00 20.00    -0.009 C 
HETATM   10  C5  UNL     1     -34.156  14.373  -3.291  1.00 20.00     0.010 C 
ENDBRANCH   3   6
TORSDOF 2
ENDMDL
MODEL 3
REMARK VINA RESULT:      -4.3     12.284     13.936
REMARK  2 active torsions:
REMARK  status: ('A' for Active; 'I' for Inactive)
REMARK    1  A    between atoms: C6_6  and  C8_8 
REMARK    2  A    between atoms: C7_7  and  C9_9 
ROOT
HETATM    1  C1  UNL     1     -34.662  13.766  -4.485  1.00 20.00     0.132 C 
HETATM    2  C2  UNL     1     -34.272  14.763  -3.211  1.00 20.00     0.084 C 
HETATM    3  C6  UNL     1     -34.703  15.059  -5.309  1.00 20.00     0.064 C 
HETATM    4  C7  UNL     1     -33.476  15.456  -4.376  1.00 20.00     0.008 C 
HETATM    5  O10 UNL     1     -34.831  12.592  -4.697  1.00 20.00    -0.298 OA
ENDROOT
BRANCH   3   6
HETATM    6  C8  UNL     1     -34.198  15.562  -6.661  1.00 20.00    -0.003 C 
HETATM    7  C3  UNL     1     -34.953  14.662  -7.676  1.00 20.00     0.006 C 
HETATM    8  C4  UNL     1     -36.428  15.061  -7.415  1.00 20.00     0.005 C 
HETATM    9  C9  UNL     1     -36.310  16.323  -6.542  1.00 20.00    -0.009 C 
HETATM   10  C5  UNL     1     -34.928  16.877  -6.961  1.00 20.00     0.010 C 
ENDBRANCH   3   6
TORSDOF 2
ENDMDL
MODEL 4
REMARK VINA RESULT:      -4.3     12.181     13.857
REMARK  2 active torsions:
REMARK  status: ('A' for Active; 'I' for Inactive)
REMARK    1  A    between atoms: C6_6  and  C8_8 
REMARK    2  A    between atoms: C7_7  and  C9_9 
ROOT
HETATM    1  C1  UNL     1     -34.067  16.742  -6.031  1.00 20.00     0.132 C 
HETATM    2  C2  UNL     1     -34.920  16.473  -7.435  1.00 20.00     0.084 C 
HETATM    3  C6  UNL     1     -34.634  15.389  -5.586  1.00 20.00     0.064 C 
HETATM    4  C7  UNL     1     -34.415  15.018  -7.119  1.00 20.00     0.008 C 
HETATM    5  O10 UNL     1     -33.339  17.580  -5.561  1.00 20.00    -0.298 OA
ENDROOT
BRANCH   3   6
HETATM    6  C8  UNL     1     -34.131  14.110  -4.917  1.00 20.00    -0.003 C 
HETATM    7  C3  UNL     1     -33.448  14.634  -3.625  1.00 20.00     0.006 C 
HETATM    8  C4  UNL     1     -34.646  15.261  -2.867  1.00 20.00     0.005 C 
HETATM    9  C9  UNL     1     -35.871  14.751  -3.647  1.00 20.00    -0.009 C 
HETATM   10  C5  UNL     1     -35.339  13.433  -4.257  1.00 20.00     0.010 C 
ENDBRANCH   3   6
TORSDOF 2
ENDMDL
MODEL 5
REMARK VINA RESULT:      -4.3     11.828     13.171
REMARK  2 active torsions:
REMARK  status: ('A' for Active; 'I' for Inactive)
REMARK    1  A    between atoms: C6_6  and  C8_8 
REMARK    2  A    between atoms: C7_7  and  C9_9 
ROOT
HETATM    1  C1  UNL     1     -34.375  14.742  -5.382  1.00 20.00     0.132 C 
HETATM    2  C2  UNL     1     -34.692  13.197  -4.847  1.00 20.00     0.084 C 
HETATM    3  C6  UNL     1     -34.459  15.128  -3.900  1.00 20.00     0.064 C 
HETATM    4  C7  UNL     1     -33.752  13.716  -3.698  1.00 20.00     0.008 C 
HETATM    5  O10 UNL     1     -34.167  15.314  -6.421  1.00 20.00    -0.298 OA
ENDROOT
BRANCH   3   6
HETATM    6  C8  UNL     1     -33.675  15.977  -2.900  1.00 20.00    -0.003 C 
HETATM    7  C3  UNL     1     -33.743  17.400  -3.516  1.00 20.00     0.006 C 
HETATM    8  C4  UNL     1     -35.265  17.692  -3.467  1.00 20.00     0.005 C 
HETATM    9  C9  UNL     1     -35.816  16.571  -2.568  1.00 20.00    -0.009 C 
HETATM   10  C5  UNL     1     -34.589  16.225  -1.694  1.00 20.00     0.010 C 
ENDBRANCH   3   6
TORSDOF 2
ENDMDL
MODEL 6
REMARK VINA RESULT:      -4.2     11.607     12.633
REMARK  2 active torsions:
REMARK  status: ('A' for Active; 'I' for Inactive)
REMARK    1  A    between atoms: C6_6  and  C8_8 
REMARK    2  A    between atoms: C7_7  and  C9_9 
ROOT
HETATM    1  C1  UNL     1     -33.872  13.750  -3.989  1.00 20.00     0.132 C 
HETATM    2  C2  UNL     1     -34.827  13.431  -5.314  1.00 20.00     0.084 C 
HETATM    3  C6  UNL     1     -34.804  14.949  -3.773  1.00 20.00     0.064 C 
HETATM    4  C7  UNL     1     -35.910  13.926  -4.287  1.00 20.00     0.008 C 
HETATM    5  O10 UNL     1     -32.910  13.282  -3.433  1.00 20.00    -0.298 OA
ENDROOT
BRANCH   3   6
HETATM    6  C8  UNL     1     -35.554  15.612  -2.618  1.00 20.00    -0.003 C 
HETATM    7  C3  UNL     1     -34.411  16.201  -1.748  1.00 20.00     0.006 C 
HETATM    8  C4  UNL     1     -33.782  17.238  -2.713  1.00 20.00     0.005 C 
HETATM    9  C9  UNL     1     -34.809  17.334  -3.855  1.00 20.00    -0.009 C 
HETATM   10  C5  UNL     1     -36.123  16.936  -3.143  1.00 20.00     0.010 C 
ENDBRANCH   3   6
TORSDOF 2
ENDMDL
MODEL 7
REMARK VINA RESULT:      -4.1     12.019     13.848
REMARK  2 active torsions:
REMARK  status: ('A' for Active; 'I' for Inactive)
REMARK    1  A    between atoms: C6_6  and  C8_8 
REMARK    2  A    between atoms: C7_7  and  C9_9 
ROOT
HETATM    1  C1  UNL     1     -34.459  15.580  -6.756  1.00 20.00     0.132 C 
HETATM    2  C2  UNL     1     -34.429  17.244  -6.769  1.00 20.00     0.084 C 
HETATM    3  C6  UNL     1     -34.525  15.727  -5.231  1.00 20.00     0.064 C 
HETATM    4  C7  UNL     1     -35.438  16.981  -5.591  1.00 20.00     0.008 C 
HETATM    5  O10 UNL     1     -34.445  14.669  -7.544  1.00 20.00    -0.298 OA
ENDROOT
BRANCH   3   6
HETATM    6  C8  UNL     1     -35.316  15.134  -4.065  1.00 20.00    -0.003 C 
HETATM    7  C3  UNL     1     -34.933  13.630  -4.108  1.00 20.00     0.006 C 
HETATM    8  C4  UNL     1     -33.411  13.684  -3.818  1.00 20.00     0.005 C 
HETATM    9  C9  UNL     1     -33.186  15.132  -3.346  1.00 20.00    -0.009 C 
HETATM   10  C5  UNL     1     -34.574  15.504  -2.775  1.00 20.00     0.010 C 
ENDBRANCH   3   6
TORSDOF 2
ENDMDL
MODEL 8
REMARK VINA RESULT:      -4.1     11.498     12.885
REMARK  2 active torsions:
REMARK  status: ('A' for Active; 'I' for Inactive)
REMARK    1  A    between atoms: C6_6  and  C8_8 
REMARK    2  A    between atoms: C7_7  and  C9_9 
ROOT
HETATM    1  C1  UNL     1     -37.326  15.221  -3.641  1.00 20.00     0.132 C 
HETATM    2  C2  UNL     1     -37.539  16.864  -3.474  1.00 20.00     0.084 C 
HETATM    3  C6  UNL     1     -35.840  15.565  -3.800  1.00 20.00     0.064 C 
HETATM    4  C7  UNL     1     -36.184  16.667  -2.702  1.00 20.00     0.008 C 
HETATM    5  O10 UNL     1     -37.993  14.217  -3.636  1.00 20.00    -0.298 OA
ENDROOT
BRANCH   3   6
HETATM    6  C8  UNL     1     -34.495  15.063  -3.277  1.00 20.00    -0.003 C 
HETATM    7  C3  UNL     1     -34.470  13.580  -3.736  1.00 20.00     0.006 C 
HETATM    8  C4  UNL     1     -34.483  13.727  -5.279  1.00 20.00     0.005 C 
HETATM    9  C9  UNL     1     -34.199  15.223  -5.499  1.00 20.00    -0.009 C 
HETATM   10  C5  UNL     1     -33.410  15.594  -4.222  1.00 20.00     0.010 C 
ENDBRANCH   3   6
TORSDOF 2
ENDMDL
MODEL 9
REMARK VINA RESULT:      -4.1     11.594     12.899
REMARK  2 active torsions:
REMARK  status: ('A' for Active; 'I' for Inactive)
REMARK    1  A    between atoms: C6_6  and  C8_8 
REMARK    2  A    between atoms: C7_7  and  C9_9 
ROOT
HETATM    1  C1  UNL     1     -34.992  14.791  -3.841  1.00 20.00     0.132 C 
HETATM    2  C2  UNL     1     -33.713  13.743  -3.652  1.00 20.00     0.084 C 
HETATM    3  C6  UNL     1     -34.216  15.699  -2.878  1.00 20.00     0.064 C 
HETATM    4  C7  UNL     1     -32.958  15.122  -3.667  1.00 20.00     0.008 C 
HETATM    5  O10 UNL     1     -36.036  14.847  -4.440  1.00 20.00    -0.298 OA
ENDROOT
BRANCH   3   6
HETATM    6  C8  UNL     1     -33.825  17.173  -2.772  1.00 20.00    -0.003 C 
HETATM    7  C3  UNL     1     -35.194  17.903  -2.791  1.00 20.00     0.006 C 
HETATM    8  C4  UNL     1     -35.852  17.374  -1.491  1.00 20.00     0.005 C 
HETATM    9  C9  UNL     1     -34.689  16.683  -0.756  1.00 20.00    -0.009 C 
HETATM   10  C5  UNL     1     -33.461  17.445  -1.307  1.00 20.00     0.010 C 
ENDBRANCH   3   6
TORSDOF 2
ENDMDL
