MODEL 1
REMARK VINA RESULT:      -5.3      0.000      0.000
REMARK  2 active torsions:
REMARK  status: ('A' for Active; 'I' for Inactive)
REMARK    1  A    between atoms: C3_3  and  C6_6 
REMARK    2  A    between atoms: C6_6  and  C7_7 
ROOT
HETATM    1  C1  UNL     1     -32.505   7.079   2.967  1.00 20.00    -0.176 C 
HETATM    2  C2  UNL     1     -32.053   8.011   2.186  1.00 20.00     0.091 C 
HETATM    3  C3  UNL     1     -32.957   6.143   3.752  1.00 20.00     0.067 C 
ENDROOT
BRANCH   3   4
HETATM    4  C6  UNL     1     -34.385   5.683   3.805  1.00 20.00     0.021 C 
BRANCH   4   5
HETATM    5  C7  UNL     1     -34.897   5.464   5.241  1.00 20.00    -0.021 C 
HETATM    6  C4  UNL     1     -34.102   6.276   6.267  1.00 20.00     0.009 C 
HETATM    7  C5  UNL     1     -34.832   3.977   5.596  1.00 20.00     0.009 C 
ENDBRANCH   4   5
ENDBRANCH   3   4
TORSDOF 2
ENDMDL
MODEL 2
REMARK VINA RESULT:      -5.2      0.672      1.488
REMARK  2 active torsions:
REMARK  status: ('A' for Active; 'I' for Inactive)
REMARK    1  A    between atoms: C3_3  and  C6_6 
REMARK    2  A    between atoms: C6_6  and  C7_7 
ROOT
HETATM    1  C1  UNL     1     -32.683   6.688   2.995  1.00 20.00    -0.176 C 
HETATM    2  C2  UNL     1     -31.771   7.611   2.963  1.00 20.00     0.091 C 
HETATM    3  C3  UNL     1     -33.597   5.761   3.024  1.00 20.00     0.067 C 
ENDROOT
BRANCH   3   4
HETATM    4  C6  UNL     1     -34.708   5.684   4.032  1.00 20.00     0.021 C 
BRANCH   4   5
HETATM    5  C7  UNL     1     -34.230   5.231   5.424  1.00 20.00    -0.021 C 
HETATM    6  C4  UNL     1     -35.161   4.184   6.042  1.00 20.00     0.009 C 
HETATM    7  C5  UNL     1     -34.121   6.439   6.356  1.00 20.00     0.009 C 
ENDBRANCH   4   5
ENDBRANCH   3   4
TORSDOF 2
ENDMDL
MODEL 3
REMARK VINA RESULT:      -4.9      0.948      1.460
REMARK  2 active torsions:
REMARK  status: ('A' for Active; 'I' for Inactive)
REMARK    1  A    between atoms: C3_3  and  C6_6 
REMARK    2  A    between atoms: C6_6  and  C7_7 
ROOT
HETATM    1  C1  UNL     1     -32.241   7.470   2.580  1.00 20.00    -0.176 C 
HETATM    2  C2  UNL     1     -32.023   8.462   1.772  1.00 20.00     0.091 C 
HETATM    3  C3  UNL     1     -32.458   6.474   3.391  1.00 20.00     0.067 C 
ENDROOT
BRANCH   3   4
HETATM    4  C6  UNL     1     -33.355   6.527   4.594  1.00 20.00     0.021 C 
BRANCH   4   5
HETATM    5  C7  UNL     1     -34.290   5.308   4.704  1.00 20.00    -0.021 C 
HETATM    6  C4  UNL     1     -35.496   5.419   3.767  1.00 20.00     0.009 C 
HETATM    7  C5  UNL     1     -34.771   5.148   6.147  1.00 20.00     0.009 C 
ENDBRANCH   4   5
ENDBRANCH   3   4
TORSDOF 2
ENDMDL
MODEL 4
REMARK VINA RESULT:      -4.4      0.925      4.094
REMARK  2 active torsions:
REMARK  status: ('A' for Active; 'I' for Inactive)
REMARK    1  A    between atoms: C3_3  and  C6_6 
REMARK    2  A    between atoms: C6_6  and  C7_7 
ROOT
HETATM    1  C1  UNL     1     -34.343   5.416   5.200  1.00 20.00    -0.176 C 
HETATM    2  C2  UNL     1     -34.920   4.460   5.862  1.00 20.00     0.091 C 
HETATM    3  C3  UNL     1     -33.764   6.377   4.539  1.00 20.00     0.067 C 
ENDROOT
BRANCH   3   4
HETATM    4  C6  UNL     1     -33.228   6.254   3.141  1.00 20.00     0.021 C 
BRANCH   4   5
HETATM    5  C7  UNL     1     -31.942   7.071   2.913  1.00 20.00    -0.021 C 
HETATM    6  C4  UNL     1     -31.398   7.666   4.215  1.00 20.00     0.009 C 
HETATM    7  C5  UNL     1     -32.207   8.190   1.905  1.00 20.00     0.009 C 
ENDBRANCH   4   5
ENDBRANCH   3   4
TORSDOF 2
ENDMDL
MODEL 5
REMARK VINA RESULT:      -4.3      0.944      3.916
REMARK  2 active torsions:
REMARK  status: ('A' for Active; 'I' for Inactive)
REMARK    1  A    between atoms: C3_3  and  C6_6 
REMARK    2  A    between atoms: C6_6  and  C7_7 
ROOT
HETATM    1  C1  UNL     1     -34.873   4.876   4.979  1.00 20.00    -0.176 C 
HETATM    2  C2  UNL     1     -35.117   4.250   6.089  1.00 20.00     0.091 C 
HETATM    3  C3  UNL     1     -34.629   5.503   3.864  1.00 20.00     0.067 C 
ENDROOT
BRANCH   3   4
HETATM    4  C6  UNL     1     -34.016   6.870   3.765  1.00 20.00     0.021 C 
BRANCH   4   5
HETATM    5  C7  UNL     1     -32.516   6.836   3.417  1.00 20.00    -0.021 C 
HETATM    6  C4  UNL     1     -32.130   7.926   2.413  1.00 20.00     0.009 C 
HETATM    7  C5  UNL     1     -32.142   5.462   2.856  1.00 20.00     0.009 C 
ENDBRANCH   4   5
ENDBRANCH   3   4
TORSDOF 2
ENDMDL
MODEL 6
REMARK VINA RESULT:      -4.2      1.336      3.248
REMARK  2 active torsions:
REMARK  status: ('A' for Active; 'I' for Inactive)
REMARK    1  A    between atoms: C3_3  and  C6_6 
REMARK    2  A    between atoms: C6_6  and  C7_7 
ROOT
HETATM    1  C1  UNL     1     -34.107   6.366   6.528  1.00 20.00    -0.176 C 
HETATM    2  C2  UNL     1     -33.387   7.388   6.875  1.00 20.00     0.091 C 
HETATM    3  C3  UNL     1     -34.831   5.341   6.182  1.00 20.00     0.067 C 
ENDROOT
BRANCH   3   4
HETATM    4  C6  UNL     1     -34.491   4.386   5.075  1.00 20.00     0.021 C 
BRANCH   4   5
HETATM    5  C7  UNL     1     -34.627   5.011   3.673  1.00 20.00    -0.021 C 
HETATM    6  C4  UNL     1     -33.443   5.918   3.329  1.00 20.00     0.009 C 
HETATM    7  C5  UNL     1     -35.931   5.806   3.581  1.00 20.00     0.009 C 
ENDBRANCH   4   5
ENDBRANCH   3   4
TORSDOF 2
ENDMDL
MODEL 7
REMARK VINA RESULT:      -4.0      1.599      4.701
REMARK  2 active torsions:
REMARK  status: ('A' for Active; 'I' for Inactive)
REMARK    1  A    between atoms: C3_3  and  C6_6 
REMARK    2  A    between atoms: C6_6  and  C7_7 
ROOT
HETATM    1  C1  UNL     1     -33.458   6.060   3.431  1.00 20.00    -0.176 C 
HETATM    2  C2  UNL     1     -34.672   5.688   3.697  1.00 20.00     0.091 C 
HETATM    3  C3  UNL     1     -32.238   6.432   3.164  1.00 20.00     0.067 C 
ENDROOT
BRANCH   3   4
HETATM    4  C6  UNL     1     -31.793   7.856   2.998  1.00 20.00     0.021 C 
BRANCH   4   5
HETATM    5  C7  UNL     1     -32.416   8.544   1.768  1.00 20.00    -0.021 C 
HETATM    6  C4  UNL     1     -31.495   8.488   0.547  1.00 20.00     0.009 C 
HETATM    7  C5  UNL     1     -32.748  10.001   2.099  1.00 20.00     0.009 C 
ENDBRANCH   4   5
ENDBRANCH   3   4
TORSDOF 2
ENDMDL
MODEL 8
REMARK VINA RESULT:      -3.9     11.190     11.873
REMARK  2 active torsions:
REMARK  status: ('A' for Active; 'I' for Inactive)
REMARK    1  A    between atoms: C3_3  and  C6_6 
REMARK    2  A    between atoms: C6_6  and  C7_7 
ROOT
HETATM    1  C1  UNL     1     -34.503  16.614  -1.193  1.00 20.00    -0.176 C 
HETATM    2  C2  UNL     1     -34.817  17.112  -0.036  1.00 20.00     0.091 C 
HETATM    3  C3  UNL     1     -34.186  16.116  -2.353  1.00 20.00     0.067 C 
ENDROOT
BRANCH   3   4
HETATM    4  C6  UNL     1     -35.052  15.184  -3.152  1.00 20.00     0.021 C 
BRANCH   4   5
HETATM    5  C7  UNL     1     -34.350  13.858  -3.502  1.00 20.00    -0.021 C 
HETATM    6  C4  UNL     1     -32.830  14.017  -3.596  1.00 20.00     0.009 C 
HETATM    7  C5  UNL     1     -34.895  13.313  -4.823  1.00 20.00     0.009 C 
ENDBRANCH   4   5
ENDBRANCH   3   4
TORSDOF 2
ENDMDL
MODEL 9
REMARK VINA RESULT:      -3.7     11.459     12.378
REMARK  2 active torsions:
REMARK  status: ('A' for Active; 'I' for Inactive)
REMARK    1  A    between atoms: C3_3  and  C6_6 
REMARK    2  A    between atoms: C6_6  and  C7_7 
ROOT
HETATM    1  C1  UNL     1     -34.571  17.090  -0.416  1.00 20.00    -0.176 C 
HETATM    2  C2  UNL     1     -35.102  17.422   0.721  1.00 20.00     0.091 C 
HETATM    3  C3  UNL     1     -34.036  16.759  -1.556  1.00 20.00     0.067 C 
ENDROOT
BRANCH   3   4
HETATM    4  C6  UNL     1     -34.551  15.678  -2.463  1.00 20.00     0.021 C 
BRANCH   4   5
HETATM    5  C7  UNL     1     -33.478  15.137  -3.428  1.00 20.00    -0.021 C 
HETATM    6  C4  UNL     1     -33.178  16.117  -4.565  1.00 20.00     0.009 C 
HETATM    7  C5  UNL     1     -33.928  13.795  -4.008  1.00 20.00     0.009 C 
ENDBRANCH   4   5
ENDBRANCH   3   4
TORSDOF 2
ENDMDL
