MODEL 1
REMARK VINA RESULT:      -4.4      0.000      0.000
REMARK  3 active torsions:
REMARK  status: ('A' for Active; 'I' for Inactive)
REMARK    1  A    between atoms: C1_1  and  C6_6 
REMARK    2  A    between atoms: C6_6  and  C7_7 
REMARK    3  A    between atoms: C6_6  and  O9_9 
ROOT
HETATM    1  C2  UNL     1     -35.211  14.169  -6.096  1.00 20.00     0.054 C 
HETATM    2  C6  UNL     1     -35.246  14.144  -4.564  1.00 20.00     0.113 C 
ENDROOT
BRANCH   2   3
HETATM    3  C1  UNL     1     -36.584  14.731  -4.126  1.00 20.00     0.269 C 
HETATM    4  O8  UNL     1     -37.560  14.062  -3.800  1.00 20.00    -0.304 OA
ENDBRANCH   2   3
BRANCH   2   5
HETATM    5  C7  UNL     1     -34.041  14.875  -3.871  1.00 20.00    -0.014 C 
HETATM    6  C3  UNL     1     -32.928  13.863  -3.512  1.00 20.00     0.018 C 
HETATM    7  C4  UNL     1     -34.492  15.540  -2.550  1.00 20.00     0.018 C 
HETATM    8  C5  UNL     1     -33.423  15.972  -4.763  1.00 20.00     0.018 C 
ENDBRANCH   2   5
BRANCH   2   9
HETATM    9  O9  UNL     1     -35.252  12.776  -4.149  1.00 20.00    -0.382 OA
HETATM   10  H23 UNL     1     -34.533  12.684  -3.507  1.00 20.00     0.211 HD
ENDBRANCH   2   9
TORSDOF 3
ENDMDL
MODEL 2
REMARK VINA RESULT:      -4.4      0.051      1.447
REMARK  3 active torsions:
REMARK  status: ('A' for Active; 'I' for Inactive)
REMARK    1  A    between atoms: C1_1  and  C6_6 
REMARK    2  A    between atoms: C6_6  and  C7_7 
REMARK    3  A    between atoms: C6_6  and  O9_9 
ROOT
HETATM    1  C2  UNL     1     -35.153  14.119  -6.114  1.00 20.00     0.054 C 
HETATM    2  C6  UNL     1     -35.222  14.110  -4.583  1.00 20.00     0.113 C 
ENDROOT
BRANCH   2   3
HETATM    3  C1  UNL     1     -36.567  14.704  -4.180  1.00 20.00     0.269 C 
HETATM    4  O8  UNL     1     -37.524  14.046  -3.782  1.00 20.00    -0.304 OA
ENDBRANCH   2   3
BRANCH   2   5
HETATM    5  C7  UNL     1     -34.031  14.844  -3.871  1.00 20.00    -0.014 C 
HETATM    6  C3  UNL     1     -34.520  15.552  -2.586  1.00 20.00     0.018 C 
HETATM    7  C4  UNL     1     -33.434  15.936  -4.790  1.00 20.00     0.018 C 
HETATM    8  C5  UNL     1     -32.890  13.881  -3.483  1.00 20.00     0.018 C 
ENDBRANCH   2   5
BRANCH   2   9
HETATM    9  O9  UNL     1     -35.241  12.746  -4.154  1.00 20.00    -0.382 OA
HETATM   10  H23 UNL     1     -35.684  12.738  -3.293  1.00 20.00     0.211 HD
ENDBRANCH   2   9
TORSDOF 3
ENDMDL
MODEL 3
REMARK VINA RESULT:      -4.0      1.463      2.367
REMARK  3 active torsions:
REMARK  status: ('A' for Active; 'I' for Inactive)
REMARK    1  A    between atoms: C1_1  and  C6_6 
REMARK    2  A    between atoms: C6_6  and  C7_7 
REMARK    3  A    between atoms: C6_6  and  O9_9 
ROOT
HETATM    1  C2  UNL     1     -36.052  15.768  -5.263  1.00 20.00     0.054 C 
HETATM    2  C6  UNL     1     -34.829  14.963  -4.810  1.00 20.00     0.113 C 
ENDROOT
BRANCH   2   3
HETATM    3  C1  UNL     1     -35.332  13.628  -4.272  1.00 20.00     0.269 C 
HETATM    4  O8  UNL     1     -34.922  12.532  -4.642  1.00 20.00    -0.304 OA
ENDBRANCH   2   3
BRANCH   2   5
HETATM    5  C7  UNL     1     -33.913  15.697  -3.768  1.00 20.00    -0.014 C 
HETATM    6  C3  UNL     1     -33.566  17.122  -4.259  1.00 20.00     0.018 C 
HETATM    7  C4  UNL     1     -32.575  14.942  -3.588  1.00 20.00     0.018 C 
HETATM    8  C5  UNL     1     -34.576  15.817  -2.380  1.00 20.00     0.018 C 
ENDBRANCH   2   5
BRANCH   2   9
HETATM    9  O9  UNL     1     -34.051  14.660  -5.971  1.00 20.00    -0.382 OA
HETATM   10  H23 UNL     1     -34.239  15.359  -6.615  1.00 20.00     0.211 HD
ENDBRANCH   2   9
TORSDOF 3
ENDMDL
MODEL 4
REMARK VINA RESULT:      -3.9      1.750      2.643
REMARK  3 active torsions:
REMARK  status: ('A' for Active; 'I' for Inactive)
REMARK    1  A    between atoms: C1_1  and  C6_6 
REMARK    2  A    between atoms: C6_6  and  C7_7 
REMARK    3  A    between atoms: C6_6  and  O9_9 
ROOT
HETATM    1  C2  UNL     1     -34.272  14.973  -5.985  1.00 20.00     0.054 C 
HETATM    2  C6  UNL     1     -33.811  15.130  -4.532  1.00 20.00     0.113 C 
ENDROOT
BRANCH   2   3
HETATM    3  C1  UNL     1     -33.916  13.761  -3.867  1.00 20.00     0.269 C 
HETATM    4  O8  UNL     1     -34.702  12.883  -4.210  1.00 20.00    -0.304 OA
ENDBRANCH   2   3
BRANCH   2   5
HETATM    5  C7  UNL     1     -34.582  16.227  -3.717  1.00 20.00    -0.014 C 
HETATM    6  C3  UNL     1     -33.916  17.611  -3.905  1.00 20.00     0.018 C 
HETATM    7  C4  UNL     1     -34.547  15.910  -2.204  1.00 20.00     0.018 C 
HETATM    8  C5  UNL     1     -36.061  16.347  -4.138  1.00 20.00     0.018 C 
ENDBRANCH   2   5
BRANCH   2   9
HETATM    9  O9  UNL     1     -32.421  15.463  -4.548  1.00 20.00    -0.382 OA
HETATM   10  H23 UNL     1     -32.289  16.045  -5.311  1.00 20.00     0.211 HD
ENDBRANCH   2   9
TORSDOF 3
ENDMDL
MODEL 5
REMARK VINA RESULT:      -3.8      1.575      2.794
REMARK  3 active torsions:
REMARK  status: ('A' for Active; 'I' for Inactive)
REMARK    1  A    between atoms: C1_1  and  C6_6 
REMARK    2  A    between atoms: C6_6  and  C7_7 
REMARK    3  A    between atoms: C6_6  and  O9_9 
ROOT
HETATM    1  C2  UNL     1     -32.843  15.021  -3.642  1.00 20.00     0.054 C 
HETATM    2  C6  UNL     1     -34.206  14.839  -4.318  1.00 20.00     0.113 C 
ENDROOT
BRANCH   2   3
HETATM    3  C1  UNL     1     -34.302  13.386  -4.771  1.00 20.00     0.269 C 
HETATM    4  O8  UNL     1     -35.121  12.579  -4.341  1.00 20.00    -0.304 OA
ENDBRANCH   2   3
BRANCH   2   5
HETATM    5  C7  UNL     1     -34.486  15.832  -5.501  1.00 20.00    -0.014 C 
HETATM    6  C3  UNL     1     -33.486  17.011  -5.469  1.00 20.00     0.018 C 
HETATM    7  C4  UNL     1     -35.904  16.438  -5.381  1.00 20.00     0.018 C 
HETATM    8  C5  UNL     1     -34.381  15.151  -6.881  1.00 20.00     0.018 C 
ENDBRANCH   2   5
BRANCH   2   9
HETATM    9  O9  UNL     1     -35.216  15.016  -3.321  1.00 20.00    -0.382 OA
HETATM   10  H23 UNL     1     -36.023  14.617  -3.679  1.00 20.00     0.211 HD
ENDBRANCH   2   9
TORSDOF 3
ENDMDL
MODEL 6
REMARK VINA RESULT:      -3.8     10.628     11.511
REMARK  3 active torsions:
REMARK  status: ('A' for Active; 'I' for Inactive)
REMARK    1  A    between atoms: C1_1  and  C6_6 
REMARK    2  A    between atoms: C6_6  and  C7_7 
REMARK    3  A    between atoms: C6_6  and  O9_9 
ROOT
HETATM    1  C2  UNL     1     -43.026   7.722  -1.079  1.00 20.00     0.054 C 
HETATM    2  C6  UNL     1     -42.144   6.643  -1.716  1.00 20.00     0.113 C 
ENDROOT
BRANCH   2   3
HETATM    3  C1  UNL     1     -42.963   5.970  -2.812  1.00 20.00     0.269 C 
HETATM    4  O8  UNL     1     -43.211   6.477  -3.903  1.00 20.00    -0.304 OA
ENDBRANCH   2   3
BRANCH   2   5
HETATM    5  C7  UNL     1     -41.562   5.593  -0.704  1.00 20.00    -0.014 C 
HETATM    6  C3  UNL     1     -40.384   6.203   0.093  1.00 20.00     0.018 C 
HETATM    7  C4  UNL     1     -41.009   4.359  -1.455  1.00 20.00     0.018 C 
HETATM    8  C5  UNL     1     -42.617   5.096   0.305  1.00 20.00     0.018 C 
ENDBRANCH   2   5
BRANCH   2   9
HETATM    9  O9  UNL     1     -41.056   7.299  -2.373  1.00 20.00    -0.382 OA
HETATM   10  H23 UNL     1     -40.312   6.679  -2.350  1.00 20.00     0.211 HD
ENDBRANCH   2   9
TORSDOF 3
ENDMDL
MODEL 7
REMARK VINA RESULT:      -3.8      2.487      3.569
REMARK  3 active torsions:
REMARK  status: ('A' for Active; 'I' for Inactive)
REMARK    1  A    between atoms: C1_1  and  C6_6 
REMARK    2  A    between atoms: C6_6  and  C7_7 
REMARK    3  A    between atoms: C6_6  and  O9_9 
ROOT
HETATM    1  C2  UNL     1     -33.748  16.143  -2.737  1.00 20.00     0.054 C 
HETATM    2  C6  UNL     1     -33.456  15.830  -4.209  1.00 20.00     0.113 C 
ENDROOT
BRANCH   2   3
HETATM    3  C1  UNL     1     -33.391  17.158  -4.957  1.00 20.00     0.269 C 
HETATM    4  O8  UNL     1     -33.774  18.230  -4.499  1.00 20.00    -0.304 OA
ENDBRANCH   2   3
BRANCH   2   5
HETATM    5  C7  UNL     1     -34.472  14.839  -4.880  1.00 20.00    -0.014 C 
HETATM    6  C3  UNL     1     -34.468  15.016  -6.417  1.00 20.00     0.018 C 
HETATM    7  C4  UNL     1     -35.914  15.123  -4.396  1.00 20.00     0.018 C 
HETATM    8  C5  UNL     1     -34.153  13.363  -4.566  1.00 20.00     0.018 C 
ENDBRANCH   2   5
BRANCH   2   9
HETATM    9  O9  UNL     1     -32.146  15.263  -4.284  1.00 20.00    -0.382 OA
HETATM   10  H23 UNL     1     -32.191  14.412  -3.822  1.00 20.00     0.211 HD
ENDBRANCH   2   9
TORSDOF 3
ENDMDL
MODEL 8
REMARK VINA RESULT:      -3.8      2.461      3.536
REMARK  3 active torsions:
REMARK  status: ('A' for Active; 'I' for Inactive)
REMARK    1  A    between atoms: C1_1  and  C6_6 
REMARK    2  A    between atoms: C6_6  and  C7_7 
REMARK    3  A    between atoms: C6_6  and  O9_9 
ROOT
HETATM    1  C2  UNL     1     -33.693  16.247  -2.732  1.00 20.00     0.054 C 
HETATM    2  C6  UNL     1     -33.430  15.797  -4.173  1.00 20.00     0.113 C 
ENDROOT
BRANCH   2   3
HETATM    3  C1  UNL     1     -33.397  17.047  -5.045  1.00 20.00     0.269 C 
HETATM    4  O8  UNL     1     -33.792  18.153  -4.687  1.00 20.00    -0.304 OA
ENDBRANCH   2   3
BRANCH   2   5
HETATM    5  C7  UNL     1     -34.450  14.737  -4.723  1.00 20.00    -0.014 C 
HETATM    6  C3  UNL     1     -35.853  14.967  -4.114  1.00 20.00     0.018 C 
HETATM    7  C4  UNL     1     -34.015  13.305  -4.331  1.00 20.00     0.018 C 
HETATM    8  C5  UNL     1     -34.580  14.785  -6.259  1.00 20.00     0.018 C 
ENDBRANCH   2   5
BRANCH   2   9
HETATM    9  O9  UNL     1     -32.116  15.237  -4.223  1.00 20.00    -0.382 OA
HETATM   10  H23 UNL     1     -31.637  15.598  -3.462  1.00 20.00     0.211 HD
ENDBRANCH   2   9
TORSDOF 3
ENDMDL
MODEL 9
REMARK VINA RESULT:      -3.7      2.227      3.066
REMARK  3 active torsions:
REMARK  status: ('A' for Active; 'I' for Inactive)
REMARK    1  A    between atoms: C1_1  and  C6_6 
REMARK    2  A    between atoms: C6_6  and  C7_7 
REMARK    3  A    between atoms: C6_6  and  O9_9 
ROOT
HETATM    1  C2  UNL     1     -34.097  17.589  -4.554  1.00 20.00     0.054 C 
HETATM    2  C6  UNL     1     -33.896  16.098  -4.848  1.00 20.00     0.113 C 
ENDROOT
BRANCH   2   3
HETATM    3  C1  UNL     1     -34.559  15.802  -6.189  1.00 20.00     0.269 C 
HETATM    4  O8  UNL     1     -34.074  15.083  -7.058  1.00 20.00    -0.304 OA
ENDBRANCH   2   3
BRANCH   2   5
HETATM    5  C7  UNL     1     -34.415  15.135  -3.722  1.00 20.00    -0.014 C 
HETATM    6  C3  UNL     1     -33.561  13.846  -3.674  1.00 20.00     0.018 C 
HETATM    7  C4  UNL     1     -35.873  14.701  -4.003  1.00 20.00     0.018 C 
HETATM    8  C5  UNL     1     -34.380  15.786  -2.324  1.00 20.00     0.018 C 
ENDBRANCH   2   5
BRANCH   2   9
HETATM    9  O9  UNL     1     -32.496  15.874  -5.034  1.00 20.00    -0.382 OA
HETATM   10  H23 UNL     1     -32.198  16.538  -5.673  1.00 20.00     0.211 HD
ENDBRANCH   2   9
TORSDOF 3
ENDMDL
