MODEL 1
REMARK VINA RESULT:      -4.4      0.000      0.000
REMARK  2 active torsions:
REMARK  status: ('A' for Active; 'I' for Inactive)
REMARK    1  A    between atoms: C2_2  and  C4_4 
REMARK    2  A    between atoms: C4_4  and  C5_5 
ROOT
HETATM    1  C1  UNL     1     -32.928   6.152   3.338  1.00 20.00    -0.035 C 
HETATM    2  C2  UNL     1     -34.166   6.215   3.854  1.00 20.00    -0.030 C 
HETATM    3  C3  UNL     1     -32.185   7.280   2.748  1.00 20.00     0.036 C 
ENDROOT
BRANCH   2   4
HETATM    4  C4  UNL     1     -34.887   5.041   4.452  1.00 20.00     0.042 C 
BRANCH   4   5
HETATM    5  C5  UNL     1     -34.842   5.035   5.977  1.00 20.00     0.118 C 
HETATM    6 CL6  UNL     1     -34.105   6.523   6.619  1.00 20.00    -0.130 Cl
ENDBRANCH   4   5
ENDBRANCH   2   4
TORSDOF 2
ENDMDL
MODEL 2
REMARK VINA RESULT:      -4.1      2.353      3.928
REMARK  2 active torsions:
REMARK  status: ('A' for Active; 'I' for Inactive)
REMARK    1  A    between atoms: C2_2  and  C4_4 
REMARK    2  A    between atoms: C4_4  and  C5_5 
ROOT
HETATM    1  C1  UNL     1     -34.711   5.081   4.726  1.00 20.00    -0.035 C 
HETATM    2  C2  UNL     1     -33.635   5.843   4.470  1.00 20.00    -0.030 C 
HETATM    3  C3  UNL     1     -35.111   4.577   6.052  1.00 20.00     0.036 C 
ENDROOT
BRANCH   2   4
HETATM    4  C4  UNL     1     -33.265   6.341   3.102  1.00 20.00     0.042 C 
BRANCH   4   5
HETATM    5  C5  UNL     1     -32.034   7.241   3.115  1.00 20.00     0.118 C 
HETATM    6 CL6  UNL     1     -32.018   8.355   1.726  1.00 20.00    -0.130 Cl
ENDBRANCH   4   5
ENDBRANCH   2   4
TORSDOF 2
ENDMDL
MODEL 3
REMARK VINA RESULT:      -4.0      2.676      3.095
REMARK  2 active torsions:
REMARK  status: ('A' for Active; 'I' for Inactive)
REMARK    1  A    between atoms: C2_2  and  C4_4 
REMARK    2  A    between atoms: C4_4  and  C5_5 
ROOT
HETATM    1  C1  UNL     1     -34.057   6.531   6.103  1.00 20.00    -0.035 C 
HETATM    2  C2  UNL     1     -34.393   5.248   6.314  1.00 20.00    -0.030 C 
HETATM    3  C3  UNL     1     -33.415   7.423   7.085  1.00 20.00     0.036 C 
ENDROOT
BRANCH   2   4
HETATM    4  C4  UNL     1     -35.041   4.369   5.282  1.00 20.00     0.042 C 
BRANCH   4   5
HETATM    5  C5  UNL     1     -35.491   5.143   4.047  1.00 20.00     0.118 C 
HETATM    6 CL6  UNL     1     -34.180   5.295   2.852  1.00 20.00    -0.130 Cl
ENDBRANCH   4   5
ENDBRANCH   2   4
TORSDOF 2
ENDMDL
MODEL 4
REMARK VINA RESULT:      -3.9      2.585      4.202
REMARK  2 active torsions:
REMARK  status: ('A' for Active; 'I' for Inactive)
REMARK    1  A    between atoms: C2_2  and  C4_4 
REMARK    2  A    between atoms: C4_4  and  C5_5 
ROOT
HETATM    1  C1  UNL     1     -33.980   6.214   4.179  1.00 20.00    -0.035 C 
HETATM    2  C2  UNL     1     -33.063   6.339   3.207  1.00 20.00    -0.030 C 
HETATM    3  C3  UNL     1     -34.981   5.137   4.282  1.00 20.00     0.036 C 
ENDROOT
BRANCH   2   4
HETATM    4  C4  UNL     1     -32.055   7.451   3.142  1.00 20.00     0.042 C 
BRANCH   4   5
HETATM    5  C5  UNL     1     -31.951   8.073   1.752  1.00 20.00     0.118 C 
HETATM    6 CL6  UNL     1     -32.538   9.754   1.738  1.00 20.00    -0.130 Cl
ENDBRANCH   4   5
ENDBRANCH   2   4
TORSDOF 2
ENDMDL
MODEL 5
REMARK VINA RESULT:      -3.7      1.249      1.826
REMARK  2 active torsions:
REMARK  status: ('A' for Active; 'I' for Inactive)
REMARK    1  A    between atoms: C2_2  and  C4_4 
REMARK    2  A    between atoms: C4_4  and  C5_5 
ROOT
HETATM    1  C1  UNL     1     -32.187   7.751   2.748  1.00 20.00    -0.035 C 
HETATM    2  C2  UNL     1     -33.017   6.713   2.937  1.00 20.00    -0.030 C 
HETATM    3  C3  UNL     1     -31.862   8.366   1.449  1.00 20.00     0.036 C 
ENDROOT
BRANCH   2   4
HETATM    4  C4  UNL     1     -33.326   6.118   4.281  1.00 20.00     0.042 C 
BRANCH   4   5
HETATM    5  C5  UNL     1     -34.660   5.377   4.306  1.00 20.00     0.118 C 
HETATM    6 CL6  UNL     1     -35.012   4.710   5.919  1.00 20.00    -0.130 Cl
ENDBRANCH   4   5
ENDBRANCH   2   4
TORSDOF 2
ENDMDL
MODEL 6
REMARK VINA RESULT:      -3.3     11.625     12.256
REMARK  2 active torsions:
REMARK  status: ('A' for Active; 'I' for Inactive)
REMARK    1  A    between atoms: C2_2  and  C4_4 
REMARK    2  A    between atoms: C4_4  and  C5_5 
ROOT
HETATM    1  C1  UNL     1     -34.660  16.174  -1.774  1.00 20.00    -0.035 C 
HETATM    2  C2  UNL     1     -33.620  16.178  -2.622  1.00 20.00    -0.030 C 
HETATM    3  C3  UNL     1     -34.708  16.857  -0.470  1.00 20.00     0.036 C 
ENDROOT
BRANCH   2   4
HETATM    4  C4  UNL     1     -33.613  15.472  -3.948  1.00 20.00     0.042 C 
BRANCH   4   5
HETATM    5  C5  UNL     1     -33.582  13.954  -3.808  1.00 20.00     0.118 C 
HETATM    6 CL6  UNL     1     -35.147  13.221  -4.235  1.00 20.00    -0.130 Cl
ENDBRANCH   4   5
ENDBRANCH   2   4
TORSDOF 2
ENDMDL
MODEL 7
REMARK VINA RESULT:      -3.2     11.907     12.256
REMARK  2 active torsions:
REMARK  status: ('A' for Active; 'I' for Inactive)
REMARK    1  A    between atoms: C2_2  and  C4_4 
REMARK    2  A    between atoms: C4_4  and  C5_5 
ROOT
HETATM    1  C1  UNL     1     -34.353  17.202  -0.449  1.00 20.00    -0.035 C 
HETATM    2  C2  UNL     1     -34.734  16.332  -1.397  1.00 20.00    -0.030 C 
HETATM    3  C3  UNL     1     -35.097  17.509   0.785  1.00 20.00     0.036 C 
ENDROOT
BRANCH   2   4
HETATM    4  C4  UNL     1     -33.942  16.042  -2.640  1.00 20.00     0.042 C 
BRANCH   4   5
HETATM    5  C5  UNL     1     -34.481  14.847  -3.419  1.00 20.00     0.118 C 
HETATM    6 CL6  UNL     1     -33.211  13.639  -3.733  1.00 20.00    -0.130 Cl
ENDBRANCH   4   5
ENDBRANCH   2   4
TORSDOF 2
ENDMDL
MODEL 8
REMARK VINA RESULT:      -3.0      9.291      9.994
REMARK  2 active torsions:
REMARK  status: ('A' for Active; 'I' for Inactive)
REMARK    1  A    between atoms: C2_2  and  C4_4 
REMARK    2  A    between atoms: C4_4  and  C5_5 
ROOT
HETATM    1  C1  UNL     1     -41.695   4.306  -1.936  1.00 20.00    -0.035 C 
HETATM    2  C2  UNL     1     -40.747   4.655  -1.052  1.00 20.00    -0.030 C 
HETATM    3  C3  UNL     1     -41.688   3.089  -2.768  1.00 20.00     0.036 C 
ENDROOT
BRANCH   2   4
HETATM    4  C4  UNL     1     -40.795   5.904  -0.218  1.00 20.00     0.042 C 
BRANCH   4   5
HETATM    5  C5  UNL     1     -41.178   7.139  -1.027  1.00 20.00     0.118 C 
HETATM    6 CL6  UNL     1     -42.866   7.623  -0.730  1.00 20.00    -0.130 Cl
ENDBRANCH   4   5
ENDBRANCH   2   4
TORSDOF 2
ENDMDL
MODEL 9
REMARK VINA RESULT:      -3.0     12.450     12.839
REMARK  2 active torsions:
REMARK  status: ('A' for Active; 'I' for Inactive)
REMARK    1  A    between atoms: C2_2  and  C4_4 
REMARK    2  A    between atoms: C4_4  and  C5_5 
ROOT
HETATM    1  C1  UNL     1     -33.853  16.879  -1.424  1.00 20.00    -0.035 C 
HETATM    2  C2  UNL     1     -34.764  16.044  -1.949  1.00 20.00    -0.030 C 
HETATM    3  C3  UNL     1     -34.084  17.806  -0.303  1.00 20.00     0.036 C 
ENDROOT
BRANCH   2   4
HETATM    4  C4  UNL     1     -34.487  15.108  -3.091  1.00 20.00     0.042 C 
BRANCH   4   5
HETATM    5  C5  UNL     1     -33.096  15.302  -3.688  1.00 20.00     0.118 C 
HETATM    6 CL6  UNL     1     -33.118  16.456  -5.045  1.00 20.00    -0.130 Cl
ENDBRANCH   4   5
ENDBRANCH   2   4
TORSDOF 2
ENDMDL
