MODEL 1
REMARK VINA RESULT:      -4.4      0.000      0.000
REMARK  4 active torsions:
REMARK  status: ('A' for Active; 'I' for Inactive)
REMARK    1  A    between atoms: C1_1  and  C6_6 
REMARK    2  A    between atoms: C2_2  and  C7_7 
REMARK    3  A    between atoms: C6_6  and  O9_9 
REMARK    4  A    between atoms: C8_8  and  O9_9 
ROOT
HETATM    1  C6  UNL     1     -32.762   6.573   4.113  1.00 20.00     0.196 C 
ENDROOT
BRANCH   1   2
HETATM    2  C1  UNL     1     -32.211   6.947   2.776  1.00 20.00    -0.004 C 
HETATM    3  C2  UNL     1     -32.165   8.205   2.314  1.00 20.00    -0.014 C 
BRANCH   3   4
HETATM    4  C7  UNL     1     -31.600   8.578   0.983  1.00 20.00     0.141 C 
HETATM    5 CL10 UNL     1     -32.894   9.163  -0.082  1.00 20.00    -0.126 Cl
ENDBRANCH   3   4
ENDBRANCH   1   2
BRANCH   1   6
HETATM    6  O9  UNL     1     -33.419   5.321   4.002  1.00 20.00    -0.378 OA
BRANCH   6   7
HETATM    7  C8  UNL     1     -34.576   5.266   4.837  1.00 20.00     0.050 C 
HETATM    8  C3  UNL     1     -34.405   6.273   5.971  1.00 20.00     0.045 C 
HETATM    9  C4  UNL     1     -35.783   5.628   3.973  1.00 20.00     0.045 C 
HETATM   10  C5  UNL     1     -34.714   3.845   5.384  1.00 20.00     0.045 C 
ENDBRANCH   6   7
ENDBRANCH   1   6
TORSDOF 4
ENDMDL
MODEL 2
REMARK VINA RESULT:      -4.4      0.022      1.370
REMARK  4 active torsions:
REMARK  status: ('A' for Active; 'I' for Inactive)
REMARK    1  A    between atoms: C1_1  and  C6_6 
REMARK    2  A    between atoms: C2_2  and  C7_7 
REMARK    3  A    between atoms: C6_6  and  O9_9 
REMARK    4  A    between atoms: C8_8  and  O9_9 
ROOT
HETATM    1  C6  UNL     1     -32.772   6.586   4.126  1.00 20.00     0.196 C 
ENDROOT
BRANCH   1   2
HETATM    2  C1  UNL     1     -32.218   6.950   2.787  1.00 20.00    -0.004 C 
HETATM    3  C2  UNL     1     -32.168   8.205   2.318  1.00 20.00    -0.014 C 
BRANCH   3   4
HETATM    4  C7  UNL     1     -31.600   8.567   0.985  1.00 20.00     0.141 C 
HETATM    5 CL10 UNL     1     -32.892   9.149  -0.086  1.00 20.00    -0.126 Cl
ENDBRANCH   3   4
ENDBRANCH   1   2
BRANCH   1   6
HETATM    6  O9  UNL     1     -33.409   5.323   4.029  1.00 20.00    -0.378 OA
BRANCH   6   7
HETATM    7  C8  UNL     1     -34.579   5.267   4.845  1.00 20.00     0.050 C 
HETATM    8  C3  UNL     1     -35.787   5.643   3.989  1.00 20.00     0.045 C 
HETATM    9  C4  UNL     1     -34.711   3.836   5.362  1.00 20.00     0.045 C 
HETATM   10  C5  UNL     1     -34.409   6.245   6.007  1.00 20.00     0.045 C 
ENDBRANCH   6   7
ENDBRANCH   1   6
TORSDOF 4
ENDMDL
MODEL 3
REMARK VINA RESULT:      -4.4      0.019      1.375
REMARK  4 active torsions:
REMARK  status: ('A' for Active; 'I' for Inactive)
REMARK    1  A    between atoms: C1_1  and  C6_6 
REMARK    2  A    between atoms: C2_2  and  C7_7 
REMARK    3  A    between atoms: C6_6  and  O9_9 
REMARK    4  A    between atoms: C8_8  and  O9_9 
ROOT
HETATM    1  C6  UNL     1     -32.776   6.579   4.114  1.00 20.00     0.196 C 
ENDROOT
BRANCH   1   2
HETATM    2  C1  UNL     1     -32.217   6.947   2.778  1.00 20.00    -0.004 C 
HETATM    3  C2  UNL     1     -32.177   8.202   2.307  1.00 20.00    -0.014 C 
BRANCH   3   4
HETATM    4  C7  UNL     1     -31.605   8.569   0.978  1.00 20.00     0.141 C 
HETATM    5 CL10 UNL     1     -32.894   9.145  -0.099  1.00 20.00    -0.126 Cl
ENDBRANCH   3   4
ENDBRANCH   1   2
BRANCH   1   6
HETATM    6  O9  UNL     1     -33.410   5.315   4.011  1.00 20.00    -0.378 OA
BRANCH   6   7
HETATM    7  C8  UNL     1     -34.588   5.258   4.817  1.00 20.00     0.050 C 
HETATM    8  C3  UNL     1     -34.726   3.843   5.376  1.00 20.00     0.045 C 
HETATM    9  C4  UNL     1     -34.419   6.269   5.949  1.00 20.00     0.045 C 
HETATM   10  C5  UNL     1     -35.791   5.620   3.948  1.00 20.00     0.045 C 
ENDBRANCH   6   7
ENDBRANCH   1   6
TORSDOF 4
ENDMDL
MODEL 4
REMARK VINA RESULT:      -4.0     10.919     11.881
REMARK  4 active torsions:
REMARK  status: ('A' for Active; 'I' for Inactive)
REMARK    1  A    between atoms: C1_1  and  C6_6 
REMARK    2  A    between atoms: C2_2  and  C7_7 
REMARK    3  A    between atoms: C6_6  and  O9_9 
REMARK    4  A    between atoms: C8_8  and  O9_9 
ROOT
HETATM    1  C6  UNL     1     -33.488  15.903  -3.127  1.00 20.00     0.196 C 
ENDROOT
BRANCH   1   2
HETATM    2  C1  UNL     1     -33.855  16.826  -2.011  1.00 20.00    -0.004 C 
HETATM    3  C2  UNL     1     -34.659  16.482  -0.994  1.00 20.00    -0.014 C 
BRANCH   3   4
HETATM    4  C7  UNL     1     -35.012  17.401   0.129  1.00 20.00     0.141 C 
HETATM    5 CL10 UNL     1     -33.571  18.296   0.655  1.00 20.00    -0.126 Cl
ENDBRANCH   3   4
ENDBRANCH   1   2
BRANCH   1   6
HETATM    6  O9  UNL     1     -34.522  15.926  -4.097  1.00 20.00    -0.378 OA
BRANCH   6   7
HETATM    7  C8  UNL     1     -34.891  14.605  -4.494  1.00 20.00     0.050 C 
HETATM    8  C3  UNL     1     -33.972  13.611  -3.788  1.00 20.00     0.045 C 
HETATM    9  C4  UNL     1     -36.343  14.387  -4.073  1.00 20.00     0.045 C 
HETATM   10  C5  UNL     1     -34.749  14.496  -6.012  1.00 20.00     0.045 C 
ENDBRANCH   6   7
ENDBRANCH   1   6
TORSDOF 4
ENDMDL
MODEL 5
REMARK VINA RESULT:      -3.9     11.117     11.967
REMARK  4 active torsions:
REMARK  status: ('A' for Active; 'I' for Inactive)
REMARK    1  A    between atoms: C1_1  and  C6_6 
REMARK    2  A    between atoms: C2_2  and  C7_7 
REMARK    3  A    between atoms: C6_6  and  O9_9 
REMARK    4  A    between atoms: C8_8  and  O9_9 
ROOT
HETATM    1  C6  UNL     1     -33.465  15.634  -3.486  1.00 20.00     0.196 C 
ENDROOT
BRANCH   1   2
HETATM    2  C1  UNL     1     -33.744  16.559  -2.347  1.00 20.00    -0.004 C 
HETATM    3  C2  UNL     1     -34.616  16.289  -1.364  1.00 20.00    -0.014 C 
BRANCH   3   4
HETATM    4  C7  UNL     1     -34.882  17.209  -0.219  1.00 20.00     0.141 C 
HETATM    5 CL10 UNL     1     -33.461  18.231   0.080  1.00 20.00    -0.126 Cl
ENDBRANCH   3   4
ENDBRANCH   1   2
BRANCH   1   6
HETATM    6  O9  UNL     1     -34.492  15.778  -4.453  1.00 20.00    -0.378 OA
BRANCH   6   7
HETATM    7  C8  UNL     1     -35.049  14.512  -4.811  1.00 20.00     0.050 C 
HETATM    8  C3  UNL     1     -35.177  14.450  -6.331  1.00 20.00     0.045 C 
HETATM    9  C4  UNL     1     -34.095  13.431  -4.306  1.00 20.00     0.045 C 
HETATM   10  C5  UNL     1     -36.417  14.376  -4.142  1.00 20.00     0.045 C 
ENDBRANCH   6   7
ENDBRANCH   1   6
TORSDOF 4
ENDMDL
MODEL 6
REMARK VINA RESULT:      -3.9     11.137     11.940
REMARK  4 active torsions:
REMARK  status: ('A' for Active; 'I' for Inactive)
REMARK    1  A    between atoms: C1_1  and  C6_6 
REMARK    2  A    between atoms: C2_2  and  C7_7 
REMARK    3  A    between atoms: C6_6  and  O9_9 
REMARK    4  A    between atoms: C8_8  and  O9_9 
ROOT
HETATM    1  C6  UNL     1     -33.432  15.775  -3.685  1.00 20.00     0.196 C 
ENDROOT
BRANCH   1   2
HETATM    2  C1  UNL     1     -33.727  16.628  -2.495  1.00 20.00    -0.004 C 
HETATM    3  C2  UNL     1     -34.536  16.254  -1.492  1.00 20.00    -0.014 C 
BRANCH   3   4
HETATM    4  C7  UNL     1     -34.817  17.103  -0.296  1.00 20.00     0.141 C 
HETATM    5 CL10 UNL     1     -33.433  18.168   0.030  1.00 20.00    -0.126 Cl
ENDBRANCH   3   4
ENDBRANCH   1   2
BRANCH   1   6
HETATM    6  O9  UNL     1     -34.545  15.816  -4.563  1.00 20.00    -0.378 OA
BRANCH   6   7
HETATM    7  C8  UNL     1     -35.050  14.506  -4.823  1.00 20.00     0.050 C 
HETATM    8  C3  UNL     1     -36.407  14.363  -4.138  1.00 20.00     0.045 C 
HETATM    9  C4  UNL     1     -35.194  14.361  -6.337  1.00 20.00     0.045 C 
HETATM   10  C5  UNL     1     -34.053  13.483  -4.278  1.00 20.00     0.045 C 
ENDBRANCH   6   7
ENDBRANCH   1   6
TORSDOF 4
ENDMDL
MODEL 7
REMARK VINA RESULT:      -3.8     11.016     11.756
REMARK  4 active torsions:
REMARK  status: ('A' for Active; 'I' for Inactive)
REMARK    1  A    between atoms: C1_1  and  C6_6 
REMARK    2  A    between atoms: C2_2  and  C7_7 
REMARK    3  A    between atoms: C6_6  and  O9_9 
REMARK    4  A    between atoms: C8_8  and  O9_9 
ROOT
HETATM    1  C6  UNL     1     -33.746  16.216  -2.847  1.00 20.00     0.196 C 
ENDROOT
BRANCH   1   2
HETATM    2  C1  UNL     1     -33.848  16.959  -1.555  1.00 20.00    -0.004 C 
HETATM    3  C2  UNL     1     -34.812  16.745  -0.647  1.00 20.00    -0.014 C 
BRANCH   3   4
HETATM    4  C7  UNL     1     -34.903  17.478   0.650  1.00 20.00     0.141 C 
HETATM    5 CL10 UNL     1     -33.454  18.478   0.884  1.00 20.00    -0.126 Cl
ENDBRANCH   3   4
ENDBRANCH   1   2
BRANCH   1   6
HETATM    6  O9  UNL     1     -34.500  15.019  -2.747  1.00 20.00    -0.378 OA
BRANCH   6   7
HETATM    7  C8  UNL     1     -35.175  14.727  -3.971  1.00 20.00     0.050 C 
HETATM    8  C3  UNL     1     -36.680  14.791  -3.722  1.00 20.00     0.045 C 
HETATM    9  C4  UNL     1     -34.753  15.782  -4.991  1.00 20.00     0.045 C 
HETATM   10  C5  UNL     1     -34.758  13.332  -4.436  1.00 20.00     0.045 C 
ENDBRANCH   6   7
ENDBRANCH   1   6
TORSDOF 4
ENDMDL
MODEL 8
REMARK VINA RESULT:      -3.7     11.491     12.375
REMARK  4 active torsions:
REMARK  status: ('A' for Active; 'I' for Inactive)
REMARK    1  A    between atoms: C1_1  and  C6_6 
REMARK    2  A    between atoms: C2_2  and  C7_7 
REMARK    3  A    between atoms: C6_6  and  O9_9 
REMARK    4  A    between atoms: C8_8  and  O9_9 
ROOT
HETATM    1  C6  UNL     1     -35.971  14.871  -3.592  1.00 20.00     0.196 C 
ENDROOT
BRANCH   1   2
HETATM    2  C1  UNL     1     -35.567  15.973  -2.668  1.00 20.00    -0.004 C 
HETATM    3  C2  UNL     1     -34.355  16.062  -2.099  1.00 20.00    -0.014 C 
BRANCH   3   4
HETATM    4  C7  UNL     1     -33.949  17.173  -1.188  1.00 20.00     0.141 C 
HETATM    5 CL10 UNL     1     -34.954  17.153   0.276  1.00 20.00    -0.126 Cl
ENDBRANCH   3   4
ENDBRANCH   1   2
BRANCH   1   6
HETATM    6  O9  UNL     1     -35.994  15.372  -4.918  1.00 20.00    -0.378 OA
BRANCH   6   7
HETATM    7  C8  UNL     1     -34.969  14.778  -5.716  1.00 20.00     0.050 C 
HETATM    8  C3  UNL     1     -34.496  13.501  -5.026  1.00 20.00     0.045 C 
HETATM    9  C4  UNL     1     -35.576  14.459  -7.081  1.00 20.00     0.045 C 
HETATM   10  C5  UNL     1     -33.822  15.778  -5.858  1.00 20.00     0.045 C 
ENDBRANCH   6   7
ENDBRANCH   1   6
TORSDOF 4
ENDMDL
MODEL 9
REMARK VINA RESULT:      -3.5      9.532     11.118
REMARK  4 active torsions:
REMARK  status: ('A' for Active; 'I' for Inactive)
REMARK    1  A    between atoms: C1_1  and  C6_6 
REMARK    2  A    between atoms: C2_2  and  C7_7 
REMARK    3  A    between atoms: C6_6  and  O9_9 
REMARK    4  A    between atoms: C8_8  and  O9_9 
ROOT
HETATM    1  C6  UNL     1     -41.332   4.177  -1.769  1.00 20.00     0.196 C 
ENDROOT
BRANCH   1   2
HETATM    2  C1  UNL     1     -42.004   3.247  -2.726  1.00 20.00    -0.004 C 
HETATM    3  C2  UNL     1     -41.357   2.305  -3.428  1.00 20.00    -0.014 C 
BRANCH   3   4
HETATM    4  C7  UNL     1     -42.033   1.367  -4.373  1.00 20.00     0.141 C 
HETATM    5 CL10 UNL     1     -41.578  -0.307  -3.993  1.00 20.00    -0.126 Cl
ENDBRANCH   3   4
ENDBRANCH   1   2
BRANCH   1   6
HETATM    6  O9  UNL     1     -41.719   5.506  -2.076  1.00 20.00    -0.378 OA
BRANCH   6   7
HETATM    7  C8  UNL     1     -41.886   6.285  -0.890  1.00 20.00     0.050 C 
HETATM    8  C3  UNL     1     -43.145   5.808  -0.169  1.00 20.00     0.045 C 
HETATM    9  C4  UNL     1     -40.651   6.066  -0.019  1.00 20.00     0.045 C 
HETATM   10  C5  UNL     1     -42.009   7.756  -1.288  1.00 20.00     0.045 C 
ENDBRANCH   6   7
ENDBRANCH   1   6
TORSDOF 4
ENDMDL
