MODEL 1
REMARK VINA RESULT:      -4.5      0.000      0.000
REMARK  2 active torsions:
REMARK  status: ('A' for Active; 'I' for Inactive)
REMARK    1  A    between atoms: C1_1  and  C6_6 
REMARK    2  A    between atoms: C2_2  and  C7_7 
ROOT
HETATM    1  C1  UNL     1     -33.112   6.842   3.482  1.00 20.00    -0.015 C 
HETATM    2  C2  UNL     1     -33.287   5.682   4.135  1.00 20.00    -0.021 C 
ENDROOT
BRANCH   2   3
HETATM    3  C7  UNL     1     -34.524   5.221   4.892  1.00 20.00    -0.034 C 
HETATM    4  C3  UNL     1     -35.765   5.610   4.068  1.00 20.00     0.018 C 
HETATM    5  C4  UNL     1     -34.574   3.707   5.164  1.00 20.00     0.018 C 
HETATM    6  C5  UNL     1     -34.566   5.961   6.241  1.00 20.00     0.018 C 
ENDBRANCH   2   3
BRANCH   1   7
HETATM    7  C6  UNL     1     -31.853   7.197   2.759  1.00 20.00     0.141 C 
HETATM    8 CL8  UNL     1     -32.140   8.591   1.696  1.00 20.00    -0.126 Cl
ENDBRANCH   1   7
TORSDOF 2
ENDMDL
MODEL 2
REMARK VINA RESULT:      -4.2      0.103      1.539
REMARK  2 active torsions:
REMARK  status: ('A' for Active; 'I' for Inactive)
REMARK    1  A    between atoms: C1_1  and  C6_6 
REMARK    2  A    between atoms: C2_2  and  C7_7 
ROOT
HETATM    1  C1  UNL     1     -33.027   6.863   3.614  1.00 20.00    -0.015 C 
HETATM    2  C2  UNL     1     -33.364   5.626   4.011  1.00 20.00    -0.021 C 
ENDROOT
BRANCH   2   3
HETATM    3  C7  UNL     1     -34.547   5.220   4.879  1.00 20.00    -0.034 C 
HETATM    4  C3  UNL     1     -34.468   3.703   5.122  1.00 20.00     0.018 C 
HETATM    5  C4  UNL     1     -34.604   5.931   6.243  1.00 20.00     0.018 C 
HETATM    6  C5  UNL     1     -35.841   5.538   4.108  1.00 20.00     0.018 C 
ENDBRANCH   2   3
BRANCH   1   7
HETATM    7  C6  UNL     1     -31.842   7.156   2.752  1.00 20.00     0.141 C 
HETATM    8 CL8  UNL     1     -32.186   8.549   1.705  1.00 20.00    -0.126 Cl
ENDBRANCH   1   7
TORSDOF 2
ENDMDL
MODEL 3
REMARK VINA RESULT:      -4.2      0.131      1.533
REMARK  2 active torsions:
REMARK  status: ('A' for Active; 'I' for Inactive)
REMARK    1  A    between atoms: C1_1  and  C6_6 
REMARK    2  A    between atoms: C2_2  and  C7_7 
ROOT
HETATM    1  C1  UNL     1     -33.129   6.749   3.413  1.00 20.00    -0.015 C 
HETATM    2  C2  UNL     1     -33.251   5.731   4.279  1.00 20.00    -0.021 C 
ENDROOT
BRANCH   2   3
HETATM    3  C7  UNL     1     -34.528   5.211   4.925  1.00 20.00    -0.034 C 
HETATM    4  C3  UNL     1     -34.659   5.852   6.318  1.00 20.00     0.018 C 
HETATM    5  C4  UNL     1     -35.810   5.512   4.127  1.00 20.00     0.018 C 
HETATM    6  C5  UNL     1     -34.401   3.685   5.085  1.00 20.00     0.018 C 
ENDBRANCH   2   3
BRANCH   1   7
HETATM    7  C6  UNL     1     -31.823   7.178   2.828  1.00 20.00     0.141 C 
HETATM    8 CL8  UNL     1     -32.086   8.489   1.658  1.00 20.00    -0.126 Cl
ENDBRANCH   1   7
TORSDOF 2
ENDMDL
MODEL 4
REMARK VINA RESULT:      -3.8     11.280     12.258
REMARK  2 active torsions:
REMARK  status: ('A' for Active; 'I' for Inactive)
REMARK    1  A    between atoms: C1_1  and  C6_6 
REMARK    2  A    between atoms: C2_2  and  C7_7 
ROOT
HETATM    1  C1  UNL     1     -34.576  16.268  -1.728  1.00 20.00    -0.015 C 
HETATM    2  C2  UNL     1     -33.894  15.910  -2.827  1.00 20.00    -0.021 C 
ENDROOT
BRANCH   2   3
HETATM    3  C7  UNL     1     -34.319  14.918  -3.900  1.00 20.00    -0.034 C 
HETATM    4  C3  UNL     1     -33.439  13.662  -3.770  1.00 20.00     0.018 C 
HETATM    5  C4  UNL     1     -35.795  14.489  -3.818  1.00 20.00     0.018 C 
HETATM    6  C5  UNL     1     -34.075  15.562  -5.276  1.00 20.00     0.018 C 
ENDBRANCH   2   3
BRANCH   1   7
HETATM    7  C6  UNL     1     -34.071  17.263  -0.734  1.00 20.00     0.141 C 
HETATM    8 CL8  UNL     1     -35.127  17.280   0.695  1.00 20.00    -0.126 Cl
ENDBRANCH   1   7
TORSDOF 2
ENDMDL
MODEL 5
REMARK VINA RESULT:      -3.8     11.292     12.222
REMARK  2 active torsions:
REMARK  status: ('A' for Active; 'I' for Inactive)
REMARK    1  A    between atoms: C1_1  and  C6_6 
REMARK    2  A    between atoms: C2_2  and  C7_7 
ROOT
HETATM    1  C1  UNL     1     -34.550  16.318  -1.647  1.00 20.00    -0.015 C 
HETATM    2  C2  UNL     1     -33.855  15.994  -2.748  1.00 20.00    -0.021 C 
ENDROOT
BRANCH   2   3
HETATM    3  C7  UNL     1     -34.243  14.997  -3.830  1.00 20.00    -0.034 C 
HETATM    4  C3  UNL     1     -34.000  15.653  -5.201  1.00 20.00     0.018 C 
HETATM    5  C4  UNL     1     -33.462  13.671  -3.779  1.00 20.00     0.018 C 
HETATM    6  C5  UNL     1     -35.743  14.685  -3.683  1.00 20.00     0.018 C 
ENDBRANCH   2   3
BRANCH   1   7
HETATM    7  C6  UNL     1     -34.082  17.321  -0.644  1.00 20.00     0.141 C 
HETATM    8 CL8  UNL     1     -35.148  17.299   0.777  1.00 20.00    -0.126 Cl
ENDBRANCH   1   7
TORSDOF 2
ENDMDL
MODEL 6
REMARK VINA RESULT:      -3.8     11.288     12.259
REMARK  2 active torsions:
REMARK  status: ('A' for Active; 'I' for Inactive)
REMARK    1  A    between atoms: C1_1  and  C6_6 
REMARK    2  A    between atoms: C2_2  and  C7_7 
ROOT
HETATM    1  C1  UNL     1     -34.537  16.248  -1.728  1.00 20.00    -0.015 C 
HETATM    2  C2  UNL     1     -33.897  15.969  -2.874  1.00 20.00    -0.021 C 
ENDROOT
BRANCH   2   3
HETATM    3  C7  UNL     1     -34.303  14.965  -3.943  1.00 20.00    -0.034 C 
HETATM    4  C3  UNL     1     -35.787  14.613  -3.734  1.00 20.00     0.018 C 
HETATM    5  C4  UNL     1     -34.119  15.466  -5.386  1.00 20.00     0.018 C 
HETATM    6  C5  UNL     1     -33.456  13.693  -3.756  1.00 20.00     0.018 C 
ENDBRANCH   2   3
BRANCH   1   7
HETATM    7  C6  UNL     1     -34.056  17.263  -0.742  1.00 20.00     0.141 C 
HETATM    8 CL8  UNL     1     -35.113  17.269   0.685  1.00 20.00    -0.126 Cl
ENDBRANCH   1   7
TORSDOF 2
ENDMDL
MODEL 7
REMARK VINA RESULT:      -3.5     11.464     12.383
REMARK  2 active torsions:
REMARK  status: ('A' for Active; 'I' for Inactive)
REMARK    1  A    between atoms: C1_1  and  C6_6 
REMARK    2  A    between atoms: C2_2  and  C7_7 
ROOT
HETATM    1  C1  UNL     1     -34.343  16.077  -2.608  1.00 20.00    -0.015 C 
HETATM    2  C2  UNL     1     -34.624  16.314  -1.317  1.00 20.00    -0.021 C 
ENDROOT
BRANCH   2   3
HETATM    3  C7  UNL     1     -34.610  17.655  -0.596  1.00 20.00    -0.034 C 
HETATM    4  C3  UNL     1     -33.152  18.142  -0.514  1.00 20.00     0.018 C 
HETATM    5  C4  UNL     1     -35.452  18.749  -1.277  1.00 20.00     0.018 C 
HETATM    6  C5  UNL     1     -35.148  17.441   0.830  1.00 20.00     0.018 C 
ENDBRANCH   2   3
BRANCH   1   7
HETATM    7  C6  UNL     1     -34.393  14.717  -3.224  1.00 20.00     0.141 C 
HETATM    8 CL8  UNL     1     -32.750  14.175  -3.628  1.00 20.00    -0.126 Cl
ENDBRANCH   1   7
TORSDOF 2
ENDMDL
MODEL 8
REMARK VINA RESULT:      -3.4      9.347     10.783
REMARK  2 active torsions:
REMARK  status: ('A' for Active; 'I' for Inactive)
REMARK    1  A    between atoms: C1_1  and  C6_6 
REMARK    2  A    between atoms: C2_2  and  C7_7 
ROOT
HETATM    1  C1  UNL     1     -42.008   3.573  -2.668  1.00 20.00    -0.015 C 
HETATM    2  C2  UNL     1     -41.281   4.276  -1.786  1.00 20.00    -0.021 C 
ENDROOT
BRANCH   2   3
HETATM    3  C7  UNL     1     -41.657   5.588  -1.111  1.00 20.00    -0.034 C 
HETATM    4  C3  UNL     1     -43.021   5.402  -0.424  1.00 20.00     0.018 C 
HETATM    5  C4  UNL     1     -40.643   6.072  -0.059  1.00 20.00     0.018 C 
HETATM    6  C5  UNL     1     -41.785   6.670  -2.199  1.00 20.00     0.018 C 
ENDBRANCH   2   3
BRANCH   1   7
HETATM    7  C6  UNL     1     -41.549   2.285  -3.271  1.00 20.00     0.141 C 
HETATM    8 CL8  UNL     1     -42.526   1.907  -4.706  1.00 20.00    -0.126 Cl
ENDBRANCH   1   7
TORSDOF 2
ENDMDL
MODEL 9
REMARK VINA RESULT:      -3.3      9.071     10.449
REMARK  2 active torsions:
REMARK  status: ('A' for Active; 'I' for Inactive)
REMARK    1  A    between atoms: C1_1  and  C6_6 
REMARK    2  A    between atoms: C2_2  and  C7_7 
ROOT
HETATM    1  C1  UNL     1     -42.168   7.233  -2.797  1.00 20.00    -0.015 C 
HETATM    2  C2  UNL     1     -42.348   6.050  -2.189  1.00 20.00    -0.021 C 
ENDROOT
BRANCH   2   3
HETATM    3  C7  UNL     1     -41.639   5.528  -0.947  1.00 20.00    -0.034 C 
HETATM    4  C3  UNL     1     -40.716   6.639  -0.417  1.00 20.00     0.018 C 
HETATM    5  C4  UNL     1     -42.585   5.096   0.188  1.00 20.00     0.018 C 
HETATM    6  C5  UNL     1     -40.782   4.316  -1.355  1.00 20.00     0.018 C 
ENDBRANCH   2   3
BRANCH   1   7
HETATM    7  C6  UNL     1     -42.924   7.656  -4.015  1.00 20.00     0.141 C 
HETATM    8 CL8  UNL     1     -41.938   8.773  -4.981  1.00 20.00    -0.126 Cl
ENDBRANCH   1   7
TORSDOF 2
ENDMDL
