MODEL 1
REMARK VINA RESULT:      -4.8      0.000      0.000
REMARK  3 active torsions:
REMARK  status: ('A' for Active; 'I' for Inactive)
REMARK    1  A    between atoms: C1_1  and  C3_3 
REMARK    2  A    between atoms: C2_2  and  C6_6 
REMARK    3  A    between atoms: C3_3  and  O10_10 
ROOT
HETATM    1  C1  UNL     1     -34.106  14.428  -3.700  1.00 20.00     0.014 C 
HETATM    2  C2  UNL     1     -34.745  15.412  -3.025  1.00 20.00    -0.067 C 
HETATM    3  C7  UNL     1     -32.663  14.042  -3.536  1.00 20.00     0.056 C 
HETATM    4  C8  UNL     1     -36.187  15.761  -3.188  1.00 20.00     0.044 C 
ENDROOT
BRANCH   1   5
HETATM    5  C3  UNL     1     -34.882  13.608  -4.669  1.00 20.00     0.171 C 
HETATM    6  O9  UNL     1     -35.049  13.869  -5.848  1.00 20.00    -0.646 OA
BRANCH   5   7
HETATM    7  O10 UNL     1     -35.385  12.519  -4.041  1.00 20.00    -0.773 OA
HETATM    8  H22 UNL     1     -36.303  12.325  -4.325  1.00 20.00     0.167 HD
ENDBRANCH   5   7
ENDBRANCH   1   5
BRANCH   2   9
HETATM    9  C6  UNL     1     -34.021  16.301  -2.037  1.00 20.00     0.015 A 
HETATM   10  C4  UNL     1     -34.559  17.663  -1.841  1.00 20.00     0.010 A 
HETATM   11  C5  UNL     1     -34.728  16.619  -0.779  1.00 20.00     0.010 A 
ENDBRANCH   2   9
TORSDOF 3
ENDMDL
MODEL 2
REMARK VINA RESULT:      -4.7     11.468     12.262
REMARK  3 active torsions:
REMARK  status: ('A' for Active; 'I' for Inactive)
REMARK    1  A    between atoms: C1_1  and  C3_3 
REMARK    2  A    between atoms: C2_2  and  C6_6 
REMARK    3  A    between atoms: C3_3  and  O10_10 
ROOT
HETATM    1  C1  UNL     1     -33.406   6.188   3.560  1.00 20.00     0.014 C 
HETATM    2  C2  UNL     1     -33.969   6.115   4.790  1.00 20.00    -0.067 C 
HETATM    3  C7  UNL     1     -33.815   5.387   2.356  1.00 20.00     0.056 C 
HETATM    4  C8  UNL     1     -33.561   6.940   5.964  1.00 20.00     0.044 C 
ENDROOT
BRANCH   1   5
HETATM    5  C3  UNL     1     -32.310   7.167   3.335  1.00 20.00     0.171 C 
HETATM    6  O9  UNL     1     -31.299   7.271   4.008  1.00 20.00    -0.646 OA
BRANCH   5   7
HETATM    7  O10 UNL     1     -32.604   7.939   2.262  1.00 20.00    -0.773 OA
HETATM    8  H22 UNL     1     -33.400   8.491   2.415  1.00 20.00     0.167 HD
ENDBRANCH   5   7
ENDBRANCH   1   5
BRANCH   2   9
HETATM    9  C6  UNL     1     -35.075   5.131   5.103  1.00 20.00     0.015 A 
HETATM   10  C4  UNL     1     -34.672   3.744   5.408  1.00 20.00     0.010 A 
HETATM   11  C5  UNL     1     -35.168   4.649   6.496  1.00 20.00     0.010 A 
ENDBRANCH   2   9
TORSDOF 3
ENDMDL
MODEL 3
REMARK VINA RESULT:      -4.6      0.868      1.973
REMARK  3 active torsions:
REMARK  status: ('A' for Active; 'I' for Inactive)
REMARK    1  A    between atoms: C1_1  and  C3_3 
REMARK    2  A    between atoms: C2_2  and  C6_6 
REMARK    3  A    between atoms: C3_3  and  O10_10 
ROOT
HETATM    1  C1  UNL     1     -35.707  14.810  -3.784  1.00 20.00     0.014 C 
HETATM    2  C2  UNL     1     -34.778  15.565  -3.150  1.00 20.00    -0.067 C 
HETATM    3  C7  UNL     1     -37.197  14.961  -3.662  1.00 20.00     0.056 C 
HETATM    4  C8  UNL     1     -33.302  15.410  -3.306  1.00 20.00     0.044 C 
ENDROOT
BRANCH   1   5
HETATM    5  C3  UNL     1     -35.245  13.753  -4.723  1.00 20.00     0.171 C 
HETATM    6  O9  UNL     1     -34.988  13.913  -5.904  1.00 20.00    -0.646 OA
BRANCH   5   7
HETATM    7  O10 UNL     1     -35.156  12.571  -4.067  1.00 20.00    -0.773 OA
HETATM    8  H22 UNL     1     -34.711  11.885  -4.609  1.00 20.00     0.167 HD
ENDBRANCH   5   7
ENDBRANCH   1   5
BRANCH   2   9
HETATM    9  C6  UNL     1     -35.167  16.646  -2.165  1.00 20.00     0.015 A 
HETATM   10  C4  UNL     1     -34.604  16.547  -0.803  1.00 20.00     0.010 A 
HETATM   11  C5  UNL     1     -34.109  17.592  -1.757  1.00 20.00     0.010 A 
ENDBRANCH   2   9
TORSDOF 3
ENDMDL
MODEL 4
REMARK VINA RESULT:      -4.6     11.310     12.241
REMARK  3 active torsions:
REMARK  status: ('A' for Active; 'I' for Inactive)
REMARK    1  A    between atoms: C1_1  and  C3_3 
REMARK    2  A    between atoms: C2_2  and  C6_6 
REMARK    3  A    between atoms: C3_3  and  O10_10 
ROOT
HETATM    1  C1  UNL     1     -34.092   5.896   5.125  1.00 20.00     0.014 C 
HETATM    2  C2  UNL     1     -33.650   6.230   3.890  1.00 20.00    -0.067 C 
HETATM    3  C7  UNL     1     -33.929   6.721   6.370  1.00 20.00     0.056 C 
HETATM    4  C8  UNL     1     -33.845   5.404   2.662  1.00 20.00     0.044 C 
ENDROOT
BRANCH   1   5
HETATM    5  C3  UNL     1     -34.845   4.625   5.294  1.00 20.00     0.171 C 
HETATM    6  O9  UNL     1     -34.481   3.663   5.949  1.00 20.00    -0.646 OA
BRANCH   5   7
HETATM    7  O10 UNL     1     -36.006   4.690   4.600  1.00 20.00    -0.773 OA
HETATM    8  H22 UNL     1     -36.678   4.068   4.952  1.00 20.00     0.167 HD
ENDBRANCH   5   7
ENDBRANCH   1   5
BRANCH   2   9
HETATM    9  C6  UNL     1     -32.860   7.496   3.640  1.00 20.00     0.015 A 
HETATM   10  C4  UNL     1     -31.389   7.372   3.598  1.00 20.00     0.010 A 
HETATM   11  C5  UNL     1     -32.168   7.609   2.340  1.00 20.00     0.010 A 
ENDBRANCH   2   9
TORSDOF 3
ENDMDL
MODEL 5
REMARK VINA RESULT:      -4.4      2.369      3.168
REMARK  3 active torsions:
REMARK  status: ('A' for Active; 'I' for Inactive)
REMARK    1  A    between atoms: C1_1  and  C3_3 
REMARK    2  A    between atoms: C2_2  and  C6_6 
REMARK    3  A    between atoms: C3_3  and  O10_10 
ROOT
HETATM    1  C1  UNL     1     -34.354  14.910  -4.010  1.00 20.00     0.014 C 
HETATM    2  C2  UNL     1     -34.514  15.489  -5.223  1.00 20.00    -0.067 C 
HETATM    3  C7  UNL     1     -34.484  15.600  -2.682  1.00 20.00     0.056 C 
HETATM    4  C8  UNL     1     -34.403  14.776  -6.530  1.00 20.00     0.044 C 
ENDROOT
BRANCH   1   5
HETATM    5  C3  UNL     1     -34.061  13.453  -3.948  1.00 20.00     0.171 C 
HETATM    6  O9  UNL     1     -32.959  12.954  -3.802  1.00 20.00    -0.646 OA
BRANCH   5   7
HETATM    7  O10 UNL     1     -35.213  12.753  -4.083  1.00 20.00    -0.773 OA
HETATM    8  H22 UNL     1     -35.062  11.786  -4.030  1.00 20.00     0.167 HD
ENDBRANCH   5   7
ENDBRANCH   1   5
BRANCH   2   9
HETATM    9  C6  UNL     1     -34.794  16.969  -5.370  1.00 20.00     0.015 A 
HETATM   10  C4  UNL     1     -33.627  17.859  -5.533  1.00 20.00     0.010 A 
HETATM   11  C5  UNL     1     -34.533  17.572  -6.693  1.00 20.00     0.010 A 
ENDBRANCH   2   9
TORSDOF 3
ENDMDL
MODEL 6
REMARK VINA RESULT:      -4.3      1.892      2.492
REMARK  3 active torsions:
REMARK  status: ('A' for Active; 'I' for Inactive)
REMARK    1  A    between atoms: C1_1  and  C3_3 
REMARK    2  A    between atoms: C2_2  and  C6_6 
REMARK    3  A    between atoms: C3_3  and  O10_10 
ROOT
HETATM    1  C1  UNL     1     -34.359  14.727  -4.862  1.00 20.00     0.014 C 
HETATM    2  C2  UNL     1     -34.433  15.823  -4.070  1.00 20.00    -0.067 C 
HETATM    3  C7  UNL     1     -34.496  14.712  -6.358  1.00 20.00     0.056 C 
HETATM    4  C8  UNL     1     -34.270  15.815  -2.586  1.00 20.00     0.044 C 
ENDROOT
BRANCH   1   5
HETATM    5  C3  UNL     1     -34.079  13.409  -4.231  1.00 20.00     0.171 C 
HETATM    6  O9  UNL     1     -32.989  13.021  -3.849  1.00 20.00    -0.646 OA
BRANCH   5   7
HETATM    7  O10 UNL     1     -35.226  12.694  -4.146  1.00 20.00    -0.773 OA
HETATM    8  H22 UNL     1     -35.948  13.096  -4.674  1.00 20.00     0.167 HD
ENDBRANCH   5   7
ENDBRANCH   1   5
BRANCH   2   9
HETATM    9  C6  UNL     1     -34.734  17.195  -4.633  1.00 20.00     0.015 A 
HETATM   10  C4  UNL     1     -34.391  18.356  -3.788  1.00 20.00     0.010 A 
HETATM   11  C5  UNL     1     -33.577  18.034  -5.005  1.00 20.00     0.010 A 
ENDBRANCH   2   9
TORSDOF 3
ENDMDL
MODEL 7
REMARK VINA RESULT:      -4.3      1.422      1.607
REMARK  3 active torsions:
REMARK  status: ('A' for Active; 'I' for Inactive)
REMARK    1  A    between atoms: C1_1  and  C3_3 
REMARK    2  A    between atoms: C2_2  and  C6_6 
REMARK    3  A    between atoms: C3_3  and  O10_10 
ROOT
HETATM    1  C1  UNL     1     -35.478  14.913  -3.519  1.00 20.00     0.014 C 
HETATM    2  C2  UNL     1     -35.440  15.996  -2.707  1.00 20.00    -0.067 C 
HETATM    3  C7  UNL     1     -34.466  13.802  -3.553  1.00 20.00     0.056 C 
HETATM    4  C8  UNL     1     -36.471  17.074  -2.676  1.00 20.00     0.044 C 
ENDROOT
BRANCH   1   5
HETATM    5  C3  UNL     1     -36.631  14.757  -4.446  1.00 20.00     0.171 C 
HETATM    6  O9  UNL     1     -36.672  15.139  -5.602  1.00 20.00    -0.646 OA
BRANCH   5   7
HETATM    7  O10 UNL     1     -37.643  14.123  -3.807  1.00 20.00    -0.773 OA
HETATM    8  H22 UNL     1     -38.245  13.669  -4.434  1.00 20.00     0.167 HD
ENDBRANCH   5   7
ENDBRANCH   1   5
BRANCH   2   9
HETATM    9  C6  UNL     1     -34.292  16.236  -1.751  1.00 20.00     0.015 A 
HETATM   10  C4  UNL     1     -33.871  17.637  -1.547  1.00 20.00     0.010 A 
HETATM   11  C5  UNL     1     -34.613  16.901  -0.472  1.00 20.00     0.010 A 
ENDBRANCH   2   9
TORSDOF 3
ENDMDL
MODEL 8
REMARK VINA RESULT:      -4.0      2.839      4.305
REMARK  3 active torsions:
REMARK  status: ('A' for Active; 'I' for Inactive)
REMARK    1  A    between atoms: C1_1  and  C3_3 
REMARK    2  A    between atoms: C2_2  and  C6_6 
REMARK    3  A    between atoms: C3_3  and  O10_10 
ROOT
HETATM    1  C1  UNL     1     -34.073  14.567  -4.670  1.00 20.00     0.014 C 
HETATM    2  C2  UNL     1     -34.265  15.262  -5.817  1.00 20.00    -0.067 C 
HETATM    3  C7  UNL     1     -34.613  13.197  -4.371  1.00 20.00     0.056 C 
HETATM    4  C8  UNL     1     -33.698  16.613  -6.100  1.00 20.00     0.044 C 
ENDROOT
BRANCH   1   5
HETATM    5  C3  UNL     1     -33.224  15.168  -3.607  1.00 20.00     0.171 C 
HETATM    6  O9  UNL     1     -33.604  15.944  -2.747  1.00 20.00    -0.646 OA
BRANCH   5   7
HETATM    7  O10 UNL     1     -31.952  14.723  -3.737  1.00 20.00    -0.773 OA
HETATM    8  H22 UNL     1     -31.377  15.383  -4.180  1.00 20.00     0.167 HD
ENDBRANCH   5   7
ENDBRANCH   1   5
BRANCH   2   9
HETATM    9  C6  UNL     1     -35.131  14.728  -6.937  1.00 20.00     0.015 A 
HETATM   10  C4  UNL     1     -36.562  15.089  -6.909  1.00 20.00     0.010 A 
HETATM   11  C5  UNL     1     -35.641  15.710  -7.916  1.00 20.00     0.010 A 
ENDBRANCH   2   9
TORSDOF 3
ENDMDL
MODEL 9
REMARK VINA RESULT:      -4.0      1.708      1.990
REMARK  3 active torsions:
REMARK  status: ('A' for Active; 'I' for Inactive)
REMARK    1  A    between atoms: C1_1  and  C3_3 
REMARK    2  A    between atoms: C2_2  and  C6_6 
REMARK    3  A    between atoms: C3_3  and  O10_10 
ROOT
HETATM    1  C1  UNL     1     -34.481  14.970  -4.592  1.00 20.00     0.014 C 
HETATM    2  C2  UNL     1     -34.181  16.122  -3.946  1.00 20.00    -0.067 C 
HETATM    3  C7  UNL     1     -34.446  13.591  -3.995  1.00 20.00     0.056 C 
HETATM    4  C8  UNL     1     -34.247  17.482  -4.555  1.00 20.00     0.044 C 
ENDROOT
BRANCH   1   5
HETATM    5  C3  UNL     1     -34.929  15.043  -6.009  1.00 20.00     0.171 C 
HETATM    6  O9  UNL     1     -36.082  15.165  -6.386  1.00 20.00    -0.646 OA
BRANCH   5   7
HETATM    7  O10 UNL     1     -33.855  14.949  -6.829  1.00 20.00    -0.773 OA
HETATM    8  H22 UNL     1     -33.011  15.044  -6.339  1.00 20.00     0.167 HD
ENDBRANCH   5   7
ENDBRANCH   1   5
BRANCH   2   9
HETATM    9  C6  UNL     1     -33.700  16.129  -2.511  1.00 20.00     0.015 A 
HETATM   10  C4  UNL     1     -33.773  17.414  -1.786  1.00 20.00     0.010 A 
HETATM   11  C5  UNL     1     -34.726  16.303  -1.462  1.00 20.00     0.010 A 
ENDBRANCH   2   9
TORSDOF 3
ENDMDL
