MODEL 1
REMARK VINA RESULT:      -5.5      0.000      0.000
REMARK  3 active torsions:
REMARK  status: ('A' for Active; 'I' for Inactive)
REMARK    1  A    between atoms: C1_1  and  C5_5 
REMARK    2  A    between atoms: C2_2  and  C6_6 
REMARK    3  A    between atoms: C6_6  and  C7_7 
ROOT
HETATM    1  C1  UNL     1     -34.375   5.555   3.717  1.00 20.00    -0.026 C 
HETATM    2  C2  UNL     1     -33.192   6.179   3.825  1.00 20.00    -0.029 C 
ENDROOT
BRANCH   1   3
HETATM    3  C5  UNL     1     -35.235   5.143   4.840  1.00 20.00     0.008 A 
HETATM    4  C3  UNL     1     -34.826   3.954   5.650  1.00 20.00     0.009 A 
HETATM    5  C4  UNL     1     -34.723   5.332   6.232  1.00 20.00     0.009 A 
ENDBRANCH   1   3
BRANCH   2   6
HETATM    6  C6  UNL     1     -32.347   6.586   2.651  1.00 20.00     0.042 C 
BRANCH   6   7
HETATM    7  C7  UNL     1     -32.089   8.089   2.605  1.00 20.00     0.118 C 
HETATM    8 CL8  UNL     1     -31.818   8.657   0.938  1.00 20.00    -0.130 Cl
ENDBRANCH   6   7
ENDBRANCH   2   6
TORSDOF 3
ENDMDL
MODEL 2
REMARK VINA RESULT:      -4.8      2.542      4.675
REMARK  3 active torsions:
REMARK  status: ('A' for Active; 'I' for Inactive)
REMARK    1  A    between atoms: C1_1  and  C5_5 
REMARK    2  A    between atoms: C2_2  and  C6_6 
REMARK    3  A    between atoms: C6_6  and  C7_7 
ROOT
HETATM    1  C1  UNL     1     -33.337   6.355   3.677  1.00 20.00    -0.026 C 
HETATM    2  C2  UNL     1     -34.263   5.455   3.311  1.00 20.00    -0.029 C 
ENDROOT
BRANCH   1   3
HETATM    3  C5  UNL     1     -32.167   6.758   2.878  1.00 20.00     0.008 A 
HETATM    4  C3  UNL     1     -32.197   8.087   2.193  1.00 20.00     0.009 A 
HETATM    5  C4  UNL     1     -31.312   7.875   3.384  1.00 20.00     0.009 A 
ENDBRANCH   1   3
BRANCH   2   6
HETATM    6  C6  UNL     1     -35.447   5.076   4.155  1.00 20.00     0.042 C 
BRANCH   6   7
HETATM    7  C7  UNL     1     -35.044   4.493   5.506  1.00 20.00     0.118 C 
HETATM    8 CL8  UNL     1     -34.606   5.771   6.667  1.00 20.00    -0.130 Cl
ENDBRANCH   6   7
ENDBRANCH   2   6
TORSDOF 3
ENDMDL
MODEL 3
REMARK VINA RESULT:      -4.7      2.380      4.821
REMARK  3 active torsions:
REMARK  status: ('A' for Active; 'I' for Inactive)
REMARK    1  A    between atoms: C1_1  and  C5_5 
REMARK    2  A    between atoms: C2_2  and  C6_6 
REMARK    3  A    between atoms: C6_6  and  C7_7 
ROOT
HETATM    1  C1  UNL     1     -32.666   6.725   2.903  1.00 20.00    -0.026 C 
HETATM    2  C2  UNL     1     -33.729   6.676   3.720  1.00 20.00    -0.029 C 
ENDROOT
BRANCH   1   3
HETATM    3  C5  UNL     1     -31.894   7.935   2.569  1.00 20.00     0.008 A 
HETATM    4  C3  UNL     1     -31.790   8.338   1.133  1.00 20.00     0.009 A 
HETATM    5  C4  UNL     1     -32.635   9.137   2.079  1.00 20.00     0.009 A 
ENDBRANCH   1   3
BRANCH   2   6
HETATM    6  C6  UNL     1     -34.487   5.418   4.039  1.00 20.00     0.042 C 
BRANCH   6   7
HETATM    7  C7  UNL     1     -34.682   5.211   5.538  1.00 20.00     0.118 C 
HETATM    8 CL8  UNL     1     -34.023   6.572   6.479  1.00 20.00    -0.130 Cl
ENDBRANCH   6   7
ENDBRANCH   2   6
TORSDOF 3
ENDMDL
MODEL 4
REMARK VINA RESULT:      -4.5      2.883      5.214
REMARK  3 active torsions:
REMARK  status: ('A' for Active; 'I' for Inactive)
REMARK    1  A    between atoms: C1_1  and  C5_5 
REMARK    2  A    between atoms: C2_2  and  C6_6 
REMARK    3  A    between atoms: C6_6  and  C7_7 
ROOT
HETATM    1  C1  UNL     1     -32.539   7.087   2.583  1.00 20.00    -0.026 C 
HETATM    2  C2  UNL     1     -33.217   6.931   3.730  1.00 20.00    -0.029 C 
ENDROOT
BRANCH   1   3
HETATM    3  C5  UNL     1     -31.789   8.291   2.185  1.00 20.00     0.008 A 
HETATM    4  C3  UNL     1     -31.759   8.664   0.736  1.00 20.00     0.009 A 
HETATM    5  C4  UNL     1     -32.557   9.481   1.707  1.00 20.00     0.009 A 
ENDBRANCH   1   3
BRANCH   2   6
HETATM    6  C6  UNL     1     -33.967   5.683   4.101  1.00 20.00     0.042 C 
BRANCH   6   7
HETATM    7  C7  UNL     1     -34.371   5.653   5.572  1.00 20.00     0.118 C 
HETATM    8 CL8  UNL     1     -35.088   4.086   6.022  1.00 20.00    -0.130 Cl
ENDBRANCH   6   7
ENDBRANCH   2   6
TORSDOF 3
ENDMDL
MODEL 5
REMARK VINA RESULT:      -4.2      2.707      4.728
REMARK  3 active torsions:
REMARK  status: ('A' for Active; 'I' for Inactive)
REMARK    1  A    between atoms: C1_1  and  C5_5 
REMARK    2  A    between atoms: C2_2  and  C6_6 
REMARK    3  A    between atoms: C6_6  and  C7_7 
ROOT
HETATM    1  C1  UNL     1     -33.396   6.309   3.893  1.00 20.00    -0.026 C 
HETATM    2  C2  UNL     1     -33.366   6.480   5.224  1.00 20.00    -0.029 C 
ENDROOT
BRANCH   1   3
HETATM    3  C5  UNL     1     -32.308   6.648   2.959  1.00 20.00     0.008 A 
HETATM    4  C3  UNL     1     -32.322   7.996   2.311  1.00 20.00     0.009 A 
HETATM    5  C4  UNL     1     -31.312   7.683   3.374  1.00 20.00     0.009 A 
ENDBRANCH   1   3
BRANCH   2   6
HETATM    6  C6  UNL     1     -34.497   6.116   6.144  1.00 20.00     0.042 C 
BRANCH   6   7
HETATM    7  C7  UNL     1     -34.575   4.617   6.417  1.00 20.00     0.118 C 
HETATM    8 CL8  UNL     1     -35.148   3.719   4.990  1.00 20.00    -0.130 Cl
ENDBRANCH   6   7
ENDBRANCH   2   6
TORSDOF 3
ENDMDL
MODEL 6
REMARK VINA RESULT:      -3.9     11.304     11.913
REMARK  3 active torsions:
REMARK  status: ('A' for Active; 'I' for Inactive)
REMARK    1  A    between atoms: C1_1  and  C5_5 
REMARK    2  A    between atoms: C2_2  and  C6_6 
REMARK    3  A    between atoms: C6_6  and  C7_7 
ROOT
HETATM    1  C1  UNL     1     -34.698  15.461  -2.500  1.00 20.00    -0.026 C 
HETATM    2  C2  UNL     1     -33.677  15.075  -3.280  1.00 20.00    -0.029 C 
ENDROOT
BRANCH   1   3
HETATM    3  C5  UNL     1     -34.851  16.787  -1.877  1.00 20.00     0.008 A 
HETATM    4  C3  UNL     1     -34.737  16.891  -0.389  1.00 20.00     0.009 A 
HETATM    5  C4  UNL     1     -33.645  17.427  -1.266  1.00 20.00     0.009 A 
ENDBRANCH   1   3
BRANCH   2   6
HETATM    6  C6  UNL     1     -33.562  13.712  -3.901  1.00 20.00     0.042 C 
BRANCH   6   7
HETATM    7  C7  UNL     1     -34.704  13.405  -4.865  1.00 20.00     0.118 C 
HETATM    8 CL8  UNL     1     -34.668  14.478  -6.287  1.00 20.00    -0.130 Cl
ENDBRANCH   6   7
ENDBRANCH   2   6
TORSDOF 3
ENDMDL
MODEL 7
REMARK VINA RESULT:      -3.8     11.291     12.108
REMARK  3 active torsions:
REMARK  status: ('A' for Active; 'I' for Inactive)
REMARK    1  A    between atoms: C1_1  and  C5_5 
REMARK    2  A    between atoms: C2_2  and  C6_6 
REMARK    3  A    between atoms: C6_6  and  C7_7 
ROOT
HETATM    1  C1  UNL     1     -33.746  16.099  -2.783  1.00 20.00    -0.026 C 
HETATM    2  C2  UNL     1     -34.533  16.170  -1.698  1.00 20.00    -0.029 C 
ENDROOT
BRANCH   1   3
HETATM    3  C5  UNL     1     -33.906  15.153  -3.901  1.00 20.00     0.008 A 
HETATM    4  C3  UNL     1     -33.353  13.772  -3.749  1.00 20.00     0.009 A 
HETATM    5  C4  UNL     1     -34.835  13.995  -3.723  1.00 20.00     0.009 A 
ENDBRANCH   1   3
BRANCH   2   6
HETATM    6  C6  UNL     1     -34.337  17.155  -0.580  1.00 20.00     0.042 C 
BRANCH   6   7
HETATM    7  C7  UNL     1     -33.478  18.348  -0.990  1.00 20.00     0.118 C 
HETATM    8 CL8  UNL     1     -32.206  18.682   0.211  1.00 20.00    -0.130 Cl
ENDBRANCH   6   7
ENDBRANCH   2   6
TORSDOF 3
ENDMDL
MODEL 8
REMARK VINA RESULT:      -3.8     11.316     12.103
REMARK  3 active torsions:
REMARK  status: ('A' for Active; 'I' for Inactive)
REMARK    1  A    between atoms: C1_1  and  C5_5 
REMARK    2  A    between atoms: C2_2  and  C6_6 
REMARK    3  A    between atoms: C6_6  and  C7_7 
ROOT
HETATM    1  C1  UNL     1     -34.858  15.824  -2.103  1.00 20.00    -0.026 C 
HETATM    2  C2  UNL     1     -34.290  16.753  -1.319  1.00 20.00    -0.029 C 
ENDROOT
BRANCH   1   3
HETATM    3  C5  UNL     1     -34.368  15.399  -3.426  1.00 20.00     0.008 A 
HETATM    4  C3  UNL     1     -32.933  14.997  -3.557  1.00 20.00     0.009 A 
HETATM    5  C4  UNL     1     -34.014  13.960  -3.624  1.00 20.00     0.009 A 
ENDBRANCH   1   3
BRANCH   2   6
HETATM    6  C6  UNL     1     -34.821  17.154   0.028  1.00 20.00     0.042 C 
BRANCH   6   7
HETATM    7  C7  UNL     1     -34.026  18.293   0.659  1.00 20.00     0.118 C 
HETATM    8 CL8  UNL     1     -32.481  18.561  -0.185  1.00 20.00    -0.130 Cl
ENDBRANCH   6   7
ENDBRANCH   2   6
TORSDOF 3
ENDMDL
MODEL 9
REMARK VINA RESULT:      -3.7     11.284     11.925
REMARK  3 active torsions:
REMARK  status: ('A' for Active; 'I' for Inactive)
REMARK    1  A    between atoms: C1_1  and  C5_5 
REMARK    2  A    between atoms: C2_2  and  C6_6 
REMARK    3  A    between atoms: C6_6  and  C7_7 
ROOT
HETATM    1  C1  UNL     1     -34.855  15.438  -2.516  1.00 20.00    -0.026 C 
HETATM    2  C2  UNL     1     -34.213  16.397  -1.830  1.00 20.00    -0.029 C 
ENDROOT
BRANCH   1   3
HETATM    3  C5  UNL     1     -34.429  14.874  -3.809  1.00 20.00     0.008 A 
HETATM    4  C3  UNL     1     -33.462  13.734  -3.803  1.00 20.00     0.009 A 
HETATM    5  C4  UNL     1     -34.896  13.501  -4.173  1.00 20.00     0.009 A 
ENDBRANCH   1   3
BRANCH   2   6
HETATM    6  C6  UNL     1     -34.680  16.941  -0.510  1.00 20.00     0.042 C 
BRANCH   6   7
HETATM    7  C7  UNL     1     -33.802  18.080   0.001  1.00 20.00     0.118 C 
HETATM    8 CL8  UNL     1     -34.017  18.338   1.750  1.00 20.00    -0.130 Cl
ENDBRANCH   6   7
ENDBRANCH   2   6
TORSDOF 3
ENDMDL
