MODEL 1
REMARK VINA RESULT:      -4.2      0.000      0.000
REMARK  4 active torsions:
REMARK  status: ('A' for Active; 'I' for Inactive)
REMARK    1  A    between atoms: C3_3  and  C4_4 
REMARK    2  A    between atoms: C3_3  and  C6_6 
REMARK    3  A    between atoms: C4_4  and  O7_7 
REMARK    4  A    between atoms: C5_5  and  C6_6 
ROOT
HETATM    1  C3  UNL     1     -33.772   6.420   3.932  1.00 20.00     0.031 C 
ENDROOT
BRANCH   1   2
HETATM    2  C4  UNL     1     -32.380   6.231   3.342  1.00 20.00     0.167 C 
BRANCH   2   3
HETATM    3  O7  UNL     1     -31.735   7.497   3.278  1.00 20.00    -0.396 OA
HETATM    4  C2  UNL     1     -32.082   8.199   2.092  1.00 20.00     0.201 C 
ENDBRANCH   2   3
ENDBRANCH   1   2
BRANCH   1   5
HETATM    5  C6  UNL     1     -34.150   5.364   4.986  1.00 20.00    -0.003 C 
HETATM    6  C1  UNL     1     -35.364   4.561   4.503  1.00 20.00     0.011 C 
BRANCH   5   7
HETATM    7  C5  UNL     1     -34.377   5.924   6.399  1.00 20.00     0.119 C 
HETATM    8 CL8  UNL     1     -33.333   7.312   6.792  1.00 20.00    -0.130 Cl
ENDBRANCH   5   7
ENDBRANCH   1   5
TORSDOF 4
ENDMDL
MODEL 2
REMARK VINA RESULT:      -4.1      1.630      2.094
REMARK  4 active torsions:
REMARK  status: ('A' for Active; 'I' for Inactive)
REMARK    1  A    between atoms: C3_3  and  C4_4 
REMARK    2  A    between atoms: C3_3  and  C6_6 
REMARK    3  A    between atoms: C4_4  and  O7_7 
REMARK    4  A    between atoms: C5_5  and  C6_6 
ROOT
HETATM    1  C3  UNL     1     -33.068   6.119   3.191  1.00 20.00     0.031 C 
ENDROOT
BRANCH   1   2
HETATM    2  C4  UNL     1     -32.125   7.314   3.243  1.00 20.00     0.167 C 
BRANCH   2   3
HETATM    3  O7  UNL     1     -31.894   7.771   1.917  1.00 20.00    -0.396 OA
HETATM    4  C2  UNL     1     -32.346   9.107   1.739  1.00 20.00     0.201 C 
ENDBRANCH   2   3
ENDBRANCH   1   2
BRANCH   1   5
HETATM    5  C6  UNL     1     -34.229   6.197   4.199  1.00 20.00    -0.003 C 
HETATM    6  C1  UNL     1     -33.689   6.561   5.586  1.00 20.00     0.011 C 
BRANCH   5   7
HETATM    7  C5  UNL     1     -35.111   4.939   4.255  1.00 20.00     0.119 C 
HETATM    8 CL8  UNL     1     -35.019   4.072   5.807  1.00 20.00    -0.130 Cl
ENDBRANCH   5   7
ENDBRANCH   1   5
TORSDOF 4
ENDMDL
MODEL 3
REMARK VINA RESULT:      -3.7      1.800      2.166
REMARK  4 active torsions:
REMARK  status: ('A' for Active; 'I' for Inactive)
REMARK    1  A    between atoms: C3_3  and  C4_4 
REMARK    2  A    between atoms: C3_3  and  C6_6 
REMARK    3  A    between atoms: C4_4  and  O7_7 
REMARK    4  A    between atoms: C5_5  and  C6_6 
ROOT
HETATM    1  C3  UNL     1     -33.998   6.531   4.149  1.00 20.00     0.031 C 
ENDROOT
BRANCH   1   2
HETATM    2  C4  UNL     1     -32.591   6.103   3.753  1.00 20.00     0.167 C 
BRANCH   2   3
HETATM    3  O7  UNL     1     -31.803   7.267   3.538  1.00 20.00    -0.396 OA
HETATM    4  C2  UNL     1     -32.145   7.911   2.318  1.00 20.00     0.201 C 
ENDBRANCH   2   3
ENDBRANCH   1   2
BRANCH   1   5
HETATM    5  C6  UNL     1     -34.334   6.273   5.629  1.00 20.00    -0.003 C 
HETATM    6  C1  UNL     1     -33.400   7.095   6.525  1.00 20.00     0.011 C 
BRANCH   5   7
HETATM    7  C5  UNL     1     -34.335   4.790   6.034  1.00 20.00     0.119 C 
HETATM    8 CL8  UNL     1     -35.144   3.729   4.855  1.00 20.00    -0.130 Cl
ENDBRANCH   5   7
ENDBRANCH   1   5
TORSDOF 4
ENDMDL
MODEL 4
REMARK VINA RESULT:      -3.6     11.497     12.392
REMARK  4 active torsions:
REMARK  status: ('A' for Active; 'I' for Inactive)
REMARK    1  A    between atoms: C3_3  and  C4_4 
REMARK    2  A    between atoms: C3_3  and  C6_6 
REMARK    3  A    between atoms: C4_4  and  O7_7 
REMARK    4  A    between atoms: C5_5  and  C6_6 
ROOT
HETATM    1  C3  UNL     1     -34.820  14.888  -3.150  1.00 20.00     0.031 C 
ENDROOT
BRANCH   1   2
HETATM    2  C4  UNL     1     -33.993  13.666  -3.529  1.00 20.00     0.167 C 
BRANCH   2   3
HETATM    3  O7  UNL     1     -34.744  12.870  -4.437  1.00 20.00    -0.396 OA
HETATM    4  C2  UNL     1     -35.018  13.573  -5.642  1.00 20.00     0.201 C 
ENDBRANCH   2   3
ENDBRANCH   1   2
BRANCH   1   5
HETATM    5  C6  UNL     1     -33.989  16.047  -2.569  1.00 20.00    -0.003 C 
HETATM    6  C1  UNL     1     -34.577  16.485  -1.223  1.00 20.00     0.011 C 
BRANCH   5   7
HETATM    7  C5  UNL     1     -33.813  17.244  -3.518  1.00 20.00     0.119 C 
HETATM    8 CL8  UNL     1     -33.221  16.791  -5.135  1.00 20.00    -0.130 Cl
ENDBRANCH   5   7
ENDBRANCH   1   5
TORSDOF 4
ENDMDL
MODEL 5
REMARK VINA RESULT:      -3.6      2.758      4.120
REMARK  4 active torsions:
REMARK  status: ('A' for Active; 'I' for Inactive)
REMARK    1  A    between atoms: C3_3  and  C4_4 
REMARK    2  A    between atoms: C3_3  and  C6_6 
REMARK    3  A    between atoms: C4_4  and  O7_7 
REMARK    4  A    between atoms: C5_5  and  C6_6 
ROOT
HETATM    1  C3  UNL     1     -34.025   6.516   4.055  1.00 20.00     0.031 C 
ENDROOT
BRANCH   1   2
HETATM    2  C4  UNL     1     -34.964   5.320   3.963  1.00 20.00     0.167 C 
BRANCH   2   3
HETATM    3  O7  UNL     1     -35.247   4.859   5.278  1.00 20.00    -0.396 OA
HETATM    4  C2  UNL     1     -34.513   5.586   6.254  1.00 20.00     0.201 C 
ENDBRANCH   2   3
ENDBRANCH   1   2
BRANCH   1   5
HETATM    5  C6  UNL     1     -32.957   6.557   2.946  1.00 20.00    -0.003 C 
HETATM    6  C1  UNL     1     -32.087   5.297   3.017  1.00 20.00     0.011 C 
BRANCH   5   7
HETATM    7  C5  UNL     1     -32.097   7.830   2.935  1.00 20.00     0.119 C 
HETATM    8 CL8  UNL     1     -32.015   8.621   1.342  1.00 20.00    -0.130 Cl
ENDBRANCH   5   7
ENDBRANCH   1   5
TORSDOF 4
ENDMDL
MODEL 6
REMARK VINA RESULT:      -3.4     11.214     11.702
REMARK  4 active torsions:
REMARK  status: ('A' for Active; 'I' for Inactive)
REMARK    1  A    between atoms: C3_3  and  C4_4 
REMARK    2  A    between atoms: C3_3  and  C6_6 
REMARK    3  A    between atoms: C4_4  and  O7_7 
REMARK    4  A    between atoms: C5_5  and  C6_6 
ROOT
HETATM    1  C3  UNL     1     -33.543  15.542  -3.562  1.00 20.00     0.031 C 
ENDROOT
BRANCH   1   2
HETATM    2  C4  UNL     1     -33.031  14.108  -3.596  1.00 20.00     0.167 C 
BRANCH   2   3
HETATM    3  O7  UNL     1     -34.146  13.225  -3.612  1.00 20.00    -0.396 OA
HETATM    4  C2  UNL     1     -34.755  13.177  -4.895  1.00 20.00     0.201 C 
ENDBRANCH   2   3
ENDBRANCH   1   2
BRANCH   1   5
HETATM    5  C6  UNL     1     -34.461  15.847  -2.365  1.00 20.00    -0.003 C 
HETATM    6  C1  UNL     1     -35.870  16.190  -2.864  1.00 20.00     0.011 C 
BRANCH   5   7
HETATM    7  C5  UNL     1     -33.928  16.928  -1.411  1.00 20.00     0.119 C 
HETATM    8 CL8  UNL     1     -34.867  17.076   0.095  1.00 20.00    -0.130 Cl
ENDBRANCH   5   7
ENDBRANCH   1   5
TORSDOF 4
ENDMDL
MODEL 7
REMARK VINA RESULT:      -3.4     11.753     12.343
REMARK  4 active torsions:
REMARK  status: ('A' for Active; 'I' for Inactive)
REMARK    1  A    between atoms: C3_3  and  C4_4 
REMARK    2  A    between atoms: C3_3  and  C6_6 
REMARK    3  A    between atoms: C4_4  and  O7_7 
REMARK    4  A    between atoms: C5_5  and  C6_6 
ROOT
HETATM    1  C3  UNL     1     -36.139  15.727  -3.131  1.00 20.00     0.031 C 
ENDROOT
BRANCH   1   2
HETATM    2  C4  UNL     1     -36.574  14.588  -4.045  1.00 20.00     0.167 C 
BRANCH   2   3
HETATM    3  O7  UNL     1     -37.873  14.159  -3.655  1.00 20.00    -0.396 OA
HETATM    4  C2  UNL     1     -38.876  15.057  -4.109  1.00 20.00     0.201 C 
ENDBRANCH   2   3
ENDBRANCH   1   2
BRANCH   1   5
HETATM    5  C6  UNL     1     -34.795  15.479  -2.424  1.00 20.00    -0.003 C 
HETATM    6  C1  UNL     1     -34.584  16.530  -1.327  1.00 20.00     0.011 C 
BRANCH   5   7
HETATM    7  C5  UNL     1     -33.582  15.403  -3.366  1.00 20.00     0.119 C 
HETATM    8 CL8  UNL     1     -33.046  13.740  -3.705  1.00 20.00    -0.130 Cl
ENDBRANCH   5   7
ENDBRANCH   1   5
TORSDOF 4
ENDMDL
MODEL 8
REMARK VINA RESULT:      -3.2     11.628     12.809
REMARK  4 active torsions:
REMARK  status: ('A' for Active; 'I' for Inactive)
REMARK    1  A    between atoms: C3_3  and  C4_4 
REMARK    2  A    between atoms: C3_3  and  C6_6 
REMARK    3  A    between atoms: C4_4  and  O7_7 
REMARK    4  A    between atoms: C5_5  and  C6_6 
ROOT
HETATM    1  C3  UNL     1     -33.138  16.136  -4.631  1.00 20.00     0.031 C 
ENDROOT
BRANCH   1   2
HETATM    2  C4  UNL     1     -34.298  16.327  -5.600  1.00 20.00     0.167 C 
BRANCH   2   3
HETATM    3  O7  UNL     1     -33.989  15.663  -6.819  1.00 20.00    -0.396 OA
HETATM    4  C2  UNL     1     -34.934  14.643  -7.111  1.00 20.00     0.201 C 
ENDBRANCH   2   3
ENDBRANCH   1   2
BRANCH   1   5
HETATM    5  C6  UNL     1     -33.490  15.286  -3.397  1.00 20.00    -0.003 C 
HETATM    6  C1  UNL     1     -33.449  13.798  -3.764  1.00 20.00     0.011 C 
BRANCH   5   7
HETATM    7  C5  UNL     1     -34.820  15.659  -2.724  1.00 20.00     0.119 C 
HETATM    8 CL8  UNL     1     -34.623  16.373  -1.104  1.00 20.00    -0.130 Cl
ENDBRANCH   5   7
ENDBRANCH   1   5
TORSDOF 4
ENDMDL
MODEL 9
REMARK VINA RESULT:      -3.2      2.635      4.093
REMARK  4 active torsions:
REMARK  status: ('A' for Active; 'I' for Inactive)
REMARK    1  A    between atoms: C3_3  and  C4_4 
REMARK    2  A    between atoms: C3_3  and  C6_6 
REMARK    3  A    between atoms: C4_4  and  O7_7 
REMARK    4  A    between atoms: C5_5  and  C6_6 
ROOT
HETATM    1  C3  UNL     1     -33.782   6.888   4.956  1.00 20.00     0.031 C 
ENDROOT
BRANCH   1   2
HETATM    2  C4  UNL     1     -33.724   6.137   6.280  1.00 20.00     0.167 C 
BRANCH   2   3
HETATM    3  O7  UNL     1     -34.973   5.493   6.495  1.00 20.00    -0.396 OA
HETATM    4  C2  UNL     1     -34.922   4.121   6.127  1.00 20.00     0.201 C 
ENDBRANCH   2   3
ENDBRANCH   1   2
BRANCH   1   5
HETATM    5  C6  UNL     1     -33.100   6.148   3.791  1.00 20.00    -0.003 C 
HETATM    6  C1  UNL     1     -32.159   7.104   3.048  1.00 20.00     0.011 C 
BRANCH   5   7
HETATM    7  C5  UNL     1     -34.069   5.452   2.822  1.00 20.00     0.119 C 
HETATM    8 CL8  UNL     1     -35.785   5.725   3.211  1.00 20.00    -0.130 Cl
ENDBRANCH   5   7
ENDBRANCH   1   5
TORSDOF 4
ENDMDL
