MODEL 1
REMARK VINA RESULT:      -4.8      0.000      0.000
REMARK  5 active torsions:
REMARK  status: ('A' for Active; 'I' for Inactive)
REMARK    1  A    between atoms: C1_1  and  C3_3 
REMARK    2  A    between atoms: C1_1  and  C4_4 
REMARK    3  A    between atoms: C3_3  and  C5_5 
REMARK    4  A    between atoms: C4_4  and  C6_6 
REMARK    5  A    between atoms: C6_6  and  C7_7 
ROOT
HETATM    1  C1  UNL     1     -32.578   6.514   3.277  1.00 20.00     0.127 C 
HETATM    2  O8  UNL     1     -32.071   5.452   2.919  1.00 20.00    -0.298 OA
ENDROOT
BRANCH   1   3
HETATM    3  C3  UNL     1     -31.897   7.855   3.047  1.00 20.00     0.078 C 
BRANCH   3   4
HETATM    4  C5  UNL     1     -31.958   8.301   1.589  1.00 20.00     0.003 C 
HETATM    5  C2  UNL     1     -32.451   9.734   1.465  1.00 20.00     0.005 C 
ENDBRANCH   3   4
ENDBRANCH   1   3
BRANCH   1   6
HETATM    6  C4  UNL     1     -33.942   6.580   3.949  1.00 20.00     0.079 C 
BRANCH   6   7
HETATM    7  C6  UNL     1     -34.815   5.351   3.698  1.00 20.00     0.022 C 
BRANCH   7   8
HETATM    8  C7  UNL     1     -35.132   4.598   4.986  1.00 20.00     0.115 C 
HETATM    9 CL9  UNL     1     -34.586   5.533   6.399  1.00 20.00    -0.130 Cl
ENDBRANCH   7   8
ENDBRANCH   6   7
ENDBRANCH   1   6
TORSDOF 5
ENDMDL
MODEL 2
REMARK VINA RESULT:      -4.7      2.565      4.837
REMARK  5 active torsions:
REMARK  status: ('A' for Active; 'I' for Inactive)
REMARK    1  A    between atoms: C1_1  and  C3_3 
REMARK    2  A    between atoms: C1_1  and  C4_4 
REMARK    3  A    between atoms: C3_3  and  C5_5 
REMARK    4  A    between atoms: C4_4  and  C6_6 
REMARK    5  A    between atoms: C6_6  and  C7_7 
ROOT
HETATM    1  C1  UNL     1     -33.883   6.081   3.961  1.00 20.00     0.127 C 
HETATM    2  O8  UNL     1     -34.912   5.793   3.352  1.00 20.00    -0.298 OA
ENDROOT
BRANCH   1   3
HETATM    3  C3  UNL     1     -33.875   6.344   5.459  1.00 20.00     0.078 C 
BRANCH   3   4
HETATM    4  C5  UNL     1     -34.801   5.404   6.225  1.00 20.00     0.003 C 
HETATM    5  C2  UNL     1     -34.593   3.956   5.810  1.00 20.00     0.005 C 
ENDBRANCH   3   4
ENDBRANCH   1   3
BRANCH   1   6
HETATM    6  C4  UNL     1     -32.527   6.164   3.275  1.00 20.00     0.079 C 
BRANCH   6   7
HETATM    7  C6  UNL     1     -31.967   7.583   3.179  1.00 20.00     0.022 C 
BRANCH   7   8
HETATM    8  C7  UNL     1     -31.978   8.111   1.749  1.00 20.00     0.115 C 
HETATM    9 CL9  UNL     1     -32.540   9.799   1.718  1.00 20.00    -0.130 Cl
ENDBRANCH   7   8
ENDBRANCH   6   7
ENDBRANCH   1   6
TORSDOF 5
ENDMDL
MODEL 3
REMARK VINA RESULT:      -4.6      2.523      4.938
REMARK  5 active torsions:
REMARK  status: ('A' for Active; 'I' for Inactive)
REMARK    1  A    between atoms: C1_1  and  C3_3 
REMARK    2  A    between atoms: C1_1  and  C4_4 
REMARK    3  A    between atoms: C3_3  and  C5_5 
REMARK    4  A    between atoms: C4_4  and  C6_6 
REMARK    5  A    between atoms: C6_6  and  C7_7 
ROOT
HETATM    1  C1  UNL     1     -33.673   6.225   4.170  1.00 20.00     0.127 C 
HETATM    2  O8  UNL     1     -33.360   6.731   5.247  1.00 20.00    -0.298 OA
ENDROOT
BRANCH   1   3
HETATM    3  C3  UNL     1     -34.979   5.469   3.980  1.00 20.00     0.078 C 
BRANCH   3   4
HETATM    4  C5  UNL     1     -35.006   4.144   4.737  1.00 20.00     0.003 C 
HETATM    5  C2  UNL     1     -35.143   4.361   6.236  1.00 20.00     0.005 C 
ENDBRANCH   3   4
ENDBRANCH   1   3
BRANCH   1   6
HETATM    6  C4  UNL     1     -32.798   6.342   2.931  1.00 20.00     0.079 C 
BRANCH   6   7
HETATM    7  C6  UNL     1     -31.919   7.592   2.909  1.00 20.00     0.022 C 
BRANCH   7   8
HETATM    8  C7  UNL     1     -31.939   8.286   1.551  1.00 20.00     0.115 C 
HETATM    9 CL9  UNL     1     -32.604   9.929   1.707  1.00 20.00    -0.130 Cl
ENDBRANCH   7   8
ENDBRANCH   6   7
ENDBRANCH   1   6
TORSDOF 5
ENDMDL
MODEL 4
REMARK VINA RESULT:      -4.5      1.203      1.619
REMARK  5 active torsions:
REMARK  status: ('A' for Active; 'I' for Inactive)
REMARK    1  A    between atoms: C1_1  and  C3_3 
REMARK    2  A    between atoms: C1_1  and  C4_4 
REMARK    3  A    between atoms: C3_3  and  C5_5 
REMARK    4  A    between atoms: C4_4  and  C6_6 
REMARK    5  A    between atoms: C6_6  and  C7_7 
ROOT
HETATM    1  C1  UNL     1     -33.654   5.628   2.974  1.00 20.00     0.127 C 
HETATM    2  O8  UNL     1     -34.023   4.970   2.002  1.00 20.00    -0.298 OA
ENDROOT
BRANCH   1   3
HETATM    3  C3  UNL     1     -32.206   6.053   3.162  1.00 20.00     0.078 C 
BRANCH   3   4
HETATM    4  C5  UNL     1     -32.047   7.567   3.267  1.00 20.00     0.003 C 
HETATM    5  C2  UNL     1     -32.022   8.222   1.895  1.00 20.00     0.005 C 
ENDBRANCH   3   4
ENDBRANCH   1   3
BRANCH   1   6
HETATM    6  C4  UNL     1     -34.621   6.102   4.049  1.00 20.00     0.079 C 
BRANCH   6   7
HETATM    7  C6  UNL     1     -35.110   4.989   4.975  1.00 20.00     0.022 C 
BRANCH   7   8
HETATM    8  C7  UNL     1     -34.635   5.185   6.411  1.00 20.00     0.115 C 
HETATM    9 CL9  UNL     1     -33.840   6.768   6.588  1.00 20.00    -0.130 Cl
ENDBRANCH   7   8
ENDBRANCH   6   7
ENDBRANCH   1   6
TORSDOF 5
ENDMDL
MODEL 5
REMARK VINA RESULT:      -4.0      2.787      4.841
REMARK  5 active torsions:
REMARK  status: ('A' for Active; 'I' for Inactive)
REMARK    1  A    between atoms: C1_1  and  C3_3 
REMARK    2  A    between atoms: C1_1  and  C4_4 
REMARK    3  A    between atoms: C3_3  and  C5_5 
REMARK    4  A    between atoms: C4_4  and  C6_6 
REMARK    5  A    between atoms: C6_6  and  C7_7 
ROOT
HETATM    1  C1  UNL     1     -33.813   6.577   5.852  1.00 20.00     0.127 C 
HETATM    2  O8  UNL     1     -33.040   7.212   6.568  1.00 20.00    -0.298 OA
ENDROOT
BRANCH   1   3
HETATM    3  C3  UNL     1     -34.793   5.562   6.419  1.00 20.00     0.078 C 
BRANCH   3   4
HETATM    4  C5  UNL     1     -34.468   4.132   5.997  1.00 20.00     0.003 C 
HETATM    5  C2  UNL     1     -35.201   3.747   4.722  1.00 20.00     0.005 C 
ENDBRANCH   3   4
ENDBRANCH   1   3
BRANCH   1   6
HETATM    6  C4  UNL     1     -33.880   6.780   4.345  1.00 20.00     0.079 C 
BRANCH   6   7
HETATM    7  C6  UNL     1     -32.633   6.303   3.601  1.00 20.00     0.022 C 
BRANCH   7   8
HETATM    8  C7  UNL     1     -31.652   7.440   3.335  1.00 20.00     0.115 C 
HETATM    9 CL9  UNL     1     -32.114   8.321   1.859  1.00 20.00    -0.130 Cl
ENDBRANCH   7   8
ENDBRANCH   6   7
ENDBRANCH   1   6
TORSDOF 5
ENDMDL
MODEL 6
REMARK VINA RESULT:      -3.9     10.523     11.786
REMARK  5 active torsions:
REMARK  status: ('A' for Active; 'I' for Inactive)
REMARK    1  A    between atoms: C1_1  and  C3_3 
REMARK    2  A    between atoms: C1_1  and  C4_4 
REMARK    3  A    between atoms: C3_3  and  C5_5 
REMARK    4  A    between atoms: C4_4  and  C6_6 
REMARK    5  A    between atoms: C6_6  and  C7_7 
ROOT
HETATM    1  C1  UNL     1     -34.909  13.667  -4.507  1.00 20.00     0.127 C 
HETATM    2  O8  UNL     1     -34.797  12.491  -4.849  1.00 20.00    -0.298 OA
ENDROOT
BRANCH   1   3
HETATM    3  C3  UNL     1     -35.821  14.640  -5.238  1.00 20.00     0.078 C 
BRANCH   3   4
HETATM    4  C5  UNL     1     -35.684  14.547  -6.755  1.00 20.00     0.003 C 
HETATM    5  C2  UNL     1     -34.353  15.109  -7.230  1.00 20.00     0.005 C 
ENDBRANCH   3   4
ENDBRANCH   1   3
BRANCH   1   6
HETATM    6  C4  UNL     1     -34.172  14.239  -3.305  1.00 20.00     0.079 C 
BRANCH   6   7
HETATM    7  C6  UNL     1     -33.326  15.470  -3.624  1.00 20.00     0.022 C 
BRANCH   7   8
HETATM    8  C7  UNL     1     -33.808  16.709  -2.876  1.00 20.00     0.115 C 
HETATM    9 CL9  UNL     1     -34.641  16.239  -1.376  1.00 20.00    -0.130 Cl
ENDBRANCH   7   8
ENDBRANCH   6   7
ENDBRANCH   1   6
TORSDOF 5
ENDMDL
MODEL 7
REMARK VINA RESULT:      -3.9     10.696     11.694
REMARK  5 active torsions:
REMARK  status: ('A' for Active; 'I' for Inactive)
REMARK    1  A    between atoms: C1_1  and  C3_3 
REMARK    2  A    between atoms: C1_1  and  C4_4 
REMARK    3  A    between atoms: C3_3  and  C5_5 
REMARK    4  A    between atoms: C4_4  and  C6_6 
REMARK    5  A    between atoms: C6_6  and  C7_7 
ROOT
HETATM    1  C1  UNL     1     -34.383  13.575  -4.698  1.00 20.00     0.127 C 
HETATM    2  O8  UNL     1     -35.006  12.522  -4.572  1.00 20.00    -0.298 OA
ENDROOT
BRANCH   1   3
HETATM    3  C3  UNL     1     -33.332  14.019  -3.692  1.00 20.00     0.078 C 
BRANCH   3   4
HETATM    4  C5  UNL     1     -33.396  15.515  -3.397  1.00 20.00     0.003 C 
HETATM    5  C2  UNL     1     -34.416  15.826  -2.314  1.00 20.00     0.005 C 
ENDBRANCH   3   4
ENDBRANCH   1   3
BRANCH   1   6
HETATM    6  C4  UNL     1     -34.586  14.503  -5.886  1.00 20.00     0.079 C 
BRANCH   6   7
HETATM    7  C6  UNL     1     -36.053  14.767  -6.222  1.00 20.00     0.022 C 
BRANCH   7   8
HETATM    8  C7  UNL     1     -36.726  15.670  -5.194  1.00 20.00     0.115 C 
HETATM    9 CL9  UNL     1     -37.664  14.696  -4.037  1.00 20.00    -0.130 Cl
ENDBRANCH   7   8
ENDBRANCH   6   7
ENDBRANCH   1   6
TORSDOF 5
ENDMDL
MODEL 8
REMARK VINA RESULT:      -3.9     11.148     11.695
REMARK  5 active torsions:
REMARK  status: ('A' for Active; 'I' for Inactive)
REMARK    1  A    between atoms: C1_1  and  C3_3 
REMARK    2  A    between atoms: C1_1  and  C4_4 
REMARK    3  A    between atoms: C3_3  and  C5_5 
REMARK    4  A    between atoms: C4_4  and  C6_6 
REMARK    5  A    between atoms: C6_6  and  C7_7 
ROOT
HETATM    1  C1  UNL     1     -33.375  14.995  -3.339  1.00 20.00     0.127 C 
HETATM    2  O8  UNL     1     -32.223  14.708  -3.662  1.00 20.00    -0.298 OA
ENDROOT
BRANCH   1   3
HETATM    3  C3  UNL     1     -33.727  16.325  -2.691  1.00 20.00     0.078 C 
BRANCH   3   4
HETATM    4  C5  UNL     1     -34.899  16.215  -1.721  1.00 20.00     0.003 C 
HETATM    5  C2  UNL     1     -34.618  16.952  -0.421  1.00 20.00     0.005 C 
ENDBRANCH   3   4
ENDBRANCH   1   3
BRANCH   1   6
HETATM    6  C4  UNL     1     -34.549  14.060  -3.593  1.00 20.00     0.079 C 
BRANCH   6   7
HETATM    7  C6  UNL     1     -34.498  13.356  -4.948  1.00 20.00     0.022 C 
BRANCH   7   8
HETATM    8  C7  UNL     1     -35.247  14.131  -6.027  1.00 20.00     0.115 C 
HETATM    9 CL9  UNL     1     -34.133  15.217  -6.892  1.00 20.00    -0.130 Cl
ENDBRANCH   7   8
ENDBRANCH   6   7
ENDBRANCH   1   6
TORSDOF 5
ENDMDL
MODEL 9
REMARK VINA RESULT:      -3.9     11.191     12.436
REMARK  5 active torsions:
REMARK  status: ('A' for Active; 'I' for Inactive)
REMARK    1  A    between atoms: C1_1  and  C3_3 
REMARK    2  A    between atoms: C1_1  and  C4_4 
REMARK    3  A    between atoms: C3_3  and  C5_5 
REMARK    4  A    between atoms: C4_4  and  C6_6 
REMARK    5  A    between atoms: C6_6  and  C7_7 
ROOT
HETATM    1  C1  UNL     1     -34.873  13.716  -4.606  1.00 20.00     0.127 C 
HETATM    2  O8  UNL     1     -34.915  12.492  -4.722  1.00 20.00    -0.298 OA
ENDROOT
BRANCH   1   3
HETATM    3  C3  UNL     1     -34.221  14.394  -3.412  1.00 20.00     0.078 C 
BRANCH   3   4
HETATM    4  C5  UNL     1     -35.117  15.453  -2.776  1.00 20.00     0.003 C 
HETATM    5  C2  UNL     1     -34.333  16.356  -1.837  1.00 20.00     0.005 C 
ENDBRANCH   3   4
ENDBRANCH   1   3
BRANCH   1   6
HETATM    6  C4  UNL     1     -35.439  14.653  -5.663  1.00 20.00     0.079 C 
BRANCH   6   7
HETATM    7  C6  UNL     1     -34.401  15.153  -6.666  1.00 20.00     0.022 C 
BRANCH   7   8
HETATM    8  C7  UNL     1     -34.372  16.675  -6.753  1.00 20.00     0.115 C 
HETATM    9 CL9  UNL     1     -33.422  17.353  -5.409  1.00 20.00    -0.130 Cl
ENDBRANCH   7   8
ENDBRANCH   6   7
ENDBRANCH   1   6
TORSDOF 5
ENDMDL
