MODEL 1
REMARK VINA RESULT:      -3.9      0.000      0.000
REMARK  0 active torsions:
REMARK  status: ('A' for Active; 'I' for Inactive)
ROOT
HETATM    1  C1  UNL     1     -33.679  16.973  -2.641  1.00 20.00     0.109 C 
HETATM    2  C2  UNL     1     -34.585  16.196  -1.677  1.00 20.00     0.226 C 
HETATM    3  C3  UNL     1     -35.909  15.020  -3.403  1.00 20.00     0.230 C 
HETATM    4  C4  UNL     1     -34.527  14.730  -4.040  1.00 20.00     0.076 C 
HETATM    5  C5  UNL     1     -34.764  16.996  -0.385  1.00 20.00     0.043 C 
HETATM    6  C6  UNL     1     -36.966  15.529  -4.389  1.00 20.00     0.043 C 
HETATM    7  C7  UNL     1     -34.600  13.944  -5.348  1.00 20.00     0.023 C 
HETATM    8  N8  UNL     1     -35.897  15.967  -2.275  1.00 20.00     0.093 N 
HETATM    9  S9  UNL     1     -33.561  16.254  -4.312  1.00 20.00    -0.160 SA
HETATM   10  H24 UNL     1     -36.544  15.625  -1.548  1.00 20.00     0.316 HD
ENDROOT
TORSDOF 0
ENDMDL
MODEL 2
REMARK VINA RESULT:      -3.9      1.631      2.092
REMARK  0 active torsions:
REMARK  status: ('A' for Active; 'I' for Inactive)
ROOT
HETATM    1  C1  UNL     1     -35.761  16.877  -3.373  1.00 20.00     0.109 C 
HETATM    2  C2  UNL     1     -34.489  16.303  -2.736  1.00 20.00     0.226 C 
HETATM    3  C3  UNL     1     -34.075  14.554  -4.434  1.00 20.00     0.230 C 
HETATM    4  C4  UNL     1     -34.343  15.695  -5.446  1.00 20.00     0.076 C 
HETATM    5  C5  UNL     1     -34.544  16.494  -1.218  1.00 20.00     0.043 C 
HETATM    6  C6  UNL     1     -34.815  13.248  -4.743  1.00 20.00     0.043 C 
HETATM    7  C7  UNL     1     -34.267  15.259  -6.908  1.00 20.00     0.023 C 
HETATM    8  N8  UNL     1     -34.365  14.878  -3.027  1.00 20.00     0.093 N 
HETATM    9  S9  UNL     1     -35.946  16.516  -5.150  1.00 20.00    -0.160 SA
HETATM   10  H24 UNL     1     -33.623  14.476  -2.435  1.00 20.00     0.316 HD
ENDROOT
TORSDOF 0
ENDMDL
MODEL 3
REMARK VINA RESULT:      -3.8      2.115      4.105
REMARK  0 active torsions:
REMARK  status: ('A' for Active; 'I' for Inactive)
ROOT
HETATM    1  C1  UNL     1     -34.074  16.565  -6.213  1.00 20.00     0.109 C 
HETATM    2  C2  UNL     1     -34.884  15.268  -6.343  1.00 20.00     0.226 C 
HETATM    3  C3  UNL     1     -34.335  14.356  -4.111  1.00 20.00     0.230 C 
HETATM    4  C4  UNL     1     -34.675  15.785  -3.618  1.00 20.00     0.076 C 
HETATM    5  C5  UNL     1     -34.948  14.849  -7.814  1.00 20.00     0.043 C 
HETATM    6  C6  UNL     1     -33.032  13.784  -3.544  1.00 20.00     0.043 C 
HETATM    7  C7  UNL     1     -34.503  15.979  -2.112  1.00 20.00     0.023 C 
HETATM    8  N8  UNL     1     -34.263  14.194  -5.573  1.00 20.00     0.093 N 
HETATM    9  S9  UNL     1     -33.714  17.064  -4.497  1.00 20.00    -0.160 SA
HETATM   10  H24 UNL     1     -34.704  13.298  -5.829  1.00 20.00     0.316 HD
ENDROOT
TORSDOF 0
ENDMDL
MODEL 4
REMARK VINA RESULT:      -3.6      1.474      1.858
REMARK  0 active torsions:
REMARK  status: ('A' for Active; 'I' for Inactive)
ROOT
HETATM    1  C1  UNL     1     -34.756  18.452  -1.750  1.00 20.00     0.109 C 
HETATM    2  C2  UNL     1     -34.399  17.222  -0.904  1.00 20.00     0.226 C 
HETATM    3  C3  UNL     1     -34.466  15.572  -2.744  1.00 20.00     0.230 C 
HETATM    4  C4  UNL     1     -33.626  16.625  -3.508  1.00 20.00     0.076 C 
HETATM    5  C5  UNL     1     -34.899  17.423   0.529  1.00 20.00     0.043 C 
HETATM    6  C6  UNL     1     -35.639  14.997  -3.546  1.00 20.00     0.043 C 
HETATM    7  C7  UNL     1     -33.273  16.220  -4.938  1.00 20.00     0.023 C 
HETATM    8  N8  UNL     1     -35.019  16.021  -1.455  1.00 20.00     0.093 N 
HETATM    9  S9  UNL     1     -34.431  18.263  -3.533  1.00 20.00    -0.160 SA
HETATM   10  H24 UNL     1     -34.932  15.253  -0.772  1.00 20.00     0.316 HD
ENDROOT
TORSDOF 0
ENDMDL
MODEL 5
REMARK VINA RESULT:      -3.6     12.804     13.896
REMARK  0 active torsions:
REMARK  status: ('A' for Active; 'I' for Inactive)
ROOT
HETATM    1  C1  UNL     1     -42.840   4.457  -3.089  1.00 20.00     0.109 C 
HETATM    2  C2  UNL     1     -42.079   3.335  -2.370  1.00 20.00     0.226 C 
HETATM    3  C3  UNL     1     -41.443   4.646  -0.373  1.00 20.00     0.230 C 
HETATM    4  C4  UNL     1     -42.926   5.093  -0.388  1.00 20.00     0.076 C 
HETATM    5  C5  UNL     1     -41.477   2.380  -3.404  1.00 20.00     0.043 C 
HETATM    6  C6  UNL     1     -40.440   5.790  -0.189  1.00 20.00     0.043 C 
HETATM    7  C7  UNL     1     -43.289   6.079   0.721  1.00 20.00     0.023 C 
HETATM    8  N8  UNL     1     -41.001   3.885  -1.553  1.00 20.00     0.093 N 
HETATM    9  S9  UNL     1     -43.416   5.799  -1.999  1.00 20.00    -0.160 SA
HETATM   10  H24 UNL     1     -40.388   3.117  -1.242  1.00 20.00     0.316 HD
ENDROOT
TORSDOF 0
ENDMDL
MODEL 6
REMARK VINA RESULT:      -3.5      2.002      4.093
REMARK  0 active torsions:
REMARK  status: ('A' for Active; 'I' for Inactive)
ROOT
HETATM    1  C1  UNL     1     -35.959  14.994  -5.178  1.00 20.00     0.109 C 
HETATM    2  C2  UNL     1     -34.500  15.137  -5.633  1.00 20.00     0.226 C 
HETATM    3  C3  UNL     1     -33.820  16.781  -3.916  1.00 20.00     0.230 C 
HETATM    4  C4  UNL     1     -34.546  15.825  -2.938  1.00 20.00     0.076 C 
HETATM    5  C5  UNL     1     -34.406  14.887  -7.140  1.00 20.00     0.043 C 
HETATM    6  C6  UNL     1     -34.174  18.261  -3.734  1.00 20.00     0.043 C 
HETATM    7  C7  UNL     1     -34.542  16.301  -1.486  1.00 20.00     0.023 C 
HETATM    8  N8  UNL     1     -34.001  16.479  -5.346  1.00 20.00     0.093 N 
HETATM    9  S9  UNL     1     -36.265  15.490  -3.452  1.00 20.00    -0.160 SA
HETATM   10  H24 UNL     1     -33.101  16.614  -5.830  1.00 20.00     0.316 HD
ENDROOT
TORSDOF 0
ENDMDL
MODEL 7
REMARK VINA RESULT:      -3.5      2.234      3.219
REMARK  0 active torsions:
REMARK  status: ('A' for Active; 'I' for Inactive)
ROOT
HETATM    1  C1  UNL     1     -34.694  17.044  -5.880  1.00 20.00     0.109 C 
HETATM    2  C2  UNL     1     -33.570  17.712  -5.078  1.00 20.00     0.226 C 
HETATM    3  C3  UNL     1     -33.625  16.163  -3.152  1.00 20.00     0.230 C 
HETATM    4  C4  UNL     1     -33.654  15.061  -4.240  1.00 20.00     0.076 C 
HETATM    5  C5  UNL     1     -33.532  19.209  -5.397  1.00 20.00     0.043 C 
HETATM    6  C6  UNL     1     -34.656  15.975  -2.033  1.00 20.00     0.043 C 
HETATM    7  C7  UNL     1     -33.727  13.640  -3.683  1.00 20.00     0.023 C 
HETATM    8  N8  UNL     1     -33.788  17.541  -3.645  1.00 20.00     0.093 N 
HETATM    9  S9  UNL     1     -35.013  15.306  -5.432  1.00 20.00    -0.160 SA
HETATM   10  H24 UNL     1     -33.140  18.156  -3.130  1.00 20.00     0.316 HD
ENDROOT
TORSDOF 0
ENDMDL
MODEL 8
REMARK VINA RESULT:      -3.5      2.032      2.437
REMARK  0 active torsions:
REMARK  status: ('A' for Active; 'I' for Inactive)
ROOT
HETATM    1  C1  UNL     1     -34.325  14.394  -3.267  1.00 20.00     0.109 C 
HETATM    2  C2  UNL     1     -35.081  15.703  -3.003  1.00 20.00     0.226 C 
HETATM    3  C3  UNL     1     -35.221  16.440  -5.359  1.00 20.00     0.230 C 
HETATM    4  C4  UNL     1     -35.669  14.981  -5.624  1.00 20.00     0.076 C 
HETATM    5  C5  UNL     1     -34.719  16.232  -1.613  1.00 20.00     0.043 C 
HETATM    6  C6  UNL     1     -34.148  16.957  -6.324  1.00 20.00     0.043 C 
HETATM    7  C7  UNL     1     -35.942  14.673  -7.095  1.00 20.00     0.023 C 
HETATM    8  N8  UNL     1     -34.727  16.711  -3.999  1.00 20.00     0.093 N 
HETATM    9  S9  UNL     1     -34.475  13.764  -4.971  1.00 20.00    -0.160 SA
HETATM   10  H24 UNL     1     -35.087  17.627  -3.692  1.00 20.00     0.316 HD
ENDROOT
TORSDOF 0
ENDMDL
MODEL 9
REMARK VINA RESULT:      -3.5      1.515      3.519
REMARK  0 active torsions:
REMARK  status: ('A' for Active; 'I' for Inactive)
ROOT
HETATM    1  C1  UNL     1     -33.605  15.847  -4.915  1.00 20.00     0.109 C 
HETATM    2  C2  UNL     1     -34.654  14.883  -4.345  1.00 20.00     0.226 C 
HETATM    3  C3  UNL     1     -35.283  16.259  -2.389  1.00 20.00     0.230 C 
HETATM    4  C4  UNL     1     -35.341  17.414  -3.420  1.00 20.00     0.076 C 
HETATM    5  C5  UNL     1     -34.281  13.445  -4.713  1.00 20.00     0.043 C 
HETATM    6  C6  UNL     1     -34.523  16.597  -1.102  1.00 20.00     0.043 C 
HETATM    7  C7  UNL     1     -35.699  18.770  -2.813  1.00 20.00     0.023 C 
HETATM    8  N8  UNL     1     -34.718  14.995  -2.890  1.00 20.00     0.093 N 
HETATM    9  S9  UNL     1     -33.787  17.575  -4.363  1.00 20.00    -0.160 SA
HETATM   10  H24 UNL     1     -35.276  14.212  -2.517  1.00 20.00     0.316 HD
ENDROOT
TORSDOF 0
ENDMDL
