MODEL 1
REMARK VINA RESULT:      -4.2      0.000      0.000
REMARK  0 active torsions:
REMARK  status: ('A' for Active; 'I' for Inactive)
ROOT
HETATM    1  C1  UNL     1     -34.204  16.161  -2.520  1.00 20.00    -0.088 C 
HETATM    2  C2  UNL     1     -34.557  16.448  -1.259  1.00 20.00     0.014 C 
HETATM    3  C3  UNL     1     -33.866  17.227  -3.528  1.00 20.00     0.033 C 
HETATM    4  C4  UNL     1     -34.131  14.747  -3.040  1.00 20.00     0.042 C 
HETATM    5  C5  UNL     1     -34.708  17.069  -4.793  1.00 20.00     0.005 C 
HETATM    6  C6  UNL     1     -34.633  15.646  -5.357  1.00 20.00     0.009 C 
HETATM    7  C7  UNL     1     -34.986  14.553  -4.318  1.00 20.00    -0.044 C 
HETATM    8  C8  UNL     1     -34.677  13.170  -4.921  1.00 20.00     0.015 C 
HETATM    9  C9  UNL     1     -36.488  14.598  -3.973  1.00 20.00     0.015 C 
ENDROOT
TORSDOF 0
ENDMDL
MODEL 2
REMARK VINA RESULT:      -4.2     11.465     13.044
REMARK  0 active torsions:
REMARK  status: ('A' for Active; 'I' for Inactive)
ROOT
HETATM    1  C1  UNL     1     -41.080   5.795  -1.110  1.00 20.00    -0.088 C 
HETATM    2  C2  UNL     1     -40.689   6.132   0.127  1.00 20.00     0.014 C 
HETATM    3  C3  UNL     1     -41.666   6.793  -2.073  1.00 20.00     0.033 C 
HETATM    4  C4  UNL     1     -40.981   4.385  -1.637  1.00 20.00     0.042 C 
HETATM    5  C5  UNL     1     -43.017   6.314  -2.601  1.00 20.00     0.005 C 
HETATM    6  C6  UNL     1     -42.940   4.890  -3.165  1.00 20.00     0.009 C 
HETATM    7  C7  UNL     1     -42.341   3.866  -2.168  1.00 20.00    -0.044 C 
HETATM    8  C8  UNL     1     -42.115   2.530  -2.900  1.00 20.00     0.015 C 
HETATM    9  C9  UNL     1     -43.315   3.612  -1.001  1.00 20.00     0.015 C 
ENDROOT
TORSDOF 0
ENDMDL
MODEL 3
REMARK VINA RESULT:      -4.1     11.084     12.868
REMARK  0 active torsions:
REMARK  status: ('A' for Active; 'I' for Inactive)
ROOT
HETATM    1  C1  UNL     1     -42.305   6.866  -2.006  1.00 20.00    -0.088 C 
HETATM    2  C2  UNL     1     -42.288   7.423  -3.226  1.00 20.00     0.014 C 
HETATM    3  C3  UNL     1     -41.411   7.337  -0.890  1.00 20.00     0.033 C 
HETATM    4  C4  UNL     1     -43.208   5.711  -1.653  1.00 20.00     0.042 C 
HETATM    5  C5  UNL     1     -40.607   6.176  -0.308  1.00 20.00     0.005 C 
HETATM    6  C6  UNL     1     -41.503   4.995   0.082  1.00 20.00     0.009 C 
HETATM    7  C7  UNL     1     -42.418   4.512  -1.071  1.00 20.00    -0.044 C 
HETATM    8  C8  UNL     1     -43.416   3.477  -0.518  1.00 20.00     0.015 C 
HETATM    9  C9  UNL     1     -41.585   3.829  -2.174  1.00 20.00     0.015 C 
ENDROOT
TORSDOF 0
ENDMDL
MODEL 4
REMARK VINA RESULT:      -4.1      1.005      3.402
REMARK  0 active torsions:
REMARK  status: ('A' for Active; 'I' for Inactive)
ROOT
HETATM    1  C1  UNL     1     -36.301  14.885  -4.084  1.00 20.00    -0.088 C 
HETATM    2  C2  UNL     1     -37.589  14.688  -3.771  1.00 20.00     0.014 C 
HETATM    3  C3  UNL     1     -35.376  13.756  -4.453  1.00 20.00     0.033 C 
HETATM    4  C4  UNL     1     -35.664  16.253  -4.076  1.00 20.00     0.042 C 
HETATM    5  C5  UNL     1     -34.123  13.767  -3.579  1.00 20.00     0.005 C 
HETATM    6  C6  UNL     1     -33.442  15.141  -3.570  1.00 20.00     0.009 C 
HETATM    7  C7  UNL     1     -34.396  16.299  -3.185  1.00 20.00    -0.044 C 
HETATM    8  C8  UNL     1     -33.673  17.639  -3.413  1.00 20.00     0.015 C 
HETATM    9  C9  UNL     1     -34.781  16.211  -1.695  1.00 20.00     0.015 C 
ENDROOT
TORSDOF 0
ENDMDL
MODEL 5
REMARK VINA RESULT:      -4.0     12.199     13.353
REMARK  0 active torsions:
REMARK  status: ('A' for Active; 'I' for Inactive)
ROOT
HETATM    1  C1  UNL     1     -34.168   6.481   6.085  1.00 20.00    -0.088 C 
HETATM    2  C2  UNL     1     -33.327   7.279   6.758  1.00 20.00     0.014 C 
HETATM    3  C3  UNL     1     -34.755   5.232   6.688  1.00 20.00     0.033 C 
HETATM    4  C4  UNL     1     -34.584   6.756   4.662  1.00 20.00     0.042 C 
HETATM    5  C5  UNL     1     -34.488   4.019   5.799  1.00 20.00     0.005 C 
HETATM    6  C6  UNL     1     -34.924   4.263   4.349  1.00 20.00     0.009 C 
HETATM    7  C7  UNL     1     -34.314   5.546   3.732  1.00 20.00    -0.044 C 
HETATM    8  C8  UNL     1     -34.975   5.808   2.366  1.00 20.00     0.015 C 
HETATM    9  C9  UNL     1     -32.800   5.371   3.503  1.00 20.00     0.015 C 
ENDROOT
TORSDOF 0
ENDMDL
MODEL 6
REMARK VINA RESULT:      -3.9      1.156      2.157
REMARK  0 active torsions:
REMARK  status: ('A' for Active; 'I' for Inactive)
ROOT
HETATM    1  C1  UNL     1     -36.077  16.034  -2.956  1.00 20.00    -0.088 C 
HETATM    2  C2  UNL     1     -37.055  16.936  -3.125  1.00 20.00     0.014 C 
HETATM    3  C3  UNL     1     -34.937  16.247  -1.997  1.00 20.00     0.033 C 
HETATM    4  C4  UNL     1     -36.029  14.737  -3.725  1.00 20.00     0.042 C 
HETATM    5  C5  UNL     1     -33.592  16.083  -2.703  1.00 20.00     0.005 C 
HETATM    6  C6  UNL     1     -33.506  14.762  -3.475  1.00 20.00     0.009 C 
HETATM    7  C7  UNL     1     -34.679  14.549  -4.464  1.00 20.00    -0.044 C 
HETATM    8  C8  UNL     1     -34.610  13.116  -5.022  1.00 20.00     0.015 C 
HETATM    9  C9  UNL     1     -34.573  15.529  -5.649  1.00 20.00     0.015 C 
ENDROOT
TORSDOF 0
ENDMDL
MODEL 7
REMARK VINA RESULT:      -3.9      1.506      3.054
REMARK  0 active torsions:
REMARK  status: ('A' for Active; 'I' for Inactive)
ROOT
HETATM    1  C1  UNL     1     -34.339  14.230  -4.714  1.00 20.00    -0.088 C 
HETATM    2  C2  UNL     1     -35.132  13.250  -4.257  1.00 20.00     0.014 C 
HETATM    3  C3  UNL     1     -33.259  14.856  -3.873  1.00 20.00     0.033 C 
HETATM    4  C4  UNL     1     -34.474  14.799  -6.105  1.00 20.00     0.042 C 
HETATM    5  C5  UNL     1     -33.416  16.375  -3.825  1.00 20.00     0.005 C 
HETATM    6  C6  UNL     1     -33.531  16.984  -5.227  1.00 20.00     0.009 C 
HETATM    7  C7  UNL     1     -34.647  16.339  -6.088  1.00 20.00    -0.044 C 
HETATM    8  C8  UNL     1     -34.537  16.870  -7.529  1.00 20.00     0.015 C 
HETATM    9  C9  UNL     1     -36.038  16.719  -5.544  1.00 20.00     0.015 C 
ENDROOT
TORSDOF 0
ENDMDL
MODEL 8
REMARK VINA RESULT:      -3.9      0.923      3.389
REMARK  0 active torsions:
REMARK  status: ('A' for Active; 'I' for Inactive)
ROOT
HETATM    1  C1  UNL     1     -35.080  14.075  -4.035  1.00 20.00    -0.088 C 
HETATM    2  C2  UNL     1     -34.515  13.229  -4.907  1.00 20.00     0.014 C 
HETATM    3  C3  UNL     1     -36.538  14.442  -4.093  1.00 20.00     0.033 C 
HETATM    4  C4  UNL     1     -34.298  14.745  -2.933  1.00 20.00     0.042 C 
HETATM    5  C5  UNL     1     -36.719  15.959  -4.142  1.00 20.00     0.005 C 
HETATM    6  C6  UNL     1     -35.954  16.664  -3.017  1.00 20.00     0.009 C 
HETATM    7  C7  UNL     1     -34.452  16.287  -2.965  1.00 20.00    -0.044 C 
HETATM    8  C8  UNL     1     -33.832  16.878  -1.685  1.00 20.00     0.015 C 
HETATM    9  C9  UNL     1     -33.702  16.878  -4.175  1.00 20.00     0.015 C 
ENDROOT
TORSDOF 0
ENDMDL
MODEL 9
REMARK VINA RESULT:      -3.9      1.559      2.628
REMARK  0 active torsions:
REMARK  status: ('A' for Active; 'I' for Inactive)
ROOT
HETATM    1  C1  UNL     1     -33.663  16.943  -5.512  1.00 20.00    -0.088 C 
HETATM    2  C2  UNL     1     -33.692  18.244  -5.189  1.00 20.00     0.014 C 
HETATM    3  C3  UNL     1     -34.282  16.409  -6.775  1.00 20.00     0.033 C 
HETATM    4  C4  UNL     1     -33.023  15.903  -4.627  1.00 20.00     0.042 C 
HETATM    5  C5  UNL     1     -35.263  15.278  -6.468  1.00 20.00     0.005 C 
HETATM    6  C6  UNL     1     -34.630  14.194  -5.588  1.00 20.00     0.009 C 
HETATM    7  C7  UNL     1     -33.999  14.748  -4.287  1.00 20.00    -0.044 C 
HETATM    8  C8  UNL     1     -33.215  13.620  -3.591  1.00 20.00     0.015 C 
HETATM    9  C9  UNL     1     -35.094  15.237  -3.318  1.00 20.00     0.015 C 
ENDROOT
TORSDOF 0
ENDMDL
