MODEL 1
REMARK VINA RESULT:      -4.5      0.000      0.000
REMARK  4 active torsions:
REMARK  status: ('A' for Active; 'I' for Inactive)
REMARK    1  A    between atoms: C2_2  and  C4_4 
REMARK    2  A    between atoms: C3_3  and  O7_7 
REMARK    3  A    between atoms: C4_4  and  C5_5 
REMARK    4  A    between atoms: C5_5  and  C6_6 
ROOT
HETATM    1  C1  UNL     1     -34.115   5.697   5.689  1.00 20.00     0.039 A 
HETATM    2  C2  UNL     1     -34.512   5.969   4.264  1.00 20.00     0.017 A 
HETATM    3  C3  UNL     1     -35.321   5.014   5.104  1.00 20.00     0.122 A 
ENDROOT
BRANCH   2   4
HETATM    4  C4  UNL     1     -33.637   5.480   3.121  1.00 20.00     0.008 C 
BRANCH   4   5
HETATM    5  C5  UNL     1     -32.285   6.193   3.105  1.00 20.00     0.015 C 
BRANCH   5   6
HETATM    6  C6  UNL     1     -32.462   7.700   2.981  1.00 20.00     0.114 C 
HETATM    7 CL8  UNL     1     -31.805   8.277   1.432  1.00 20.00    -0.130 Cl
ENDBRANCH   5   6
ENDBRANCH   4   5
ENDBRANCH   2   4
BRANCH   3   8
HETATM    8  O7  UNL     1     -35.180   3.611   4.832  1.00 20.00    -0.395 OA
HETATM    9  H19 UNL     1     -34.419   3.532   4.240  1.00 20.00     0.210 HD
ENDBRANCH   3   8
TORSDOF 4
ENDMDL
MODEL 2
REMARK VINA RESULT:      -4.3      1.492      1.864
REMARK  4 active torsions:
REMARK  status: ('A' for Active; 'I' for Inactive)
REMARK    1  A    between atoms: C2_2  and  C4_4 
REMARK    2  A    between atoms: C3_3  and  O7_7 
REMARK    3  A    between atoms: C4_4  and  C5_5 
REMARK    4  A    between atoms: C5_5  and  C6_6 
ROOT
HETATM    1  C1  UNL     1     -35.313   4.394   6.099  1.00 20.00     0.039 A 
HETATM    2  C2  UNL     1     -34.348   4.684   4.983  1.00 20.00     0.017 A 
HETATM    3  C3  UNL     1     -34.079   5.212   6.368  1.00 20.00     0.122 A 
ENDROOT
BRANCH   2   4
HETATM    4  C4  UNL     1     -34.752   5.605   3.843  1.00 20.00     0.008 C 
BRANCH   4   5
HETATM    5  C5  UNL     1     -33.631   5.750   2.814  1.00 20.00     0.015 C 
BRANCH   5   6
HETATM    6  C6  UNL     1     -32.479   6.574   3.372  1.00 20.00     0.114 C 
HETATM    7 CL8  UNL     1     -32.079   7.910   2.268  1.00 20.00    -0.130 Cl
ENDBRANCH   5   6
ENDBRANCH   4   5
ENDBRANCH   2   4
BRANCH   3   8
HETATM    8  O7  UNL     1     -34.291   6.615   6.594  1.00 20.00    -0.395 OA
HETATM    9  H19 UNL     1     -34.873   6.674   7.364  1.00 20.00     0.210 HD
ENDBRANCH   3   8
TORSDOF 4
ENDMDL
MODEL 3
REMARK VINA RESULT:      -4.2      1.298      1.472
REMARK  4 active torsions:
REMARK  status: ('A' for Active; 'I' for Inactive)
REMARK    1  A    between atoms: C2_2  and  C4_4 
REMARK    2  A    between atoms: C3_3  and  O7_7 
REMARK    3  A    between atoms: C4_4  and  C5_5 
REMARK    4  A    between atoms: C5_5  and  C6_6 
ROOT
HETATM    1  C1  UNL     1     -35.485   5.011   4.400  1.00 20.00     0.039 A 
HETATM    2  C2  UNL     1     -33.999   5.210   4.282  1.00 20.00     0.017 A 
HETATM    3  C3  UNL     1     -34.606   4.818   5.605  1.00 20.00     0.122 A 
ENDROOT
BRANCH   2   4
HETATM    4  C4  UNL     1     -33.431   6.600   4.047  1.00 20.00     0.008 C 
BRANCH   4   5
HETATM    5  C5  UNL     1     -32.473   6.620   2.855  1.00 20.00     0.015 C 
BRANCH   5   6
HETATM    6  C6  UNL     1     -31.761   7.962   2.747  1.00 20.00     0.114 C 
HETATM    7 CL8  UNL     1     -32.017   8.671   1.136  1.00 20.00    -0.130 Cl
ENDBRANCH   5   6
ENDBRANCH   4   5
ENDBRANCH   2   4
BRANCH   3   8
HETATM    8  O7  UNL     1     -34.695   5.832   6.618  1.00 20.00    -0.395 OA
HETATM    9  H19 UNL     1     -34.124   6.554   6.321  1.00 20.00     0.210 HD
ENDBRANCH   3   8
TORSDOF 4
ENDMDL
MODEL 4
REMARK VINA RESULT:      -4.2      3.211      4.332
REMARK  4 active torsions:
REMARK  status: ('A' for Active; 'I' for Inactive)
REMARK    1  A    between atoms: C2_2  and  C4_4 
REMARK    2  A    between atoms: C3_3  and  O7_7 
REMARK    3  A    between atoms: C4_4  and  C5_5 
REMARK    4  A    between atoms: C5_5  and  C6_6 
ROOT
HETATM    1  C1  UNL     1     -31.463   7.345   3.704  1.00 20.00     0.039 A 
HETATM    2  C2  UNL     1     -32.608   6.519   3.188  1.00 20.00     0.017 A 
HETATM    3  C3  UNL     1     -32.023   7.614   2.334  1.00 20.00     0.122 A 
ENDROOT
BRANCH   2   4
HETATM    4  C4  UNL     1     -33.987   6.647   3.815  1.00 20.00     0.008 C 
BRANCH   4   5
HETATM    5  C5  UNL     1     -34.779   5.345   3.701  1.00 20.00     0.015 C 
BRANCH   5   6
HETATM    6  C6  UNL     1     -35.116   4.786   5.077  1.00 20.00     0.114 C 
HETATM    7 CL8  UNL     1     -34.398   5.800   6.350  1.00 20.00    -0.130 Cl
ENDBRANCH   5   6
ENDBRANCH   4   5
ENDBRANCH   2   4
BRANCH   3   8
HETATM    8  O7  UNL     1     -32.787   8.822   2.194  1.00 20.00    -0.395 OA
HETATM    9  H19 UNL     1     -33.342   8.695   1.412  1.00 20.00     0.210 HD
ENDBRANCH   3   8
TORSDOF 4
ENDMDL
MODEL 5
REMARK VINA RESULT:      -3.9     11.467     11.928
REMARK  4 active torsions:
REMARK  status: ('A' for Active; 'I' for Inactive)
REMARK    1  A    between atoms: C2_2  and  C4_4 
REMARK    2  A    between atoms: C3_3  and  O7_7 
REMARK    3  A    between atoms: C4_4  and  C5_5 
REMARK    4  A    between atoms: C5_5  and  C6_6 
ROOT
HETATM    1  C1  UNL     1     -34.503  14.554  -5.426  1.00 20.00     0.039 A 
HETATM    2  C2  UNL     1     -33.900  14.624  -4.050  1.00 20.00     0.017 A 
HETATM    3  C3  UNL     1     -34.226  13.287  -4.664  1.00 20.00     0.122 A 
ENDROOT
BRANCH   2   4
HETATM    4  C4  UNL     1     -34.706  15.187  -2.891  1.00 20.00     0.008 C 
BRANCH   4   5
HETATM    5  C5  UNL     1     -33.981  16.351  -2.216  1.00 20.00     0.015 C 
BRANCH   5   6
HETATM    6  C6  UNL     1     -34.595  16.666  -0.858  1.00 20.00     0.114 C 
HETATM    7 CL8  UNL     1     -33.681  17.960  -0.049  1.00 20.00    -0.130 Cl
ENDBRANCH   5   6
ENDBRANCH   4   5
ENDBRANCH   2   4
BRANCH   3   8
HETATM    8  O7  UNL     1     -35.378  12.592  -4.161  1.00 20.00    -0.395 OA
HETATM    9  H19 UNL     1     -35.339  11.704  -4.542  1.00 20.00     0.210 HD
ENDBRANCH   3   8
TORSDOF 4
ENDMDL
MODEL 6
REMARK VINA RESULT:      -3.8      3.227      4.337
REMARK  4 active torsions:
REMARK  status: ('A' for Active; 'I' for Inactive)
REMARK    1  A    between atoms: C2_2  and  C4_4 
REMARK    2  A    between atoms: C3_3  and  O7_7 
REMARK    3  A    between atoms: C4_4  and  C5_5 
REMARK    4  A    between atoms: C5_5  and  C6_6 
ROOT
HETATM    1  C1  UNL     1     -32.600   5.693   3.126  1.00 20.00     0.039 A 
HETATM    2  C2  UNL     1     -33.493   6.575   3.954  1.00 20.00     0.017 A 
HETATM    3  C3  UNL     1     -32.495   7.189   3.006  1.00 20.00     0.122 A 
ENDROOT
BRANCH   2   4
HETATM    4  C4  UNL     1     -33.310   6.649   5.461  1.00 20.00     0.008 C 
BRANCH   4   5
HETATM    5  C5  UNL     1     -34.495   6.027   6.201  1.00 20.00     0.015 C 
BRANCH   5   6
HETATM    6  C6  UNL     1     -34.389   4.508   6.225  1.00 20.00     0.114 C 
HETATM    7 CL8  UNL     1     -35.234   3.805   4.826  1.00 20.00    -0.130 Cl
ENDBRANCH   5   6
ENDBRANCH   4   5
ENDBRANCH   2   4
BRANCH   3   8
HETATM    8  O7  UNL     1     -31.320   7.785   3.578  1.00 20.00    -0.395 OA
HETATM    9  H19 UNL     1     -31.425   8.739   3.462  1.00 20.00     0.210 HD
ENDBRANCH   3   8
TORSDOF 4
ENDMDL
MODEL 7
REMARK VINA RESULT:      -3.6     11.925     12.719
REMARK  4 active torsions:
REMARK  status: ('A' for Active; 'I' for Inactive)
REMARK    1  A    between atoms: C2_2  and  C4_4 
REMARK    2  A    between atoms: C3_3  and  O7_7 
REMARK    3  A    between atoms: C4_4  and  C5_5 
REMARK    4  A    between atoms: C5_5  and  C6_6 
ROOT
HETATM    1  C1  UNL     1     -34.113  15.290  -3.014  1.00 20.00     0.039 A 
HETATM    2  C2  UNL     1     -33.810  13.984  -3.695  1.00 20.00     0.017 A 
HETATM    3  C3  UNL     1     -32.754  15.056  -3.618  1.00 20.00     0.122 A 
ENDROOT
BRANCH   2   4
HETATM    4  C4  UNL     1     -34.492  13.630  -5.007  1.00 20.00     0.008 C 
BRANCH   4   5
HETATM    5  C5  UNL     1     -35.839  14.340  -5.148  1.00 20.00     0.015 C 
BRANCH   5   6
HETATM    6  C6  UNL     1     -35.840  15.279  -6.347  1.00 20.00     0.114 C 
HETATM    7 CL8  UNL     1     -34.502  14.879  -7.449  1.00 20.00    -0.130 Cl
ENDBRANCH   5   6
ENDBRANCH   4   5
ENDBRANCH   2   4
BRANCH   3   8
HETATM    8  O7  UNL     1     -32.465  15.788  -4.819  1.00 20.00    -0.395 OA
HETATM    9  H19 UNL     1     -32.807  16.680  -4.675  1.00 20.00     0.210 HD
ENDBRANCH   3   8
TORSDOF 4
ENDMDL
MODEL 8
REMARK VINA RESULT:      -3.6     11.705     12.346
REMARK  4 active torsions:
REMARK  status: ('A' for Active; 'I' for Inactive)
REMARK    1  A    between atoms: C2_2  and  C4_4 
REMARK    2  A    between atoms: C3_3  and  O7_7 
REMARK    3  A    between atoms: C4_4  and  C5_5 
REMARK    4  A    between atoms: C5_5  and  C6_6 
ROOT
HETATM    1  C1  UNL     1     -34.855  14.445  -5.552  1.00 20.00     0.039 A 
HETATM    2  C2  UNL     1     -34.012  14.618  -4.318  1.00 20.00     0.017 A 
HETATM    3  C3  UNL     1     -34.379  13.236  -4.794  1.00 20.00     0.122 A 
ENDROOT
BRANCH   2   4
HETATM    4  C4  UNL     1     -34.617  15.214  -3.057  1.00 20.00     0.008 C 
BRANCH   4   5
HETATM    5  C5  UNL     1     -33.732  16.318  -2.478  1.00 20.00     0.015 C 
BRANCH   5   6
HETATM    6  C6  UNL     1     -34.222  17.694  -2.908  1.00 20.00     0.114 C 
HETATM    7 CL8  UNL     1     -33.531  18.133  -4.488  1.00 20.00    -0.130 Cl
ENDBRANCH   5   6
ENDBRANCH   4   5
ENDBRANCH   2   4
BRANCH   3   8
HETATM    8  O7  UNL     1     -35.381  12.525  -4.050  1.00 20.00    -0.395 OA
HETATM    9  H19 UNL     1     -35.154  11.589  -4.128  1.00 20.00     0.210 HD
ENDBRANCH   3   8
TORSDOF 4
ENDMDL
MODEL 9
REMARK VINA RESULT:      -3.6     11.867     12.382
REMARK  4 active torsions:
REMARK  status: ('A' for Active; 'I' for Inactive)
REMARK    1  A    between atoms: C2_2  and  C4_4 
REMARK    2  A    between atoms: C3_3  and  O7_7 
REMARK    3  A    between atoms: C4_4  and  C5_5 
REMARK    4  A    between atoms: C5_5  and  C6_6 
ROOT
HETATM    1  C1  UNL     1     -34.323  13.170  -4.682  1.00 20.00     0.039 A 
HETATM    2  C2  UNL     1     -34.482  14.511  -4.021  1.00 20.00     0.017 A 
HETATM    3  C3  UNL     1     -34.822  14.344  -5.480  1.00 20.00     0.122 A 
ENDROOT
BRANCH   2   4
HETATM    4  C4  UNL     1     -33.257  15.292  -3.573  1.00 20.00     0.008 C 
BRANCH   4   5
HETATM    5  C5  UNL     1     -33.637  16.455  -2.657  1.00 20.00     0.015 C 
BRANCH   5   6
HETATM    6  C6  UNL     1     -34.824  16.092  -1.775  1.00 20.00     0.114 C 
HETATM    7 CL8  UNL     1     -34.712  16.928  -0.209  1.00 20.00    -0.130 Cl
ENDBRANCH   5   6
ENDBRANCH   4   5
ENDBRANCH   2   4
BRANCH   3   8
HETATM    8  O7  UNL     1     -33.904  14.889  -6.440  1.00 20.00    -0.395 OA
HETATM    9  H19 UNL     1     -33.361  14.146  -6.738  1.00 20.00     0.210 HD
ENDBRANCH   3   8
TORSDOF 4
ENDMDL
