MODEL 1
REMARK VINA RESULT:      -4.3      0.000      0.000
REMARK  2 active torsions:
REMARK  status: ('A' for Active; 'I' for Inactive)
REMARK    1  A    between atoms: C2_2  and  C6_6 
REMARK    2  A    between atoms: C3_3  and  O7_7 
ROOT
HETATM    1  C1  UNL     1     -34.271   6.431   5.644  1.00 20.00     0.045 A 
HETATM    2  C2  UNL     1     -33.432   5.789   4.569  1.00 20.00     0.022 A 
HETATM    3  C3  UNL     1     -34.780   5.208   4.922  1.00 20.00     0.058 A 
HETATM    4  C4  UNL     1     -34.864   3.903   5.640  1.00 20.00     0.046 C 
ENDROOT
BRANCH   3   5
HETATM    5  O7  UNL     1     -35.858   5.430   3.997  1.00 20.00    -0.390 OA
HETATM    6  H19 UNL     1     -36.364   4.608   3.981  1.00 20.00     0.210 HD
ENDBRANCH   3   5
BRANCH   2   7
HETATM    7  C6  UNL     1     -33.202   6.497   3.278  1.00 20.00     0.003 C 
HETATM    8  C5  UNL     1     -31.883   7.226   3.233  1.00 20.00     0.005 C 
ENDBRANCH   2   7
TORSDOF 2
ENDMDL
MODEL 2
REMARK VINA RESULT:      -3.8      1.757      3.487
REMARK  2 active torsions:
REMARK  status: ('A' for Active; 'I' for Inactive)
REMARK    1  A    between atoms: C2_2  and  C6_6 
REMARK    2  A    between atoms: C3_3  and  O7_7 
ROOT
HETATM    1  C1  UNL     1     -33.060   6.777   4.807  1.00 20.00     0.045 A 
HETATM    2  C2  UNL     1     -34.143   6.492   3.798  1.00 20.00     0.022 A 
HETATM    3  C3  UNL     1     -32.705   6.603   3.351  1.00 20.00     0.058 A 
HETATM    4  C4  UNL     1     -32.264   7.781   2.549  1.00 20.00     0.046 C 
ENDROOT
BRANCH   3   5
HETATM    5  O7  UNL     1     -32.022   5.384   3.014  1.00 20.00    -0.390 OA
HETATM    6  H19 UNL     1     -32.672   4.678   3.130  1.00 20.00     0.210 HD
ENDBRANCH   3   5
BRANCH   2   7
HETATM    7  C6  UNL     1     -34.855   5.183   3.815  1.00 20.00     0.003 C 
HETATM    8  C5  UNL     1     -35.081   4.654   5.209  1.00 20.00     0.005 C 
ENDBRANCH   2   7
TORSDOF 2
ENDMDL
MODEL 3
REMARK VINA RESULT:      -3.7     11.865     12.599
REMARK  2 active torsions:
REMARK  status: ('A' for Active; 'I' for Inactive)
REMARK    1  A    between atoms: C2_2  and  C6_6 
REMARK    2  A    between atoms: C3_3  and  O7_7 
ROOT
HETATM    1  C1  UNL     1     -34.398  15.974  -4.475  1.00 20.00     0.045 A 
HETATM    2  C2  UNL     1     -34.516  15.677  -3.003  1.00 20.00     0.022 A 
HETATM    3  C3  UNL     1     -33.731  14.750  -3.899  1.00 20.00     0.058 A 
HETATM    4  C4  UNL     1     -34.264  13.394  -4.217  1.00 20.00     0.046 C 
ENDROOT
BRANCH   3   5
HETATM    5  O7  UNL     1     -32.297  14.803  -3.809  1.00 20.00    -0.390 OA
HETATM    6  H19 UNL     1     -31.993  15.161  -4.653  1.00 20.00     0.210 HD
ENDBRANCH   3   5
BRANCH   2   7
HETATM    7  C6  UNL     1     -33.841  16.557  -2.006  1.00 20.00     0.003 C 
HETATM    8  C5  UNL     1     -34.618  16.698  -0.723  1.00 20.00     0.005 C 
ENDBRANCH   2   7
TORSDOF 2
ENDMDL
MODEL 4
REMARK VINA RESULT:      -3.7      1.549      2.624
REMARK  2 active torsions:
REMARK  status: ('A' for Active; 'I' for Inactive)
REMARK    1  A    between atoms: C2_2  and  C6_6 
REMARK    2  A    between atoms: C3_3  and  O7_7 
ROOT
HETATM    1  C1  UNL     1     -34.877   3.912   4.800  1.00 20.00     0.045 A 
HETATM    2  C2  UNL     1     -34.112   5.140   5.222  1.00 20.00     0.022 A 
HETATM    3  C3  UNL     1     -34.872   5.135   3.917  1.00 20.00     0.058 A 
HETATM    4  C4  UNL     1     -34.130   5.115   2.624  1.00 20.00     0.046 C 
ENDROOT
BRANCH   3   5
HETATM    5  O7  UNL     1     -36.103   5.877   3.868  1.00 20.00    -0.390 OA
HETATM    6  H19 UNL     1     -36.418   5.926   4.780  1.00 20.00     0.210 HD
ENDBRANCH   3   5
BRANCH   2   7
HETATM    7  C6  UNL     1     -34.573   5.943   6.390  1.00 20.00     0.003 C 
HETATM    8  C5  UNL     1     -33.666   7.107   6.699  1.00 20.00     0.005 C 
ENDBRANCH   2   7
TORSDOF 2
ENDMDL
MODEL 5
REMARK VINA RESULT:      -3.6      1.856      2.576
REMARK  2 active torsions:
REMARK  status: ('A' for Active; 'I' for Inactive)
REMARK    1  A    between atoms: C2_2  and  C6_6 
REMARK    2  A    between atoms: C3_3  and  O7_7 
ROOT
HETATM    1  C1  UNL     1     -32.221   5.513   3.182  1.00 20.00     0.045 A 
HETATM    2  C2  UNL     1     -32.810   6.759   2.572  1.00 20.00     0.022 A 
HETATM    3  C3  UNL     1     -33.454   6.136   3.788  1.00 20.00     0.058 A 
HETATM    4  C4  UNL     1     -34.771   5.449   3.663  1.00 20.00     0.046 C 
ENDROOT
BRANCH   3   5
HETATM    5  O7  UNL     1     -33.264   6.802   5.048  1.00 20.00    -0.390 OA
HETATM    6  H19 UNL     1     -33.060   6.106   5.685  1.00 20.00     0.210 HD
ENDBRANCH   3   5
BRANCH   2   7
HETATM    7  C6  UNL     1     -32.074   8.052   2.655  1.00 20.00     0.003 C 
HETATM    8  C5  UNL     1     -32.017   8.782   1.337  1.00 20.00     0.005 C 
ENDBRANCH   2   7
TORSDOF 2
ENDMDL
MODEL 6
REMARK VINA RESULT:      -3.5     11.486     12.878
REMARK  2 active torsions:
REMARK  status: ('A' for Active; 'I' for Inactive)
REMARK    1  A    between atoms: C2_2  and  C6_6 
REMARK    2  A    between atoms: C3_3  and  O7_7 
ROOT
HETATM    1  C1  UNL     1     -35.191  15.085  -3.975  1.00 20.00     0.045 A 
HETATM    2  C2  UNL     1     -34.601  14.777  -5.328  1.00 20.00     0.022 A 
HETATM    3  C3  UNL     1     -34.378  13.830  -4.173  1.00 20.00     0.058 A 
HETATM    4  C4  UNL     1     -33.026  13.715  -3.555  1.00 20.00     0.046 C 
ENDROOT
BRANCH   3   5
HETATM    5  O7  UNL     1     -35.119  12.598  -4.178  1.00 20.00    -0.390 OA
HETATM    6  H19 UNL     1     -36.013  12.830  -4.461  1.00 20.00     0.210 HD
ENDBRANCH   3   5
BRANCH   2   7
HETATM    7  C6  UNL     1     -35.492  14.421  -6.468  1.00 20.00     0.003 C 
HETATM    8  C5  UNL     1     -34.943  14.856  -7.803  1.00 20.00     0.005 C 
ENDBRANCH   2   7
TORSDOF 2
ENDMDL
MODEL 7
REMARK VINA RESULT:      -3.5     12.240     13.413
REMARK  2 active torsions:
REMARK  status: ('A' for Active; 'I' for Inactive)
REMARK    1  A    between atoms: C2_2  and  C6_6 
REMARK    2  A    between atoms: C3_3  and  O7_7 
ROOT
HETATM    1  C1  UNL     1     -33.943  13.719  -4.286  1.00 20.00     0.045 A 
HETATM    2  C2  UNL     1     -34.628  14.797  -5.085  1.00 20.00     0.022 A 
HETATM    3  C3  UNL     1     -33.572  15.165  -4.070  1.00 20.00     0.058 A 
HETATM    4  C4  UNL     1     -33.963  15.851  -2.805  1.00 20.00     0.046 C 
ENDROOT
BRANCH   3   5
HETATM    5  O7  UNL     1     -32.285  15.563  -4.572  1.00 20.00    -0.390 OA
HETATM    6  H19 UNL     1     -32.295  15.359  -5.516  1.00 20.00     0.210 HD
ENDBRANCH   3   5
BRANCH   2   7
HETATM    7  C6  UNL     1     -34.376  14.916  -6.550  1.00 20.00     0.003 C 
HETATM    8  C5  UNL     1     -35.527  14.418  -7.387  1.00 20.00     0.005 C 
ENDBRANCH   2   7
TORSDOF 2
ENDMDL
MODEL 8
REMARK VINA RESULT:      -3.5     11.892     13.231
REMARK  2 active torsions:
REMARK  status: ('A' for Active; 'I' for Inactive)
REMARK    1  A    between atoms: C2_2  and  C6_6 
REMARK    2  A    between atoms: C3_3  and  O7_7 
ROOT
HETATM    1  C1  UNL     1     -33.605  16.218  -2.610  1.00 20.00     0.045 A 
HETATM    2  C2  UNL     1     -34.452  15.373  -3.527  1.00 20.00     0.022 A 
HETATM    3  C3  UNL     1     -33.371  16.258  -4.099  1.00 20.00     0.058 A 
HETATM    4  C4  UNL     1     -33.740  17.476  -4.877  1.00 20.00     0.046 C 
ENDROOT
BRANCH   3   5
HETATM    5  O7  UNL     1     -32.169  15.617  -4.562  1.00 20.00    -0.390 OA
HETATM    6  H19 UNL     1     -32.261  14.685  -4.326  1.00 20.00     0.210 HD
ENDBRANCH   3   5
BRANCH   2   7
HETATM    7  C6  UNL     1     -34.317  13.888  -3.511  1.00 20.00     0.003 C 
HETATM    8  C5  UNL     1     -34.966  13.226  -4.700  1.00 20.00     0.005 C 
ENDBRANCH   2   7
TORSDOF 2
ENDMDL
MODEL 9
REMARK VINA RESULT:      -3.5      9.162      9.851
REMARK  2 active torsions:
REMARK  status: ('A' for Active; 'I' for Inactive)
REMARK    1  A    between atoms: C2_2  and  C6_6 
REMARK    2  A    between atoms: C3_3  and  O7_7 
ROOT
HETATM    1  C1  UNL     1     -40.797   6.113   0.069  1.00 20.00     0.045 A 
HETATM    2  C2  UNL     1     -41.651   5.219  -0.794  1.00 20.00     0.022 A 
HETATM    3  C3  UNL     1     -41.608   6.705  -1.057  1.00 20.00     0.058 A 
HETATM    4  C4  UNL     1     -42.799   7.549  -0.750  1.00 20.00     0.046 C 
ENDROOT
BRANCH   3   5
HETATM    5  O7  UNL     1     -40.860   7.152  -2.200  1.00 20.00    -0.390 OA
HETATM    6  H19 UNL     1     -40.280   7.853  -1.878  1.00 20.00     0.210 HD
ENDBRANCH   3   5
BRANCH   2   7
HETATM    7  C6  UNL     1     -41.011   4.244  -1.722  1.00 20.00     0.003 C 
HETATM    8  C5  UNL     1     -42.012   3.401  -2.471  1.00 20.00     0.005 C 
ENDBRANCH   2   7
TORSDOF 2
ENDMDL
