MODEL 1
REMARK VINA RESULT:      -4.6      0.000      0.000
REMARK  3 active torsions:
REMARK  status: ('A' for Active; 'I' for Inactive)
REMARK    1  A    between atoms: C6_6  and  C8_8 
REMARK    2  A    between atoms: C6_6  and  C9_9 
REMARK    3  A    between atoms: C9_9  and  O10_10 
ROOT
HETATM    1  C1  UNL     1     -35.515  13.285  -4.256  1.00 20.00     0.000 C 
HETATM    2  C2  UNL     1     -36.299  14.592  -4.197  1.00 20.00     0.001 C 
HETATM    3  C3  UNL     1     -34.027  13.524  -4.485  1.00 20.00     0.001 C 
HETATM    4  C4  UNL     1     -35.717  15.551  -3.158  1.00 20.00     0.011 C 
HETATM    5  C5  UNL     1     -33.442  14.481  -3.447  1.00 20.00     0.011 C 
HETATM    6  C6  UNL     1     -34.207  15.822  -3.348  1.00 20.00    -0.019 C 
ENDROOT
BRANCH   6   7
HETATM    7  C8  UNL     1     -33.683  16.608  -2.132  1.00 20.00     0.007 C 
HETATM    8  C7  UNL     1     -34.639  16.538  -0.993  1.00 20.00     0.006 C 
ENDBRANCH   6   7
BRANCH   6   9
HETATM    9  C9  UNL     1     -33.964  16.678  -4.606  1.00 20.00     0.173 C 
BRANCH   9  10
HETATM   10  O10 UNL     1     -32.678  16.370  -5.100  1.00 20.00    -0.400 OA
HETATM   11  H28 UNL     1     -32.717  15.470  -5.469  1.00 20.00     0.209 HD
ENDBRANCH   9  10
ENDBRANCH   6   9
TORSDOF 3
ENDMDL
MODEL 2
REMARK VINA RESULT:      -4.5      2.148      3.825
REMARK  3 active torsions:
REMARK  status: ('A' for Active; 'I' for Inactive)
REMARK    1  A    between atoms: C6_6  and  C8_8 
REMARK    2  A    between atoms: C6_6  and  C9_9 
REMARK    3  A    between atoms: C9_9  and  O10_10 
ROOT
HETATM    1  C1  UNL     1     -33.771  16.494  -2.973  1.00 20.00     0.000 C 
HETATM    2  C2  UNL     1     -34.829  15.474  -2.566  1.00 20.00     0.001 C 
HETATM    3  C3  UNL     1     -33.025  16.066  -4.232  1.00 20.00     0.001 C 
HETATM    4  C4  UNL     1     -35.792  15.171  -3.715  1.00 20.00     0.011 C 
HETATM    5  C5  UNL     1     -33.984  15.765  -5.383  1.00 20.00     0.011 C 
HETATM    6  C6  UNL     1     -35.079  14.736  -5.016  1.00 20.00    -0.019 C 
ENDROOT
BRANCH   6   7
HETATM    7  C8  UNL     1     -36.113  14.677  -6.156  1.00 20.00     0.007 C 
HETATM    8  C7  UNL     1     -35.450  14.485  -7.475  1.00 20.00     0.006 C 
ENDBRANCH   6   7
BRANCH   6   9
HETATM    9  C9  UNL     1     -34.470  13.330  -4.856  1.00 20.00     0.173 C 
BRANCH   9  10
HETATM   10  O10 UNL     1     -35.407  12.524  -4.174  1.00 20.00    -0.400 OA
HETATM   11  H28 UNL     1     -36.225  13.045  -4.083  1.00 20.00     0.209 HD
ENDBRANCH   9  10
ENDBRANCH   6   9
TORSDOF 3
ENDMDL
MODEL 3
REMARK VINA RESULT:      -4.4     11.737     13.614
REMARK  3 active torsions:
REMARK  status: ('A' for Active; 'I' for Inactive)
REMARK    1  A    between atoms: C6_6  and  C8_8 
REMARK    2  A    between atoms: C6_6  and  C9_9 
REMARK    3  A    between atoms: C9_9  and  O10_10 
ROOT
HETATM    1  C1  UNL     1     -41.072   7.211  -0.973  1.00 20.00     0.000 C 
HETATM    2  C2  UNL     1     -42.366   7.056  -1.765  1.00 20.00     0.001 C 
HETATM    3  C3  UNL     1     -40.784   5.988  -0.110  1.00 20.00     0.001 C 
HETATM    4  C4  UNL     1     -42.371   5.770  -2.592  1.00 20.00     0.011 C 
HETATM    5  C5  UNL     1     -40.786   4.701  -0.935  1.00 20.00     0.011 C 
HETATM    6  C6  UNL     1     -42.080   4.502  -1.759  1.00 20.00    -0.019 C 
ENDROOT
BRANCH   6   7
HETATM    7  C8  UNL     1     -41.886   3.309  -2.714  1.00 20.00     0.007 C 
HETATM    8  C7  UNL     1     -43.062   3.140  -3.610  1.00 20.00     0.006 C 
ENDBRANCH   6   7
BRANCH   6   9
HETATM    9  C9  UNL     1     -43.267   4.177  -0.832  1.00 20.00     0.173 C 
BRANCH   9  10
HETATM   10  O10 UNL     1     -42.884   3.110   0.008  1.00 20.00    -0.400 OA
HETATM   11  H28 UNL     1     -43.334   2.310  -0.315  1.00 20.00     0.209 HD
ENDBRANCH   9  10
ENDBRANCH   6   9
TORSDOF 3
ENDMDL
MODEL 4
REMARK VINA RESULT:      -4.3      2.189      3.161
REMARK  3 active torsions:
REMARK  status: ('A' for Active; 'I' for Inactive)
REMARK    1  A    between atoms: C6_6  and  C8_8 
REMARK    2  A    between atoms: C6_6  and  C9_9 
REMARK    3  A    between atoms: C9_9  and  O10_10 
ROOT
HETATM    1  C1  UNL     1     -35.917  16.253  -6.797  1.00 20.00     0.000 C 
HETATM    2  C2  UNL     1     -34.443  15.860  -6.822  1.00 20.00     0.001 C 
HETATM    3  C3  UNL     1     -36.739  15.317  -5.917  1.00 20.00     0.001 C 
HETATM    4  C4  UNL     1     -33.862  15.759  -5.412  1.00 20.00     0.011 C 
HETATM    5  C5  UNL     1     -36.161  15.215  -4.506  1.00 20.00     0.011 C 
HETATM    6  C6  UNL     1     -34.666  14.822  -4.481  1.00 20.00    -0.019 C 
ENDROOT
BRANCH   6   7
HETATM    7  C8  UNL     1     -34.134  14.969  -3.043  1.00 20.00     0.007 C 
HETATM    8  C7  UNL     1     -34.900  15.998  -2.288  1.00 20.00     0.006 C 
ENDBRANCH   6   7
BRANCH   6   9
HETATM    9  C9  UNL     1     -34.485  13.352  -4.905  1.00 20.00     0.173 C 
BRANCH   9  10
HETATM   10  O10 UNL     1     -35.366  12.565  -4.131  1.00 20.00    -0.400 OA
HETATM   11  H28 UNL     1     -36.213  13.042  -4.081  1.00 20.00     0.209 HD
ENDBRANCH   9  10
ENDBRANCH   6   9
TORSDOF 3
ENDMDL
MODEL 5
REMARK VINA RESULT:      -4.3      1.721      3.466
REMARK  3 active torsions:
REMARK  status: ('A' for Active; 'I' for Inactive)
REMARK    1  A    between atoms: C6_6  and  C8_8 
REMARK    2  A    between atoms: C6_6  and  C9_9 
REMARK    3  A    between atoms: C9_9  and  O10_10 
ROOT
HETATM    1  C1  UNL     1     -33.644  17.346  -3.114  1.00 20.00     0.000 C 
HETATM    2  C2  UNL     1     -34.183  16.378  -2.066  1.00 20.00     0.001 C 
HETATM    3  C3  UNL     1     -33.419  16.662  -4.458  1.00 20.00     0.001 C 
HETATM    4  C4  UNL     1     -35.445  15.665  -2.552  1.00 20.00     0.011 C 
HETATM    5  C5  UNL     1     -34.680  15.950  -4.948  1.00 20.00     0.011 C 
HETATM    6  C6  UNL     1     -35.265  14.958  -3.916  1.00 20.00    -0.019 C 
ENDROOT
BRANCH   6   7
HETATM    7  C8  UNL     1     -36.641  14.474  -4.413  1.00 20.00     0.007 C 
HETATM    8  C7  UNL     1     -37.745  15.097  -3.633  1.00 20.00     0.006 C 
ENDBRANCH   6   7
BRANCH   6   9
HETATM    9  C9  UNL     1     -34.353  13.725  -3.771  1.00 20.00     0.173 C 
BRANCH   9  10
HETATM   10  O10 UNL     1     -35.098  12.587  -4.146  1.00 20.00    -0.400 OA
HETATM   11  H28 UNL     1     -35.554  12.799  -4.979  1.00 20.00     0.209 HD
ENDBRANCH   9  10
ENDBRANCH   6   9
TORSDOF 3
ENDMDL
MODEL 6
REMARK VINA RESULT:      -4.3      2.219      3.814
REMARK  3 active torsions:
REMARK  status: ('A' for Active; 'I' for Inactive)
REMARK    1  A    between atoms: C6_6  and  C8_8 
REMARK    2  A    between atoms: C6_6  and  C9_9 
REMARK    3  A    between atoms: C9_9  and  O10_10 
ROOT
HETATM    1  C1  UNL     1     -32.700  14.801  -3.726  1.00 20.00     0.000 C 
HETATM    2  C2  UNL     1     -33.446  16.130  -3.768  1.00 20.00     0.001 C 
HETATM    3  C3  UNL     1     -33.656  13.614  -3.675  1.00 20.00     0.001 C 
HETATM    4  C4  UNL     1     -34.457  16.174  -4.914  1.00 20.00     0.011 C 
HETATM    5  C5  UNL     1     -34.666  13.654  -4.820  1.00 20.00     0.011 C 
HETATM    6  C6  UNL     1     -35.447  14.986  -4.906  1.00 20.00    -0.019 C 
ENDROOT
BRANCH   6   7
HETATM    7  C8  UNL     1     -36.262  15.006  -6.213  1.00 20.00     0.007 C 
HETATM    8  C7  UNL     1     -35.484  14.426  -7.342  1.00 20.00     0.006 C 
ENDBRANCH   6   7
BRANCH   6   9
HETATM    9  C9  UNL     1     -36.434  15.112  -3.730  1.00 20.00     0.173 C 
BRANCH   9  10
HETATM   10  O10 UNL     1     -37.392  14.082  -3.854  1.00 20.00    -0.400 OA
HETATM   11  H28 UNL     1     -36.967  13.346  -4.330  1.00 20.00     0.209 HD
ENDBRANCH   9  10
ENDBRANCH   6   9
TORSDOF 3
ENDMDL
MODEL 7
REMARK VINA RESULT:      -4.3      1.951      3.521
REMARK  3 active torsions:
REMARK  status: ('A' for Active; 'I' for Inactive)
REMARK    1  A    between atoms: C6_6  and  C8_8 
REMARK    2  A    between atoms: C6_6  and  C9_9 
REMARK    3  A    between atoms: C9_9  and  O10_10 
ROOT
HETATM    1  C1  UNL     1     -35.064  16.676  -2.445  1.00 20.00     0.000 C 
HETATM    2  C2  UNL     1     -36.057  15.597  -2.864  1.00 20.00     0.001 C 
HETATM    3  C3  UNL     1     -33.628  16.290  -2.782  1.00 20.00     0.001 C 
HETATM    4  C4  UNL     1     -35.903  15.232  -4.341  1.00 20.00     0.011 C 
HETATM    5  C5  UNL     1     -33.472  15.926  -4.258  1.00 20.00     0.011 C 
HETATM    6  C6  UNL     1     -34.461  14.835  -4.730  1.00 20.00    -0.019 C 
ENDROOT
BRANCH   6   7
HETATM    7  C8  UNL     1     -34.373  14.710  -6.263  1.00 20.00     0.007 C 
HETATM    8  C7  UNL     1     -34.340  16.050  -6.912  1.00 20.00     0.006 C 
ENDBRANCH   6   7
BRANCH   6   9
HETATM    9  C9  UNL     1     -34.091  13.469  -4.122  1.00 20.00     0.173 C 
BRANCH   9  10
HETATM   10  O10 UNL     1     -35.199  12.609  -4.280  1.00 20.00    -0.400 OA
HETATM   11  H28 UNL     1     -35.328  12.474  -5.236  1.00 20.00     0.209 HD
ENDBRANCH   9  10
ENDBRANCH   6   9
TORSDOF 3
ENDMDL
MODEL 8
REMARK VINA RESULT:      -4.3      2.187      3.512
REMARK  3 active torsions:
REMARK  status: ('A' for Active; 'I' for Inactive)
REMARK    1  A    between atoms: C6_6  and  C8_8 
REMARK    2  A    between atoms: C6_6  and  C9_9 
REMARK    3  A    between atoms: C9_9  and  O10_10 
ROOT
HETATM    1  C1  UNL     1     -34.061  16.021  -6.768  1.00 20.00     0.000 C 
HETATM    2  C2  UNL     1     -33.520  16.268  -5.364  1.00 20.00     0.001 C 
HETATM    3  C3  UNL     1     -34.839  14.713  -6.855  1.00 20.00     0.001 C 
HETATM    4  C4  UNL     1     -34.628  16.202  -4.313  1.00 20.00     0.011 C 
HETATM    5  C5  UNL     1     -35.949  14.645  -5.807  1.00 20.00     0.011 C 
HETATM    6  C6  UNL     1     -35.448  14.893  -4.365  1.00 20.00    -0.019 C 
ENDROOT
BRANCH   6   7
HETATM    7  C8  UNL     1     -36.665  15.027  -3.429  1.00 20.00     0.007 C 
HETATM    8  C7  UNL     1     -37.939  14.815  -4.168  1.00 20.00     0.006 C 
ENDBRANCH   6   7
BRANCH   6   9
HETATM    9  C9  UNL     1     -34.602  13.703  -3.873  1.00 20.00     0.173 C 
BRANCH   9  10
HETATM   10  O10 UNL     1     -35.320  12.518  -4.140  1.00 20.00    -0.400 OA
HETATM   11  H28 UNL     1     -36.170  12.778  -4.539  1.00 20.00     0.209 HD
ENDBRANCH   9  10
ENDBRANCH   6   9
TORSDOF 3
ENDMDL
MODEL 9
REMARK VINA RESULT:      -4.1      1.236      3.347
REMARK  3 active torsions:
REMARK  status: ('A' for Active; 'I' for Inactive)
REMARK    1  A    between atoms: C6_6  and  C8_8 
REMARK    2  A    between atoms: C6_6  and  C9_9 
REMARK    3  A    between atoms: C9_9  and  O10_10 
ROOT
HETATM    1  C1  UNL     1     -35.466  17.386  -1.702  1.00 20.00     0.000 C 
HETATM    2  C2  UNL     1     -34.201  16.535  -1.713  1.00 20.00     0.001 C 
HETATM    3  C3  UNL     1     -35.814  17.906  -3.093  1.00 20.00     0.001 C 
HETATM    4  C4  UNL     1     -34.295  15.397  -2.731  1.00 20.00     0.011 C 
HETATM    5  C5  UNL     1     -35.911  16.771  -4.112  1.00 20.00     0.011 C 
HETATM    6  C6  UNL     1     -34.650  15.876  -4.157  1.00 20.00    -0.019 C 
ENDROOT
BRANCH   6   7
HETATM    7  C8  UNL     1     -34.940  14.647  -5.040  1.00 20.00     0.007 C 
HETATM    8  C7  UNL     1     -34.989  13.401  -4.228  1.00 20.00     0.006 C 
ENDBRANCH   6   7
BRANCH   6   9
HETATM    9  C9  UNL     1     -33.467  16.639  -4.783  1.00 20.00     0.173 C 
BRANCH   9  10
HETATM   10  O10 UNL     1     -32.358  15.767  -4.822  1.00 20.00    -0.400 OA
HETATM   11  H28 UNL     1     -32.178  15.569  -5.758  1.00 20.00     0.209 HD
ENDBRANCH   9  10
ENDBRANCH   6   9
TORSDOF 3
ENDMDL
