MODEL 1
REMARK VINA RESULT:      -5.3      0.000      0.000
REMARK  3 active torsions:
REMARK  status: ('A' for Active; 'I' for Inactive)
REMARK    1  A    between atoms: C1_1  and  C6_6 
REMARK    2  A    between atoms: C2_2  and  C7_7 
REMARK    3  A    between atoms: C3_3  and  C7_7 
ROOT
HETATM    1  C1  UNL     1     -34.505   5.415   3.760  1.00 20.00    -0.026 C 
HETATM    2  C2  UNL     1     -33.315   6.037   3.755  1.00 20.00    -0.020 C 
ENDROOT
BRANCH   2   3
HETATM    3  C7  UNL     1     -32.546   6.356   2.511  1.00 20.00     0.140 C 
BRANCH   3   4
HETATM    4  C3  UNL     1     -31.905   7.726   2.695  1.00 20.00     0.176 C 
HETATM    5  O8  UNL     1     -32.082   8.535   1.740  1.00 20.00    -0.648 OA
HETATM    6  O9  UNL     1     -31.265   7.880   3.773  1.00 20.00    -0.648 OA
ENDBRANCH   3   4
ENDBRANCH   2   3
BRANCH   1   7
HETATM    7  C6  UNL     1     -35.291   5.073   4.959  1.00 20.00     0.008 A 
HETATM    8  C4  UNL     1     -34.807   3.959   5.831  1.00 20.00     0.009 A 
HETATM    9  C5  UNL     1     -34.707   5.379   6.301  1.00 20.00     0.009 A 
ENDBRANCH   1   7
TORSDOF 3
ENDMDL
MODEL 2
REMARK VINA RESULT:      -5.0      2.806      4.691
REMARK  3 active torsions:
REMARK  status: ('A' for Active; 'I' for Inactive)
REMARK    1  A    between atoms: C1_1  and  C6_6 
REMARK    2  A    between atoms: C2_2  and  C7_7 
REMARK    3  A    between atoms: C3_3  and  C7_7 
ROOT
HETATM    1  C1  UNL     1     -33.338   6.340   3.810  1.00 20.00    -0.026 C 
HETATM    2  C2  UNL     1     -34.371   5.603   3.373  1.00 20.00    -0.020 C 
ENDROOT
BRANCH   2   3
HETATM    3  C7  UNL     1     -35.571   5.272   4.205  1.00 20.00     0.140 C 
BRANCH   3   4
HETATM    4  C3  UNL     1     -35.082   4.641   5.503  1.00 20.00     0.176 C 
HETATM    5  O8  UNL     1     -34.962   5.438   6.476  1.00 20.00    -0.648 OA
HETATM    6  O9  UNL     1     -34.843   3.402   5.442  1.00 20.00    -0.648 OA
ENDBRANCH   3   4
ENDBRANCH   2   3
BRANCH   1   7
HETATM    7  C6  UNL     1     -32.135   6.681   3.031  1.00 20.00     0.008 A 
HETATM    8  C4  UNL     1     -32.123   7.970   2.271  1.00 20.00     0.009 A 
HETATM    9  C5  UNL     1     -31.280   7.814   3.502  1.00 20.00     0.009 A 
ENDBRANCH   1   7
TORSDOF 3
ENDMDL
MODEL 3
REMARK VINA RESULT:      -4.9      2.502      4.817
REMARK  3 active torsions:
REMARK  status: ('A' for Active; 'I' for Inactive)
REMARK    1  A    between atoms: C1_1  and  C6_6 
REMARK    2  A    between atoms: C2_2  and  C7_7 
REMARK    3  A    between atoms: C3_3  and  C7_7 
ROOT
HETATM    1  C1  UNL     1     -32.618   6.746   2.928  1.00 20.00    -0.026 C 
HETATM    2  C2  UNL     1     -33.692   6.689   3.731  1.00 20.00    -0.020 C 
ENDROOT
BRANCH   2   3
HETATM    3  C7  UNL     1     -34.418   5.423   4.066  1.00 20.00     0.140 C 
BRANCH   3   4
HETATM    4  C3  UNL     1     -34.541   5.342   5.583  1.00 20.00     0.176 C 
HETATM    5  O8  UNL     1     -35.114   4.304   6.021  1.00 20.00    -0.648 OA
HETATM    6  O9  UNL     1     -34.068   6.328   6.215  1.00 20.00    -0.648 OA
ENDBRANCH   3   4
ENDBRANCH   2   3
BRANCH   1   7
HETATM    7  C6  UNL     1     -31.881   7.968   2.564  1.00 20.00     0.008 A 
HETATM    8  C4  UNL     1     -31.771   8.327   1.116  1.00 20.00     0.009 A 
HETATM    9  C5  UNL     1     -32.653   9.130   2.026  1.00 20.00     0.009 A 
ENDBRANCH   1   7
TORSDOF 3
ENDMDL
MODEL 4
REMARK VINA RESULT:      -4.8      1.150      1.262
REMARK  3 active torsions:
REMARK  status: ('A' for Active; 'I' for Inactive)
REMARK    1  A    between atoms: C1_1  and  C6_6 
REMARK    2  A    between atoms: C2_2  and  C7_7 
REMARK    3  A    between atoms: C3_3  and  C7_7 
ROOT
HETATM    1  C1  UNL     1     -33.430   5.847   4.089  1.00 20.00    -0.026 C 
HETATM    2  C2  UNL     1     -33.197   6.946   3.354  1.00 20.00    -0.020 C 
ENDROOT
BRANCH   2   3
HETATM    3  C7  UNL     1     -31.881   7.259   2.714  1.00 20.00     0.140 C 
BRANCH   3   4
HETATM    4  C3  UNL     1     -32.076   8.468   1.807  1.00 20.00     0.176 C 
HETATM    5  O8  UNL     1     -31.464   8.415   0.702  1.00 20.00    -0.648 OA
HETATM    6  O9  UNL     1     -32.814   9.379   2.277  1.00 20.00    -0.648 OA
ENDBRANCH   3   4
ENDBRANCH   2   3
BRANCH   1   7
HETATM    7  C6  UNL     1     -34.705   5.504   4.743  1.00 20.00     0.008 A 
HETATM    8  C4  UNL     1     -34.849   4.145   5.350  1.00 20.00     0.009 A 
HETATM    9  C5  UNL     1     -34.722   5.353   6.230  1.00 20.00     0.009 A 
ENDBRANCH   1   7
TORSDOF 3
ENDMDL
MODEL 5
REMARK VINA RESULT:      -4.8      1.164      1.400
REMARK  3 active torsions:
REMARK  status: ('A' for Active; 'I' for Inactive)
REMARK    1  A    between atoms: C1_1  and  C6_6 
REMARK    2  A    between atoms: C2_2  and  C7_7 
REMARK    3  A    between atoms: C3_3  and  C7_7 
ROOT
HETATM    1  C1  UNL     1     -33.432   5.854   4.060  1.00 20.00    -0.026 C 
HETATM    2  C2  UNL     1     -33.200   6.961   3.337  1.00 20.00    -0.020 C 
ENDROOT
BRANCH   2   3
HETATM    3  C7  UNL     1     -31.869   7.306   2.745  1.00 20.00     0.140 C 
BRANCH   3   4
HETATM    4  C3  UNL     1     -32.068   8.491   1.807  1.00 20.00     0.176 C 
HETATM    5  O8  UNL     1     -32.825   9.403   2.246  1.00 20.00    -0.648 OA
HETATM    6  O9  UNL     1     -31.462   8.410   0.701  1.00 20.00    -0.648 OA
ENDBRANCH   3   4
ENDBRANCH   2   3
BRANCH   1   7
HETATM    7  C6  UNL     1     -34.721   5.479   4.669  1.00 20.00     0.008 A 
HETATM    8  C4  UNL     1     -34.874   4.094   5.210  1.00 20.00     0.009 A 
HETATM    9  C5  UNL     1     -34.772   5.261   6.147  1.00 20.00     0.009 A 
ENDBRANCH   1   7
TORSDOF 3
ENDMDL
MODEL 6
REMARK VINA RESULT:      -4.6     10.928     11.753
REMARK  3 active torsions:
REMARK  status: ('A' for Active; 'I' for Inactive)
REMARK    1  A    between atoms: C1_1  and  C6_6 
REMARK    2  A    between atoms: C2_2  and  C7_7 
REMARK    3  A    between atoms: C3_3  and  C7_7 
ROOT
HETATM    1  C1  UNL     1     -34.786  15.908  -2.130  1.00 20.00    -0.026 C 
HETATM    2  C2  UNL     1     -33.832  15.598  -3.022  1.00 20.00    -0.020 C 
ENDROOT
BRANCH   2   3
HETATM    3  C7  UNL     1     -34.101  14.925  -4.332  1.00 20.00     0.140 C 
BRANCH   3   4
HETATM    4  C3  UNL     1     -33.990  13.421  -4.117  1.00 20.00     0.176 C 
HETATM    5  O8  UNL     1     -35.048  12.766  -4.342  1.00 20.00    -0.648 OA
HETATM    6  O9  UNL     1     -32.859  13.015  -3.728  1.00 20.00    -0.648 OA
ENDBRANCH   3   4
ENDBRANCH   2   3
BRANCH   1   7
HETATM    7  C6  UNL     1     -34.565  16.560  -0.827  1.00 20.00     0.008 A 
HETATM    8  C4  UNL     1     -33.607  17.706  -0.760  1.00 20.00     0.009 A 
HETATM    9  C5  UNL     1     -35.082  17.950  -0.632  1.00 20.00     0.009 A 
ENDBRANCH   1   7
TORSDOF 3
ENDMDL
MODEL 7
REMARK VINA RESULT:      -4.6     11.179     11.849
REMARK  3 active torsions:
REMARK  status: ('A' for Active; 'I' for Inactive)
REMARK    1  A    between atoms: C1_1  and  C6_6 
REMARK    2  A    between atoms: C2_2  and  C7_7 
REMARK    3  A    between atoms: C3_3  and  C7_7 
ROOT
HETATM    1  C1  UNL     1     -34.486  15.555  -2.359  1.00 20.00    -0.026 C 
HETATM    2  C2  UNL     1     -33.488  15.266  -3.210  1.00 20.00    -0.020 C 
ENDROOT
BRANCH   2   3
HETATM    3  C7  UNL     1     -33.244  13.903  -3.778  1.00 20.00     0.140 C 
BRANCH   3   4
HETATM    4  C3  UNL     1     -34.380  13.588  -4.745  1.00 20.00     0.176 C 
HETATM    5  O8  UNL     1     -34.434  14.327  -5.769  1.00 20.00    -0.648 OA
HETATM    6  O9  UNL     1     -35.135  12.638  -4.396  1.00 20.00    -0.648 OA
ENDBRANCH   3   4
ENDBRANCH   2   3
BRANCH   1   7
HETATM    7  C6  UNL     1     -34.757  16.878  -1.769  1.00 20.00     0.008 A 
HETATM    8  C4  UNL     1     -34.771  17.001  -0.279  1.00 20.00     0.009 A 
HETATM    9  C5  UNL     1     -33.640  17.586  -1.072  1.00 20.00     0.009 A 
ENDBRANCH   1   7
TORSDOF 3
ENDMDL
MODEL 8
REMARK VINA RESULT:      -4.3     11.391     12.042
REMARK  3 active torsions:
REMARK  status: ('A' for Active; 'I' for Inactive)
REMARK    1  A    between atoms: C1_1  and  C6_6 
REMARK    2  A    between atoms: C2_2  and  C7_7 
REMARK    3  A    between atoms: C3_3  and  C7_7 
ROOT
HETATM    1  C1  UNL     1     -35.082  16.113  -2.129  1.00 20.00    -0.026 C 
HETATM    2  C2  UNL     1     -34.365  15.520  -3.096  1.00 20.00    -0.020 C 
ENDROOT
BRANCH   2   3
HETATM    3  C7  UNL     1     -34.936  15.081  -4.408  1.00 20.00     0.140 C 
BRANCH   3   4
HETATM    4  C3  UNL     1     -35.702  13.783  -4.175  1.00 20.00     0.176 C 
HETATM    5  O8  UNL     1     -35.015  12.728  -4.285  1.00 20.00    -0.648 OA
HETATM    6  O9  UNL     1     -36.929  13.923  -3.914  1.00 20.00    -0.648 OA
ENDBRANCH   3   4
ENDBRANCH   2   3
BRANCH   1   7
HETATM    7  C6  UNL     1     -34.564  16.553  -0.821  1.00 20.00     0.008 A 
HETATM    8  C4  UNL     1     -33.595  17.691  -0.788  1.00 20.00     0.009 A 
HETATM    9  C5  UNL     1     -34.998  17.883  -0.296  1.00 20.00     0.009 A 
ENDBRANCH   1   7
TORSDOF 3
ENDMDL
MODEL 9
REMARK VINA RESULT:      -4.2      2.475      4.888
REMARK  3 active torsions:
REMARK  status: ('A' for Active; 'I' for Inactive)
REMARK    1  A    between atoms: C1_1  and  C6_6 
REMARK    2  A    between atoms: C2_2  and  C7_7 
REMARK    3  A    between atoms: C3_3  and  C7_7 
ROOT
HETATM    1  C1  UNL     1     -31.810   7.514   2.172  1.00 20.00    -0.026 C 
HETATM    2  C2  UNL     1     -32.831   7.186   2.980  1.00 20.00    -0.020 C 
ENDROOT
BRANCH   2   3
HETATM    3  C7  UNL     1     -32.969   5.856   3.652  1.00 20.00     0.140 C 
BRANCH   3   4
HETATM    4  C3  UNL     1     -34.248   5.880   4.480  1.00 20.00     0.176 C 
HETATM    5  O8  UNL     1     -35.287   5.492   3.874  1.00 20.00    -0.648 OA
HETATM    6  O9  UNL     1     -34.114   6.297   5.664  1.00 20.00    -0.648 OA
ENDBRANCH   3   4
ENDBRANCH   2   3
BRANCH   1   7
HETATM    7  C6  UNL     1     -31.639   8.806   1.483  1.00 20.00     0.008 A 
HETATM    8  C4  UNL     1     -32.575   9.144   0.366  1.00 20.00     0.009 A 
HETATM    9  C5  UNL     1     -32.683   9.859   1.680  1.00 20.00     0.009 A 
ENDBRANCH   1   7
TORSDOF 3
ENDMDL
