MODEL 1
REMARK VINA RESULT:      -4.6      0.000      0.000
REMARK  3 active torsions:
REMARK  status: ('A' for Active; 'I' for Inactive)
REMARK    1  A    between atoms: C4_4  and  C5_5 
REMARK    2  A    between atoms: C5_5  and  C6_6 
REMARK    3  A    between atoms: C6_6  and  N8_8 
ROOT
HETATM    1  C1  UNL     1     -32.092   8.103   2.137  1.00 20.00     0.177 C 
HETATM    2  N7  UNL     1     -32.112   8.936   1.330  1.00 20.00    -0.172 NA
HETATM    3  N8  UNL     1     -32.099   7.111   3.082  1.00 20.00    -0.329 N 
HETATM    4  H18 UNL     1     -31.465   7.242   3.903  1.00 20.00     0.171 HD
ENDROOT
BRANCH   3   5
HETATM    5  C6  UNL     1     -33.183   6.196   3.309  1.00 20.00     0.132 C 
BRANCH   5   6
HETATM    6  C5  UNL     1     -33.690   6.242   4.745  1.00 20.00     0.025 C 
BRANCH   6   7
HETATM    7  C4  UNL     1     -34.913   5.363   4.966  1.00 20.00    -0.013 A 
HETATM    8  C2  UNL     1     -34.760   3.873   5.094  1.00 20.00     0.005 A 
HETATM    9  C3  UNL     1     -35.134   4.695   6.295  1.00 20.00     0.005 A 
ENDBRANCH   6   7
ENDBRANCH   5   6
ENDBRANCH   3   5
TORSDOF 3
ENDMDL
MODEL 2
REMARK VINA RESULT:      -4.1     11.239     12.079
REMARK  3 active torsions:
REMARK  status: ('A' for Active; 'I' for Inactive)
REMARK    1  A    between atoms: C4_4  and  C5_5 
REMARK    2  A    between atoms: C5_5  and  C6_6 
REMARK    3  A    between atoms: C6_6  and  N8_8 
ROOT
HETATM    1  C1  UNL     1     -34.001  13.624  -4.304  1.00 20.00     0.177 C 
HETATM    2  N7  UNL     1     -34.813  12.809  -4.451  1.00 20.00    -0.172 NA
HETATM    3  N8  UNL     1     -33.064  14.609  -4.140  1.00 20.00    -0.329 N 
HETATM    4  H18 UNL     1     -32.061  14.314  -4.181  1.00 20.00     0.171 HD
ENDROOT
BRANCH   3   5
HETATM    5  C6  UNL     1     -33.281  16.006  -4.398  1.00 20.00     0.132 C 
BRANCH   5   6
HETATM    6  C5  UNL     1     -34.230  16.641  -3.389  1.00 20.00     0.025 C 
BRANCH   6   7
HETATM    7  C4  UNL     1     -33.755  16.481  -1.953  1.00 20.00    -0.013 A 
HETATM    8  C2  UNL     1     -33.643  17.681  -1.054  1.00 20.00     0.005 A 
HETATM    9  C3  UNL     1     -34.719  16.659  -0.812  1.00 20.00     0.005 A 
ENDBRANCH   6   7
ENDBRANCH   5   6
ENDBRANCH   3   5
TORSDOF 3
ENDMDL
MODEL 3
REMARK VINA RESULT:      -4.0      2.746      4.765
REMARK  3 active torsions:
REMARK  status: ('A' for Active; 'I' for Inactive)
REMARK    1  A    between atoms: C4_4  and  C5_5 
REMARK    2  A    between atoms: C5_5  and  C6_6 
REMARK    3  A    between atoms: C6_6  and  N8_8 
ROOT
HETATM    1  C1  UNL     1     -35.151   4.693   5.624  1.00 20.00     0.177 C 
HETATM    2  N7  UNL     1     -34.836   4.637   6.740  1.00 20.00    -0.172 NA
HETATM    3  N8  UNL     1     -35.495   4.775   4.301  1.00 20.00    -0.329 N 
HETATM    4  H18 UNL     1     -36.515   4.727   4.078  1.00 20.00     0.171 HD
ENDROOT
BRANCH   3   5
HETATM    5  C6  UNL     1     -34.692   5.384   3.277  1.00 20.00     0.132 C 
BRANCH   5   6
HETATM    6  C5  UNL     1     -33.796   6.490   3.822  1.00 20.00     0.025 C 
BRANCH   6   7
HETATM    7  C4  UNL     1     -32.480   6.605   3.068  1.00 20.00    -0.013 A 
HETATM    8  C2  UNL     1     -32.158   7.853   2.292  1.00 20.00     0.005 A 
HETATM    9  C3  UNL     1     -31.407   7.540   3.557  1.00 20.00     0.005 A 
ENDBRANCH   6   7
ENDBRANCH   5   6
ENDBRANCH   3   5
TORSDOF 3
ENDMDL
MODEL 4
REMARK VINA RESULT:      -4.0      1.982      5.084
REMARK  3 active torsions:
REMARK  status: ('A' for Active; 'I' for Inactive)
REMARK    1  A    between atoms: C4_4  and  C5_5 
REMARK    2  A    between atoms: C5_5  and  C6_6 
REMARK    3  A    between atoms: C6_6  and  N8_8 
ROOT
HETATM    1  C1  UNL     1     -34.607   5.425   4.349  1.00 20.00     0.177 C 
HETATM    2  N7  UNL     1     -35.236   4.590   4.852  1.00 20.00    -0.172 NA
HETATM    3  N8  UNL     1     -33.839   6.392   3.758  1.00 20.00    -0.329 N 
HETATM    4  H18 UNL     1     -34.187   7.376   3.828  1.00 20.00     0.171 HD
ENDROOT
BRANCH   3   5
HETATM    5  C6  UNL     1     -32.431   6.279   3.492  1.00 20.00     0.132 C 
BRANCH   5   6
HETATM    6  C5  UNL     1     -31.810   7.609   3.081  1.00 20.00     0.025 C 
BRANCH   6   7
HETATM    7  C4  UNL     1     -32.503   8.236   1.881  1.00 20.00    -0.013 A 
HETATM    8  C2  UNL     1     -32.419   9.719   1.647  1.00 20.00     0.005 A 
HETATM    9  C3  UNL     1     -31.691   8.772   0.733  1.00 20.00     0.005 A 
ENDBRANCH   6   7
ENDBRANCH   5   6
ENDBRANCH   3   5
TORSDOF 3
ENDMDL
MODEL 5
REMARK VINA RESULT:      -3.9      2.993      4.591
REMARK  3 active torsions:
REMARK  status: ('A' for Active; 'I' for Inactive)
REMARK    1  A    between atoms: C4_4  and  C5_5 
REMARK    2  A    between atoms: C5_5  and  C6_6 
REMARK    3  A    between atoms: C6_6  and  N8_8 
ROOT
HETATM    1  C1  UNL     1     -34.873   4.366   5.692  1.00 20.00     0.177 C 
HETATM    2  N7  UNL     1     -35.074   3.482   4.967  1.00 20.00    -0.172 NA
HETATM    3  N8  UNL     1     -34.621   5.425   6.522  1.00 20.00    -0.329 N 
HETATM    4  H18 UNL     1     -34.627   5.227   7.549  1.00 20.00     0.171 HD
ENDROOT
BRANCH   3   5
HETATM    5  C6  UNL     1     -33.898   6.610   6.151  1.00 20.00     0.132 C 
BRANCH   5   6
HETATM    6  C5  UNL     1     -33.924   6.859   4.648  1.00 20.00     0.025 C 
BRANCH   6   7
HETATM    7  C4  UNL     1     -32.543   6.770   4.013  1.00 20.00    -0.013 A 
HETATM    8  C2  UNL     1     -32.317   5.893   2.813  1.00 20.00     0.005 A 
HETATM    9  C3  UNL     1     -32.289   7.389   2.666  1.00 20.00     0.005 A 
ENDBRANCH   6   7
ENDBRANCH   5   6
ENDBRANCH   3   5
TORSDOF 3
ENDMDL
MODEL 6
REMARK VINA RESULT:      -3.9      2.797      4.263
REMARK  3 active torsions:
REMARK  status: ('A' for Active; 'I' for Inactive)
REMARK    1  A    between atoms: C4_4  and  C5_5 
REMARK    2  A    between atoms: C5_5  and  C6_6 
REMARK    3  A    between atoms: C6_6  and  N8_8 
ROOT
HETATM    1  C1  UNL     1     -34.099   6.399   6.444  1.00 20.00     0.177 C 
HETATM    2  N7  UNL     1     -33.554   7.282   6.965  1.00 20.00    -0.172 NA
HETATM    3  N8  UNL     1     -34.727   5.367   5.802  1.00 20.00    -0.329 N 
HETATM    4  H18 UNL     1     -35.609   5.012   6.235  1.00 20.00     0.171 HD
ENDROOT
BRANCH   3   5
HETATM    5  C6  UNL     1     -34.587   5.057   4.405  1.00 20.00     0.132 C 
BRANCH   5   6
HETATM    6  C5  UNL     1     -34.256   6.286   3.568  1.00 20.00     0.025 C 
BRANCH   6   7
HETATM    7  C4  UNL     1     -32.818   6.291   3.072  1.00 20.00    -0.013 A 
HETATM    8  C2  UNL     1     -32.285   7.469   2.305  1.00 20.00     0.005 A 
HETATM    9  C3  UNL     1     -31.802   7.203   3.703  1.00 20.00     0.005 A 
ENDBRANCH   6   7
ENDBRANCH   5   6
ENDBRANCH   3   5
TORSDOF 3
ENDMDL
MODEL 7
REMARK VINA RESULT:      -3.6     11.577     12.070
REMARK  3 active torsions:
REMARK  status: ('A' for Active; 'I' for Inactive)
REMARK    1  A    between atoms: C4_4  and  C5_5 
REMARK    2  A    between atoms: C5_5  and  C6_6 
REMARK    3  A    between atoms: C6_6  and  N8_8 
ROOT
HETATM    1  C1  UNL     1     -36.700  14.399  -3.926  1.00 20.00     0.177 C 
HETATM    2  N7  UNL     1     -37.852  14.344  -3.796  1.00 20.00    -0.172 NA
HETATM    3  N8  UNL     1     -35.339  14.481  -4.053  1.00 20.00    -0.329 N 
HETATM    4  H18 UNL     1     -34.953  14.407  -5.022  1.00 20.00     0.171 HD
ENDROOT
BRANCH   3   5
HETATM    5  C6  UNL     1     -34.460  15.118  -3.111  1.00 20.00     0.132 C 
BRANCH   5   6
HETATM    6  C5  UNL     1     -35.156  16.221  -2.323  1.00 20.00     0.025 C 
BRANCH   6   7
HETATM    7  C4  UNL     1     -34.521  16.461  -0.961  1.00 20.00    -0.013 A 
HETATM    8  C2  UNL     1     -33.723  17.709  -0.707  1.00 20.00     0.005 A 
HETATM    9  C3  UNL     1     -35.063  17.529  -0.050  1.00 20.00     0.005 A 
ENDBRANCH   6   7
ENDBRANCH   5   6
ENDBRANCH   3   5
TORSDOF 3
ENDMDL
MODEL 8
REMARK VINA RESULT:      -3.5     11.168     13.536
REMARK  3 active torsions:
REMARK  status: ('A' for Active; 'I' for Inactive)
REMARK    1  A    between atoms: C4_4  and  C5_5 
REMARK    2  A    between atoms: C5_5  and  C6_6 
REMARK    3  A    between atoms: C6_6  and  N8_8 
ROOT
HETATM    1  C1  UNL     1     -33.985  13.644  -4.190  1.00 20.00     0.177 C 
HETATM    2  N7  UNL     1     -34.785  12.819  -4.350  1.00 20.00    -0.172 NA
HETATM    3  N8  UNL     1     -33.058  14.638  -4.022  1.00 20.00    -0.329 N 
HETATM    4  H18 UNL     1     -32.098  14.340  -3.734  1.00 20.00     0.171 HD
ENDROOT
BRANCH   3   5
HETATM    5  C6  UNL     1     -33.115  15.933  -4.643  1.00 20.00     0.132 C 
BRANCH   5   6
HETATM    6  C5  UNL     1     -34.410  16.149  -5.417  1.00 20.00     0.025 C 
BRANCH   6   7
HETATM    7  C4  UNL     1     -34.230  15.996  -6.920  1.00 20.00    -0.013 A 
HETATM    8  C2  UNL     1     -34.829  14.819  -7.639  1.00 20.00     0.005 A 
HETATM    9  C3  UNL     1     -35.398  16.195  -7.847  1.00 20.00     0.005 A 
ENDBRANCH   6   7
ENDBRANCH   5   6
ENDBRANCH   3   5
TORSDOF 3
ENDMDL
MODEL 9
REMARK VINA RESULT:      -3.5     11.813     12.654
REMARK  3 active torsions:
REMARK  status: ('A' for Active; 'I' for Inactive)
REMARK    1  A    between atoms: C4_4  and  C5_5 
REMARK    2  A    between atoms: C5_5  and  C6_6 
REMARK    3  A    between atoms: C6_6  and  N8_8 
ROOT
HETATM    1  C1  UNL     1     -33.324  17.024  -5.104  1.00 20.00     0.177 C 
HETATM    2  N7  UNL     1     -33.643  18.098  -5.405  1.00 20.00    -0.172 NA
HETATM    3  N8  UNL     1     -32.961  15.761  -4.718  1.00 20.00    -0.329 N 
HETATM    4  H18 UNL     1     -32.153  15.330  -5.224  1.00 20.00     0.171 HD
ENDROOT
BRANCH   3   5
HETATM    5  C6  UNL     1     -33.231  15.181  -3.431  1.00 20.00     0.132 C 
BRANCH   5   6
HETATM    6  C5  UNL     1     -34.616  15.547  -2.910  1.00 20.00     0.025 C 
BRANCH   6   7
HETATM    7  C4  UNL     1     -34.573  16.193  -1.532  1.00 20.00    -0.013 A 
HETATM    8  C2  UNL     1     -33.702  17.393  -1.285  1.00 20.00     0.005 A 
HETATM    9  C3  UNL     1     -35.198  17.543  -1.309  1.00 20.00     0.005 A 
ENDBRANCH   6   7
ENDBRANCH   5   6
ENDBRANCH   3   5
TORSDOF 3
ENDMDL
