MODEL 1
REMARK VINA RESULT:      -5.6      0.000      0.000
REMARK  1 active torsions:
REMARK  status: ('A' for Active; 'I' for Inactive)
REMARK    1  A    between atoms: C1_1  and  C7_7 
ROOT
HETATM    1  C2  UNL     1     -33.869  18.357  -4.141  1.00 20.00     0.002 C 
HETATM    2  C3  UNL     1     -33.369  17.043  -4.730  1.00 20.00     0.010 C 
HETATM    3  C4  UNL     1     -33.884  18.309  -2.613  1.00 20.00     0.009 C 
HETATM    4  C5  UNL     1     -35.361  15.390  -5.007  1.00 20.00     0.026 A 
HETATM    5  C6  UNL     1     -34.229  15.795  -2.696  1.00 20.00     0.019 C 
HETATM    6  C7  UNL     1     -34.091  14.582  -5.024  1.00 20.00     0.096 A 
HETATM    7  C8  UNL     1     -34.169  15.870  -4.211  1.00 20.00    -0.025 A 
HETATM    8  C9  UNL     1     -34.698  17.122  -2.049  1.00 20.00    -0.047 C 
HETATM    9  C10 UNL     1     -34.466  17.041  -0.527  1.00 20.00     0.015 C 
HETATM   10  C11 UNL     1     -36.206  17.338  -2.284  1.00 20.00     0.015 C 
ENDROOT
BRANCH   6  11
HETATM   11  C1  UNL     1     -34.093  13.304  -4.340  1.00 20.00     0.177 C 
HETATM   12  O12 UNL     1     -32.985  12.954  -3.849  1.00 20.00    -0.648 OA
HETATM   13  O13 UNL     1     -35.209  12.712  -4.328  1.00 20.00    -0.648 OA
ENDBRANCH   6  11
TORSDOF 1
ENDMDL
MODEL 2
REMARK VINA RESULT:      -5.0      2.744      4.493
REMARK  1 active torsions:
REMARK  status: ('A' for Active; 'I' for Inactive)
REMARK    1  A    between atoms: C1_1  and  C7_7 
ROOT
HETATM    1  C2  UNL     1     -33.631  13.658  -3.908  1.00 20.00     0.002 C 
HETATM    2  C3  UNL     1     -33.022  14.954  -3.386  1.00 20.00     0.010 C 
HETATM    3  C4  UNL     1     -34.477  13.907  -5.157  1.00 20.00     0.009 C 
HETATM    4  C5  UNL     1     -34.696  16.120  -1.768  1.00 20.00     0.026 A 
HETATM    5  C6  UNL     1     -34.964  16.267  -4.356  1.00 20.00     0.019 C 
HETATM    6  C7  UNL     1     -33.704  17.157  -2.226  1.00 20.00     0.096 A 
HETATM    7  C8  UNL     1     -34.086  16.002  -3.146  1.00 20.00    -0.025 A 
HETATM    8  C9  UNL     1     -35.577  14.973  -4.945  1.00 20.00    -0.047 C 
HETATM    9  C10 UNL     1     -36.216  15.303  -6.308  1.00 20.00     0.015 C 
HETATM   10  C11 UNL     1     -36.687  14.429  -4.025  1.00 20.00     0.015 C 
ENDROOT
BRANCH   6  11
HETATM   11  C1  UNL     1     -34.202  18.489  -2.510  1.00 20.00     0.177 C 
HETATM   12  O12 UNL     1     -33.461  19.194  -3.248  1.00 20.00    -0.648 OA
HETATM   13  O13 UNL     1     -35.313  18.764  -1.976  1.00 20.00    -0.648 OA
ENDBRANCH   6  11
TORSDOF 1
ENDMDL
MODEL 3
REMARK VINA RESULT:      -4.9      1.696      3.286
REMARK  1 active torsions:
REMARK  status: ('A' for Active; 'I' for Inactive)
REMARK    1  A    between atoms: C1_1  and  C7_7 
ROOT
HETATM    1  C2  UNL     1     -36.494  17.806  -4.387  1.00 20.00     0.002 C 
HETATM    2  C3  UNL     1     -36.488  16.361  -3.901  1.00 20.00     0.010 C 
HETATM    3  C4  UNL     1     -36.120  17.893  -5.867  1.00 20.00     0.009 C 
HETATM    4  C5  UNL     1     -34.092  15.709  -3.119  1.00 20.00     0.026 A 
HETATM    5  C6  UNL     1     -34.739  15.774  -5.642  1.00 20.00     0.019 C 
HETATM    6  C7  UNL     1     -34.849  14.435  -3.382  1.00 20.00     0.096 A 
HETATM    7  C8  UNL     1     -35.162  15.692  -4.186  1.00 20.00    -0.025 A 
HETATM    8  C9  UNL     1     -34.766  17.221  -6.193  1.00 20.00    -0.047 C 
HETATM    9  C10 UNL     1     -34.593  17.173  -7.724  1.00 20.00     0.015 C 
HETATM   10  C11 UNL     1     -33.599  18.045  -5.614  1.00 20.00     0.015 C 
ENDROOT
BRANCH   6  11
HETATM   11  C1  UNL     1     -34.136  13.342  -4.015  1.00 20.00     0.177 C 
HETATM   12  O12 UNL     1     -32.901  13.286  -3.758  1.00 20.00    -0.648 OA
HETATM   13  O13 UNL     1     -34.848  12.594  -4.741  1.00 20.00    -0.648 OA
ENDBRANCH   6  11
TORSDOF 1
ENDMDL
MODEL 4
REMARK VINA RESULT:      -4.9      0.940      1.476
REMARK  1 active torsions:
REMARK  status: ('A' for Active; 'I' for Inactive)
REMARK    1  A    between atoms: C1_1  and  C7_7 
ROOT
HETATM    1  C2  UNL     1     -33.943  18.072  -5.824  1.00 20.00     0.002 C 
HETATM    2  C3  UNL     1     -33.623  16.609  -6.111  1.00 20.00     0.010 C 
HETATM    3  C4  UNL     1     -33.633  18.431  -4.371  1.00 20.00     0.009 C 
HETATM    4  C5  UNL     1     -35.682  15.129  -5.523  1.00 20.00     0.026 A 
HETATM    5  C6  UNL     1     -34.070  16.026  -3.683  1.00 20.00     0.019 C 
HETATM    6  C7  UNL     1     -34.472  14.233  -5.564  1.00 20.00     0.096 A 
HETATM    7  C8  UNL     1     -34.333  15.692  -5.141  1.00 20.00    -0.025 A 
HETATM    8  C9  UNL     1     -34.346  17.513  -3.351  1.00 20.00    -0.047 C 
HETATM    9  C10 UNL     1     -33.797  17.817  -1.943  1.00 20.00     0.015 C 
HETATM   10  C11 UNL     1     -35.861  17.794  -3.336  1.00 20.00     0.015 C 
ENDROOT
BRANCH   6  11
HETATM   11  C1  UNL     1     -34.371  13.187  -4.565  1.00 20.00     0.177 C 
HETATM   12  O12 UNL     1     -35.468  12.677  -4.208  1.00 20.00    -0.648 OA
HETATM   13  O13 UNL     1     -33.194  12.929  -4.186  1.00 20.00    -0.648 OA
ENDBRANCH   6  11
TORSDOF 1
ENDMDL
MODEL 5
REMARK VINA RESULT:      -4.9      1.454      2.679
REMARK  1 active torsions:
REMARK  status: ('A' for Active; 'I' for Inactive)
REMARK    1  A    between atoms: C1_1  and  C7_7 
ROOT
HETATM    1  C2  UNL     1     -33.972  17.723  -1.377  1.00 20.00     0.002 C 
HETATM    2  C3  UNL     1     -34.480  16.291  -1.500  1.00 20.00     0.010 C 
HETATM    3  C4  UNL     1     -34.836  18.689  -2.188  1.00 20.00     0.009 C 
HETATM    4  C5  UNL     1     -33.418  15.160  -3.590  1.00 20.00     0.026 A 
HETATM    5  C6  UNL     1     -35.421  16.814  -3.797  1.00 20.00     0.019 C 
HETATM    6  C7  UNL     1     -34.644  14.370  -3.216  1.00 20.00     0.096 A 
HETATM    7  C8  UNL     1     -34.587  15.870  -2.948  1.00 20.00    -0.025 A 
HETATM    8  C9  UNL     1     -34.965  18.289  -3.676  1.00 20.00    -0.047 C 
HETATM    9  C10 UNL     1     -36.022  19.191  -4.342  1.00 20.00     0.015 C 
HETATM   10  C11 UNL     1     -33.629  18.506  -4.413  1.00 20.00     0.015 C 
ENDROOT
BRANCH   6  11
HETATM   11  C1  UNL     1     -35.478  13.867  -4.290  1.00 20.00     0.177 C 
HETATM   12  O12 UNL     1     -36.693  13.698  -3.994  1.00 20.00    -0.648 OA
HETATM   13  O13 UNL     1     -34.874  13.665  -5.380  1.00 20.00    -0.648 OA
ENDBRANCH   6  11
TORSDOF 1
ENDMDL
MODEL 6
REMARK VINA RESULT:      -4.6      2.531      3.776
REMARK  1 active torsions:
REMARK  status: ('A' for Active; 'I' for Inactive)
REMARK    1  A    between atoms: C1_1  and  C7_7 
ROOT
HETATM    1  C2  UNL     1     -33.700  13.591  -4.077  1.00 20.00     0.002 C 
HETATM    2  C3  UNL     1     -34.744  13.360  -5.163  1.00 20.00     0.010 C 
HETATM    3  C4  UNL     1     -34.188  14.609  -3.046  1.00 20.00     0.009 C 
HETATM    4  C5  UNL     1     -34.440  15.117  -7.060  1.00 20.00     0.026 A 
HETATM    5  C6  UNL     1     -35.631  15.712  -4.820  1.00 20.00     0.019 C 
HETATM    6  C7  UNL     1     -35.833  14.558  -7.174  1.00 20.00     0.096 A 
HETATM    7  C8  UNL     1     -35.158  14.663  -5.810  1.00 20.00    -0.025 A 
HETATM    8  C9  UNL     1     -34.617  15.955  -3.675  1.00 20.00    -0.047 C 
HETATM    9  C10 UNL     1     -35.291  16.816  -2.590  1.00 20.00     0.015 C 
HETATM   10  C11 UNL     1     -33.387  16.727  -4.193  1.00 20.00     0.015 C 
ENDROOT
BRANCH   6  11
HETATM   11  C1  UNL     1     -36.904  15.475  -7.512  1.00 20.00     0.177 C 
HETATM   12  O12 UNL     1     -36.532  16.611  -7.918  1.00 20.00    -0.648 OA
HETATM   13  O13 UNL     1     -38.068  15.013  -7.353  1.00 20.00    -0.648 OA
ENDBRANCH   6  11
TORSDOF 1
ENDMDL
MODEL 7
REMARK VINA RESULT:      -4.6      2.219      3.134
REMARK  1 active torsions:
REMARK  status: ('A' for Active; 'I' for Inactive)
REMARK    1  A    between atoms: C1_1  and  C7_7 
ROOT
HETATM    1  C2  UNL     1     -33.344  15.653  -4.461  1.00 20.00     0.002 C 
HETATM    2  C3  UNL     1     -34.601  14.919  -4.915  1.00 20.00     0.010 C 
HETATM    3  C4  UNL     1     -33.348  15.875  -2.949  1.00 20.00     0.009 C 
HETATM    4  C5  UNL     1     -36.499  16.639  -5.382  1.00 20.00     0.026 A 
HETATM    5  C6  UNL     1     -35.887  15.898  -2.960  1.00 20.00     0.019 C 
HETATM    6  C7  UNL     1     -37.141  15.290  -5.190  1.00 20.00     0.096 A 
HETATM    7  C8  UNL     1     -35.850  15.637  -4.455  1.00 20.00    -0.025 A 
HETATM    8  C9  UNL     1     -34.612  16.610  -2.444  1.00 20.00    -0.047 C 
HETATM    9  C10 UNL     1     -34.618  16.585  -0.904  1.00 20.00     0.015 C 
HETATM   10  C11 UNL     1     -34.595  18.085  -2.891  1.00 20.00     0.015 C 
ENDROOT
BRANCH   6  11
HETATM   11  C1  UNL     1     -38.388  15.234  -4.453  1.00 20.00     0.177 C 
HETATM   12  O12 UNL     1     -39.080  16.289  -4.484  1.00 20.00    -0.648 OA
HETATM   13  O13 UNL     1     -38.614  14.133  -3.876  1.00 20.00    -0.648 OA
ENDBRANCH   6  11
TORSDOF 1
ENDMDL
MODEL 8
REMARK VINA RESULT:      -4.5      2.634      4.175
REMARK  1 active torsions:
REMARK  status: ('A' for Active; 'I' for Inactive)
REMARK    1  A    between atoms: C1_1  and  C7_7 
ROOT
HETATM    1  C2  UNL     1     -33.096  15.963  -4.384  1.00 20.00     0.002 C 
HETATM    2  C3  UNL     1     -34.308  15.934  -3.460  1.00 20.00     0.010 C 
HETATM    3  C4  UNL     1     -33.369  16.807  -5.629  1.00 20.00     0.009 C 
HETATM    4  C5  UNL     1     -35.903  14.001  -4.168  1.00 20.00     0.026 A 
HETATM    5  C6  UNL     1     -35.844  16.268  -5.452  1.00 20.00     0.019 C 
HETATM    6  C7  UNL     1     -36.699  14.969  -3.332  1.00 20.00     0.096 A 
HETATM    7  C8  UNL     1     -35.546  15.469  -4.195  1.00 20.00    -0.025 A 
HETATM    8  C9  UNL     1     -34.628  16.357  -6.406  1.00 20.00    -0.047 C 
HETATM    9  C10 UNL     1     -34.932  17.398  -7.501  1.00 20.00     0.015 C 
HETATM   10  C11 UNL     1     -34.381  15.003  -7.100  1.00 20.00     0.015 C 
ENDROOT
BRANCH   6  11
HETATM   11  C1  UNL     1     -38.065  15.245  -3.734  1.00 20.00     0.177 C 
HETATM   12  O12 UNL     1     -38.652  14.301  -4.331  1.00 20.00    -0.648 OA
HETATM   13  O13 UNL     1     -38.482  16.399  -3.434  1.00 20.00    -0.648 OA
ENDBRANCH   6  11
TORSDOF 1
ENDMDL
MODEL 9
REMARK VINA RESULT:      -4.4      2.521      4.480
REMARK  1 active torsions:
REMARK  status: ('A' for Active; 'I' for Inactive)
REMARK    1  A    between atoms: C1_1  and  C7_7 
ROOT
HETATM    1  C2  UNL     1     -34.787  13.450  -5.081  1.00 20.00     0.002 C 
HETATM    2  C3  UNL     1     -34.299  14.021  -3.754  1.00 20.00     0.010 C 
HETATM    3  C4  UNL     1     -34.466  14.393  -6.241  1.00 20.00     0.009 C 
HETATM    4  C5  UNL     1     -36.134  15.563  -2.736  1.00 20.00     0.026 A 
HETATM    5  C6  UNL     1     -34.573  16.376  -4.658  1.00 20.00     0.019 C 
HETATM    6  C7  UNL     1     -34.824  15.916  -2.082  1.00 20.00     0.096 A 
HETATM    7  C8  UNL     1     -34.851  15.410  -3.520  1.00 20.00    -0.025 A 
HETATM    8  C9  UNL     1     -35.018  15.823  -6.035  1.00 20.00    -0.047 C 
HETATM    9  C10 UNL     1     -34.456  16.735  -7.141  1.00 20.00     0.015 C 
HETATM   10  C11 UNL     1     -36.555  15.832  -6.152  1.00 20.00     0.015 C 
ENDROOT
BRANCH   6  11
HETATM   11  C1  UNL     1     -34.554  17.317  -1.823  1.00 20.00     0.177 C 
HETATM   12  O12 UNL     1     -35.552  18.084  -1.917  1.00 20.00    -0.648 OA
HETATM   13  O13 UNL     1     -33.352  17.581  -1.538  1.00 20.00    -0.648 OA
ENDBRANCH   6  11
TORSDOF 1
ENDMDL
