MODEL 1
REMARK VINA RESULT:      -3.4      0.000      0.000
REMARK  0 active torsions:
REMARK  status: ('A' for Active; 'I' for Inactive)
ROOT
HETATM    1  C1  UNL     1     -33.145  14.136  -3.538  1.00 20.00     0.290 C 
HETATM    2  C2  UNL     1     -35.158  13.269  -4.383  1.00 20.00     0.344 C 
HETATM    3  C3  UNL     1     -33.873  15.481  -3.695  1.00 20.00     0.029 C 
HETATM    4  C4  UNL     1     -33.409  16.249  -4.939  1.00 20.00     0.028 C 
HETATM    5  C5  UNL     1     -33.733  16.346  -2.445  1.00 20.00     0.028 C 
HETATM    6  N6  UNL     1     -33.705  13.208  -4.524  1.00 20.00     0.093 N 
HETATM    7  S7  UNL     1     -35.610  14.966  -3.929  1.00 20.00    -0.128 SA
HETATM    8  H18 UNL     1     -33.454  13.532  -5.459  1.00 20.00     0.316 HD
ENDROOT
TORSDOF 0
ENDMDL
MODEL 2
REMARK VINA RESULT:      -3.2     11.503     12.626
REMARK  0 active torsions:
REMARK  status: ('A' for Active; 'I' for Inactive)
ROOT
HETATM    1  C1  UNL     1     -41.507   4.745  -0.104  1.00 20.00     0.290 C 
HETATM    2  C2  UNL     1     -41.540   3.853  -2.277  1.00 20.00     0.344 C 
HETATM    3  C3  UNL     1     -42.141   5.964  -0.794  1.00 20.00     0.029 C 
HETATM    4  C4  UNL     1     -41.128   7.093  -1.020  1.00 20.00     0.028 C 
HETATM    5  C5  UNL     1     -43.356   6.476  -0.025  1.00 20.00     0.028 C 
HETATM    6  N6  UNL     1     -40.694   4.042  -1.101  1.00 20.00     0.093 N 
HETATM    7  S7  UNL     1     -42.645   5.285  -2.413  1.00 20.00    -0.128 SA
HETATM    8  H18 UNL     1     -39.905   4.635  -1.358  1.00 20.00     0.316 HD
ENDROOT
TORSDOF 0
ENDMDL
MODEL 3
REMARK VINA RESULT:      -3.2      1.984      2.537
REMARK  0 active torsions:
REMARK  status: ('A' for Active; 'I' for Inactive)
ROOT
HETATM    1  C1  UNL     1     -34.029  15.930  -4.601  1.00 20.00     0.290 C 
HETATM    2  C2  UNL     1     -33.344  13.838  -3.780  1.00 20.00     0.344 C 
HETATM    3  C3  UNL     1     -34.943  15.074  -5.493  1.00 20.00     0.029 C 
HETATM    4  C4  UNL     1     -34.405  14.950  -6.923  1.00 20.00     0.028 C 
HETATM    5  C5  UNL     1     -36.376  15.601  -5.498  1.00 20.00     0.028 C 
HETATM    6  N6  UNL     1     -32.851  15.124  -4.267  1.00 20.00     0.093 N 
HETATM    7  S7  UNL     1     -34.864  13.437  -4.685  1.00 20.00    -0.128 SA
HETATM    8  H18 UNL     1     -32.310  14.965  -5.117  1.00 20.00     0.316 HD
ENDROOT
TORSDOF 0
ENDMDL
MODEL 4
REMARK VINA RESULT:      -3.2      1.581      2.857
REMARK  0 active torsions:
REMARK  status: ('A' for Active; 'I' for Inactive)
ROOT
HETATM    1  C1  UNL     1     -34.643  13.215  -4.893  1.00 20.00     0.290 C 
HETATM    2  C2  UNL     1     -33.140  14.566  -3.696  1.00 20.00     0.344 C 
HETATM    3  C3  UNL     1     -35.442  14.524  -5.007  1.00 20.00     0.029 C 
HETATM    4  C4  UNL     1     -36.623  14.568  -4.032  1.00 20.00     0.028 C 
HETATM    5  C5  UNL     1     -35.913  14.771  -6.438  1.00 20.00     0.028 C 
HETATM    6  N6  UNL     1     -33.844  13.286  -3.667  1.00 20.00     0.093 N 
HETATM    7  S7  UNL     1     -34.213  15.781  -4.510  1.00 20.00    -0.128 SA
HETATM    8  H18 UNL     1     -34.473  13.278  -2.864  1.00 20.00     0.316 HD
ENDROOT
TORSDOF 0
ENDMDL
MODEL 5
REMARK VINA RESULT:      -3.2      1.310      1.666
REMARK  0 active torsions:
REMARK  status: ('A' for Active; 'I' for Inactive)
ROOT
HETATM    1  C1  UNL     1     -34.892  13.629  -3.864  1.00 20.00     0.290 C 
HETATM    2  C2  UNL     1     -34.988  14.307  -6.111  1.00 20.00     0.344 C 
HETATM    3  C3  UNL     1     -34.071  14.918  -3.702  1.00 20.00     0.029 C 
HETATM    4  C4  UNL     1     -32.566  14.639  -3.607  1.00 20.00     0.028 C 
HETATM    5  C5  UNL     1     -34.544  15.739  -2.505  1.00 20.00     0.028 C 
HETATM    6  N6  UNL     1     -34.722  13.163  -5.243  1.00 20.00     0.093 N 
HETATM    7  S7  UNL     1     -34.413  15.804  -5.263  1.00 20.00    -0.128 SA
HETATM    8  H18 UNL     1     -33.753  12.872  -5.375  1.00 20.00     0.316 HD
ENDROOT
TORSDOF 0
ENDMDL
MODEL 6
REMARK VINA RESULT:      -3.2      1.675      2.662
REMARK  0 active torsions:
REMARK  status: ('A' for Active; 'I' for Inactive)
ROOT
HETATM    1  C1  UNL     1     -33.867  14.678  -4.054  1.00 20.00     0.290 C 
HETATM    2  C2  UNL     1     -33.282  16.655  -5.180  1.00 20.00     0.344 C 
HETATM    3  C3  UNL     1     -34.970  15.565  -3.453  1.00 20.00     0.029 C 
HETATM    4  C4  UNL     1     -34.643  16.006  -2.022  1.00 20.00     0.028 C 
HETATM    5  C5  UNL     1     -36.333  14.881  -3.508  1.00 20.00     0.028 C 
HETATM    6  N6  UNL     1     -32.738  15.545  -4.401  1.00 20.00     0.093 N 
HETATM    7  S7  UNL     1     -34.941  17.028  -4.547  1.00 20.00    -0.128 SA
HETATM    8  H18 UNL     1     -32.333  15.918  -3.542  1.00 20.00     0.316 HD
ENDROOT
TORSDOF 0
ENDMDL
MODEL 7
REMARK VINA RESULT:      -3.1      1.630      2.231
REMARK  0 active torsions:
REMARK  status: ('A' for Active; 'I' for Inactive)
ROOT
HETATM    1  C1  UNL     1     -35.698  15.524  -4.443  1.00 20.00     0.290 C 
HETATM    2  C2  UNL     1     -35.148  13.244  -4.324  1.00 20.00     0.344 C 
HETATM    3  C3  UNL     1     -34.392  15.691  -3.649  1.00 20.00     0.029 C 
HETATM    4  C4  UNL     1     -34.650  15.947  -2.159  1.00 20.00     0.028 C 
HETATM    5  C5  UNL     1     -33.511  16.788  -4.240  1.00 20.00     0.028 C 
HETATM    6  N6  UNL     1     -36.239  14.197  -4.137  1.00 20.00     0.093 N 
HETATM    7  S7  UNL     1     -33.599  14.057  -3.842  1.00 20.00    -0.128 SA
HETATM    8  H18 UNL     1     -36.526  14.176  -3.159  1.00 20.00     0.316 HD
ENDROOT
TORSDOF 0
ENDMDL
MODEL 8
REMARK VINA RESULT:      -3.1      1.613      1.920
REMARK  0 active torsions:
REMARK  status: ('A' for Active; 'I' for Inactive)
ROOT
HETATM    1  C1  UNL     1     -34.078  14.149  -4.448  1.00 20.00     0.290 C 
HETATM    2  C2  UNL     1     -36.377  14.377  -4.023  1.00 20.00     0.344 C 
HETATM    3  C3  UNL     1     -34.314  15.366  -5.358  1.00 20.00     0.029 C 
HETATM    4  C4  UNL     1     -34.388  14.976  -6.839  1.00 20.00     0.028 C 
HETATM    5  C5  UNL     1     -33.258  16.446  -5.136  1.00 20.00     0.028 C 
HETATM    6  N6  UNL     1     -35.339  13.406  -4.362  1.00 20.00     0.093 N 
HETATM    7  S7  UNL     1     -35.957  15.953  -4.815  1.00 20.00    -0.128 SA
HETATM    8  H18 UNL     1     -35.550  13.009  -5.278  1.00 20.00     0.316 HD
ENDROOT
TORSDOF 0
ENDMDL
MODEL 9
REMARK VINA RESULT:      -3.0     11.373     12.997
REMARK  0 active torsions:
REMARK  status: ('A' for Active; 'I' for Inactive)
ROOT
HETATM    1  C1  UNL     1     -40.647   4.677  -0.966  1.00 20.00     0.290 C 
HETATM    2  C2  UNL     1     -41.306   6.890  -1.400  1.00 20.00     0.344 C 
HETATM    3  C3  UNL     1     -41.972   4.340  -1.668  1.00 20.00     0.029 C 
HETATM    4  C4  UNL     1     -43.074   3.959  -0.673  1.00 20.00     0.028 C 
HETATM    5  C5  UNL     1     -41.789   3.245  -2.716  1.00 20.00     0.028 C 
HETATM    6  N6  UNL     1     -40.789   6.004  -0.359  1.00 20.00     0.093 N 
HETATM    7  S7  UNL     1     -42.413   5.924  -2.465  1.00 20.00    -0.128 SA
HETATM    8  H18 UNL     1     -41.476   5.949   0.393  1.00 20.00     0.316 HD
ENDROOT
TORSDOF 0
ENDMDL
