MODEL 1
REMARK VINA RESULT:      -4.2      0.000      0.000
REMARK  4 active torsions:
REMARK  status: ('A' for Active; 'I' for Inactive)
REMARK    1  A    between atoms: C2_2  and  C8_8 
REMARK    2  A    between atoms: C2_2  and  C9_9 
REMARK    3  A    between atoms: C3_3  and  C8_8 
REMARK    4  A    between atoms: C3_3  and  C10_10 
ROOT
HETATM    1  C3  UNL     1     -33.869  15.634  -4.803  1.00 20.00     0.138 C 
HETATM    2  O11 UNL     1     -33.427  16.377  -5.683  1.00 20.00    -0.297 OA
ENDROOT
BRANCH   1   3
HETATM    3  C8  UNL     1     -33.267  15.642  -3.399  1.00 20.00     0.112 C 
BRANCH   3   4
HETATM    4  C2  UNL     1     -33.915  16.695  -2.536  1.00 20.00    -0.083 C 
HETATM    5  C1  UNL     1     -33.715  18.002  -2.770  1.00 20.00     0.014 C 
BRANCH   4   6
HETATM    6  C9  UNL     1     -34.791  16.230  -1.395  1.00 20.00     0.029 C 
HETATM    7  C4  UNL     1     -34.700  17.134  -0.174  1.00 20.00     0.010 C 
ENDBRANCH   4   6
ENDBRANCH   3   4
ENDBRANCH   1   3
BRANCH   1   8
HETATM    8  C10 UNL     1     -35.056  14.687  -5.075  1.00 20.00     0.010 C 
HETATM    9  C5  UNL     1     -34.912  13.436  -4.199  1.00 20.00     0.022 C 
HETATM   10  C6  UNL     1     -36.385  15.397  -4.784  1.00 20.00     0.022 C 
HETATM   11  C7  UNL     1     -35.046  14.261  -6.554  1.00 20.00     0.022 C 
ENDBRANCH   1   8
TORSDOF 4
ENDMDL
MODEL 2
REMARK VINA RESULT:      -4.2      1.091      1.690
REMARK  4 active torsions:
REMARK  status: ('A' for Active; 'I' for Inactive)
REMARK    1  A    between atoms: C2_2  and  C8_8 
REMARK    2  A    between atoms: C2_2  and  C9_9 
REMARK    3  A    between atoms: C3_3  and  C8_8 
REMARK    4  A    between atoms: C3_3  and  C10_10 
ROOT
HETATM    1  C3  UNL     1     -33.876  16.185  -4.420  1.00 20.00     0.138 C 
HETATM    2  O11 UNL     1     -32.778  16.426  -4.928  1.00 20.00    -0.297 OA
ENDROOT
BRANCH   1   3
HETATM    3  C8  UNL     1     -34.699  17.298  -3.774  1.00 20.00     0.112 C 
BRANCH   3   4
HETATM    4  C2  UNL     1     -33.932  17.962  -2.658  1.00 20.00    -0.083 C 
HETATM    5  C1  UNL     1     -33.579  19.255  -2.734  1.00 20.00     0.014 C 
BRANCH   4   6
HETATM    6  C9  UNL     1     -33.568  17.122  -1.456  1.00 20.00     0.029 C 
HETATM    7  C4  UNL     1     -34.776  16.750  -0.607  1.00 20.00     0.010 C 
ENDBRANCH   4   6
ENDBRANCH   3   4
ENDBRANCH   1   3
BRANCH   1   8
HETATM    8  C10 UNL     1     -34.471  14.762  -4.436  1.00 20.00     0.010 C 
HETATM    9  C5  UNL     1     -35.785  14.758  -3.643  1.00 20.00     0.022 C 
HETATM   10  C6  UNL     1     -34.714  14.300  -5.879  1.00 20.00     0.022 C 
HETATM   11  C7  UNL     1     -33.487  13.784  -3.770  1.00 20.00     0.022 C 
ENDBRANCH   1   8
TORSDOF 4
ENDMDL
MODEL 3
REMARK VINA RESULT:      -4.2      0.963      1.723
REMARK  4 active torsions:
REMARK  status: ('A' for Active; 'I' for Inactive)
REMARK    1  A    between atoms: C2_2  and  C8_8 
REMARK    2  A    between atoms: C2_2  and  C9_9 
REMARK    3  A    between atoms: C3_3  and  C8_8 
REMARK    4  A    between atoms: C3_3  and  C10_10 
ROOT
HETATM    1  C3  UNL     1     -33.950  16.090  -4.365  1.00 20.00     0.138 C 
HETATM    2  O11 UNL     1     -32.827  16.389  -4.779  1.00 20.00    -0.297 OA
ENDROOT
BRANCH   1   3
HETATM    3  C8  UNL     1     -34.825  17.124  -3.660  1.00 20.00     0.112 C 
BRANCH   3   4
HETATM    4  C2  UNL     1     -34.251  17.496  -2.317  1.00 20.00    -0.083 C 
HETATM    5  C1  UNL     1     -33.564  18.638  -2.149  1.00 20.00     0.014 C 
BRANCH   4   6
HETATM    6  C9  UNL     1     -34.468  16.538  -1.168  1.00 20.00     0.029 C 
HETATM    7  C4  UNL     1     -34.867  17.242   0.122  1.00 20.00     0.010 C 
ENDBRANCH   4   6
ENDBRANCH   3   4
ENDBRANCH   1   3
BRANCH   1   8
HETATM    8  C10 UNL     1     -34.522  14.670  -4.559  1.00 20.00     0.010 C 
HETATM    9  C5  UNL     1     -34.651  14.381  -6.061  1.00 20.00     0.022 C 
HETATM   10  C6  UNL     1     -33.615  13.631  -3.888  1.00 20.00     0.022 C 
HETATM   11  C7  UNL     1     -35.918  14.585  -3.917  1.00 20.00     0.022 C 
ENDBRANCH   1   8
TORSDOF 4
ENDMDL
MODEL 4
REMARK VINA RESULT:      -4.2      1.528      2.465
REMARK  4 active torsions:
REMARK  status: ('A' for Active; 'I' for Inactive)
REMARK    1  A    between atoms: C2_2  and  C8_8 
REMARK    2  A    between atoms: C2_2  and  C9_9 
REMARK    3  A    between atoms: C3_3  and  C8_8 
REMARK    4  A    between atoms: C3_3  and  C10_10 
ROOT
HETATM    1  C3  UNL     1     -35.037  14.029  -5.089  1.00 20.00     0.138 C 
HETATM    2  O11 UNL     1     -34.786  12.855  -5.372  1.00 20.00    -0.297 OA
ENDROOT
BRANCH   1   3
HETATM    3  C8  UNL     1     -35.077  14.491  -3.633  1.00 20.00     0.112 C 
BRANCH   3   4
HETATM    4  C2  UNL     1     -33.767  15.117  -3.227  1.00 20.00    -0.083 C 
HETATM    5  C1  UNL     1     -32.599  14.502  -3.471  1.00 20.00     0.014 C 
BRANCH   4   6
HETATM    6  C9  UNL     1     -33.814  16.457  -2.529  1.00 20.00     0.029 C 
HETATM    7  C4  UNL     1     -34.650  16.433  -1.257  1.00 20.00     0.010 C 
ENDBRANCH   4   6
ENDBRANCH   3   4
ENDBRANCH   1   3
BRANCH   1   8
HETATM    8  C10 UNL     1     -35.300  15.079  -6.188  1.00 20.00     0.010 C 
HETATM    9  C5  UNL     1     -36.412  16.028  -5.721  1.00 20.00     0.022 C 
HETATM   10  C6  UNL     1     -34.018  15.865  -6.494  1.00 20.00     0.022 C 
HETATM   11  C7  UNL     1     -35.759  14.373  -7.476  1.00 20.00     0.022 C 
ENDBRANCH   1   8
TORSDOF 4
ENDMDL
MODEL 5
REMARK VINA RESULT:      -4.2      1.171      1.672
REMARK  4 active torsions:
REMARK  status: ('A' for Active; 'I' for Inactive)
REMARK    1  A    between atoms: C2_2  and  C8_8 
REMARK    2  A    between atoms: C2_2  and  C9_9 
REMARK    3  A    between atoms: C3_3  and  C8_8 
REMARK    4  A    between atoms: C3_3  and  C10_10 
ROOT
HETATM    1  C3  UNL     1     -33.853  15.073  -3.537  1.00 20.00     0.138 C 
HETATM    2  O11 UNL     1     -32.633  14.892  -3.556  1.00 20.00    -0.297 OA
ENDROOT
BRANCH   1   3
HETATM    3  C8  UNL     1     -34.526  15.743  -2.341  1.00 20.00     0.112 C 
BRANCH   3   4
HETATM    4  C2  UNL     1     -34.032  17.156  -2.162  1.00 20.00    -0.083 C 
HETATM    5  C1  UNL     1     -33.884  17.977  -3.214  1.00 20.00     0.014 C 
BRANCH   4   6
HETATM    6  C9  UNL     1     -33.703  17.615  -0.760  1.00 20.00     0.029 C 
HETATM    7  C4  UNL     1     -34.818  17.324   0.235  1.00 20.00     0.010 C 
ENDBRANCH   4   6
ENDBRANCH   3   4
ENDBRANCH   1   3
BRANCH   1   8
HETATM    8  C10 UNL     1     -34.743  14.650  -4.725  1.00 20.00     0.010 C 
HETATM    9  C5  UNL     1     -36.201  15.011  -4.413  1.00 20.00     0.022 C 
HETATM   10  C6  UNL     1     -34.282  15.345  -6.013  1.00 20.00     0.022 C 
HETATM   11  C7  UNL     1     -34.642  13.128  -4.928  1.00 20.00     0.022 C 
ENDBRANCH   1   8
TORSDOF 4
ENDMDL
MODEL 6
REMARK VINA RESULT:      -4.2      1.845      2.760
REMARK  4 active torsions:
REMARK  status: ('A' for Active; 'I' for Inactive)
REMARK    1  A    between atoms: C2_2  and  C8_8 
REMARK    2  A    between atoms: C2_2  and  C9_9 
REMARK    3  A    between atoms: C3_3  and  C8_8 
REMARK    4  A    between atoms: C3_3  and  C10_10 
ROOT
HETATM    1  C3  UNL     1     -36.357  14.419  -4.412  1.00 20.00     0.138 C 
HETATM    2  O11 UNL     1     -37.416  14.250  -3.803  1.00 20.00    -0.297 OA
ENDROOT
BRANCH   1   3
HETATM    3  C8  UNL     1     -35.045  13.855  -3.871  1.00 20.00     0.112 C 
BRANCH   3   4
HETATM    4  C2  UNL     1     -34.207  14.938  -3.240  1.00 20.00    -0.083 C 
HETATM    5  C1  UNL     1     -32.950  15.170  -3.652  1.00 20.00     0.014 C 
BRANCH   4   6
HETATM    6  C9  UNL     1     -34.827  15.749  -2.125  1.00 20.00     0.029 C 
HETATM    7  C4  UNL     1     -33.910  16.852  -1.616  1.00 20.00     0.010 C 
ENDBRANCH   4   6
ENDBRANCH   3   4
ENDBRANCH   1   3
BRANCH   1   8
HETATM    8  C10 UNL     1     -36.317  15.186  -5.751  1.00 20.00     0.010 C 
HETATM    9  C5  UNL     1     -35.945  16.650  -5.480  1.00 20.00     0.022 C 
HETATM   10  C6  UNL     1     -35.304  14.541  -6.706  1.00 20.00     0.022 C 
HETATM   11  C7  UNL     1     -37.706  15.142  -6.411  1.00 20.00     0.022 C 
ENDBRANCH   1   8
TORSDOF 4
ENDMDL
MODEL 7
REMARK VINA RESULT:      -4.0      1.707      3.185
REMARK  4 active torsions:
REMARK  status: ('A' for Active; 'I' for Inactive)
REMARK    1  A    between atoms: C2_2  and  C8_8 
REMARK    2  A    between atoms: C2_2  and  C9_9 
REMARK    3  A    between atoms: C3_3  and  C8_8 
REMARK    4  A    between atoms: C3_3  and  C10_10 
ROOT
HETATM    1  C3  UNL     1     -33.651  17.084  -5.145  1.00 20.00     0.138 C 
HETATM    2  O11 UNL     1     -33.495  18.228  -4.712  1.00 20.00    -0.297 OA
ENDROOT
BRANCH   1   3
HETATM    3  C8  UNL     1     -32.936  15.899  -4.498  1.00 20.00     0.112 C 
BRANCH   3   4
HETATM    4  C2  UNL     1     -33.805  15.247  -3.452  1.00 20.00    -0.083 C 
HETATM    5  C1  UNL     1     -34.339  15.964  -2.450  1.00 20.00     0.014 C 
BRANCH   4   6
HETATM    6  C9  UNL     1     -34.047  13.759  -3.565  1.00 20.00     0.029 C 
HETATM    7  C4  UNL     1     -35.373  13.425  -4.234  1.00 20.00     0.010 C 
ENDBRANCH   4   6
ENDBRANCH   3   4
ENDBRANCH   1   3
BRANCH   1   8
HETATM    8  C10 UNL     1     -34.586  16.800  -6.340  1.00 20.00     0.010 C 
HETATM    9  C5  UNL     1     -34.461  17.942  -7.357  1.00 20.00     0.022 C 
HETATM   10  C6  UNL     1     -34.229  15.458  -6.991  1.00 20.00     0.022 C 
HETATM   11  C7  UNL     1     -36.043  16.731  -5.848  1.00 20.00     0.022 C 
ENDBRANCH   1   8
TORSDOF 4
ENDMDL
MODEL 8
REMARK VINA RESULT:      -4.0      1.074      4.165
REMARK  4 active torsions:
REMARK  status: ('A' for Active; 'I' for Inactive)
REMARK    1  A    between atoms: C2_2  and  C8_8 
REMARK    2  A    between atoms: C2_2  and  C9_9 
REMARK    3  A    between atoms: C3_3  and  C8_8 
REMARK    4  A    between atoms: C3_3  and  C10_10 
ROOT
HETATM    1  C3  UNL     1     -33.549  16.462  -4.001  1.00 20.00     0.138 C 
HETATM    2  O11 UNL     1     -33.002  17.143  -4.872  1.00 20.00    -0.297 OA
ENDROOT
BRANCH   1   3
HETATM    3  C8  UNL     1     -33.351  14.948  -3.952  1.00 20.00     0.112 C 
BRANCH   3   4
HETATM    4  C2  UNL     1     -34.401  14.237  -4.768  1.00 20.00    -0.083 C 
HETATM    5  C1  UNL     1     -35.183  13.293  -4.220  1.00 20.00     0.014 C 
BRANCH   4   6
HETATM    6  C9  UNL     1     -34.538  14.617  -6.225  1.00 20.00     0.029 C 
HETATM    7  C4  UNL     1     -35.922  15.149  -6.570  1.00 20.00     0.010 C 
ENDBRANCH   4   6
ENDBRANCH   3   4
ENDBRANCH   1   3
BRANCH   1   8
HETATM    8  C10 UNL     1     -34.434  17.111  -2.916  1.00 20.00     0.010 C 
HETATM    9  C5  UNL     1     -35.823  17.392  -3.504  1.00 20.00     0.022 C 
HETATM   10  C6  UNL     1     -34.544  16.190  -1.694  1.00 20.00     0.022 C 
HETATM   11  C7  UNL     1     -33.807  18.443  -2.468  1.00 20.00     0.022 C 
ENDBRANCH   1   8
TORSDOF 4
ENDMDL
MODEL 9
REMARK VINA RESULT:      -4.0      1.754      4.225
REMARK  4 active torsions:
REMARK  status: ('A' for Active; 'I' for Inactive)
REMARK    1  A    between atoms: C2_2  and  C8_8 
REMARK    2  A    between atoms: C2_2  and  C9_9 
REMARK    3  A    between atoms: C3_3  and  C8_8 
REMARK    4  A    between atoms: C3_3  and  C10_10 
ROOT
HETATM    1  C3  UNL     1     -34.119  16.299  -4.543  1.00 20.00     0.138 C 
HETATM    2  O11 UNL     1     -32.929  16.616  -4.601  1.00 20.00    -0.297 OA
ENDROOT
BRANCH   1   3
HETATM    3  C8  UNL     1     -35.126  16.857  -5.547  1.00 20.00     0.112 C 
BRANCH   3   4
HETATM    4  C2  UNL     1     -34.665  16.625  -6.964  1.00 20.00    -0.083 C 
HETATM    5  C1  UNL     1     -34.509  17.650  -7.817  1.00 20.00     0.014 C 
BRANCH   4   6
HETATM    6  C9  UNL     1     -34.393  15.202  -7.392  1.00 20.00     0.029 C 
HETATM    7  C4  UNL     1     -35.639  14.328  -7.367  1.00 20.00     0.010 C 
ENDBRANCH   4   6
ENDBRANCH   3   4
ENDBRANCH   1   3
BRANCH   1   8
HETATM    8  C10 UNL     1     -34.635  15.314  -3.472  1.00 20.00     0.010 C 
HETATM    9  C5  UNL     1     -36.138  15.086  -3.682  1.00 20.00     0.022 C 
HETATM   10  C6  UNL     1     -33.873  13.985  -3.557  1.00 20.00     0.022 C 
HETATM   11  C7  UNL     1     -34.415  15.914  -2.072  1.00 20.00     0.022 C 
ENDBRANCH   1   8
TORSDOF 4
ENDMDL
