MODEL 1
REMARK VINA RESULT:      -4.3      0.000      0.000
REMARK  3 active torsions:
REMARK  status: ('A' for Active; 'I' for Inactive)
REMARK    1  A    between atoms: C1_1  and  C5_5 
REMARK    2  A    between atoms: C3_3  and  C5_5 
REMARK    3  A    between atoms: C4_4  and  C5_5 
ROOT
HETATM    1  C5  UNL     1     -33.892   5.515   5.127  1.00 20.00     0.085 C 
ENDROOT
BRANCH   1   2
HETATM    2  C1  UNL     1     -35.068   4.719   4.559  1.00 20.00     0.224 C 
HETATM    3  O6  UNL     1     -35.260   3.542   4.856  1.00 20.00    -0.279 OA
HETATM    4 CL7  UNL     1     -36.061   5.661   3.483  1.00 20.00    -0.043 Cl
ENDBRANCH   1   2
BRANCH   1   5
HETATM    5  C3  UNL     1     -33.497   6.629   4.141  1.00 20.00     0.010 C 
HETATM    6  C2  UNL     1     -32.372   6.214   3.202  1.00 20.00     0.006 C 
ENDBRANCH   1   5
BRANCH   1   7
HETATM    7  C4  UNL     1     -34.283   6.125   6.478  1.00 20.00     0.128 C 
HETATM    8 CL8  UNL     1     -33.223   7.492   6.908  1.00 20.00    -0.130 Cl
ENDBRANCH   1   7
TORSDOF 3
ENDMDL
MODEL 2
REMARK VINA RESULT:      -4.1      2.182      3.102
REMARK  3 active torsions:
REMARK  status: ('A' for Active; 'I' for Inactive)
REMARK    1  A    between atoms: C1_1  and  C5_5 
REMARK    2  A    between atoms: C3_3  and  C5_5 
REMARK    3  A    between atoms: C4_4  and  C5_5 
ROOT
HETATM    1  C5  UNL     1     -34.053   6.420   4.283  1.00 20.00     0.085 C 
ENDROOT
BRANCH   1   2
HETATM    2  C1  UNL     1     -34.075   6.145   5.788  1.00 20.00     0.224 C 
HETATM    3  O6  UNL     1     -33.544   6.905   6.595  1.00 20.00    -0.279 OA
HETATM    4 CL7  UNL     1     -34.917   4.676   6.191  1.00 20.00    -0.043 Cl
ENDBRANCH   1   2
BRANCH   1   5
HETATM    5  C3  UNL     1     -32.621   6.255   3.747  1.00 20.00     0.010 C 
HETATM    6  C2  UNL     1     -32.133   7.478   2.983  1.00 20.00     0.006 C 
ENDBRANCH   1   5
BRANCH   1   7
HETATM    7  C4  UNL     1     -34.997   5.448   3.566  1.00 20.00     0.128 C 
HETATM    8 CL8  UNL     1     -34.297   4.870   2.032  1.00 20.00    -0.130 Cl
ENDBRANCH   1   7
TORSDOF 3
ENDMDL
MODEL 3
REMARK VINA RESULT:      -4.0      2.063      2.796
REMARK  3 active torsions:
REMARK  status: ('A' for Active; 'I' for Inactive)
REMARK    1  A    between atoms: C1_1  and  C5_5 
REMARK    2  A    between atoms: C3_3  and  C5_5 
REMARK    3  A    between atoms: C4_4  and  C5_5 
ROOT
HETATM    1  C5  UNL     1     -34.350   6.118   4.572  1.00 20.00     0.085 C 
ENDROOT
BRANCH   1   2
HETATM    2  C1  UNL     1     -33.521   6.021   3.290  1.00 20.00     0.224 C 
HETATM    3  O6  UNL     1     -33.859   5.306   2.350  1.00 20.00    -0.279 OA
HETATM    4 CL7  UNL     1     -32.094   7.018   3.336  1.00 20.00    -0.043 Cl
ENDBRANCH   1   2
BRANCH   1   5
HETATM    5  C3  UNL     1     -35.298   4.910   4.668  1.00 20.00     0.010 C 
HETATM    6  C2  UNL     1     -35.010   4.030   5.878  1.00 20.00     0.006 C 
ENDBRANCH   1   5
BRANCH   1   7
HETATM    7  C4  UNL     1     -33.419   6.154   5.790  1.00 20.00     0.128 C 
HETATM    8 CL8  UNL     1     -33.873   7.456   6.920  1.00 20.00    -0.130 Cl
ENDBRANCH   1   7
TORSDOF 3
ENDMDL
MODEL 4
REMARK VINA RESULT:      -4.0      2.170      2.825
REMARK  3 active torsions:
REMARK  status: ('A' for Active; 'I' for Inactive)
REMARK    1  A    between atoms: C1_1  and  C5_5 
REMARK    2  A    between atoms: C3_3  and  C5_5 
REMARK    3  A    between atoms: C4_4  and  C5_5 
ROOT
HETATM    1  C5  UNL     1     -33.939   6.437   4.402  1.00 20.00     0.085 C 
ENDROOT
BRANCH   1   2
HETATM    2  C1  UNL     1     -34.559   5.238   3.683  1.00 20.00     0.224 C 
HETATM    3  O6  UNL     1     -34.540   5.134   2.459  1.00 20.00    -0.279 OA
HETATM    4 CL7  UNL     1     -35.265   4.086   4.781  1.00 20.00    -0.043 Cl
ENDBRANCH   1   2
BRANCH   1   5
HETATM    5  C3  UNL     1     -34.024   6.228   5.924  1.00 20.00     0.010 C 
HETATM    6  C2  UNL     1     -33.360   7.350   6.711  1.00 20.00     0.006 C 
ENDBRANCH   1   5
BRANCH   1   7
HETATM    7  C4  UNL     1     -32.475   6.598   3.975  1.00 20.00     0.128 C 
HETATM    8 CL8  UNL     1     -32.321   7.691   2.575  1.00 20.00    -0.130 Cl
ENDBRANCH   1   7
TORSDOF 3
ENDMDL
MODEL 5
REMARK VINA RESULT:      -3.9     12.020     12.440
REMARK  3 active torsions:
REMARK  status: ('A' for Active; 'I' for Inactive)
REMARK    1  A    between atoms: C1_1  and  C5_5 
REMARK    2  A    between atoms: C3_3  and  C5_5 
REMARK    3  A    between atoms: C4_4  and  C5_5 
ROOT
HETATM    1  C5  UNL     1     -34.345  14.598  -3.086  1.00 20.00     0.085 C 
ENDROOT
BRANCH   1   2
HETATM    2  C1  UNL     1     -35.185  13.765  -4.057  1.00 20.00     0.224 C 
HETATM    3  O6  UNL     1     -34.757  12.731  -4.564  1.00 20.00    -0.279 OA
HETATM    4 CL7  UNL     1     -36.763  14.446  -4.336  1.00 20.00    -0.043 Cl
ENDBRANCH   1   2
BRANCH   1   5
HETATM    5  C3  UNL     1     -33.036  15.026  -3.771  1.00 20.00     0.010 C 
HETATM    6  C2  UNL     1     -33.222  16.207  -4.715  1.00 20.00     0.006 C 
ENDBRANCH   1   5
BRANCH   1   7
HETATM    7  C4  UNL     1     -35.137  15.835  -2.647  1.00 20.00     0.128 C 
HETATM    8 CL8  UNL     1     -34.616  16.407  -1.041  1.00 20.00    -0.130 Cl
ENDBRANCH   1   7
TORSDOF 3
ENDMDL
MODEL 6
REMARK VINA RESULT:      -3.8     12.019     12.887
REMARK  3 active torsions:
REMARK  status: ('A' for Active; 'I' for Inactive)
REMARK    1  A    between atoms: C1_1  and  C5_5 
REMARK    2  A    between atoms: C3_3  and  C5_5 
REMARK    3  A    between atoms: C4_4  and  C5_5 
ROOT
HETATM    1  C5  UNL     1     -34.996  15.056  -3.528  1.00 20.00     0.085 C 
ENDROOT
BRANCH   1   2
HETATM    2  C1  UNL     1     -34.409  13.678  -3.838  1.00 20.00     0.224 C 
HETATM    3  O6  UNL     1     -35.097  12.764  -4.285  1.00 20.00    -0.279 OA
HETATM    4 CL7  UNL     1     -32.705  13.579  -3.490  1.00 20.00    -0.043 Cl
ENDBRANCH   1   2
BRANCH   1   5
HETATM    5  C3  UNL     1     -34.020  15.847  -2.639  1.00 20.00     0.010 C 
HETATM    6  C2  UNL     1     -34.679  16.394  -1.380  1.00 20.00     0.006 C 
ENDBRANCH   1   5
BRANCH   1   7
HETATM    7  C4  UNL     1     -35.250  15.817  -4.834  1.00 20.00     0.128 C 
HETATM    8 CL8  UNL     1     -33.730  16.414  -5.548  1.00 20.00    -0.130 Cl
ENDBRANCH   1   7
TORSDOF 3
ENDMDL
MODEL 7
REMARK VINA RESULT:      -3.7      1.847      3.117
REMARK  3 active torsions:
REMARK  status: ('A' for Active; 'I' for Inactive)
REMARK    1  A    between atoms: C1_1  and  C5_5 
REMARK    2  A    between atoms: C3_3  and  C5_5 
REMARK    3  A    between atoms: C4_4  and  C5_5 
ROOT
HETATM    1  C5  UNL     1     -33.937   5.398   4.900  1.00 20.00     0.085 C 
ENDROOT
BRANCH   1   2
HETATM    2  C1  UNL     1     -34.348   5.868   6.297  1.00 20.00     0.224 C 
HETATM    3  O6  UNL     1     -35.222   5.297   6.944  1.00 20.00    -0.279 OA
HETATM    4 CL7  UNL     1     -33.448   7.261   6.829  1.00 20.00    -0.043 Cl
ENDBRANCH   1   2
BRANCH   1   5
HETATM    5  C3  UNL     1     -35.148   4.771   4.188  1.00 20.00     0.010 C 
HETATM    6  C2  UNL     1     -35.986   5.797   3.437  1.00 20.00     0.006 C 
ENDBRANCH   1   5
BRANCH   1   7
HETATM    7  C4  UNL     1     -33.407   6.586   4.089  1.00 20.00     0.128 C 
HETATM    8 CL8  UNL     1     -32.098   6.090   2.985  1.00 20.00    -0.130 Cl
ENDBRANCH   1   7
TORSDOF 3
ENDMDL
MODEL 8
REMARK VINA RESULT:      -3.6     12.346     13.084
REMARK  3 active torsions:
REMARK  status: ('A' for Active; 'I' for Inactive)
REMARK    1  A    between atoms: C1_1  and  C5_5 
REMARK    2  A    between atoms: C3_3  and  C5_5 
REMARK    3  A    between atoms: C4_4  and  C5_5 
ROOT
HETATM    1  C5  UNL     1     -35.638  15.776  -3.524  1.00 20.00     0.085 C 
ENDROOT
BRANCH   1   2
HETATM    2  C1  UNL     1     -36.262  14.416  -3.846  1.00 20.00     0.224 C 
HETATM    3  O6  UNL     1     -37.471  14.219  -3.757  1.00 20.00    -0.279 OA
HETATM    4 CL7  UNL     1     -35.081  13.235  -4.336  1.00 20.00    -0.043 Cl
ENDBRANCH   1   2
BRANCH   1   5
HETATM    5  C3  UNL     1     -34.492  15.594  -2.514  1.00 20.00     0.010 C 
HETATM    6  C2  UNL     1     -34.663  16.451  -1.267  1.00 20.00     0.006 C 
ENDBRANCH   1   5
BRANCH   1   7
HETATM    7  C4  UNL     1     -35.108  16.420  -4.810  1.00 20.00     0.128 C 
HETATM    8 CL8  UNL     1     -33.327  16.396  -4.865  1.00 20.00    -0.130 Cl
ENDBRANCH   1   7
TORSDOF 3
ENDMDL
MODEL 9
REMARK VINA RESULT:      -3.6     12.169     12.926
REMARK  3 active torsions:
REMARK  status: ('A' for Active; 'I' for Inactive)
REMARK    1  A    between atoms: C1_1  and  C5_5 
REMARK    2  A    between atoms: C3_3  and  C5_5 
REMARK    3  A    between atoms: C4_4  and  C5_5 
ROOT
HETATM    1  C5  UNL     1     -34.845  15.039  -4.528  1.00 20.00     0.085 C 
ENDROOT
BRANCH   1   2
HETATM    2  C1  UNL     1     -34.364  13.629  -4.181  1.00 20.00     0.224 C 
HETATM    3  O6  UNL     1     -35.068  12.639  -4.367  1.00 20.00    -0.279 OA
HETATM    4 CL7  UNL     1     -32.755  13.611  -3.518  1.00 20.00    -0.043 Cl
ENDBRANCH   1   2
BRANCH   1   5
HETATM    5  C3  UNL     1     -35.566  15.021  -5.887  1.00 20.00     0.010 C 
HETATM    6  C2  UNL     1     -34.604  14.927  -7.063  1.00 20.00     0.006 C 
ENDBRANCH   1   5
BRANCH   1   7
HETATM    7  C4  UNL     1     -35.794  15.546  -3.436  1.00 20.00     0.128 C 
HETATM    8 CL8  UNL     1     -34.908  15.989  -1.954  1.00 20.00    -0.130 Cl
ENDBRANCH   1   7
TORSDOF 3
ENDMDL
