MODEL 1
REMARK VINA RESULT:      -3.9      0.000      0.000
REMARK  5 active torsions:
REMARK  status: ('A' for Active; 'I' for Inactive)
REMARK    1  A    between atoms: C4_4  and  C7_7 
REMARK    2  A    between atoms: C5_5  and  C9_9 
REMARK    3  A    between atoms: C6_6  and  C9_9 
REMARK    4  A    between atoms: C7_7  and  C9_9 
REMARK    5  A    between atoms: C8_8  and  C9_9 
ROOT
HETATM    1  C9  UNL     1     -34.565  15.371  -3.470  1.00 20.00    -0.029 C 
ENDROOT
BRANCH   1   2
HETATM    2  C5  UNL     1     -33.310  16.124  -4.024  1.00 20.00     0.006 C 
HETATM    3  C2  UNL     1     -33.478  16.815  -5.372  1.00 20.00     0.006 C 
ENDBRANCH   1   2
BRANCH   1   4
HETATM    4  C6  UNL     1     -34.363  13.823  -3.537  1.00 20.00     0.006 C 
HETATM    5  C3  UNL     1     -34.486  13.185  -4.916  1.00 20.00     0.006 C 
ENDBRANCH   1   4
BRANCH   1   6
HETATM    6  C7  UNL     1     -34.753  15.850  -1.992  1.00 20.00     0.010 C 
BRANCH   6   7
HETATM    7  C4  UNL     1     -33.858  17.009  -1.537  1.00 20.00    -0.004 C 
HETATM    8  C1  UNL     1     -34.290  17.533  -0.173  1.00 20.00     0.005 C 
ENDBRANCH   6   7
ENDBRANCH   1   6
BRANCH   1   9
HETATM    9  C8  UNL     1     -35.828  15.679  -4.328  1.00 20.00     0.124 C 
HETATM   10 CL10 UNL     1     -37.343  14.993  -3.687  1.00 20.00    -0.130 Cl
ENDBRANCH   1   9
TORSDOF 5
ENDMDL
MODEL 2
REMARK VINA RESULT:      -3.9      0.890      3.463
REMARK  5 active torsions:
REMARK  status: ('A' for Active; 'I' for Inactive)
REMARK    1  A    between atoms: C4_4  and  C7_7 
REMARK    2  A    between atoms: C5_5  and  C9_9 
REMARK    3  A    between atoms: C6_6  and  C9_9 
REMARK    4  A    between atoms: C7_7  and  C9_9 
REMARK    5  A    between atoms: C8_8  and  C9_9 
ROOT
HETATM    1  C9  UNL     1     -34.253  16.223  -3.289  1.00 20.00    -0.029 C 
ENDROOT
BRANCH   1   2
HETATM    2  C5  UNL     1     -33.773  16.896  -1.961  1.00 20.00     0.006 C 
HETATM    3  C2  UNL     1     -34.654  16.678  -0.736  1.00 20.00     0.006 C 
ENDBRANCH   1   2
BRANCH   1   4
HETATM    4  C6  UNL     1     -33.238  16.484  -4.448  1.00 20.00     0.006 C 
HETATM    5  C3  UNL     1     -33.743  17.331  -5.610  1.00 20.00     0.006 C 
ENDBRANCH   1   4
BRANCH   1   6
HETATM    6  C7  UNL     1     -34.382  14.691  -2.988  1.00 20.00     0.010 C 
BRANCH   6   7
HETATM    7  C4  UNL     1     -33.716  13.745  -3.993  1.00 20.00    -0.004 C 
HETATM    8  C1  UNL     1     -34.740  13.160  -4.956  1.00 20.00     0.005 C 
ENDBRANCH   6   7
ENDBRANCH   1   6
BRANCH   1   9
HETATM    9  C8  UNL     1     -35.612  16.820  -3.762  1.00 20.00     0.124 C 
HETATM   10 CL10 UNL     1     -37.012  15.738  -3.547  1.00 20.00    -0.130 Cl
ENDBRANCH   1   9
TORSDOF 5
ENDMDL
MODEL 3
REMARK VINA RESULT:      -3.9      1.091      3.698
REMARK  5 active torsions:
REMARK  status: ('A' for Active; 'I' for Inactive)
REMARK    1  A    between atoms: C4_4  and  C7_7 
REMARK    2  A    between atoms: C5_5  and  C9_9 
REMARK    3  A    between atoms: C6_6  and  C9_9 
REMARK    4  A    between atoms: C7_7  and  C9_9 
REMARK    5  A    between atoms: C8_8  and  C9_9 
ROOT
HETATM    1  C9  UNL     1     -34.349  15.998  -3.479  1.00 20.00    -0.029 C 
ENDROOT
BRANCH   1   2
HETATM    2  C5  UNL     1     -34.512  14.448  -3.339  1.00 20.00     0.006 C 
HETATM    3  C2  UNL     1     -33.320  13.601  -3.768  1.00 20.00     0.006 C 
ENDBRANCH   1   2
BRANCH   1   4
HETATM    4  C6  UNL     1     -33.765  16.620  -2.170  1.00 20.00     0.006 C 
HETATM    5  C3  UNL     1     -34.662  16.567  -0.939  1.00 20.00     0.006 C 
ENDBRANCH   1   4
BRANCH   1   6
HETATM    6  C7  UNL     1     -33.388  16.233  -4.693  1.00 20.00     0.010 C 
BRANCH   6   7
HETATM    7  C4  UNL     1     -34.053  16.629  -6.017  1.00 20.00    -0.004 C 
HETATM    8  C1  UNL     1     -34.254  15.414  -6.913  1.00 20.00     0.005 C 
ENDBRANCH   6   7
ENDBRANCH   1   6
BRANCH   1   9
HETATM    9  C8  UNL     1     -35.727  16.688  -3.709  1.00 20.00     0.124 C 
HETATM   10 CL10 UNL     1     -37.084  15.563  -3.969  1.00 20.00    -0.130 Cl
ENDBRANCH   1   9
TORSDOF 5
ENDMDL
MODEL 4
REMARK VINA RESULT:      -3.9      1.268      2.590
REMARK  5 active torsions:
REMARK  status: ('A' for Active; 'I' for Inactive)
REMARK    1  A    between atoms: C4_4  and  C7_7 
REMARK    2  A    between atoms: C5_5  and  C9_9 
REMARK    3  A    between atoms: C6_6  and  C9_9 
REMARK    4  A    between atoms: C7_7  and  C9_9 
REMARK    5  A    between atoms: C8_8  and  C9_9 
ROOT
HETATM    1  C9  UNL     1     -34.537  15.360  -3.484  1.00 20.00    -0.029 C 
ENDROOT
BRANCH   1   2
HETATM    2  C5  UNL     1     -35.823  15.625  -4.335  1.00 20.00     0.006 C 
HETATM    3  C2  UNL     1     -37.148  15.214  -3.703  1.00 20.00     0.006 C 
ENDBRANCH   1   2
BRANCH   1   4
HETATM    4  C6  UNL     1     -33.318  16.156  -4.050  1.00 20.00     0.006 C 
HETATM    5  C3  UNL     1     -33.521  16.830  -5.402  1.00 20.00     0.006 C 
ENDBRANCH   1   4
BRANCH   1   6
HETATM    6  C7  UNL     1     -34.873  15.810  -2.022  1.00 20.00     0.010 C 
BRANCH   6   7
HETATM    7  C4  UNL     1     -33.991  16.918  -1.435  1.00 20.00    -0.004 C 
HETATM    8  C1  UNL     1     -34.524  17.386  -0.087  1.00 20.00     0.005 C 
ENDBRANCH   6   7
ENDBRANCH   1   6
BRANCH   1   9
HETATM    9  C8  UNL     1     -34.132  13.857  -3.532  1.00 20.00     0.124 C 
HETATM   10 CL10 UNL     1     -34.577  13.018  -5.040  1.00 20.00    -0.130 Cl
ENDBRANCH   1   9
TORSDOF 5
ENDMDL
MODEL 5
REMARK VINA RESULT:      -3.9      1.789      2.607
REMARK  5 active torsions:
REMARK  status: ('A' for Active; 'I' for Inactive)
REMARK    1  A    between atoms: C4_4  and  C7_7 
REMARK    2  A    between atoms: C5_5  and  C9_9 
REMARK    3  A    between atoms: C6_6  and  C9_9 
REMARK    4  A    between atoms: C7_7  and  C9_9 
REMARK    5  A    between atoms: C8_8  and  C9_9 
ROOT
HETATM    1  C9  UNL     1     -34.842  15.344  -3.557  1.00 20.00    -0.029 C 
ENDROOT
BRANCH   1   2
HETATM    2  C5  UNL     1     -34.333  13.864  -3.580  1.00 20.00     0.006 C 
HETATM    3  C2  UNL     1     -34.478  13.120  -4.902  1.00 20.00     0.006 C 
ENDBRANCH   1   2
BRANCH   1   4
HETATM    4  C6  UNL     1     -36.353  15.410  -3.165  1.00 20.00     0.006 C 
HETATM    5  C3  UNL     1     -37.352  15.336  -4.314  1.00 20.00     0.006 C 
ENDBRANCH   1   4
BRANCH   1   6
HETATM    6  C7  UNL     1     -33.955  16.101  -2.512  1.00 20.00     0.010 C 
BRANCH   6   7
HETATM    7  C4  UNL     1     -34.634  16.467  -1.186  1.00 20.00    -0.004 C 
HETATM    8  C1  UNL     1     -33.922  17.630  -0.509  1.00 20.00     0.005 C 
ENDBRANCH   6   7
ENDBRANCH   1   6
BRANCH   1   9
HETATM    9  C8  UNL     1     -34.732  15.997  -4.967  1.00 20.00     0.124 C 
HETATM   10 CL10 UNL     1     -33.274  16.992  -5.211  1.00 20.00    -0.130 Cl
ENDBRANCH   1   9
TORSDOF 5
ENDMDL
MODEL 6
REMARK VINA RESULT:      -3.8      1.668      2.422
REMARK  5 active torsions:
REMARK  status: ('A' for Active; 'I' for Inactive)
REMARK    1  A    between atoms: C4_4  and  C7_7 
REMARK    2  A    between atoms: C5_5  and  C9_9 
REMARK    3  A    between atoms: C6_6  and  C9_9 
REMARK    4  A    between atoms: C7_7  and  C9_9 
REMARK    5  A    between atoms: C8_8  and  C9_9 
ROOT
HETATM    1  C9  UNL     1     -34.888  15.441  -3.667  1.00 20.00    -0.029 C 
ENDROOT
BRANCH   1   2
HETATM    2  C5  UNL     1     -34.435  13.955  -3.851  1.00 20.00     0.006 C 
HETATM    3  C2  UNL     1     -32.977  13.649  -3.529  1.00 20.00     0.006 C 
ENDBRANCH   1   2
BRANCH   1   4
HETATM    4  C6  UNL     1     -36.387  15.519  -3.234  1.00 20.00     0.006 C 
HETATM    5  C3  UNL     1     -37.361  14.641  -4.012  1.00 20.00     0.006 C 
ENDBRANCH   1   4
BRANCH   1   6
HETATM    6  C7  UNL     1     -33.953  16.058  -2.573  1.00 20.00     0.010 C 
BRANCH   6   7
HETATM    7  C4  UNL     1     -34.624  16.447  -1.250  1.00 20.00    -0.004 C 
HETATM    8  C1  UNL     1     -33.888  17.602  -0.582  1.00 20.00     0.005 C 
ENDBRANCH   6   7
ENDBRANCH   1   6
BRANCH   1   9
HETATM    9  C8  UNL     1     -34.784  16.229  -5.007  1.00 20.00     0.124 C 
HETATM   10 CL10 UNL     1     -34.367  15.230  -6.423  1.00 20.00    -0.130 Cl
ENDBRANCH   1   9
TORSDOF 5
ENDMDL
MODEL 7
REMARK VINA RESULT:      -3.8      1.825      3.983
REMARK  5 active torsions:
REMARK  status: ('A' for Active; 'I' for Inactive)
REMARK    1  A    between atoms: C4_4  and  C7_7 
REMARK    2  A    between atoms: C5_5  and  C9_9 
REMARK    3  A    between atoms: C6_6  and  C9_9 
REMARK    4  A    between atoms: C7_7  and  C9_9 
REMARK    5  A    between atoms: C8_8  and  C9_9 
ROOT
HETATM    1  C9  UNL     1     -34.287  16.405  -2.938  1.00 20.00    -0.029 C 
ENDROOT
BRANCH   1   2
HETATM    2  C5  UNL     1     -35.798  16.013  -2.841  1.00 20.00     0.006 C 
HETATM    3  C2  UNL     1     -36.746  16.740  -3.788  1.00 20.00     0.006 C 
ENDBRANCH   1   2
BRANCH   1   4
HETATM    4  C6  UNL     1     -33.751  16.912  -1.561  1.00 20.00     0.006 C 
HETATM    5  C3  UNL     1     -34.740  16.888  -0.401  1.00 20.00     0.006 C 
ENDBRANCH   1   4
BRANCH   1   6
HETATM    6  C7  UNL     1     -33.524  15.117  -3.400  1.00 20.00     0.010 C 
BRANCH   6   7
HETATM    7  C4  UNL     1     -34.358  13.834  -3.497  1.00 20.00    -0.004 C 
HETATM    8  C1  UNL     1     -34.462  13.356  -4.939  1.00 20.00     0.005 C 
ENDBRANCH   6   7
ENDBRANCH   1   6
BRANCH   1   9
HETATM    9  C8  UNL     1     -34.074  17.577  -3.943  1.00 20.00     0.124 C 
HETATM   10 CL10 UNL     1     -33.412  17.086  -5.523  1.00 20.00    -0.130 Cl
ENDBRANCH   1   9
TORSDOF 5
ENDMDL
MODEL 8
REMARK VINA RESULT:      -3.8      1.897      3.752
REMARK  5 active torsions:
REMARK  status: ('A' for Active; 'I' for Inactive)
REMARK    1  A    between atoms: C4_4  and  C7_7 
REMARK    2  A    between atoms: C5_5  and  C9_9 
REMARK    3  A    between atoms: C6_6  and  C9_9 
REMARK    4  A    between atoms: C7_7  and  C9_9 
REMARK    5  A    between atoms: C8_8  and  C9_9 
ROOT
HETATM    1  C9  UNL     1     -34.125  16.137  -3.212  1.00 20.00    -0.029 C 
ENDROOT
BRANCH   1   2
HETATM    2  C5  UNL     1     -33.824  17.024  -1.959  1.00 20.00     0.006 C 
HETATM    3  C2  UNL     1     -34.591  16.680  -0.688  1.00 20.00     0.006 C 
ENDBRANCH   1   2
BRANCH   1   4
HETATM    4  C6  UNL     1     -35.336  15.187  -2.947  1.00 20.00     0.006 C 
HETATM    5  C3  UNL     1     -36.624  15.511  -3.695  1.00 20.00     0.006 C 
ENDBRANCH   1   4
BRANCH   1   6
HETATM    6  C7  UNL     1     -34.429  17.123  -4.390  1.00 20.00     0.010 C 
BRANCH   6   7
HETATM    7  C4  UNL     1     -33.574  16.955  -5.652  1.00 20.00    -0.004 C 
HETATM    8  C1  UNL     1     -34.324  16.171  -6.721  1.00 20.00     0.005 C 
ENDBRANCH   6   7
ENDBRANCH   1   6
BRANCH   1   9
HETATM    9  C8  UNL     1     -32.916  15.213  -3.548  1.00 20.00     0.124 C 
HETATM   10 CL10 UNL     1     -33.346  13.507  -3.832  1.00 20.00    -0.130 Cl
ENDBRANCH   1   9
TORSDOF 5
ENDMDL
MODEL 9
REMARK VINA RESULT:      -3.8      1.913      4.142
REMARK  5 active torsions:
REMARK  status: ('A' for Active; 'I' for Inactive)
REMARK    1  A    between atoms: C4_4  and  C7_7 
REMARK    2  A    between atoms: C5_5  and  C9_9 
REMARK    3  A    between atoms: C6_6  and  C9_9 
REMARK    4  A    between atoms: C7_7  and  C9_9 
REMARK    5  A    between atoms: C8_8  and  C9_9 
ROOT
HETATM    1  C9  UNL     1     -34.803  15.511  -4.033  1.00 20.00    -0.029 C 
ENDROOT
BRANCH   1   2
HETATM    2  C5  UNL     1     -34.532  14.017  -3.657  1.00 20.00     0.006 C 
HETATM    3  C2  UNL     1     -33.071  13.585  -3.612  1.00 20.00     0.006 C 
ENDBRANCH   1   2
BRANCH   1   4
HETATM    4  C6  UNL     1     -33.463  16.283  -4.259  1.00 20.00     0.006 C 
HETATM    5  C3  UNL     1     -33.577  17.661  -4.900  1.00 20.00     0.006 C 
ENDBRANCH   1   4
BRANCH   1   6
HETATM    6  C7  UNL     1     -35.667  15.490  -5.338  1.00 20.00     0.010 C 
BRANCH   6   7
HETATM    7  C4  UNL     1     -35.349  14.377  -6.344  1.00 20.00    -0.004 C 
HETATM    8  C1  UNL     1     -34.668  14.939  -7.585  1.00 20.00     0.005 C 
ENDBRANCH   6   7
ENDBRANCH   1   6
BRANCH   1   9
HETATM    9  C8  UNL     1     -35.540  16.255  -2.880  1.00 20.00     0.124 C 
HETATM   10 CL10 UNL     1     -34.659  16.280  -1.332  1.00 20.00    -0.130 Cl
ENDBRANCH   1   9
TORSDOF 5
ENDMDL
