MODEL 1
REMARK VINA RESULT:      -5.0      0.000      0.000
REMARK  2 active torsions:
REMARK  status: ('A' for Active; 'I' for Inactive)
REMARK    1  A    between atoms: C1_1  and  C2_2 
REMARK    2  A    between atoms: C1_1  and  C3_3 
ROOT
HETATM    1  C1  UNL     1     -34.085   6.279   4.561  1.00 20.00     0.299 C 
HETATM    2  F4  UNL     1     -32.787   6.323   4.144  1.00 20.00    -0.238 F 
ENDROOT
BRANCH   1   3
HETATM    3  C2  UNL     1     -34.089   5.927   6.032  1.00 20.00     0.392 C 
HETATM    4  F5  UNL     1     -34.146   7.054   6.783  1.00 20.00    -0.211 F 
HETATM    5  F6  UNL     1     -35.204   5.208   6.319  1.00 20.00    -0.211 F 
ENDBRANCH   1   3
BRANCH   1   6
HETATM    6  C3  UNL     1     -34.813   5.261   3.712  1.00 20.00     0.392 C 
HETATM    7  F7  UNL     1     -34.227   5.164   2.495  1.00 20.00    -0.211 F 
HETATM    8  F8  UNL     1     -36.086   5.678   3.503  1.00 20.00    -0.211 F 
ENDBRANCH   1   6
TORSDOF 2
ENDMDL
MODEL 2
REMARK VINA RESULT:      -5.0      1.362      3.386
REMARK  2 active torsions:
REMARK  status: ('A' for Active; 'I' for Inactive)
REMARK    1  A    between atoms: C1_1  and  C2_2 
REMARK    2  A    between atoms: C1_1  and  C3_3 
ROOT
HETATM    1  C1  UNL     1     -35.165   5.048   4.780  1.00 20.00     0.299 C 
HETATM    2  F4  UNL     1     -35.231   3.718   4.485  1.00 20.00    -0.238 F 
ENDROOT
BRANCH   1   3
HETATM    3  C2  UNL     1     -34.106   5.669   3.898  1.00 20.00     0.392 C 
HETATM    4  F5  UNL     1     -34.196   5.173   2.639  1.00 20.00    -0.211 F 
HETATM    5  F6  UNL     1     -34.322   7.006   3.809  1.00 20.00    -0.211 F 
ENDBRANCH   1   3
BRANCH   1   6
HETATM    6  C3  UNL     1     -34.853   5.182   6.255  1.00 20.00     0.392 C 
HETATM    7  F7  UNL     1     -34.327   6.404   6.511  1.00 20.00    -0.211 F 
HETATM    8  F8  UNL     1     -33.913   4.268   6.600  1.00 20.00    -0.211 F 
ENDBRANCH   1   6
TORSDOF 2
ENDMDL
MODEL 3
REMARK VINA RESULT:      -4.9      1.150      3.126
REMARK  2 active torsions:
REMARK  status: ('A' for Active; 'I' for Inactive)
REMARK    1  A    between atoms: C1_1  and  C2_2 
REMARK    2  A    between atoms: C1_1  and  C3_3 
ROOT
HETATM    1  C1  UNL     1     -34.050   5.768   4.770  1.00 20.00     0.299 C 
HETATM    2  F4  UNL     1     -34.083   7.016   4.222  1.00 20.00    -0.238 F 
ENDROOT
BRANCH   1   3
HETATM    3  C2  UNL     1     -34.974   4.882   3.965  1.00 20.00     0.392 C 
HETATM    4  F5  UNL     1     -35.243   3.743   4.648  1.00 20.00    -0.211 F 
HETATM    5  F6  UNL     1     -36.159   5.518   3.781  1.00 20.00    -0.211 F 
ENDBRANCH   1   3
BRANCH   1   6
HETATM    6  C3  UNL     1     -34.464   5.884   6.220  1.00 20.00     0.392 C 
HETATM    7  F7  UNL     1     -33.929   7.001   6.770  1.00 20.00    -0.211 F 
HETATM    8  F8  UNL     1     -33.971   4.830   6.914  1.00 20.00    -0.211 F 
ENDBRANCH   1   6
TORSDOF 2
ENDMDL
MODEL 4
REMARK VINA RESULT:      -4.9      1.246      3.255
REMARK  2 active torsions:
REMARK  status: ('A' for Active; 'I' for Inactive)
REMARK    1  A    between atoms: C1_1  and  C2_2 
REMARK    2  A    between atoms: C1_1  and  C3_3 
ROOT
HETATM    1  C1  UNL     1     -35.236   4.967   4.804  1.00 20.00     0.299 C 
HETATM    2  F4  UNL     1     -35.050   3.639   4.554  1.00 20.00    -0.238 F 
ENDROOT
BRANCH   1   3
HETATM    3  C2  UNL     1     -34.380   5.747   3.833  1.00 20.00     0.392 C 
HETATM    4  F5  UNL     1     -33.068   5.603   4.144  1.00 20.00    -0.211 F 
HETATM    5  F6  UNL     1     -34.544   5.243   2.584  1.00 20.00    -0.211 F 
ENDBRANCH   1   3
BRANCH   1   6
HETATM    6  C3  UNL     1     -34.868   5.224   6.249  1.00 20.00     0.392 C 
HETATM    7  F7  UNL     1     -34.345   6.467   6.383  1.00 20.00    -0.211 F 
HETATM    8  F8  UNL     1     -33.905   4.350   6.630  1.00 20.00    -0.211 F 
ENDBRANCH   1   6
TORSDOF 2
ENDMDL
MODEL 5
REMARK VINA RESULT:      -4.9      1.197      2.301
REMARK  2 active torsions:
REMARK  status: ('A' for Active; 'I' for Inactive)
REMARK    1  A    between atoms: C1_1  and  C2_2 
REMARK    2  A    between atoms: C1_1  and  C3_3 
ROOT
HETATM    1  C1  UNL     1     -34.905   4.906   4.416  1.00 20.00     0.299 C 
HETATM    2  F4  UNL     1     -36.097   5.392   3.965  1.00 20.00    -0.238 F 
ENDROOT
BRANCH   1   3
HETATM    3  C2  UNL     1     -35.002   4.756   5.918  1.00 20.00     0.392 C 
HETATM    4  F5  UNL     1     -34.004   3.961   6.374  1.00 20.00    -0.211 F 
HETATM    5  F6  UNL     1     -34.836   5.969   6.503  1.00 20.00    -0.211 F 
ENDBRANCH   1   3
BRANCH   1   6
HETATM    6  C3  UNL     1     -33.819   5.870   3.992  1.00 20.00     0.392 C 
HETATM    7  F7  UNL     1     -34.323   7.123   3.885  1.00 20.00    -0.211 F 
HETATM    8  F8  UNL     1     -33.365   5.522   2.762  1.00 20.00    -0.211 F 
ENDBRANCH   1   6
TORSDOF 2
ENDMDL
MODEL 6
REMARK VINA RESULT:      -4.8      1.140      2.041
REMARK  2 active torsions:
REMARK  status: ('A' for Active; 'I' for Inactive)
REMARK    1  A    between atoms: C1_1  and  C2_2 
REMARK    2  A    between atoms: C1_1  and  C3_3 
ROOT
HETATM    1  C1  UNL     1     -34.639   4.921   4.523  1.00 20.00     0.299 C 
HETATM    2  F4  UNL     1     -35.917   5.258   4.186  1.00 20.00    -0.238 F 
ENDROOT
BRANCH   1   3
HETATM    3  C2  UNL     1     -34.568   4.819   6.030  1.00 20.00     0.392 C 
HETATM    4  F5  UNL     1     -34.733   6.043   6.590  1.00 20.00    -0.211 F 
HETATM    5  F6  UNL     1     -35.586   4.042   6.477  1.00 20.00    -0.211 F 
ENDBRANCH   1   3
BRANCH   1   6
HETATM    6  C3  UNL     1     -33.715   5.979   3.961  1.00 20.00     0.392 C 
HETATM    7  F7  UNL     1     -34.371   7.159   3.849  1.00 20.00    -0.211 F 
HETATM    8  F8  UNL     1     -33.331   5.622   2.711  1.00 20.00    -0.211 F 
ENDBRANCH   1   6
TORSDOF 2
ENDMDL
MODEL 7
REMARK VINA RESULT:      -4.8      1.226      2.990
REMARK  2 active torsions:
REMARK  status: ('A' for Active; 'I' for Inactive)
REMARK    1  A    between atoms: C1_1  and  C2_2 
REMARK    2  A    between atoms: C1_1  and  C3_3 
ROOT
HETATM    1  C1  UNL     1     -33.938   5.597   5.129  1.00 20.00     0.299 C 
HETATM    2  F4  UNL     1     -34.072   6.702   5.917  1.00 20.00    -0.238 F 
ENDROOT
BRANCH   1   3
HETATM    3  C2  UNL     1     -33.816   6.060   3.695  1.00 20.00     0.392 C 
HETATM    4  F5  UNL     1     -32.547   5.886   3.253  1.00 20.00    -0.211 F 
HETATM    5  F6  UNL     1     -34.614   5.296   2.907  1.00 20.00    -0.211 F 
ENDBRANCH   1   3
BRANCH   1   6
HETATM    6  C3  UNL     1     -35.143   4.712   5.360  1.00 20.00     0.392 C 
HETATM    7  F7  UNL     1     -35.572   4.832   6.640  1.00 20.00    -0.211 F 
HETATM    8  F8  UNL     1     -34.789   3.416   5.183  1.00 20.00    -0.211 F 
ENDBRANCH   1   6
TORSDOF 2
ENDMDL
MODEL 8
REMARK VINA RESULT:      -4.8      1.310      3.320
REMARK  2 active torsions:
REMARK  status: ('A' for Active; 'I' for Inactive)
REMARK    1  A    between atoms: C1_1  and  C2_2 
REMARK    2  A    between atoms: C1_1  and  C3_3 
ROOT
HETATM    1  C1  UNL     1     -34.759   5.228   5.977  1.00 20.00     0.299 C 
HETATM    2  F4  UNL     1     -34.298   4.161   6.691  1.00 20.00    -0.238 F 
ENDROOT
BRANCH   1   3
HETATM    3  C2  UNL     1     -34.988   4.772   4.554  1.00 20.00     0.392 C 
HETATM    4  F5  UNL     1     -35.194   3.433   4.519  1.00 20.00    -0.211 F 
HETATM    5  F6  UNL     1     -36.114   5.355   4.071  1.00 20.00    -0.211 F 
ENDBRANCH   1   3
BRANCH   1   6
HETATM    6  C3  UNL     1     -33.734   6.336   6.081  1.00 20.00     0.392 C 
HETATM    7  F7  UNL     1     -34.197   7.327   6.881  1.00 20.00    -0.211 F 
HETATM    8  F8  UNL     1     -33.535   6.880   4.855  1.00 20.00    -0.211 F 
ENDBRANCH   1   6
TORSDOF 2
ENDMDL
MODEL 9
REMARK VINA RESULT:      -4.7      0.841      3.413
REMARK  2 active torsions:
REMARK  status: ('A' for Active; 'I' for Inactive)
REMARK    1  A    between atoms: C1_1  and  C2_2 
REMARK    2  A    between atoms: C1_1  and  C3_3 
ROOT
HETATM    1  C1  UNL     1     -34.790   5.921   4.485  1.00 20.00     0.299 C 
HETATM    2  F4  UNL     1     -35.852   5.203   4.020  1.00 20.00    -0.238 F 
ENDROOT
BRANCH   1   3
HETATM    3  C2  UNL     1     -33.654   5.763   3.499  1.00 20.00     0.392 C 
HETATM    4  F5  UNL     1     -34.104   5.192   2.355  1.00 20.00    -0.211 F 
HETATM    5  F6  UNL     1     -33.176   6.988   3.164  1.00 20.00    -0.211 F 
ENDBRANCH   1   3
BRANCH   1   6
HETATM    6  C3  UNL     1     -34.446   5.406   5.865  1.00 20.00     0.392 C 
HETATM    7  F7  UNL     1     -35.416   4.569   6.305  1.00 20.00    -0.211 F 
HETATM    8  F8  UNL     1     -34.398   6.445   6.734  1.00 20.00    -0.211 F 
ENDBRANCH   1   6
TORSDOF 2
ENDMDL
