MODEL 1
REMARK VINA RESULT:      -4.8      0.000      0.000
REMARK  0 active torsions:
REMARK  status: ('A' for Active; 'I' for Inactive)
ROOT
HETATM    1  C1  UNL     1     -34.237   6.133   5.972  1.00 20.00    -0.021 C 
HETATM    2  C2  UNL     1     -34.735   4.885   5.997  1.00 20.00    -0.025 C 
HETATM    3  C3  UNL     1     -33.389   5.802   3.696  1.00 20.00    -0.076 C 
HETATM    4  C4  UNL     1     -32.309   6.243   3.046  1.00 20.00    -0.027 C 
HETATM    5  C5  UNL     1     -33.929   4.376   3.690  1.00 20.00     0.043 C 
HETATM    6  C6  UNL     1     -35.657   5.946   4.159  1.00 20.00     0.022 C 
HETATM    7  C7  UNL     1     -34.339   6.626   4.547  1.00 20.00     0.037 C 
HETATM    8  C8  UNL     1     -35.180   4.551   4.586  1.00 20.00     0.013 C 
HETATM    9  C9  UNL     1     -31.825   7.654   3.089  1.00 20.00     0.036 C 
ENDROOT
TORSDOF 0
ENDMDL
MODEL 2
REMARK VINA RESULT:      -4.8     11.647     12.683
REMARK  0 active torsions:
REMARK  status: ('A' for Active; 'I' for Inactive)
ROOT
HETATM    1  C1  UNL     1     -33.354  16.001  -4.827  1.00 20.00    -0.021 C 
HETATM    2  C2  UNL     1     -34.191  15.216  -5.527  1.00 20.00    -0.025 C 
HETATM    3  C3  UNL     1     -34.610  15.582  -2.764  1.00 20.00    -0.076 C 
HETATM    4  C4  UNL     1     -34.886  16.328  -1.691  1.00 20.00    -0.027 C 
HETATM    5  C5  UNL     1     -35.588  14.695  -3.525  1.00 20.00     0.043 C 
HETATM    6  C6  UNL     1     -33.348  13.933  -3.796  1.00 20.00     0.022 C 
HETATM    7  C7  UNL     1     -33.257  15.420  -3.434  1.00 20.00     0.037 C 
HETATM    8  C8  UNL     1     -34.643  14.104  -4.601  1.00 20.00     0.013 C 
HETATM    9  C9  UNL     1     -33.886  17.181  -0.984  1.00 20.00     0.036 C 
ENDROOT
TORSDOF 0
ENDMDL
MODEL 3
REMARK VINA RESULT:      -4.6     11.604     13.127
REMARK  0 active torsions:
REMARK  status: ('A' for Active; 'I' for Inactive)
ROOT
HETATM    1  C1  UNL     1     -35.528  14.729  -3.568  1.00 20.00    -0.021 C 
HETATM    2  C2  UNL     1     -34.716  15.480  -2.806  1.00 20.00    -0.025 C 
HETATM    3  C3  UNL     1     -34.164  15.185  -5.554  1.00 20.00    -0.076 C 
HETATM    4  C4  UNL     1     -34.451  15.341  -6.848  1.00 20.00    -0.027 C 
HETATM    5  C5  UNL     1     -33.226  16.054  -4.724  1.00 20.00     0.043 C 
HETATM    6  C6  UNL     1     -33.399  13.863  -3.808  1.00 20.00     0.022 C 
HETATM    7  C7  UNL     1     -34.671  14.087  -4.636  1.00 20.00     0.037 C 
HETATM    8  C8  UNL     1     -33.312  15.327  -3.359  1.00 20.00     0.013 C 
HETATM    9  C9  UNL     1     -35.381  14.457  -7.612  1.00 20.00     0.036 C 
ENDROOT
TORSDOF 0
ENDMDL
MODEL 4
REMARK VINA RESULT:      -4.5     11.623     12.858
REMARK  0 active torsions:
REMARK  status: ('A' for Active; 'I' for Inactive)
ROOT
HETATM    1  C1  UNL     1     -35.050  13.800  -3.843  1.00 20.00    -0.021 C 
HETATM    2  C2  UNL     1     -34.346  13.774  -4.987  1.00 20.00    -0.025 C 
HETATM    3  C3  UNL     1     -34.133  16.001  -3.273  1.00 20.00    -0.076 C 
HETATM    4  C4  UNL     1     -33.804  16.587  -2.119  1.00 20.00    -0.027 C 
HETATM    5  C5  UNL     1     -33.310  16.004  -4.556  1.00 20.00     0.043 C 
HETATM    6  C6  UNL     1     -35.626  15.701  -5.023  1.00 20.00     0.022 C 
HETATM    7  C7  UNL     1     -35.414  15.243  -3.575  1.00 20.00     0.037 C 
HETATM    8  C8  UNL     1     -34.251  15.202  -5.489  1.00 20.00     0.013 C 
HETATM    9  C9  UNL     1     -34.652  16.551  -0.890  1.00 20.00     0.036 C 
ENDROOT
TORSDOF 0
ENDMDL
MODEL 5
REMARK VINA RESULT:      -4.5      8.597     10.192
REMARK  0 active torsions:
REMARK  status: ('A' for Active; 'I' for Inactive)
ROOT
HETATM    1  C1  UNL     1     -42.058   6.961  -1.831  1.00 20.00    -0.021 C 
HETATM    2  C2  UNL     1     -40.998   7.128  -1.021  1.00 20.00    -0.025 C 
HETATM    3  C3  UNL     1     -41.789   4.525  -1.758  1.00 20.00    -0.076 C 
HETATM    4  C4  UNL     1     -41.997   3.552  -2.649  1.00 20.00    -0.027 C 
HETATM    5  C5  UNL     1     -40.576   4.674  -0.848  1.00 20.00     0.043 C 
HETATM    6  C6  UNL     1     -42.486   5.745   0.087  1.00 20.00     0.022 C 
HETATM    7  C7  UNL     1     -42.730   5.669  -1.425  1.00 20.00     0.037 C 
HETATM    8  C8  UNL     1     -40.973   5.951  -0.066  1.00 20.00     0.013 C 
HETATM    9  C9  UNL     1     -43.208   3.457  -3.517  1.00 20.00     0.036 C 
ENDROOT
TORSDOF 0
ENDMDL
MODEL 6
REMARK VINA RESULT:      -4.3     11.516     13.206
REMARK  0 active torsions:
REMARK  status: ('A' for Active; 'I' for Inactive)
ROOT
HETATM    1  C1  UNL     1     -33.228  15.922  -4.408  1.00 20.00    -0.021 C 
HETATM    2  C2  UNL     1     -32.963  14.892  -3.586  1.00 20.00    -0.025 C 
HETATM    3  C3  UNL     1     -34.702  14.515  -5.771  1.00 20.00    -0.076 C 
HETATM    4  C4  UNL     1     -34.981  14.472  -7.076  1.00 20.00    -0.027 C 
HETATM    5  C5  UNL     1     -34.417  13.320  -4.868  1.00 20.00     0.043 C 
HETATM    6  C6  UNL     1     -35.261  15.160  -3.614  1.00 20.00     0.022 C 
HETATM    7  C7  UNL     1     -34.651  15.751  -4.892  1.00 20.00     0.037 C 
HETATM    8  C8  UNL     1     -34.216  14.041  -3.512  1.00 20.00     0.013 C 
HETATM    9  C9  UNL     1     -35.253  15.678  -7.914  1.00 20.00     0.036 C 
ENDROOT
TORSDOF 0
ENDMDL
MODEL 7
REMARK VINA RESULT:      -4.3      8.639     10.138
REMARK  0 active torsions:
REMARK  status: ('A' for Active; 'I' for Inactive)
ROOT
HETATM    1  C1  UNL     1     -43.158   5.111  -0.626  1.00 20.00    -0.021 C 
HETATM    2  C2  UNL     1     -42.360   5.260   0.445  1.00 20.00    -0.025 C 
HETATM    3  C3  UNL     1     -41.857   6.764  -1.886  1.00 20.00    -0.076 C 
HETATM    4  C4  UNL     1     -42.178   7.678  -2.804  1.00 20.00    -0.027 C 
HETATM    5  C5  UNL     1     -40.937   6.969  -0.688  1.00 20.00     0.043 C 
HETATM    6  C6  UNL     1     -41.002   4.679  -1.336  1.00 20.00     0.022 C 
HETATM    7  C7  UNL     1     -42.299   5.311  -1.855  1.00 20.00     0.037 C 
HETATM    8  C8  UNL     1     -40.964   5.548  -0.072  1.00 20.00     0.013 C 
HETATM    9  C9  UNL     1     -43.088   7.420  -3.960  1.00 20.00     0.036 C 
ENDROOT
TORSDOF 0
ENDMDL
MODEL 8
REMARK VINA RESULT:      -4.3     11.404     13.122
REMARK  0 active torsions:
REMARK  status: ('A' for Active; 'I' for Inactive)
ROOT
HETATM    1  C1  UNL     1     -33.010  15.065  -3.748  1.00 20.00    -0.021 C 
HETATM    2  C2  UNL     1     -33.255  13.747  -3.644  1.00 20.00    -0.025 C 
HETATM    3  C3  UNL     1     -34.553  15.250  -5.644  1.00 20.00    -0.076 C 
HETATM    4  C4  UNL     1     -34.566  16.002  -6.747  1.00 20.00    -0.027 C 
HETATM    5  C5  UNL     1     -34.848  13.756  -5.566  1.00 20.00     0.043 C 
HETATM    6  C6  UNL     1     -35.294  14.829  -3.487  1.00 20.00     0.022 C 
HETATM    7  C7  UNL     1     -34.287  15.719  -4.225  1.00 20.00     0.037 C 
HETATM    8  C8  UNL     1     -34.702  13.526  -4.041  1.00 20.00     0.013 C 
HETATM    9  C9  UNL     1     -34.268  17.465  -6.765  1.00 20.00     0.036 C 
ENDROOT
TORSDOF 0
ENDMDL
MODEL 9
REMARK VINA RESULT:      -4.2     11.438     12.707
REMARK  0 active torsions:
REMARK  status: ('A' for Active; 'I' for Inactive)
ROOT
HETATM    1  C1  UNL     1     -34.415  13.303  -4.571  1.00 20.00    -0.021 C 
HETATM    2  C2  UNL     1     -33.380  13.645  -3.784  1.00 20.00    -0.025 C 
HETATM    3  C3  UNL     1     -35.787  15.103  -3.628  1.00 20.00    -0.076 C 
HETATM    4  C4  UNL     1     -37.091  15.223  -3.367  1.00 20.00    -0.027 C 
HETATM    5  C5  UNL     1     -34.640  15.513  -2.712  1.00 20.00     0.043 C 
HETATM    6  C6  UNL     1     -33.961  15.529  -4.994  1.00 20.00     0.022 C 
HETATM    7  C7  UNL     1     -35.159  14.576  -4.907  1.00 20.00     0.037 C 
HETATM    8  C8  UNL     1     -33.429  15.150  -3.606  1.00 20.00     0.013 C 
HETATM    9  C9  UNL     1     -38.174  14.802  -4.305  1.00 20.00     0.036 C 
ENDROOT
TORSDOF 0
ENDMDL
