MODEL 1
REMARK VINA RESULT:      -5.4      0.000      0.000
REMARK  3 active torsions:
REMARK  status: ('A' for Active; 'I' for Inactive)
REMARK    1  A    between atoms: C2_2  and  C6_6 
REMARK    2  A    between atoms: C6_6  and  C7_7 
REMARK    3  A    between atoms: C7_7  and  C8_8 
ROOT
HETATM    1  C6  UNL     1     -33.614   5.844   2.868  1.00 20.00     0.027 C 
ENDROOT
BRANCH   1   2
HETATM    2  C2  UNL     1     -32.269   6.296   3.357  1.00 20.00    -0.031 C 
HETATM    3  C1  UNL     1     -31.674   7.432   2.963  1.00 20.00    -0.035 C 
HETATM    4  C3  UNL     1     -32.275   8.389   1.987  1.00 20.00     0.035 C 
ENDBRANCH   1   2
BRANCH   1   5
HETATM    5  C7  UNL     1     -34.674   5.809   3.975  1.00 20.00     0.007 C 
BRANCH   5   6
HETATM    6  C8  UNL     1     -34.189   5.279   5.340  1.00 20.00    -0.022 C 
HETATM    7  C4  UNL     1     -34.163   6.423   6.357  1.00 20.00     0.009 C 
HETATM    8  C5  UNL     1     -35.065   4.141   5.867  1.00 20.00     0.009 C 
ENDBRANCH   5   6
ENDBRANCH   1   5
TORSDOF 3
ENDMDL
MODEL 2
REMARK VINA RESULT:      -5.0      0.673      1.419
REMARK  3 active torsions:
REMARK  status: ('A' for Active; 'I' for Inactive)
REMARK    1  A    between atoms: C2_2  and  C6_6 
REMARK    2  A    between atoms: C6_6  and  C7_7 
REMARK    3  A    between atoms: C7_7  and  C8_8 
ROOT
HETATM    1  C6  UNL     1     -33.732   6.885   3.583  1.00 20.00     0.027 C 
ENDROOT
BRANCH   1   2
HETATM    2  C2  UNL     1     -32.320   6.782   3.083  1.00 20.00    -0.031 C 
HETATM    3  C1  UNL     1     -31.738   7.700   2.296  1.00 20.00    -0.035 C 
HETATM    4  C3  UNL     1     -32.422   8.939   1.819  1.00 20.00     0.035 C 
ENDBRANCH   1   2
BRANCH   1   5
HETATM    5  C7  UNL     1     -34.345   5.524   3.932  1.00 20.00     0.007 C 
BRANCH   5   6
HETATM    6  C8  UNL     1     -34.894   5.392   5.367  1.00 20.00    -0.022 C 
HETATM    7  C4  UNL     1     -34.826   3.929   5.813  1.00 20.00     0.009 C 
HETATM    8  C5  UNL     1     -34.135   6.270   6.363  1.00 20.00     0.009 C 
ENDBRANCH   5   6
ENDBRANCH   1   5
TORSDOF 3
ENDMDL
MODEL 3
REMARK VINA RESULT:      -4.8      0.846      4.286
REMARK  3 active torsions:
REMARK  status: ('A' for Active; 'I' for Inactive)
REMARK    1  A    between atoms: C2_2  and  C6_6 
REMARK    2  A    between atoms: C6_6  and  C7_7 
REMARK    3  A    between atoms: C7_7  and  C8_8 
ROOT
HETATM    1  C6  UNL     1     -34.061   6.466   3.756  1.00 20.00     0.027 C 
ENDROOT
BRANCH   1   2
HETATM    2  C2  UNL     1     -34.992   5.303   3.935  1.00 20.00    -0.031 C 
HETATM    3  C1  UNL     1     -35.196   4.684   5.107  1.00 20.00    -0.035 C 
HETATM    4  C3  UNL     1     -34.524   5.076   6.381  1.00 20.00     0.035 C 
ENDBRANCH   1   2
BRANCH   1   5
HETATM    5  C7  UNL     1     -32.795   6.106   2.970  1.00 20.00     0.007 C 
BRANCH   5   6
HETATM    6  C8  UNL     1     -31.735   7.223   2.872  1.00 20.00    -0.022 C 
HETATM    7  C4  UNL     1     -32.245   8.337   1.953  1.00 20.00     0.009 C 
HETATM    8  C5  UNL     1     -31.377   7.807   4.239  1.00 20.00     0.009 C 
ENDBRANCH   5   6
ENDBRANCH   1   5
TORSDOF 3
ENDMDL
MODEL 4
REMARK VINA RESULT:      -4.7      0.749      4.047
REMARK  3 active torsions:
REMARK  status: ('A' for Active; 'I' for Inactive)
REMARK    1  A    between atoms: C2_2  and  C6_6 
REMARK    2  A    between atoms: C6_6  and  C7_7 
REMARK    3  A    between atoms: C7_7  and  C8_8 
ROOT
HETATM    1  C6  UNL     1     -34.544   5.896   3.559  1.00 20.00     0.027 C 
ENDROOT
BRANCH   1   2
HETATM    2  C2  UNL     1     -34.747   4.893   4.657  1.00 20.00    -0.031 C 
HETATM    3  C1  UNL     1     -34.551   5.160   5.957  1.00 20.00    -0.035 C 
HETATM    4  C3  UNL     1     -34.107   6.488   6.475  1.00 20.00     0.035 C 
ENDBRANCH   1   2
BRANCH   1   5
HETATM    5  C7  UNL     1     -33.077   6.033   3.136  1.00 20.00     0.007 C 
BRANCH   5   6
HETATM    6  C8  UNL     1     -32.511   7.468   3.159  1.00 20.00    -0.022 C 
HETATM    7  C4  UNL     1     -31.296   7.529   4.089  1.00 20.00     0.009 C 
HETATM    8  C5  UNL     1     -32.119   7.962   1.766  1.00 20.00     0.009 C 
ENDBRANCH   5   6
ENDBRANCH   1   5
TORSDOF 3
ENDMDL
MODEL 5
REMARK VINA RESULT:      -4.6      0.915      1.404
REMARK  3 active torsions:
REMARK  status: ('A' for Active; 'I' for Inactive)
REMARK    1  A    between atoms: C2_2  and  C6_6 
REMARK    2  A    between atoms: C6_6  and  C7_7 
REMARK    3  A    between atoms: C7_7  and  C8_8 
ROOT
HETATM    1  C6  UNL     1     -33.622   6.935   3.845  1.00 20.00     0.027 C 
ENDROOT
BRANCH   1   2
HETATM    2  C2  UNL     1     -32.234   6.783   3.295  1.00 20.00    -0.031 C 
HETATM    3  C1  UNL     1     -31.689   7.624   2.404  1.00 20.00    -0.035 C 
HETATM    4  C3  UNL     1     -32.394   8.816   1.847  1.00 20.00     0.035 C 
ENDBRANCH   1   2
BRANCH   1   5
HETATM    5  C7  UNL     1     -33.780   6.335   5.248  1.00 20.00     0.007 C 
BRANCH   5   6
HETATM    6  C8  UNL     1     -34.935   5.325   5.410  1.00 20.00    -0.022 C 
HETATM    7  C4  UNL     1     -35.610   5.092   4.056  1.00 20.00     0.009 C 
HETATM    8  C5  UNL     1     -34.464   3.989   5.987  1.00 20.00     0.009 C 
ENDBRANCH   5   6
ENDBRANCH   1   5
TORSDOF 3
ENDMDL
MODEL 6
REMARK VINA RESULT:      -4.4      0.881      4.360
REMARK  3 active torsions:
REMARK  status: ('A' for Active; 'I' for Inactive)
REMARK    1  A    between atoms: C2_2  and  C6_6 
REMARK    2  A    between atoms: C6_6  and  C7_7 
REMARK    3  A    between atoms: C7_7  and  C8_8 
ROOT
HETATM    1  C6  UNL     1     -34.145   6.678   5.003  1.00 20.00     0.027 C 
ENDROOT
BRANCH   1   2
HETATM    2  C2  UNL     1     -34.301   5.928   6.294  1.00 20.00    -0.031 C 
HETATM    3  C1  UNL     1     -34.718   4.655   6.371  1.00 20.00    -0.035 C 
HETATM    4  C3  UNL     1     -35.079   3.825   5.184  1.00 20.00     0.035 C 
ENDBRANCH   1   2
BRANCH   1   5
HETATM    5  C7  UNL     1     -32.678   6.900   4.613  1.00 20.00     0.007 C 
BRANCH   5   6
HETATM    6  C8  UNL     1     -32.324   6.564   3.149  1.00 20.00    -0.022 C 
HETATM    7  C4  UNL     1     -33.432   5.703   2.536  1.00 20.00     0.009 C 
HETATM    8  C5  UNL     1     -32.115   7.817   2.298  1.00 20.00     0.009 C 
ENDBRANCH   5   6
ENDBRANCH   1   5
TORSDOF 3
ENDMDL
MODEL 7
REMARK VINA RESULT:      -4.3      0.841      4.579
REMARK  3 active torsions:
REMARK  status: ('A' for Active; 'I' for Inactive)
REMARK    1  A    between atoms: C2_2  and  C6_6 
REMARK    2  A    between atoms: C6_6  and  C7_7 
REMARK    3  A    between atoms: C7_7  and  C8_8 
ROOT
HETATM    1  C6  UNL     1     -32.185   6.293   3.223  1.00 20.00     0.027 C 
ENDROOT
BRANCH   1   2
HETATM    2  C2  UNL     1     -33.629   5.987   2.947  1.00 20.00    -0.031 C 
HETATM    3  C1  UNL     1     -34.536   5.742   3.904  1.00 20.00    -0.035 C 
HETATM    4  C3  UNL     1     -34.224   5.743   5.364  1.00 20.00     0.035 C 
ENDBRANCH   1   2
BRANCH   1   5
HETATM    5  C7  UNL     1     -31.847   7.781   3.062  1.00 20.00     0.007 C 
BRANCH   5   6
HETATM    6  C8  UNL     1     -32.431   8.461   1.807  1.00 20.00    -0.022 C 
HETATM    7  C4  UNL     1     -32.754   9.925   2.117  1.00 20.00     0.009 C 
HETATM    8  C5  UNL     1     -31.483   8.386   0.609  1.00 20.00     0.009 C 
ENDBRANCH   5   6
ENDBRANCH   1   5
TORSDOF 3
ENDMDL
MODEL 8
REMARK VINA RESULT:      -4.0     11.018     12.018
REMARK  3 active torsions:
REMARK  status: ('A' for Active; 'I' for Inactive)
REMARK    1  A    between atoms: C2_2  and  C6_6 
REMARK    2  A    between atoms: C6_6  and  C7_7 
REMARK    3  A    between atoms: C7_7  and  C8_8 
ROOT
HETATM    1  C6  UNL     1     -33.008  14.837  -3.655  1.00 20.00     0.027 C 
ENDROOT
BRANCH   1   2
HETATM    2  C2  UNL     1     -33.989  13.702  -3.646  1.00 20.00    -0.031 C 
HETATM    3  C1  UNL     1     -34.794  13.403  -4.677  1.00 20.00    -0.035 C 
HETATM    4  C3  UNL     1     -34.816  14.162  -5.962  1.00 20.00     0.035 C 
ENDBRANCH   1   2
BRANCH   1   5
HETATM    5  C7  UNL     1     -33.596  16.141  -3.101  1.00 20.00     0.007 C 
BRANCH   5   6
HETATM    6  C8  UNL     1     -34.845  15.979  -2.211  1.00 20.00    -0.022 C 
HETATM    7  C4  UNL     1     -34.591  16.624  -0.845  1.00 20.00     0.009 C 
HETATM    8  C5  UNL     1     -36.095  16.592  -2.845  1.00 20.00     0.009 C 
ENDBRANCH   5   6
ENDBRANCH   1   5
TORSDOF 3
ENDMDL
MODEL 9
REMARK VINA RESULT:      -3.8     11.073     11.986
REMARK  3 active torsions:
REMARK  status: ('A' for Active; 'I' for Inactive)
REMARK    1  A    between atoms: C2_2  and  C6_6 
REMARK    2  A    between atoms: C6_6  and  C7_7 
REMARK    3  A    between atoms: C7_7  and  C8_8 
ROOT
HETATM    1  C6  UNL     1     -34.248  16.251  -2.289  1.00 20.00     0.027 C 
ENDROOT
BRANCH   1   2
HETATM    2  C2  UNL     1     -34.786  16.554  -0.921  1.00 20.00    -0.031 C 
HETATM    3  C1  UNL     1     -34.270  17.486  -0.106  1.00 20.00    -0.035 C 
HETATM    4  C3  UNL     1     -33.095  18.338  -0.457  1.00 20.00     0.035 C 
ENDBRANCH   1   2
BRANCH   1   5
HETATM    5  C7  UNL     1     -35.017  15.131  -3.001  1.00 20.00     0.007 C 
BRANCH   5   6
HETATM    6  C8  UNL     1     -34.162  13.939  -3.477  1.00 20.00    -0.022 C 
HETATM    7  C4  UNL     1     -34.672  13.447  -4.834  1.00 20.00     0.009 C 
HETATM    8  C5  UNL     1     -32.677  14.293  -3.583  1.00 20.00     0.009 C 
ENDBRANCH   5   6
ENDBRANCH   1   5
TORSDOF 3
ENDMDL
