MODEL 1
REMARK VINA RESULT:      -5.1      0.000      0.000
REMARK  3 active torsions:
REMARK  status: ('A' for Active; 'I' for Inactive)
REMARK    1  A    between atoms: C5_5  and  C7_7 
REMARK    2  A    between atoms: C5_5  and  N8_8 
REMARK    3  A    between atoms: C6_6  and  C7_7 
ROOT
HETATM    1  C1  UNL     1     -32.065   7.800   2.478  1.00 20.00     0.157 C 
HETATM    2  N8  UNL     1     -32.045   6.978   3.317  1.00 20.00    -0.275 NA
HETATM    3  S9  UNL     1     -32.069   8.928   1.353  1.00 20.00    -0.055 SA
ENDROOT
BRANCH   2   4
HETATM    4  C5  UNL     1     -33.052   5.925   3.170  1.00 20.00     0.155 C 
BRANCH   4   5
HETATM    5  C7  UNL     1     -34.227   6.151   4.139  1.00 20.00     0.005 C 
HETATM    6  C4  UNL     1     -35.498   5.504   3.569  1.00 20.00     0.012 C 
BRANCH   5   7
HETATM    7  C6  UNL     1     -33.929   5.676   5.592  1.00 20.00    -0.017 C 
HETATM    8  C2  UNL     1     -33.890   6.847   6.583  1.00 20.00     0.010 C 
HETATM    9  C3  UNL     1     -34.958   4.652   6.088  1.00 20.00     0.010 C 
ENDBRANCH   5   7
ENDBRANCH   4   5
ENDBRANCH   2   4
TORSDOF 3
ENDMDL
MODEL 2
REMARK VINA RESULT:      -4.6      0.799      1.405
REMARK  3 active torsions:
REMARK  status: ('A' for Active; 'I' for Inactive)
REMARK    1  A    between atoms: C5_5  and  C7_7 
REMARK    2  A    between atoms: C5_5  and  N8_8 
REMARK    3  A    between atoms: C6_6  and  C7_7 
ROOT
HETATM    1  C1  UNL     1     -32.202   7.833   2.230  1.00 20.00     0.157 C 
HETATM    2  N8  UNL     1     -32.185   6.774   2.737  1.00 20.00    -0.275 NA
HETATM    3  S9  UNL     1     -32.212   9.258   1.519  1.00 20.00    -0.055 SA
ENDROOT
BRANCH   2   4
HETATM    4  C5  UNL     1     -32.794   6.718   4.068  1.00 20.00     0.155 C 
BRANCH   4   5
HETATM    5  C7  UNL     1     -34.242   6.200   3.986  1.00 20.00     0.005 C 
HETATM    6  C4  UNL     1     -34.336   5.096   2.922  1.00 20.00     0.012 C 
BRANCH   5   7
HETATM    7  C6  UNL     1     -34.811   5.739   5.361  1.00 20.00    -0.017 C 
HETATM    8  C2  UNL     1     -34.776   4.213   5.515  1.00 20.00     0.010 C 
HETATM    9  C3  UNL     1     -34.056   6.367   6.540  1.00 20.00     0.010 C 
ENDBRANCH   5   7
ENDBRANCH   4   5
ENDBRANCH   2   4
TORSDOF 3
ENDMDL
MODEL 3
REMARK VINA RESULT:      -4.5      0.708      1.878
REMARK  3 active torsions:
REMARK  status: ('A' for Active; 'I' for Inactive)
REMARK    1  A    between atoms: C5_5  and  C7_7 
REMARK    2  A    between atoms: C5_5  and  N8_8 
REMARK    3  A    between atoms: C6_6  and  C7_7 
ROOT
HETATM    1  C1  UNL     1     -32.167   7.840   2.345  1.00 20.00     0.157 C 
HETATM    2  N8  UNL     1     -32.281   7.035   3.192  1.00 20.00    -0.275 NA
HETATM    3  S9  UNL     1     -31.985   8.922   1.190  1.00 20.00    -0.055 SA
ENDROOT
BRANCH   2   4
HETATM    4  C5  UNL     1     -33.552   7.079   3.916  1.00 20.00     0.155 C 
BRANCH   4   5
HETATM    5  C7  UNL     1     -33.579   6.028   5.041  1.00 20.00     0.005 C 
HETATM    6  C4  UNL     1     -33.844   6.719   6.387  1.00 20.00     0.012 C 
BRANCH   5   7
HETATM    7  C6  UNL     1     -34.578   4.863   4.774  1.00 20.00    -0.017 C 
HETATM    8  C2  UNL     1     -35.141   4.278   6.076  1.00 20.00     0.010 C 
HETATM    9  C3  UNL     1     -35.753   5.300   3.888  1.00 20.00     0.010 C 
ENDBRANCH   5   7
ENDBRANCH   4   5
ENDBRANCH   2   4
TORSDOF 3
ENDMDL
MODEL 4
REMARK VINA RESULT:      -3.7     11.708     12.277
REMARK  3 active torsions:
REMARK  status: ('A' for Active; 'I' for Inactive)
REMARK    1  A    between atoms: C5_5  and  C7_7 
REMARK    2  A    between atoms: C5_5  and  N8_8 
REMARK    3  A    between atoms: C6_6  and  C7_7 
ROOT
HETATM    1  C1  UNL     1     -38.467  15.059  -3.554  1.00 20.00     0.157 C 
HETATM    2  N8  UNL     1     -37.646  14.257  -3.807  1.00 20.00    -0.275 NA
HETATM    3  S9  UNL     1     -39.598  16.123  -3.201  1.00 20.00    -0.055 SA
ENDROOT
BRANCH   2   4
HETATM    4  C5  UNL     1     -36.408  14.801  -4.370  1.00 20.00     0.155 C 
BRANCH   4   5
HETATM    5  C7  UNL     1     -35.179  14.084  -3.783  1.00 20.00     0.005 C 
HETATM    6  C4  UNL     1     -34.516  13.223  -4.869  1.00 20.00     0.012 C 
BRANCH   5   7
HETATM    7  C6  UNL     1     -34.165  15.053  -3.104  1.00 20.00    -0.017 C 
HETATM    8  C2  UNL     1     -33.384  15.882  -4.132  1.00 20.00     0.010 C 
HETATM    9  C3  UNL     1     -34.851  16.013  -2.123  1.00 20.00     0.010 C 
ENDBRANCH   5   7
ENDBRANCH   4   5
ENDBRANCH   2   4
TORSDOF 3
ENDMDL
MODEL 5
REMARK VINA RESULT:      -3.7     11.118     12.067
REMARK  3 active torsions:
REMARK  status: ('A' for Active; 'I' for Inactive)
REMARK    1  A    between atoms: C5_5  and  C7_7 
REMARK    2  A    between atoms: C5_5  and  N8_8 
REMARK    3  A    between atoms: C6_6  and  C7_7 
ROOT
HETATM    1  C1  UNL     1     -34.763  17.011  -0.293  1.00 20.00     0.157 C 
HETATM    2  N8  UNL     1     -34.671  16.271  -1.200  1.00 20.00    -0.275 NA
HETATM    3  S9  UNL     1     -34.905  17.995   0.952  1.00 20.00    -0.055 SA
ENDROOT
BRANCH   2   4
HETATM    4  C5  UNL     1     -33.907  16.785  -2.339  1.00 20.00     0.155 C 
BRANCH   4   5
HETATM    5  C7  UNL     1     -34.264  16.023  -3.628  1.00 20.00     0.005 C 
HETATM    6  C4  UNL     1     -33.182  16.269  -4.690  1.00 20.00     0.012 C 
BRANCH   5   7
HETATM    7  C6  UNL     1     -34.523  14.505  -3.396  1.00 20.00    -0.017 C 
HETATM    8  C2  UNL     1     -35.718  13.994  -4.212  1.00 20.00     0.010 C 
HETATM    9  C3  UNL     1     -33.296  13.650  -3.740  1.00 20.00     0.010 C 
ENDBRANCH   5   7
ENDBRANCH   4   5
ENDBRANCH   2   4
TORSDOF 3
ENDMDL
MODEL 6
REMARK VINA RESULT:      -3.6     11.374     12.669
REMARK  3 active torsions:
REMARK  status: ('A' for Active; 'I' for Inactive)
REMARK    1  A    between atoms: C5_5  and  C7_7 
REMARK    2  A    between atoms: C5_5  and  N8_8 
REMARK    3  A    between atoms: C6_6  and  C7_7 
ROOT
HETATM    1  C1  UNL     1     -34.021  17.096  -2.784  1.00 20.00     0.157 C 
HETATM    2  N8  UNL     1     -33.671  17.393  -3.865  1.00 20.00    -0.275 NA
HETATM    3  S9  UNL     1     -34.502  16.722  -1.312  1.00 20.00    -0.055 SA
ENDROOT
BRANCH   2   4
HETATM    4  C5  UNL     1     -33.186  16.280  -4.683  1.00 20.00     0.155 C 
BRANCH   4   5
HETATM    5  C7  UNL     1     -34.355  15.558  -5.376  1.00 20.00     0.005 C 
HETATM    6  C4  UNL     1     -34.152  15.589  -6.898  1.00 20.00     0.012 C 
BRANCH   5   7
HETATM    7  C6  UNL     1     -34.590  14.112  -4.846  1.00 20.00    -0.017 C 
HETATM    8  C2  UNL     1     -33.475  13.661  -3.893  1.00 20.00     0.010 C 
HETATM    9  C3  UNL     1     -35.936  13.973  -4.122  1.00 20.00     0.010 C 
ENDBRANCH   5   7
ENDBRANCH   4   5
ENDBRANCH   2   4
TORSDOF 3
ENDMDL
MODEL 7
REMARK VINA RESULT:      -3.6      9.999     10.932
REMARK  3 active torsions:
REMARK  status: ('A' for Active; 'I' for Inactive)
REMARK    1  A    between atoms: C5_5  and  C7_7 
REMARK    2  A    between atoms: C5_5  and  N8_8 
REMARK    3  A    between atoms: C6_6  and  C7_7 
ROOT
HETATM    1  C1  UNL     1     -42.905   7.609  -4.099  1.00 20.00     0.157 C 
HETATM    2  N8  UNL     1     -43.206   6.554  -3.682  1.00 20.00    -0.275 NA
HETATM    3  S9  UNL     1     -42.504   9.032  -4.693  1.00 20.00    -0.055 SA
ENDROOT
BRANCH   2   4
HETATM    4  C5  UNL     1     -43.046   6.396  -2.234  1.00 20.00     0.155 C 
BRANCH   4   5
HETATM    5  C7  UNL     1     -41.557   6.314  -1.853  1.00 20.00     0.005 C 
HETATM    6  C4  UNL     1     -41.209   7.451  -0.881  1.00 20.00     0.012 C 
BRANCH   5   7
HETATM    7  C6  UNL     1     -41.137   4.920  -1.299  1.00 20.00    -0.017 C 
HETATM    8  C2  UNL     1     -41.650   4.692   0.130  1.00 20.00     0.010 C 
HETATM    9  C3  UNL     1     -41.635   3.771  -2.185  1.00 20.00     0.010 C 
ENDBRANCH   5   7
ENDBRANCH   4   5
ENDBRANCH   2   4
TORSDOF 3
ENDMDL
MODEL 8
REMARK VINA RESULT:      -3.6     11.382     12.349
REMARK  3 active torsions:
REMARK  status: ('A' for Active; 'I' for Inactive)
REMARK    1  A    between atoms: C5_5  and  C7_7 
REMARK    2  A    between atoms: C5_5  and  N8_8 
REMARK    3  A    between atoms: C6_6  and  C7_7 
ROOT
HETATM    1  C1  UNL     1     -34.752  16.515  -1.183  1.00 20.00     0.157 C 
HETATM    2  N8  UNL     1     -34.683  15.887  -2.173  1.00 20.00    -0.275 NA
HETATM    3  S9  UNL     1     -34.860  17.344   0.174  1.00 20.00    -0.055 SA
ENDROOT
BRANCH   2   4
HETATM    4  C5  UNL     1     -33.944  16.532  -3.260  1.00 20.00     0.155 C 
BRANCH   4   5
HETATM    5  C7  UNL     1     -33.432  15.488  -4.269  1.00 20.00     0.005 C 
HETATM    6  C4  UNL     1     -32.470  14.518  -3.565  1.00 20.00     0.012 C 
BRANCH   5   7
HETATM    7  C6  UNL     1     -34.575  14.739  -5.017  1.00 20.00    -0.017 C 
HETATM    8  C2  UNL     1     -34.523  14.976  -6.532  1.00 20.00     0.010 C 
HETATM    9  C3  UNL     1     -34.542  13.227  -4.758  1.00 20.00     0.010 C 
ENDBRANCH   5   7
ENDBRANCH   4   5
ENDBRANCH   2   4
TORSDOF 3
ENDMDL
MODEL 9
REMARK VINA RESULT:      -3.5     11.886     12.867
REMARK  3 active torsions:
REMARK  status: ('A' for Active; 'I' for Inactive)
REMARK    1  A    between atoms: C5_5  and  C7_7 
REMARK    2  A    between atoms: C5_5  and  N8_8 
REMARK    3  A    between atoms: C6_6  and  C7_7 
ROOT
HETATM    1  C1  UNL     1     -33.664  17.977  -5.612  1.00 20.00     0.157 C 
HETATM    2  N8  UNL     1     -33.388  17.303  -4.691  1.00 20.00    -0.275 NA
HETATM    3  S9  UNL     1     -34.009  18.888  -6.872  1.00 20.00    -0.055 SA
ENDROOT
BRANCH   2   4
HETATM    4  C5  UNL     1     -34.491  17.053  -3.759  1.00 20.00     0.155 C 
BRANCH   4   5
HETATM    5  C7  UNL     1     -34.104  15.977  -2.729  1.00 20.00     0.005 C 
HETATM    6  C4  UNL     1     -34.594  16.396  -1.335  1.00 20.00     0.012 C 
BRANCH   5   7
HETATM    7  C6  UNL     1     -34.592  14.549  -3.116  1.00 20.00    -0.017 C 
HETATM    8  C2  UNL     1     -35.850  14.588  -3.993  1.00 20.00     0.010 C 
HETATM    9  C3  UNL     1     -33.510  13.747  -3.851  1.00 20.00     0.010 C 
ENDBRANCH   5   7
ENDBRANCH   4   5
ENDBRANCH   2   4
TORSDOF 3
ENDMDL
