MODEL 1
REMARK VINA RESULT:      -3.9      0.000      0.000
REMARK  1 active torsions:
REMARK  status: ('A' for Active; 'I' for Inactive)
REMARK       I    between atoms: C1_1  and  N8_8 
REMARK    1  A    between atoms: C5_5  and  N8_8 
ROOT
HETATM    1  C2  UNL     1     -35.793  15.480  -3.579  1.00 20.00     0.036 C 
HETATM    2  C3  UNL     1     -35.968  14.062  -4.100  1.00 20.00     0.076 C 
HETATM    3  C4  UNL     1     -33.435  14.869  -3.700  1.00 20.00     0.099 C 
HETATM    4  C5  UNL     1     -34.489  15.485  -2.791  1.00 20.00     0.096 C 
HETATM    5  S10 UNL     1     -34.297  13.514  -4.551  1.00 20.00    -0.167 SA
ENDROOT
BRANCH   4   6
HETATM    6  N8  UNL     1     -34.124  16.809  -2.365  1.00 20.00    -0.351 N 
HETATM    7  C1  UNL     1     -34.087  17.171  -1.008  1.00 20.00     0.215 C 
HETATM    8  C6  UNL     1     -33.099  18.235  -0.603  1.00 20.00     0.117 C 
HETATM    9  O9  UNL     1     -34.815  16.667  -0.149  1.00 20.00    -0.274 OA
HETATM   10  C7  UNL     1     -33.792  17.759  -3.434  1.00 20.00     0.153 C 
ENDBRANCH   4   6
TORSDOF 1
ENDMDL
MODEL 2
REMARK VINA RESULT:      -3.9      2.707      4.243
REMARK  1 active torsions:
REMARK  status: ('A' for Active; 'I' for Inactive)
REMARK       I    between atoms: C1_1  and  N8_8 
REMARK    1  A    between atoms: C5_5  and  N8_8 
ROOT
HETATM    1  C2  UNL     1     -33.772  17.638  -3.208  1.00 20.00     0.036 C 
HETATM    2  C3  UNL     1     -33.620  18.282  -1.839  1.00 20.00     0.076 C 
HETATM    3  C4  UNL     1     -34.787  15.861  -1.882  1.00 20.00     0.099 C 
HETATM    4  C5  UNL     1     -33.761  16.132  -2.973  1.00 20.00     0.096 C 
HETATM    5  S10 UNL     1     -34.593  17.241  -0.715  1.00 20.00    -0.167 SA
ENDROOT
BRANCH   4   6
HETATM    6  N8  UNL     1     -34.049  15.399  -4.176  1.00 20.00    -0.351 N 
HETATM    7  C1  UNL     1     -33.900  14.005  -4.252  1.00 20.00     0.215 C 
HETATM    8  C6  UNL     1     -34.812  13.261  -5.195  1.00 20.00     0.117 C 
HETATM    9  O9  UNL     1     -33.071  13.371  -3.593  1.00 20.00    -0.274 OA
HETATM   10  C7  UNL     1     -34.509  16.196  -5.320  1.00 20.00     0.153 C 
ENDBRANCH   4   6
TORSDOF 1
ENDMDL
MODEL 3
REMARK VINA RESULT:      -3.8      3.288      4.160
REMARK  1 active torsions:
REMARK  status: ('A' for Active; 'I' for Inactive)
REMARK       I    between atoms: C1_1  and  N8_8 
REMARK    1  A    between atoms: C5_5  and  N8_8 
ROOT
HETATM    1  C2  UNL     1     -38.072  14.814  -3.785  1.00 20.00     0.036 C 
HETATM    2  C3  UNL     1     -39.227  15.095  -4.734  1.00 20.00     0.076 C 
HETATM    3  C4  UNL     1     -36.831  16.068  -5.470  1.00 20.00     0.099 C 
HETATM    4  C5  UNL     1     -36.813  14.789  -4.643  1.00 20.00     0.096 C 
HETATM    5  S10 UNL     1     -38.574  16.290  -5.934  1.00 20.00    -0.167 SA
ENDROOT
BRANCH   4   6
HETATM    6  N8  UNL     1     -35.621  14.681  -3.846  1.00 20.00    -0.351 N 
HETATM    7  C1  UNL     1     -34.681  13.658  -4.047  1.00 20.00     0.215 C 
HETATM    8  C6  UNL     1     -33.242  13.966  -3.721  1.00 20.00     0.117 C 
HETATM    9  O9  UNL     1     -34.974  12.537  -4.471  1.00 20.00    -0.274 OA
HETATM   10  C7  UNL     1     -35.447  15.706  -2.809  1.00 20.00     0.153 C 
ENDBRANCH   4   6
TORSDOF 1
ENDMDL
MODEL 4
REMARK VINA RESULT:      -3.7      2.781      4.320
REMARK  1 active torsions:
REMARK  status: ('A' for Active; 'I' for Inactive)
REMARK       I    between atoms: C1_1  and  N8_8 
REMARK    1  A    between atoms: C5_5  and  N8_8 
ROOT
HETATM    1  C2  UNL     1     -34.154  16.514  -1.570  1.00 20.00     0.036 C 
HETATM    2  C3  UNL     1     -34.865  17.461  -0.615  1.00 20.00     0.076 C 
HETATM    3  C4  UNL     1     -36.091  17.015  -2.966  1.00 20.00     0.099 C 
HETATM    4  C5  UNL     1     -35.243  15.873  -2.422  1.00 20.00     0.096 C 
HETATM    5  S10 UNL     1     -36.208  18.196  -1.590  1.00 20.00    -0.167 SA
ENDROOT
BRANCH   4   6
HETATM    6  N8  UNL     1     -34.694  15.062  -3.475  1.00 20.00    -0.351 N 
HETATM    7  C1  UNL     1     -35.501  14.251  -4.288  1.00 20.00     0.215 C 
HETATM    8  C6  UNL     1     -35.036  14.006  -5.701  1.00 20.00     0.117 C 
HETATM    9  O9  UNL     1     -36.557  13.738  -3.905  1.00 20.00    -0.274 OA
HETATM   10  C7  UNL     1     -33.237  15.134  -3.648  1.00 20.00     0.153 C 
ENDBRANCH   4   6
TORSDOF 1
ENDMDL
MODEL 5
REMARK VINA RESULT:      -3.7      2.882      4.370
REMARK  1 active torsions:
REMARK  status: ('A' for Active; 'I' for Inactive)
REMARK       I    between atoms: C1_1  and  N8_8 
REMARK    1  A    between atoms: C5_5  and  N8_8 
ROOT
HETATM    1  C2  UNL     1     -33.841  16.183  -2.280  1.00 20.00     0.036 C 
HETATM    2  C3  UNL     1     -34.467  16.774  -1.026  1.00 20.00     0.076 C 
HETATM    3  C4  UNL     1     -35.924  16.966  -3.277  1.00 20.00     0.099 C 
HETATM    4  C5  UNL     1     -34.999  15.762  -3.176  1.00 20.00     0.096 C 
HETATM    5  S10 UNL     1     -35.922  17.689  -1.610  1.00 20.00    -0.167 SA
ENDROOT
BRANCH   4   6
HETATM    6  N8  UNL     1     -34.546  15.322  -4.467  1.00 20.00    -0.351 N 
HETATM    7  C1  UNL     1     -34.995  14.123  -5.046  1.00 20.00     0.215 C 
HETATM    8  C6  UNL     1     -35.059  14.062  -6.551  1.00 20.00     0.117 C 
HETATM    9  O9  UNL     1     -35.333  13.135  -4.389  1.00 20.00    -0.274 OA
HETATM   10  C7  UNL     1     -33.585  16.201  -5.146  1.00 20.00     0.153 C 
ENDBRANCH   4   6
TORSDOF 1
ENDMDL
MODEL 6
REMARK VINA RESULT:      -3.6      3.258      4.499
REMARK  1 active torsions:
REMARK  status: ('A' for Active; 'I' for Inactive)
REMARK       I    between atoms: C1_1  and  N8_8 
REMARK    1  A    between atoms: C5_5  and  N8_8 
ROOT
HETATM    1  C2  UNL     1     -34.952  13.583  -4.630  1.00 20.00     0.036 C 
HETATM    2  C3  UNL     1     -33.676  13.669  -3.808  1.00 20.00     0.076 C 
HETATM    3  C4  UNL     1     -34.736  16.012  -4.591  1.00 20.00     0.099 C 
HETATM    4  C5  UNL     1     -35.719  14.872  -4.361  1.00 20.00     0.096 C 
HETATM    5  S10 UNL     1     -33.164  15.407  -3.909  1.00 20.00    -0.167 SA
ENDROOT
BRANCH   4   6
HETATM    6  N8  UNL     1     -36.882  14.989  -5.198  1.00 20.00    -0.351 N 
HETATM    7  C1  UNL     1     -38.184  14.923  -4.676  1.00 20.00     0.215 C 
HETATM    8  C6  UNL     1     -39.259  15.699  -5.394  1.00 20.00     0.117 C 
HETATM    9  O9  UNL     1     -38.484  14.269  -3.673  1.00 20.00    -0.274 OA
HETATM   10  C7  UNL     1     -36.627  15.181  -6.631  1.00 20.00     0.153 C 
ENDBRANCH   4   6
TORSDOF 1
ENDMDL
MODEL 7
REMARK VINA RESULT:      -3.6      2.525      3.173
REMARK  1 active torsions:
REMARK  status: ('A' for Active; 'I' for Inactive)
REMARK       I    between atoms: C1_1  and  N8_8 
REMARK    1  A    between atoms: C5_5  and  N8_8 
ROOT
HETATM    1  C2  UNL     1     -34.796  14.210  -6.073  1.00 20.00     0.036 C 
HETATM    2  C3  UNL     1     -35.416  14.477  -7.436  1.00 20.00     0.076 C 
HETATM    3  C4  UNL     1     -36.343  15.973  -5.403  1.00 20.00     0.099 C 
HETATM    4  C5  UNL     1     -34.894  15.519  -5.298  1.00 20.00     0.096 C 
HETATM    5  S10 UNL     1     -36.828  15.570  -7.108  1.00 20.00    -0.167 SA
ENDROOT
BRANCH   4   6
HETATM    6  N8  UNL     1     -34.477  15.365  -3.930  1.00 20.00    -0.351 N 
HETATM    7  C1  UNL     1     -34.204  16.470  -3.107  1.00 20.00     0.215 C 
HETATM    8  C6  UNL     1     -34.454  16.309  -1.629  1.00 20.00     0.117 C 
HETATM    9  O9  UNL     1     -33.776  17.547  -3.531  1.00 20.00    -0.274 OA
HETATM   10  C7  UNL     1     -34.354  13.984  -3.447  1.00 20.00     0.153 C 
ENDBRANCH   4   6
TORSDOF 1
ENDMDL
MODEL 8
REMARK VINA RESULT:      -3.5     13.370     14.812
REMARK  1 active torsions:
REMARK  status: ('A' for Active; 'I' for Inactive)
REMARK       I    between atoms: C1_1  and  N8_8 
REMARK    1  A    between atoms: C5_5  and  N8_8 
ROOT
HETATM    1  C2  UNL     1     -41.361   2.387  -3.324  1.00 20.00     0.036 C 
HETATM    2  C3  UNL     1     -41.989   1.084  -3.793  1.00 20.00     0.076 C 
HETATM    3  C4  UNL     1     -43.414   2.509  -2.013  1.00 20.00     0.099 C 
HETATM    4  C5  UNL     1     -42.517   3.306  -2.950  1.00 20.00     0.096 C 
HETATM    5  S10 UNL     1     -43.416   0.826  -2.700  1.00 20.00    -0.167 SA
ENDROOT
BRANCH   4   6
HETATM    6  N8  UNL     1     -42.059   4.527  -2.345  1.00 20.00    -0.351 N 
HETATM    7  C1  UNL     1     -42.647   5.769  -2.635  1.00 20.00     0.215 C 
HETATM    8  C6  UNL     1     -42.630   6.814  -1.549  1.00 20.00     0.117 C 
HETATM    9  O9  UNL     1     -43.170   6.038  -3.721  1.00 20.00    -0.274 OA
HETATM   10  C7  UNL     1     -40.938   4.398  -1.405  1.00 20.00     0.153 C 
ENDBRANCH   4   6
TORSDOF 1
ENDMDL
MODEL 9
REMARK VINA RESULT:      -3.4      3.021      4.416
REMARK  1 active torsions:
REMARK  status: ('A' for Active; 'I' for Inactive)
REMARK       I    between atoms: C1_1  and  N8_8 
REMARK    1  A    between atoms: C5_5  and  N8_8 
ROOT
HETATM    1  C2  UNL     1     -34.526  15.911  -1.955  1.00 20.00     0.036 C 
HETATM    2  C3  UNL     1     -34.577  17.085  -0.990  1.00 20.00     0.076 C 
HETATM    3  C4  UNL     1     -33.819  17.656  -3.506  1.00 20.00     0.099 C 
HETATM    4  C5  UNL     1     -34.782  16.489  -3.341  1.00 20.00     0.096 C 
HETATM    5  S10 UNL     1     -33.791  18.461  -1.876  1.00 20.00    -0.167 SA
ENDROOT
BRANCH   4   6
HETATM    6  N8  UNL     1     -34.613  15.503  -4.374  1.00 20.00    -0.351 N 
HETATM    7  C1  UNL     1     -35.162  15.665  -5.656  1.00 20.00     0.215 C 
HETATM    8  C6  UNL     1     -34.428  15.030  -6.810  1.00 20.00     0.117 C 
HETATM    9  O9  UNL     1     -36.201  16.293  -5.877  1.00 20.00    -0.274 OA
HETATM   10  C7  UNL     1     -33.830  14.316  -4.007  1.00 20.00     0.153 C 
ENDBRANCH   4   6
TORSDOF 1
ENDMDL
