MODEL 1
REMARK VINA RESULT:      -5.2      0.000      0.000
REMARK  1 active torsions:
REMARK  status: ('A' for Active; 'I' for Inactive)
REMARK    1  A    between atoms: C8_8  and  C9_9 
ROOT
HETATM    1  C1  UNL     1     -37.748  14.626  -3.979  1.00 20.00     0.085 C 
HETATM    2  C2  UNL     1     -34.021  13.859  -4.502  1.00 20.00     0.003 C 
HETATM    3  C3  UNL     1     -33.507  14.563  -3.252  1.00 20.00     0.005 C 
HETATM    4  C6  UNL     1     -35.533  13.640  -4.445  1.00 20.00     0.041 C 
HETATM    5  C7  UNL     1     -35.763  15.663  -2.937  1.00 20.00     0.046 C 
HETATM    6  C9  UNL     1     -34.240  15.886  -2.994  1.00 20.00    -0.008 C 
HETATM    7  C10 UNL     1     -36.320  14.932  -4.170  1.00 20.00     0.125 C 
HETATM    8  N11 UNL     1     -38.873  14.385  -3.828  1.00 20.00    -0.195 NA
HETATM    9 CL12 UNL     1     -36.241  16.012  -5.607  1.00 20.00    -0.103 Cl
ENDROOT
BRANCH   6  10
HETATM   10  C8  UNL     1     -33.748  16.532  -1.724  1.00 20.00    -0.010 A 
HETATM   11  C4  UNL     1     -33.969  18.000  -1.485  1.00 20.00     0.005 A 
HETATM   12  C5  UNL     1     -34.726  16.985  -0.676  1.00 20.00     0.005 A 
ENDBRANCH   6  10
TORSDOF 1
ENDMDL
MODEL 2
REMARK VINA RESULT:      -5.1      1.923      2.414
REMARK  1 active torsions:
REMARK  status: ('A' for Active; 'I' for Inactive)
REMARK    1  A    between atoms: C8_8  and  C9_9 
ROOT
HETATM    1  C1  UNL     1     -34.895  13.697  -4.462  1.00 20.00     0.085 C 
HETATM    2  C2  UNL     1     -34.042  17.386  -5.108  1.00 20.00     0.003 C 
HETATM    3  C3  UNL     1     -33.575  17.721  -3.696  1.00 20.00     0.005 C 
HETATM    4  C6  UNL     1     -34.125  15.876  -5.331  1.00 20.00     0.041 C 
HETATM    5  C7  UNL     1     -34.537  15.538  -2.854  1.00 20.00     0.046 C 
HETATM    6  C9  UNL     1     -34.455  17.059  -2.627  1.00 20.00    -0.008 C 
HETATM    7  C10 UNL     1     -34.981  15.156  -4.277  1.00 20.00     0.125 C 
HETATM    8  N11 UNL     1     -34.827  12.548  -4.608  1.00 20.00    -0.195 NA
HETATM    9 CL12 UNL     1     -36.715  15.575  -4.508  1.00 20.00    -0.103 Cl
ENDROOT
BRANCH   6  10
HETATM   10  C8  UNL     1     -33.938  17.365  -1.245  1.00 20.00    -0.010 A 
HETATM   11  C4  UNL     1     -34.542  18.482  -0.439  1.00 20.00     0.005 A 
HETATM   12  C5  UNL     1     -34.778  17.054  -0.037  1.00 20.00     0.005 A 
ENDBRANCH   6  10
TORSDOF 1
ENDMDL
MODEL 3
REMARK VINA RESULT:      -4.7      1.817      1.896
REMARK  1 active torsions:
REMARK  status: ('A' for Active; 'I' for Inactive)
REMARK    1  A    between atoms: C8_8  and  C9_9 
ROOT
HETATM    1  C1  UNL     1     -36.650  15.839  -6.520  1.00 20.00     0.085 C 
HETATM    2  C2  UNL     1     -34.177  13.470  -4.781  1.00 20.00     0.003 C 
HETATM    3  C3  UNL     1     -34.386  13.989  -3.363  1.00 20.00     0.005 C 
HETATM    4  C6  UNL     1     -35.284  13.943  -5.723  1.00 20.00     0.041 C 
HETATM    5  C7  UNL     1     -35.636  15.991  -4.273  1.00 20.00     0.046 C 
HETATM    6  C9  UNL     1     -34.521  15.517  -3.323  1.00 20.00    -0.008 C 
HETATM    7  C10 UNL     1     -35.477  15.468  -5.711  1.00 20.00     0.125 C 
HETATM    8  N11 UNL     1     -37.575  16.131  -7.158  1.00 20.00    -0.195 NA
HETATM    9 CL12 UNL     1     -34.070  16.268  -6.498  1.00 20.00    -0.103 Cl
ENDROOT
BRANCH   6  10
HETATM   10  C8  UNL     1     -34.779  15.995  -1.917  1.00 20.00    -0.010 A 
HETATM   11  C4  UNL     1     -33.887  17.033  -1.293  1.00 20.00     0.005 A 
HETATM   12  C5  UNL     1     -35.298  17.384  -1.673  1.00 20.00     0.005 A 
ENDBRANCH   6  10
TORSDOF 1
ENDMDL
MODEL 4
REMARK VINA RESULT:      -4.7      2.119      2.396
REMARK  1 active torsions:
REMARK  status: ('A' for Active; 'I' for Inactive)
REMARK    1  A    between atoms: C8_8  and  C9_9 
ROOT
HETATM    1  C1  UNL     1     -37.029  14.471  -4.108  1.00 20.00     0.085 C 
HETATM    2  C2  UNL     1     -33.204  14.200  -3.882  1.00 20.00     0.003 C 
HETATM    3  C3  UNL     1     -32.913  15.694  -3.813  1.00 20.00     0.005 C 
HETATM    4  C6  UNL     1     -34.679  13.899  -3.613  1.00 20.00     0.041 C 
HETATM    5  C7  UNL     1     -35.301  16.196  -4.485  1.00 20.00     0.046 C 
HETATM    6  C9  UNL     1     -33.816  16.500  -4.758  1.00 20.00    -0.008 C 
HETATM    7  C10 UNL     1     -35.632  14.694  -4.520  1.00 20.00     0.125 C 
HETATM    8  N11 UNL     1     -38.129  14.297  -3.784  1.00 20.00    -0.195 NA
HETATM    9 CL12 UNL     1     -35.519  14.084  -6.209  1.00 20.00    -0.103 Cl
ENDROOT
BRANCH   6  10
HETATM   10  C8  UNL     1     -33.541  17.977  -4.629  1.00 20.00    -0.010 A 
HETATM   11  C4  UNL     1     -33.583  18.864  -5.842  1.00 20.00     0.005 A 
HETATM   12  C5  UNL     1     -34.657  18.971  -4.795  1.00 20.00     0.005 A 
ENDBRANCH   6  10
TORSDOF 1
ENDMDL
MODEL 5
REMARK VINA RESULT:      -4.7      3.056      3.982
REMARK  1 active torsions:
REMARK  status: ('A' for Active; 'I' for Inactive)
REMARK    1  A    between atoms: C8_8  and  C9_9 
ROOT
HETATM    1  C1  UNL     1     -34.636  13.759  -4.111  1.00 20.00     0.085 C 
HETATM    2  C2  UNL     1     -34.264  16.994  -2.075  1.00 20.00     0.003 C 
HETATM    3  C3  UNL     1     -34.662  17.961  -3.185  1.00 20.00     0.005 C 
HETATM    4  C6  UNL     1     -34.647  15.555  -2.417  1.00 20.00     0.041 C 
HETATM    5  C7  UNL     1     -34.468  16.098  -4.886  1.00 20.00     0.046 C 
HETATM    6  C9  UNL     1     -34.080  17.549  -4.544  1.00 20.00    -0.008 C 
HETATM    7  C10 UNL     1     -34.106  15.092  -3.780  1.00 20.00     0.125 C 
HETATM    8  N11 UNL     1     -35.053  12.708  -4.373  1.00 20.00    -0.195 NA
HETATM    9 CL12 UNL     1     -32.319  14.900  -3.692  1.00 20.00    -0.103 Cl
ENDROOT
BRANCH   6  10
HETATM   10  C8  UNL     1     -34.534  18.492  -5.628  1.00 20.00    -0.010 A 
HETATM   11  C4  UNL     1     -33.524  19.211  -6.479  1.00 20.00     0.005 A 
HETATM   12  C5  UNL     1     -34.367  18.119  -7.075  1.00 20.00     0.005 A 
ENDBRANCH   6  10
TORSDOF 1
ENDMDL
MODEL 6
REMARK VINA RESULT:      -4.6      2.686      4.302
REMARK  1 active torsions:
REMARK  status: ('A' for Active; 'I' for Inactive)
REMARK    1  A    between atoms: C8_8  and  C9_9 
ROOT
HETATM    1  C1  UNL     1     -33.893  17.859  -3.149  1.00 20.00     0.085 C 
HETATM    2  C2  UNL     1     -34.002  14.031  -3.443  1.00 20.00     0.003 C 
HETATM    3  C3  UNL     1     -35.336  13.936  -4.175  1.00 20.00     0.005 C 
HETATM    4  C6  UNL     1     -33.442  15.453  -3.471  1.00 20.00     0.041 C 
HETATM    5  C7  UNL     1     -35.797  16.370  -3.660  1.00 20.00     0.046 C 
HETATM    6  C9  UNL     1     -36.363  14.938  -3.630  1.00 20.00    -0.008 C 
HETATM    7  C10 UNL     1     -34.437  16.504  -2.953  1.00 20.00     0.125 C 
HETATM    8  N11 UNL     1     -33.465  18.926  -3.304  1.00 20.00    -0.195 NA
HETATM    9 CL12 UNL     1     -34.653  16.317  -1.177  1.00 20.00    -0.103 Cl
ENDROOT
BRANCH   6  10
HETATM   10  C8  UNL     1     -37.652  14.858  -4.407  1.00 20.00    -0.010 A 
HETATM   11  C4  UNL     1     -38.974  14.900  -3.690  1.00 20.00     0.005 A 
HETATM   12  C5  UNL     1     -38.538  16.066  -4.532  1.00 20.00     0.005 A 
ENDBRANCH   6  10
TORSDOF 1
ENDMDL
MODEL 7
REMARK VINA RESULT:      -4.6      2.244      3.023
REMARK  1 active torsions:
REMARK  status: ('A' for Active; 'I' for Inactive)
REMARK    1  A    between atoms: C8_8  and  C9_9 
ROOT
HETATM    1  C1  UNL     1     -34.727  14.893  -6.360  1.00 20.00     0.085 C 
HETATM    2  C2  UNL     1     -37.727  15.079  -3.969  1.00 20.00     0.003 C 
HETATM    3  C3  UNL     1     -37.167  16.158  -3.049  1.00 20.00     0.005 C 
HETATM    4  C6  UNL     1     -36.944  14.993  -5.279  1.00 20.00     0.041 C 
HETATM    5  C7  UNL     1     -34.883  15.878  -4.100  1.00 20.00     0.046 C 
HETATM    6  C9  UNL     1     -35.669  15.963  -2.778  1.00 20.00    -0.008 C 
HETATM    7  C10 UNL     1     -35.432  14.816  -5.069  1.00 20.00     0.125 C 
HETATM    8  N11 UNL     1     -34.171  14.954  -7.377  1.00 20.00    -0.195 NA
HETATM    9 CL12 UNL     1     -35.093  13.171  -4.426  1.00 20.00    -0.103 Cl
ENDROOT
BRANCH   6  10
HETATM   10  C8  UNL     1     -35.134  17.074  -1.911  1.00 20.00    -0.010 A 
HETATM   11  C4  UNL     1     -34.695  16.789  -0.500  1.00 20.00     0.005 A 
HETATM   12  C5  UNL     1     -33.674  17.118  -1.553  1.00 20.00     0.005 A 
ENDBRANCH   6  10
TORSDOF 1
ENDMDL
MODEL 8
REMARK VINA RESULT:      -4.5      2.992      3.991
REMARK  1 active torsions:
REMARK  status: ('A' for Active; 'I' for Inactive)
REMARK    1  A    between atoms: C8_8  and  C9_9 
ROOT
HETATM    1  C1  UNL     1     -34.786  16.017  -2.084  1.00 20.00     0.085 C 
HETATM    2  C2  UNL     1     -34.926  13.405  -4.896  1.00 20.00     0.003 C 
HETATM    3  C3  UNL     1     -34.425  14.308  -6.018  1.00 20.00     0.005 C 
HETATM    4  C6  UNL     1     -34.658  14.013  -3.520  1.00 20.00     0.041 C 
HETATM    5  C7  UNL     1     -34.741  16.334  -4.534  1.00 20.00     0.046 C 
HETATM    6  C9  UNL     1     -35.013  15.723  -5.922  1.00 20.00    -0.008 C 
HETATM    7  C10 UNL     1     -35.209  15.440  -3.372  1.00 20.00     0.125 C 
HETATM    8  N11 UNL     1     -34.453  16.472  -1.070  1.00 20.00    -0.195 NA
HETATM    9 CL12 UNL     1     -37.006  15.398  -3.321  1.00 20.00    -0.103 Cl
ENDROOT
BRANCH   6  10
HETATM   10  C8  UNL     1     -34.459  16.607  -7.010  1.00 20.00    -0.010 A 
HETATM   11  C4  UNL     1     -35.389  17.365  -7.918  1.00 20.00     0.005 A 
HETATM   12  C5  UNL     1     -34.566  18.102  -6.899  1.00 20.00     0.005 A 
ENDBRANCH   6  10
TORSDOF 1
ENDMDL
MODEL 9
REMARK VINA RESULT:      -4.5      2.903      4.751
REMARK  1 active torsions:
REMARK  status: ('A' for Active; 'I' for Inactive)
REMARK    1  A    between atoms: C8_8  and  C9_9 
ROOT
HETATM    1  C1  UNL     1     -33.394  18.160  -0.976  1.00 20.00     0.085 C 
HETATM    2  C2  UNL     1     -36.623  17.390  -2.908  1.00 20.00     0.003 C 
HETATM    3  C3  UNL     1     -36.382  15.896  -3.090  1.00 20.00     0.005 C 
HETATM    4  C6  UNL     1     -35.697  17.986  -1.848  1.00 20.00     0.041 C 
HETATM    5  C7  UNL     1     -33.982  16.186  -2.340  1.00 20.00     0.046 C 
HETATM    6  C9  UNL     1     -34.913  15.585  -3.410  1.00 20.00    -0.008 C 
HETATM    7  C10 UNL     1     -34.211  17.690  -2.107  1.00 20.00     0.125 C 
HETATM    8  N11 UNL     1     -32.750  18.530  -0.084  1.00 20.00    -0.195 NA
HETATM    9 CL12 UNL     1     -33.644  18.621  -3.538  1.00 20.00    -0.103 Cl
ENDROOT
BRANCH   6  10
HETATM   10  C8  UNL     1     -34.695  14.098  -3.531  1.00 20.00    -0.010 A 
HETATM   11  C4  UNL     1     -34.371  13.486  -4.866  1.00 20.00     0.005 A 
HETATM   12  C5  UNL     1     -33.319  13.554  -3.794  1.00 20.00     0.005 A 
ENDBRANCH   6  10
TORSDOF 1
ENDMDL
