MODEL 1
REMARK VINA RESULT:      -5.5      0.000      0.000
REMARK  1 active torsions:
REMARK  status: ('A' for Active; 'I' for Inactive)
REMARK    1  A    between atoms: C10_10  and  C11_11 
ROOT
HETATM    1  C1  UNL     1     -37.807  14.787  -4.454  1.00 20.00     0.088 C 
HETATM    2  C2  UNL     1     -35.471  14.964  -5.017  1.00 20.00    -0.070 C 
HETATM    3  C3  UNL     1     -36.758  15.181  -5.323  1.00 20.00     0.096 C 
HETATM    4  C4  UNL     1     -34.343  15.374  -5.926  1.00 20.00     0.035 C 
HETATM    5  C5  UNL     1     -35.044  14.310  -3.728  1.00 20.00     0.039 C 
HETATM    6  C6  UNL     1     -33.328  16.241  -5.181  1.00 20.00     0.005 C 
HETATM    7  C7  UNL     1     -32.859  15.584  -3.879  1.00 20.00     0.005 C 
HETATM    8  C10 UNL     1     -34.023  15.169  -2.961  1.00 20.00    -0.007 C 
HETATM    9  N12 UNL     1     -38.669  14.468  -3.748  1.00 20.00    -0.192 NA
ENDROOT
BRANCH   8  10
HETATM   10  C11 UNL     1     -34.688  16.386  -2.308  1.00 20.00    -0.010 A 
HETATM   11  C8  UNL     1     -34.637  16.549  -0.823  1.00 20.00     0.005 A 
HETATM   12  C9  UNL     1     -33.838  17.461  -1.711  1.00 20.00     0.005 A 
ENDBRANCH   8  10
TORSDOF 1
ENDMDL
MODEL 2
REMARK VINA RESULT:      -5.1      1.903      2.483
REMARK  1 active torsions:
REMARK  status: ('A' for Active; 'I' for Inactive)
REMARK    1  A    between atoms: C10_10  and  C11_11 
ROOT
HETATM    1  C1  UNL     1     -34.860  13.640  -5.281  1.00 20.00     0.088 C 
HETATM    2  C2  UNL     1     -34.277  15.902  -5.872  1.00 20.00    -0.070 C 
HETATM    3  C3  UNL     1     -35.011  14.800  -6.081  1.00 20.00     0.096 C 
HETATM    4  C4  UNL     1     -34.421  17.143  -6.711  1.00 20.00     0.035 C 
HETATM    5  C5  UNL     1     -33.257  15.996  -4.765  1.00 20.00     0.039 C 
HETATM    6  C6  UNL     1     -34.676  18.369  -5.834  1.00 20.00     0.005 C 
HETATM    7  C7  UNL     1     -33.637  18.501  -4.717  1.00 20.00     0.005 C 
HETATM    8  C10 UNL     1     -33.498  17.225  -3.869  1.00 20.00    -0.007 C 
HETATM    9  N12 UNL     1     -34.742  12.688  -4.630  1.00 20.00    -0.192 NA
ENDROOT
BRANCH   8  10
HETATM   10  C11 UNL     1     -34.709  17.022  -2.951  1.00 20.00    -0.010 A 
HETATM   11  C8  UNL     1     -34.891  15.719  -2.242  1.00 20.00     0.005 A 
HETATM   12  C9  UNL     1     -34.510  16.952  -1.472  1.00 20.00     0.005 A 
ENDBRANCH   8  10
TORSDOF 1
ENDMDL
MODEL 3
REMARK VINA RESULT:      -4.9      2.323      3.908
REMARK  1 active torsions:
REMARK  status: ('A' for Active; 'I' for Inactive)
REMARK    1  A    between atoms: C10_10  and  C11_11 
ROOT
HETATM    1  C1  UNL     1     -34.026  16.927  -1.340  1.00 20.00     0.088 C 
HETATM    2  C2  UNL     1     -34.439  15.362  -3.124  1.00 20.00    -0.070 C 
HETATM    3  C3  UNL     1     -34.799  15.911  -1.955  1.00 20.00     0.096 C 
HETATM    4  C4  UNL     1     -35.245  14.281  -3.792  1.00 20.00     0.035 C 
HETATM    5  C5  UNL     1     -33.206  15.795  -3.876  1.00 20.00     0.039 C 
HETATM    6  C6  UNL     1     -35.588  14.667  -5.232  1.00 20.00     0.005 C 
HETATM    7  C7  UNL     1     -34.347  15.085  -6.025  1.00 20.00     0.005 C 
HETATM    8  C10 UNL     1     -33.532  16.189  -5.328  1.00 20.00    -0.007 C 
HETATM    9  N12 UNL     1     -33.398  17.759  -0.832  1.00 20.00    -0.192 NA
ENDROOT
BRANCH   8  10
HETATM   10  C11 UNL     1     -34.243  17.545  -5.397  1.00 20.00    -0.010 A 
HETATM   11  C8  UNL     1     -33.654  18.726  -4.696  1.00 20.00     0.005 A 
HETATM   12  C9  UNL     1     -33.641  18.655  -6.197  1.00 20.00     0.005 A 
ENDBRANCH   8  10
TORSDOF 1
ENDMDL
MODEL 4
REMARK VINA RESULT:      -4.9      2.428      3.319
REMARK  1 active torsions:
REMARK  status: ('A' for Active; 'I' for Inactive)
REMARK    1  A    between atoms: C10_10  and  C11_11 
ROOT
HETATM    1  C1  UNL     1     -33.623  18.155  -5.759  1.00 20.00     0.088 C 
HETATM    2  C2  UNL     1     -34.587  15.947  -5.716  1.00 20.00    -0.070 C 
HETATM    3  C3  UNL     1     -33.663  16.802  -6.179  1.00 20.00     0.096 C 
HETATM    4  C4  UNL     1     -34.647  14.507  -6.150  1.00 20.00     0.035 C 
HETATM    5  C5  UNL     1     -35.631  16.353  -4.708  1.00 20.00     0.039 C 
HETATM    6  C6  UNL     1     -34.634  13.572  -4.940  1.00 20.00     0.005 C 
HETATM    7  C7  UNL     1     -35.705  13.948  -3.913  1.00 20.00     0.005 C 
HETATM    8  C10 UNL     1     -35.633  15.423  -3.480  1.00 20.00    -0.007 C 
HETATM    9  N12 UNL     1     -33.585  19.263  -5.420  1.00 20.00    -0.192 NA
ENDROOT
BRANCH   8  10
HETATM   10  C11 UNL     1     -34.426  15.687  -2.573  1.00 20.00    -0.010 A 
HETATM   11  C8  UNL     1     -33.951  17.088  -2.363  1.00 20.00     0.005 A 
HETATM   12  C9  UNL     1     -34.630  16.346  -1.247  1.00 20.00     0.005 A 
ENDBRANCH   8  10
TORSDOF 1
ENDMDL
MODEL 5
REMARK VINA RESULT:      -4.8      1.945      3.852
REMARK  1 active torsions:
REMARK  status: ('A' for Active; 'I' for Inactive)
REMARK    1  A    between atoms: C10_10  and  C11_11 
ROOT
HETATM    1  C1  UNL     1     -34.477  13.430  -4.119  1.00 20.00     0.088 C 
HETATM    2  C2  UNL     1     -34.602  15.561  -3.002  1.00 20.00    -0.070 C 
HETATM    3  C3  UNL     1     -34.069  14.335  -3.108  1.00 20.00     0.096 C 
HETATM    4  C4  UNL     1     -34.184  16.537  -1.936  1.00 20.00     0.035 C 
HETATM    5  C5  UNL     1     -35.654  16.070  -3.955  1.00 20.00     0.039 C 
HETATM    6  C6  UNL     1     -33.764  17.872  -2.552  1.00 20.00     0.005 C 
HETATM    7  C7  UNL     1     -34.830  18.424  -3.504  1.00 20.00     0.005 C 
HETATM    8  C10 UNL     1     -35.250  17.415  -4.587  1.00 20.00    -0.007 C 
HETATM    9  N12 UNL     1     -34.806  12.684  -4.944  1.00 20.00    -0.192 NA
ENDROOT
BRANCH   8  10
HETATM   10  C11 UNL     1     -34.154  17.232  -5.644  1.00 20.00    -0.010 A 
HETATM   11  C8  UNL     1     -34.278  16.140  -6.656  1.00 20.00     0.005 A 
HETATM   12  C9  UNL     1     -34.440  17.576  -7.070  1.00 20.00     0.005 A 
ENDBRANCH   8  10
TORSDOF 1
ENDMDL
MODEL 6
REMARK VINA RESULT:      -4.5      2.692      4.456
REMARK  1 active torsions:
REMARK  status: ('A' for Active; 'I' for Inactive)
REMARK    1  A    between atoms: C10_10  and  C11_11 
ROOT
HETATM    1  C1  UNL     1     -33.679  18.164  -5.666  1.00 20.00     0.088 C 
HETATM    2  C2  UNL     1     -33.530  15.896  -4.867  1.00 20.00    -0.070 C 
HETATM    3  C3  UNL     1     -33.370  17.212  -4.663  1.00 20.00     0.096 C 
HETATM    4  C4  UNL     1     -33.208  14.869  -3.815  1.00 20.00     0.035 C 
HETATM    5  C5  UNL     1     -34.066  15.337  -6.160  1.00 20.00     0.039 C 
HETATM    6  C6  UNL     1     -34.405  13.952  -3.562  1.00 20.00     0.005 C 
HETATM    7  C7  UNL     1     -34.951  13.350  -4.860  1.00 20.00     0.005 C 
HETATM    8  C10 UNL     1     -35.274  14.411  -5.926  1.00 20.00    -0.007 C 
HETATM    9  N12 UNL     1     -33.929  18.948  -6.482  1.00 20.00    -0.192 NA
ENDROOT
BRANCH   8  10
HETATM   10  C11 UNL     1     -36.533  15.209  -5.565  1.00 20.00    -0.010 A 
HETATM   11  C8  UNL     1     -36.859  16.457  -6.320  1.00 20.00     0.005 A 
HETATM   12  C9  UNL     1     -37.694  15.221  -6.506  1.00 20.00     0.005 A 
ENDBRANCH   8  10
TORSDOF 1
ENDMDL
MODEL 7
REMARK VINA RESULT:      -4.5      1.909      3.890
REMARK  1 active torsions:
REMARK  status: ('A' for Active; 'I' for Inactive)
REMARK    1  A    between atoms: C10_10  and  C11_11 
ROOT
HETATM    1  C1  UNL     1     -35.197  17.253  -1.599  1.00 20.00     0.088 C 
HETATM    2  C2  UNL     1     -34.367  15.674  -3.218  1.00 20.00    -0.070 C 
HETATM    3  C3  UNL     1     -34.366  16.168  -1.972  1.00 20.00     0.096 C 
HETATM    4  C4  UNL     1     -33.492  14.522  -3.634  1.00 20.00     0.035 C 
HETATM    5  C5  UNL     1     -35.261  16.219  -4.303  1.00 20.00     0.039 C 
HETATM    6  C6  UNL     1     -34.322  13.408  -4.272  1.00 20.00     0.005 C 
HETATM    7  C7  UNL     1     -35.220  13.934  -5.397  1.00 20.00     0.005 C 
HETATM    8  C10 UNL     1     -36.107  15.112  -4.957  1.00 20.00    -0.007 C 
HETATM    9  N12 UNL     1     -35.874  18.141  -1.287  1.00 20.00    -0.192 NA
ENDROOT
BRANCH   8  10
HETATM   10  C11 UNL     1     -37.242  14.651  -4.035  1.00 20.00    -0.010 A 
HETATM   11  C8  UNL     1     -38.154  15.663  -3.423  1.00 20.00     0.005 A 
HETATM   12  C9  UNL     1     -38.658  14.746  -4.503  1.00 20.00     0.005 A 
ENDBRANCH   8  10
TORSDOF 1
ENDMDL
MODEL 8
REMARK VINA RESULT:      -4.5      2.084      3.081
REMARK  1 active torsions:
REMARK  status: ('A' for Active; 'I' for Inactive)
REMARK    1  A    between atoms: C10_10  and  C11_11 
ROOT
HETATM    1  C1  UNL     1     -35.935  14.738  -7.190  1.00 20.00     0.088 C 
HETATM    2  C2  UNL     1     -34.853  14.432  -5.059  1.00 20.00    -0.070 C 
HETATM    3  C3  UNL     1     -35.100  14.008  -6.307  1.00 20.00     0.096 C 
HETATM    4  C4  UNL     1     -33.971  13.671  -4.106  1.00 20.00     0.035 C 
HETATM    5  C5  UNL     1     -35.422  15.716  -4.513  1.00 20.00     0.039 C 
HETATM    6  C6  UNL     1     -32.865  14.569  -3.551  1.00 20.00     0.005 C 
HETATM    7  C7  UNL     1     -33.422  15.870  -2.965  1.00 20.00     0.005 C 
HETATM    8  C10 UNL     1     -34.323  16.636  -3.950  1.00 20.00    -0.007 C 
HETATM    9  N12 UNL     1     -36.616  15.331  -7.918  1.00 20.00    -0.192 NA
ENDROOT
BRANCH   8  10
HETATM   10  C11 UNL     1     -33.507  17.289  -5.071  1.00 20.00    -0.010 A 
HETATM   11  C8  UNL     1     -34.209  17.869  -6.256  1.00 20.00     0.005 A 
HETATM   12  C9  UNL     1     -33.553  18.772  -5.250  1.00 20.00     0.005 A 
ENDBRANCH   8  10
TORSDOF 1
ENDMDL
MODEL 9
REMARK VINA RESULT:      -4.5      1.636      2.575
REMARK  1 active torsions:
REMARK  status: ('A' for Active; 'I' for Inactive)
REMARK    1  A    between atoms: C10_10  and  C11_11 
ROOT
HETATM    1  C1  UNL     1     -37.870  15.364  -3.788  1.00 20.00     0.088 C 
HETATM    2  C2  UNL     1     -36.206  16.908  -4.594  1.00 20.00    -0.070 C 
HETATM    3  C3  UNL     1     -37.278  16.651  -3.831  1.00 20.00     0.096 C 
HETATM    4  C4  UNL     1     -35.562  18.267  -4.654  1.00 20.00     0.035 C 
HETATM    5  C5  UNL     1     -35.543  15.851  -5.441  1.00 20.00     0.039 C 
HETATM    6  C6  UNL     1     -34.066  18.177  -4.349  1.00 20.00     0.005 C 
HETATM    7  C7  UNL     1     -33.366  17.128  -5.217  1.00 20.00     0.005 C 
HETATM    8  C10 UNL     1     -34.036  15.744  -5.147  1.00 20.00    -0.007 C 
HETATM    9  N12 UNL     1     -38.360  14.314  -3.748  1.00 20.00    -0.192 NA
ENDROOT
BRANCH   8  10
HETATM   10  C11 UNL     1     -33.772  15.056  -3.803  1.00 20.00    -0.010 A 
HETATM   11  C8  UNL     1     -34.509  13.803  -3.456  1.00 20.00     0.005 A 
HETATM   12  C9  UNL     1     -33.040  13.754  -3.771  1.00 20.00     0.005 A 
ENDBRANCH   8  10
TORSDOF 1
ENDMDL
