MODEL 1
REMARK VINA RESULT:      -5.1      0.000      0.000
REMARK  1 active torsions:
REMARK  status: ('A' for Active; 'I' for Inactive)
REMARK    1  A    between atoms: C9_9  and  C10_10 
ROOT
HETATM    1  C1  UNL     1     -34.425  13.798  -4.449  1.00 20.00     0.064 C 
HETATM    2  C2  UNL     1     -35.949  16.533  -4.509  1.00 20.00     0.002 C 
HETATM    3  C3  UNL     1     -34.656  16.141  -5.224  1.00 20.00     0.019 C 
HETATM    4  C4  UNL     1     -35.681  17.033  -3.093  1.00 20.00     0.005 C 
HETATM    5  C7  UNL     1     -33.587  15.618  -2.988  1.00 20.00     0.024 C 
HETATM    6  C8  UNL     1     -33.812  15.139  -4.428  1.00 20.00     0.093 C 
HETATM    7  C10 UNL     1     -34.889  16.010  -2.268  1.00 20.00    -0.009 C 
HETATM    8  N11 UNL     1     -34.906  12.741  -4.464  1.00 20.00    -0.197 NA
ENDROOT
BRANCH   7   9
HETATM    9  C9  UNL     1     -34.598  16.546  -0.889  1.00 20.00    -0.010 A 
HETATM   10  C5  UNL     1     -33.676  17.720  -0.712  1.00 20.00     0.005 A 
HETATM   11  C6  UNL     1     -35.150  17.877  -0.463  1.00 20.00     0.005 A 
ENDBRANCH   7   9
TORSDOF 1
ENDMDL
MODEL 2
REMARK VINA RESULT:      -4.7      1.592      2.491
REMARK  1 active torsions:
REMARK  status: ('A' for Active; 'I' for Inactive)
REMARK    1  A    between atoms: C9_9  and  C10_10 
ROOT
HETATM    1  C1  UNL     1     -36.134  14.864  -5.684  1.00 20.00     0.064 C 
HETATM    2  C2  UNL     1     -33.613  14.062  -4.007  1.00 20.00     0.002 C 
HETATM    3  C3  UNL     1     -34.950  13.331  -4.137  1.00 20.00     0.019 C 
HETATM    4  C4  UNL     1     -33.655  15.125  -2.914  1.00 20.00     0.005 C 
HETATM    5  C7  UNL     1     -36.148  15.383  -3.258  1.00 20.00     0.024 C 
HETATM    6  C8  UNL     1     -36.136  14.283  -4.328  1.00 20.00     0.093 C 
HETATM    7  C10 UNL     1     -34.803  16.120  -3.131  1.00 20.00    -0.009 C 
HETATM    8  N11 UNL     1     -36.134  15.322  -6.751  1.00 20.00    -0.197 NA
ENDROOT
BRANCH   7   9
HETATM    9  C9  UNL     1     -34.852  17.132  -2.014  1.00 20.00    -0.010 A 
HETATM   10  C5  UNL     1     -34.682  16.694  -0.586  1.00 20.00     0.005 A 
HETATM   11  C6  UNL     1     -33.600  17.489  -1.263  1.00 20.00     0.005 A 
ENDBRANCH   7   9
TORSDOF 1
ENDMDL
MODEL 3
REMARK VINA RESULT:      -4.7      1.550      1.654
REMARK  1 active torsions:
REMARK  status: ('A' for Active; 'I' for Inactive)
REMARK    1  A    between atoms: C9_9  and  C10_10 
ROOT
HETATM    1  C1  UNL     1     -37.053  14.548  -3.991  1.00 20.00     0.064 C 
HETATM    2  C2  UNL     1     -35.832  17.384  -4.513  1.00 20.00     0.002 C 
HETATM    3  C3  UNL     1     -35.501  16.058  -5.198  1.00 20.00     0.019 C 
HETATM    4  C4  UNL     1     -35.020  17.578  -3.236  1.00 20.00     0.005 C 
HETATM    5  C7  UNL     1     -34.861  15.068  -2.955  1.00 20.00     0.024 C 
HETATM    6  C8  UNL     1     -35.636  14.851  -4.262  1.00 20.00     0.093 C 
HETATM    7  C10 UNL     1     -35.196  16.402  -2.265  1.00 20.00    -0.009 C 
HETATM    8  N11 UNL     1     -38.169  14.308  -3.777  1.00 20.00    -0.197 NA
ENDROOT
BRANCH   7   9
HETATM    9  C9  UNL     1     -34.349  16.595  -1.033  1.00 20.00    -0.010 A 
HETATM   10  C5  UNL     1     -33.864  17.967  -0.654  1.00 20.00     0.005 A 
HETATM   11  C6  UNL     1     -34.918  17.286   0.175  1.00 20.00     0.005 A 
ENDBRANCH   7   9
TORSDOF 1
ENDMDL
MODEL 4
REMARK VINA RESULT:      -4.5      1.751      2.293
REMARK  1 active torsions:
REMARK  status: ('A' for Active; 'I' for Inactive)
REMARK    1  A    between atoms: C9_9  and  C10_10 
ROOT
HETATM    1  C1  UNL     1     -36.822  15.066  -5.253  1.00 20.00     0.064 C 
HETATM    2  C2  UNL     1     -33.947  16.058  -6.004  1.00 20.00     0.002 C 
HETATM    3  C3  UNL     1     -34.537  14.653  -6.122  1.00 20.00     0.019 C 
HETATM    4  C4  UNL     1     -33.368  16.313  -4.616  1.00 20.00     0.005 C 
HETATM    5  C7  UNL     1     -34.994  14.644  -3.630  1.00 20.00     0.024 C 
HETATM    6  C8  UNL     1     -35.560  14.339  -5.023  1.00 20.00     0.093 C 
HETATM    7  C10 UNL     1     -34.403  16.060  -3.512  1.00 20.00    -0.009 C 
HETATM    8  N11 UNL     1     -37.816  15.638  -5.432  1.00 20.00    -0.197 NA
ENDROOT
BRANCH   7   9
HETATM    9  C9  UNL     1     -33.795  16.274  -2.149  1.00 20.00    -0.010 A 
HETATM   10  C5  UNL     1     -33.772  17.646  -1.536  1.00 20.00     0.005 A 
HETATM   11  C6  UNL     1     -34.673  16.584  -0.969  1.00 20.00     0.005 A 
ENDBRANCH   7   9
TORSDOF 1
ENDMDL
MODEL 5
REMARK VINA RESULT:      -4.5      2.116      4.629
REMARK  1 active torsions:
REMARK  status: ('A' for Active; 'I' for Inactive)
REMARK    1  A    between atoms: C9_9  and  C10_10 
ROOT
HETATM    1  C1  UNL     1     -34.109  16.048  -2.454  1.00 20.00     0.064 C 
HETATM    2  C2  UNL     1     -34.191  13.308  -3.970  1.00 20.00     0.002 C 
HETATM    3  C3  UNL     1     -32.977  14.149  -3.574  1.00 20.00     0.019 C 
HETATM    4  C4  UNL     1     -34.769  13.749  -5.311  1.00 20.00     0.005 C 
HETATM    5  C7  UNL     1     -33.889  16.089  -4.924  1.00 20.00     0.024 C 
HETATM    6  C8  UNL     1     -33.260  15.655  -3.593  1.00 20.00     0.093 C 
HETATM    7  C10 UNL     1     -35.113  15.244  -5.320  1.00 20.00    -0.009 C 
HETATM    8  N11 UNL     1     -34.779  16.358  -1.557  1.00 20.00    -0.197 NA
ENDROOT
BRANCH   7   9
HETATM    9  C9  UNL     1     -35.639  15.664  -6.670  1.00 20.00    -0.010 A 
HETATM   10  C5  UNL     1     -34.755  16.416  -7.626  1.00 20.00     0.005 A 
HETATM   11  C6  UNL     1     -35.140  14.992  -7.918  1.00 20.00     0.005 A 
ENDBRANCH   7   9
TORSDOF 1
ENDMDL
MODEL 6
REMARK VINA RESULT:      -4.4     12.779     14.663
REMARK  1 active torsions:
REMARK  status: ('A' for Active; 'I' for Inactive)
REMARK    1  A    between atoms: C9_9  and  C10_10 
ROOT
HETATM    1  C1  UNL     1     -41.246   6.384  -1.157  1.00 20.00     0.064 C 
HETATM    2  C2  UNL     1     -43.277   4.300  -0.000  1.00 20.00     0.002 C 
HETATM    3  C3  UNL     1     -41.833   4.568   0.424  1.00 20.00     0.019 C 
HETATM    4  C4  UNL     1     -43.351   3.309  -1.158  1.00 20.00     0.005 C 
HETATM    5  C7  UNL     1     -41.051   4.034  -1.926  1.00 20.00     0.024 C 
HETATM    6  C8  UNL     1     -40.938   5.003  -0.741  1.00 20.00     0.093 C 
HETATM    7  C10 UNL     1     -42.505   3.768  -2.354  1.00 20.00    -0.009 C 
HETATM    8  N11 UNL     1     -41.487   7.472  -1.485  1.00 20.00    -0.197 NA
ENDROOT
BRANCH   7   9
HETATM    9  C9  UNL     1     -42.557   2.751  -3.467  1.00 20.00    -0.010 A 
HETATM   10  C5  UNL     1     -41.340   1.937  -3.806  1.00 20.00     0.005 A 
HETATM   11  C6  UNL     1     -42.524   1.283  -3.150  1.00 20.00     0.005 A 
ENDBRANCH   7   9
TORSDOF 1
ENDMDL
MODEL 7
REMARK VINA RESULT:      -4.4      2.442      3.281
REMARK  1 active torsions:
REMARK  status: ('A' for Active; 'I' for Inactive)
REMARK    1  A    between atoms: C9_9  and  C10_10 
ROOT
HETATM    1  C1  UNL     1     -36.592  14.279  -3.862  1.00 20.00     0.064 C 
HETATM    2  C2  UNL     1     -34.883  14.386  -6.485  1.00 20.00     0.002 C 
HETATM    3  C3  UNL     1     -34.777  13.412  -5.310  1.00 20.00     0.019 C 
HETATM    4  C4  UNL     1     -34.075  15.656  -6.239  1.00 20.00     0.005 C 
HETATM    5  C7  UNL     1     -34.362  15.359  -3.743  1.00 20.00     0.024 C 
HETATM    6  C8  UNL     1     -35.139  14.054  -3.966  1.00 20.00     0.093 C 
HETATM    7  C10 UNL     1     -34.473  16.340  -4.924  1.00 20.00    -0.009 C 
HETATM    8  N11 UNL     1     -37.737  14.457  -3.778  1.00 20.00    -0.197 NA
ENDROOT
BRANCH   7   9
HETATM    9  C9  UNL     1     -33.629  17.566  -4.682  1.00 20.00    -0.010 A 
HETATM   10  C5  UNL     1     -33.641  18.700  -5.668  1.00 20.00     0.005 A 
HETATM   11  C6  UNL     1     -34.279  18.871  -4.318  1.00 20.00     0.005 A 
ENDBRANCH   7   9
TORSDOF 1
ENDMDL
MODEL 8
REMARK VINA RESULT:      -4.4      1.678      3.683
REMARK  1 active torsions:
REMARK  status: ('A' for Active; 'I' for Inactive)
REMARK    1  A    between atoms: C9_9  and  C10_10 
ROOT
HETATM    1  C1  UNL     1     -35.239  13.653  -4.258  1.00 20.00     0.064 C 
HETATM    2  C2  UNL     1     -33.550  15.982  -3.019  1.00 20.00     0.002 C 
HETATM    3  C3  UNL     1     -34.955  15.511  -2.642  1.00 20.00     0.019 C 
HETATM    4  C4  UNL     1     -33.582  16.989  -4.164  1.00 20.00     0.005 C 
HETATM    5  C7  UNL     1     -35.735  15.964  -5.009  1.00 20.00     0.024 C 
HETATM    6  C8  UNL     1     -35.747  14.972  -3.839  1.00 20.00     0.093 C 
HETATM    7  C10 UNL     1     -34.320  16.435  -5.390  1.00 20.00    -0.009 C 
HETATM    8  N11 UNL     1     -34.840  12.614  -4.589  1.00 20.00    -0.197 NA
ENDROOT
BRANCH   7   9
HETATM    9  C9  UNL     1     -34.378  17.464  -6.491  1.00 20.00    -0.010 A 
HETATM   10  C5  UNL     1     -35.181  18.722  -6.310  1.00 20.00     0.005 A 
HETATM   11  C6  UNL     1     -33.680  18.785  -6.327  1.00 20.00     0.005 A 
ENDBRANCH   7   9
TORSDOF 1
ENDMDL
MODEL 9
REMARK VINA RESULT:      -4.3      1.620      2.389
REMARK  1 active torsions:
REMARK  status: ('A' for Active; 'I' for Inactive)
REMARK    1  A    between atoms: C9_9  and  C10_10 
ROOT
HETATM    1  C1  UNL     1     -34.582  13.606  -3.974  1.00 20.00     0.064 C 
HETATM    2  C2  UNL     1     -33.358  16.296  -5.012  1.00 20.00     0.002 C 
HETATM    3  C3  UNL     1     -32.943  15.457  -3.803  1.00 20.00     0.019 C 
HETATM    4  C4  UNL     1     -34.483  17.266  -4.666  1.00 20.00     0.005 C 
HETATM    5  C7  UNL     1     -35.273  15.701  -2.842  1.00 20.00     0.024 C 
HETATM    6  C8  UNL     1     -34.122  14.733  -3.143  1.00 20.00     0.093 C 
HETATM    7  C10 UNL     1     -35.693  16.543  -4.060  1.00 20.00    -0.009 C 
HETATM    8  N11 UNL     1     -34.946  12.718  -4.628  1.00 20.00    -0.197 NA
ENDROOT
BRANCH   7   9
HETATM    9  C9  UNL     1     -36.772  17.527  -3.684  1.00 20.00    -0.010 A 
HETATM   10  C5  UNL     1     -36.951  17.943  -2.251  1.00 20.00     0.005 A 
HETATM   11  C6  UNL     1     -36.407  18.920  -3.255  1.00 20.00     0.005 A 
ENDBRANCH   7   9
TORSDOF 1
ENDMDL
