MODEL 1
REMARK VINA RESULT:      -4.7      0.000      0.000
REMARK  1 active torsions:
REMARK  status: ('A' for Active; 'I' for Inactive)
REMARK    1  A    between atoms: C8_8  and  C9_9 
ROOT
HETATM    1  C1  UNL     1     -37.000  15.613  -3.927  1.00 20.00     0.004 C 
HETATM    2  C2  UNL     1     -36.167  16.484  -2.985  1.00 20.00     0.005 C 
HETATM    3  C5  UNL     1     -36.137  14.982  -5.017  1.00 20.00     0.040 C 
HETATM    4  C6  UNL     1     -34.129  15.055  -3.446  1.00 20.00     0.045 C 
HETATM    5  C7  UNL     1     -34.357  13.086  -5.134  1.00 20.00     0.207 A 
HETATM    6  C9  UNL     1     -35.009  15.689  -2.357  1.00 20.00    -0.008 C 
HETATM    7  C10 UNL     1     -34.961  14.269  -4.416  1.00 20.00     0.083 A 
HETATM    8  O11 UNL     1     -35.232  12.921  -4.007  1.00 20.00    -0.375 OA
ENDROOT
BRANCH   6   9
HETATM    9  C8  UNL     1     -34.190  16.563  -1.444  1.00 20.00    -0.010 A 
HETATM   10  C3  UNL     1     -34.525  18.021  -1.291  1.00 20.00     0.005 A 
HETATM   11  C4  UNL     1     -34.775  17.068  -0.154  1.00 20.00     0.005 A 
ENDBRANCH   6   9
TORSDOF 1
ENDMDL
MODEL 2
REMARK VINA RESULT:      -4.6      1.527      1.866
REMARK  1 active torsions:
REMARK  status: ('A' for Active; 'I' for Inactive)
REMARK    1  A    between atoms: C8_8  and  C9_9 
ROOT
HETATM    1  C1  UNL     1     -33.879  17.460  -4.699  1.00 20.00     0.004 C 
HETATM    2  C2  UNL     1     -33.776  17.535  -3.174  1.00 20.00     0.005 C 
HETATM    3  C5  UNL     1     -33.544  16.063  -5.217  1.00 20.00     0.040 C 
HETATM    4  C6  UNL     1     -34.338  15.072  -3.005  1.00 20.00     0.045 C 
HETATM    5  C7  UNL     1     -34.707  13.734  -5.208  1.00 20.00     0.207 A 
HETATM    6  C9  UNL     1     -34.672  16.483  -2.497  1.00 20.00    -0.008 C 
HETATM    7  C10 UNL     1     -34.360  15.024  -4.505  1.00 20.00     0.083 A 
HETATM    8  O11 UNL     1     -35.659  14.802  -5.072  1.00 20.00    -0.375 OA
ENDROOT
BRANCH   6   9
HETATM    9  C8  UNL     1     -34.549  16.558  -0.998  1.00 20.00    -0.010 A 
HETATM   10  C3  UNL     1     -33.790  17.687  -0.356  1.00 20.00     0.005 A 
HETATM   11  C4  UNL     1     -35.287  17.620  -0.229  1.00 20.00     0.005 A 
ENDBRANCH   6   9
TORSDOF 1
ENDMDL
MODEL 3
REMARK VINA RESULT:      -4.6      1.274      2.302
REMARK  1 active torsions:
REMARK  status: ('A' for Active; 'I' for Inactive)
REMARK    1  A    between atoms: C8_8  and  C9_9 
ROOT
HETATM    1  C1  UNL     1     -34.025  13.945  -4.544  1.00 20.00     0.004 C 
HETATM    2  C2  UNL     1     -33.452  14.737  -3.367  1.00 20.00     0.005 C 
HETATM    3  C5  UNL     1     -35.467  13.517  -4.284  1.00 20.00     0.040 C 
HETATM    4  C6  UNL     1     -35.776  15.542  -2.765  1.00 20.00     0.045 C 
HETATM    5  C7  UNL     1     -37.784  14.701  -4.191  1.00 20.00     0.207 A 
HETATM    6  C9  UNL     1     -34.322  15.963  -3.036  1.00 20.00    -0.008 C 
HETATM    7  C10 UNL     1     -36.306  14.696  -3.884  1.00 20.00     0.083 A 
HETATM    8  O11 UNL     1     -36.843  15.440  -4.986  1.00 20.00    -0.375 OA
ENDROOT
BRANCH   6   9
HETATM    9  C8  UNL     1     -33.755  16.724  -1.867  1.00 20.00    -0.010 A 
HETATM   10  C3  UNL     1     -34.334  18.056  -1.479  1.00 20.00     0.005 A 
HETATM   11  C4  UNL     1     -34.545  16.858  -0.595  1.00 20.00     0.005 A 
ENDBRANCH   6   9
TORSDOF 1
ENDMDL
MODEL 4
REMARK VINA RESULT:      -4.5      1.581      2.465
REMARK  1 active torsions:
REMARK  status: ('A' for Active; 'I' for Inactive)
REMARK    1  A    between atoms: C8_8  and  C9_9 
ROOT
HETATM    1  C1  UNL     1     -33.692  13.441  -4.098  1.00 20.00     0.004 C 
HETATM    2  C2  UNL     1     -34.060  14.491  -3.049  1.00 20.00     0.005 C 
HETATM    3  C5  UNL     1     -34.773  13.317  -5.170  1.00 20.00     0.040 C 
HETATM    4  C6  UNL     1     -35.425  15.749  -4.770  1.00 20.00     0.045 C 
HETATM    5  C7  UNL     1     -35.600  14.760  -7.172  1.00 20.00     0.207 A 
HETATM    6  C9  UNL     1     -34.333  15.861  -3.694  1.00 20.00    -0.008 C 
HETATM    7  C10 UNL     1     -35.101  14.661  -5.751  1.00 20.00     0.083 A 
HETATM    8  O11 UNL     1     -34.240  15.068  -6.824  1.00 20.00    -0.375 OA
ENDROOT
BRANCH   6   9
HETATM    9  C8  UNL     1     -34.708  16.881  -2.652  1.00 20.00    -0.010 A 
HETATM   10  C3  UNL     1     -34.766  16.493  -1.200  1.00 20.00     0.005 A 
HETATM   11  C4  UNL     1     -33.672  17.400  -1.693  1.00 20.00     0.005 A 
ENDBRANCH   6   9
TORSDOF 1
ENDMDL
MODEL 5
REMARK VINA RESULT:      -4.4      2.137      2.707
REMARK  1 active torsions:
REMARK  status: ('A' for Active; 'I' for Inactive)
REMARK    1  A    between atoms: C8_8  and  C9_9 
ROOT
HETATM    1  C1  UNL     1     -34.976  15.177  -3.081  1.00 20.00     0.004 C 
HETATM    2  C2  UNL     1     -34.864  15.979  -1.783  1.00 20.00     0.005 C 
HETATM    3  C5  UNL     1     -35.148  16.090  -4.292  1.00 20.00     0.040 C 
HETATM    4  C6  UNL     1     -33.884  17.931  -3.063  1.00 20.00     0.045 C 
HETATM    5  C7  UNL     1     -33.629  17.714  -5.645  1.00 20.00     0.207 A 
HETATM    6  C9  UNL     1     -33.716  17.002  -1.850  1.00 20.00    -0.008 C 
HETATM    7  C10 UNL     1     -34.076  17.139  -4.322  1.00 20.00     0.083 A 
HETATM    8  O11 UNL     1     -32.857  16.721  -4.951  1.00 20.00    -0.375 OA
ENDROOT
BRANCH   6   9
HETATM    9  C8  UNL     1     -33.627  17.794  -0.573  1.00 20.00    -0.010 A 
HETATM   10  C3  UNL     1     -34.598  18.910  -0.305  1.00 20.00     0.005 A 
HETATM   11  C4  UNL     1     -34.678  17.637   0.491  1.00 20.00     0.005 A 
ENDBRANCH   6   9
TORSDOF 1
ENDMDL
MODEL 6
REMARK VINA RESULT:      -4.4      2.195      4.429
REMARK  1 active torsions:
REMARK  status: ('A' for Active; 'I' for Inactive)
REMARK    1  A    between atoms: C8_8  and  C9_9 
ROOT
HETATM    1  C1  UNL     1     -33.725  18.063  -3.885  1.00 20.00     0.004 C 
HETATM    2  C2  UNL     1     -33.806  16.665  -4.500  1.00 20.00     0.005 C 
HETATM    3  C5  UNL     1     -34.723  18.233  -2.742  1.00 20.00     0.040 C 
HETATM    4  C6  UNL     1     -34.601  15.727  -2.287  1.00 20.00     0.045 C 
HETATM    5  C7  UNL     1     -34.932  17.371  -0.295  1.00 20.00     0.207 A 
HETATM    6  C9  UNL     1     -33.596  15.570  -3.439  1.00 20.00    -0.008 C 
HETATM    7  C10 UNL     1     -34.576  17.125  -1.742  1.00 20.00     0.083 A 
HETATM    8  O11 UNL     1     -33.568  17.355  -0.747  1.00 20.00    -0.375 OA
ENDROOT
BRANCH   6   9
HETATM    9  C8  UNL     1     -33.693  14.199  -4.055  1.00 20.00    -0.010 A 
HETATM   10  C3  UNL     1     -34.996  13.448  -4.027  1.00 20.00     0.005 A 
HETATM   11  C4  UNL     1     -34.469  13.993  -5.326  1.00 20.00     0.005 A 
ENDBRANCH   6   9
TORSDOF 1
ENDMDL
MODEL 7
REMARK VINA RESULT:      -4.4     11.703     13.344
REMARK  1 active torsions:
REMARK  status: ('A' for Active; 'I' for Inactive)
REMARK    1  A    between atoms: C8_8  and  C9_9 
ROOT
HETATM    1  C1  UNL     1     -40.653   5.355  -0.458  1.00 20.00     0.004 C 
HETATM    2  C2  UNL     1     -40.895   4.291  -1.530  1.00 20.00     0.005 C 
HETATM    3  C5  UNL     1     -40.993   6.753  -0.968  1.00 20.00     0.040 C 
HETATM    4  C6  UNL     1     -42.694   5.736  -2.572  1.00 20.00     0.045 C 
HETATM    5  C7  UNL     1     -43.172   8.068  -1.517  1.00 20.00     0.207 A 
HETATM    6  C9  UNL     1     -42.343   4.334  -2.050  1.00 20.00    -0.008 C 
HETATM    7  C10 UNL     1     -42.377   6.784  -1.547  1.00 20.00     0.083 A 
HETATM    8  O11 UNL     1     -43.416   7.004  -0.583  1.00 20.00    -0.375 OA
ENDROOT
BRANCH   6   9
HETATM    9  C8  UNL     1     -42.562   3.292  -3.115  1.00 20.00    -0.010 A 
HETATM   10  C3  UNL     1     -41.529   2.227  -3.356  1.00 20.00     0.005 A 
HETATM   11  C4  UNL     1     -42.849   1.866  -2.732  1.00 20.00     0.005 A 
ENDBRANCH   6   9
TORSDOF 1
ENDMDL
MODEL 8
REMARK VINA RESULT:      -4.2      1.815      2.462
REMARK  1 active torsions:
REMARK  status: ('A' for Active; 'I' for Inactive)
REMARK    1  A    between atoms: C8_8  and  C9_9 
ROOT
HETATM    1  C1  UNL     1     -33.763  16.198  -5.733  1.00 20.00     0.004 C 
HETATM    2  C2  UNL     1     -33.227  16.176  -4.301  1.00 20.00     0.005 C 
HETATM    3  C5  UNL     1     -34.941  15.241  -5.906  1.00 20.00     0.040 C 
HETATM    4  C6  UNL     1     -35.521  15.537  -3.440  1.00 20.00     0.045 C 
HETATM    5  C7  UNL     1     -37.437  15.192  -5.168  1.00 20.00     0.207 A 
HETATM    6  C9  UNL     1     -34.333  16.499  -3.280  1.00 20.00    -0.008 C 
HETATM    7  C10 UNL     1     -35.991  15.499  -4.865  1.00 20.00     0.083 A 
HETATM    8  O11 UNL     1     -36.924  16.533  -5.208  1.00 20.00    -0.375 OA
ENDROOT
BRANCH   6   9
HETATM    9  C8  UNL     1     -33.794  16.460  -1.874  1.00 20.00    -0.010 A 
HETATM   10  C3  UNL     1     -33.664  17.729  -1.078  1.00 20.00     0.005 A 
HETATM   11  C4  UNL     1     -34.707  16.712  -0.706  1.00 20.00     0.005 A 
ENDBRANCH   6   9
TORSDOF 1
ENDMDL
MODEL 9
REMARK VINA RESULT:      -4.2      2.520      4.185
REMARK  1 active torsions:
REMARK  status: ('A' for Active; 'I' for Inactive)
REMARK    1  A    between atoms: C8_8  and  C9_9 
ROOT
HETATM    1  C1  UNL     1     -34.639  17.784  -1.797  1.00 20.00     0.004 C 
HETATM    2  C2  UNL     1     -34.517  16.261  -1.869  1.00 20.00     0.005 C 
HETATM    3  C5  UNL     1     -33.712  18.469  -2.798  1.00 20.00     0.040 C 
HETATM    4  C6  UNL     1     -33.855  16.419  -4.307  1.00 20.00     0.045 C 
HETATM    5  C7  UNL     1     -33.648  18.782  -5.382  1.00 20.00     0.207 A 
HETATM    6  C9  UNL     1     -34.788  15.741  -3.292  1.00 20.00    -0.008 C 
HETATM    7  C10 UNL     1     -33.915  17.913  -4.176  1.00 20.00     0.083 A 
HETATM    8  O11 UNL     1     -34.982  18.529  -4.912  1.00 20.00    -0.375 OA
ENDROOT
BRANCH   6   9
HETATM    9  C8  UNL     1     -34.651  14.243  -3.351  1.00 20.00    -0.010 A 
HETATM   10  C3  UNL     1     -34.512  13.547  -4.677  1.00 20.00     0.005 A 
HETATM   11  C4  UNL     1     -33.339  13.617  -3.738  1.00 20.00     0.005 A 
ENDBRANCH   6   9
TORSDOF 1
ENDMDL
