MODEL 1
REMARK VINA RESULT:      -5.3      0.000      0.000
REMARK  1 active torsions:
REMARK  status: ('A' for Active; 'I' for Inactive)
REMARK    1  A    between atoms: C8_8  and  C9_9 
ROOT
HETATM    1  C1  UNL     1     -32.680  15.550  -3.950  1.00 20.00     0.004 C 
HETATM    2  C2  UNL     1     -33.748  16.647  -3.856  1.00 20.00     0.005 C 
HETATM    3  C5  UNL     1     -33.210  14.136  -3.719  1.00 20.00     0.040 C 
HETATM    4  C6  UNL     1     -35.607  14.979  -3.386  1.00 20.00     0.045 C 
HETATM    5  C7  UNL     1     -35.059  13.398  -5.394  1.00 20.00     0.207 A 
HETATM    6  C9  UNL     1     -34.931  16.292  -2.945  1.00 20.00    -0.008 C 
HETATM    7  C10 UNL     1     -34.658  14.039  -4.081  1.00 20.00     0.083 A 
HETATM    8  O11 UNL     1     -35.144  12.688  -4.153  1.00 20.00    -0.375 OA
ENDROOT
BRANCH   6   9
HETATM    9  C8  UNL     1     -34.534  16.272  -1.489  1.00 20.00    -0.010 A 
HETATM   10  C3  UNL     1     -33.710  17.389  -0.912  1.00 20.00     0.005 A 
HETATM   11  C4  UNL     1     -35.153  17.242  -0.522  1.00 20.00     0.005 A 
ENDBRANCH   6   9
TORSDOF 1
ENDMDL
MODEL 2
REMARK VINA RESULT:      -4.7      1.042      1.173
REMARK  1 active torsions:
REMARK  status: ('A' for Active; 'I' for Inactive)
REMARK    1  A    between atoms: C8_8  and  C9_9 
ROOT
HETATM    1  C1  UNL     1     -33.264  15.205  -3.705  1.00 20.00     0.004 C 
HETATM    2  C2  UNL     1     -33.647  16.681  -3.544  1.00 20.00     0.005 C 
HETATM    3  C5  UNL     1     -34.414  14.228  -3.465  1.00 20.00     0.040 C 
HETATM    4  C6  UNL     1     -36.069  16.129  -3.002  1.00 20.00     0.045 C 
HETATM    5  C7  UNL     1     -36.448  14.556  -5.055  1.00 20.00     0.207 A 
HETATM    6  C9  UNL     1     -34.816  16.922  -2.579  1.00 20.00    -0.008 C 
HETATM    7  C10 UNL     1     -35.733  14.869  -3.756  1.00 20.00     0.083 A 
HETATM    8  O11 UNL     1     -36.825  13.937  -3.821  1.00 20.00    -0.375 OA
ENDROOT
BRANCH   6   9
HETATM    9  C8  UNL     1     -34.427  16.657  -1.144  1.00 20.00    -0.010 A 
HETATM   10  C3  UNL     1     -33.616  17.665  -0.380  1.00 20.00     0.005 A 
HETATM   11  C4  UNL     1     -35.061  17.442  -0.030  1.00 20.00     0.005 A 
ENDBRANCH   6   9
TORSDOF 1
ENDMDL
MODEL 3
REMARK VINA RESULT:      -4.7      1.940      2.655
REMARK  1 active torsions:
REMARK  status: ('A' for Active; 'I' for Inactive)
REMARK    1  A    between atoms: C8_8  and  C9_9 
ROOT
HETATM    1  C1  UNL     1     -35.772  14.608  -3.804  1.00 20.00     0.004 C 
HETATM    2  C2  UNL     1     -34.402  14.562  -3.117  1.00 20.00     0.005 C 
HETATM    3  C5  UNL     1     -35.878  15.643  -4.923  1.00 20.00     0.040 C 
HETATM    4  C6  UNL     1     -33.447  16.389  -4.604  1.00 20.00     0.045 C 
HETATM    5  C7  UNL     1     -34.180  15.301  -6.865  1.00 20.00     0.207 A 
HETATM    6  C9  UNL     1     -33.636  15.891  -3.157  1.00 20.00    -0.008 C 
HETATM    7  C10 UNL     1     -34.539  15.919  -5.529  1.00 20.00     0.083 A 
HETATM    8  O11 UNL     1     -34.605  16.664  -6.757  1.00 20.00    -0.375 OA
ENDROOT
BRANCH   6   9
HETATM    9  C8  UNL     1     -34.272  16.935  -2.270  1.00 20.00    -0.010 A 
HETATM   10  C3  UNL     1     -34.652  16.597  -0.856  1.00 20.00     0.005 A 
HETATM   11  C4  UNL     1     -33.501  17.525  -1.123  1.00 20.00     0.005 A 
ENDBRANCH   6   9
TORSDOF 1
ENDMDL
MODEL 4
REMARK VINA RESULT:      -4.7      1.449      1.836
REMARK  1 active torsions:
REMARK  status: ('A' for Active; 'I' for Inactive)
REMARK    1  A    between atoms: C8_8  and  C9_9 
ROOT
HETATM    1  C1  UNL     1     -33.505  13.688  -3.824  1.00 20.00     0.004 C 
HETATM    2  C2  UNL     1     -32.998  15.115  -3.586  1.00 20.00     0.005 C 
HETATM    3  C5  UNL     1     -34.801  13.609  -4.630  1.00 20.00     0.040 C 
HETATM    4  C6  UNL     1     -34.922  16.157  -4.880  1.00 20.00     0.045 C 
HETATM    5  C7  UNL     1     -34.652  14.660  -7.006  1.00 20.00     0.207 A 
HETATM    6  C9  UNL     1     -34.104  16.179  -3.573  1.00 20.00    -0.008 C 
HETATM    7  C10 UNL     1     -34.950  14.796  -5.527  1.00 20.00     0.083 A 
HETATM    8  O11 UNL     1     -35.993  14.653  -6.505  1.00 20.00    -0.375 OA
ENDROOT
BRANCH   6   9
HETATM    9  C8  UNL     1     -34.979  16.068  -2.348  1.00 20.00    -0.010 A 
HETATM   10  C3  UNL     1     -34.479  16.547  -1.014  1.00 20.00     0.005 A 
HETATM   11  C4  UNL     1     -35.567  17.302  -1.723  1.00 20.00     0.005 A 
ENDBRANCH   6   9
TORSDOF 1
ENDMDL
MODEL 5
REMARK VINA RESULT:      -4.4      2.197      4.365
REMARK  1 active torsions:
REMARK  status: ('A' for Active; 'I' for Inactive)
REMARK    1  A    between atoms: C8_8  and  C9_9 
ROOT
HETATM    1  C1  UNL     1     -33.668  13.693  -3.864  1.00 20.00     0.004 C 
HETATM    2  C2  UNL     1     -35.109  13.727  -4.387  1.00 20.00     0.005 C 
HETATM    3  C5  UNL     1     -33.103  15.064  -3.493  1.00 20.00     0.040 C 
HETATM    4  C6  UNL     1     -35.288  16.248  -4.119  1.00 20.00     0.045 C 
HETATM    5  C7  UNL     1     -34.444  16.312  -1.645  1.00 20.00     0.207 A 
HETATM    6  C9  UNL     1     -35.499  15.048  -5.063  1.00 20.00    -0.008 C 
HETATM    7  C10 UNL     1     -34.196  16.010  -3.109  1.00 20.00     0.083 A 
HETATM    8  O11 UNL     1     -33.721  17.216  -2.488  1.00 20.00    -0.375 OA
ENDROOT
BRANCH   6   9
HETATM    9  C8  UNL     1     -34.799  15.231  -6.388  1.00 20.00    -0.010 A 
HETATM   10  C3  UNL     1     -35.234  14.441  -7.591  1.00 20.00     0.005 A 
HETATM   11  C4  UNL     1     -35.501  15.918  -7.526  1.00 20.00     0.005 A 
ENDBRANCH   6   9
TORSDOF 1
ENDMDL
MODEL 6
REMARK VINA RESULT:      -4.1      2.238      4.306
REMARK  1 active torsions:
REMARK  status: ('A' for Active; 'I' for Inactive)
REMARK    1  A    between atoms: C8_8  and  C9_9 
ROOT
HETATM    1  C1  UNL     1     -33.701  17.452  -5.005  1.00 20.00     0.004 C 
HETATM    2  C2  UNL     1     -32.999  16.164  -4.559  1.00 20.00     0.005 C 
HETATM    3  C5  UNL     1     -34.644  18.048  -3.960  1.00 20.00     0.040 C 
HETATM    4  C6  UNL     1     -34.112  16.194  -2.273  1.00 20.00     0.045 C 
HETATM    5  C7  UNL     1     -33.495  18.671  -1.711  1.00 20.00     0.207 A 
HETATM    6  C9  UNL     1     -33.785  15.350  -3.522  1.00 20.00    -0.008 C 
HETATM    7  C10 UNL     1     -34.224  17.665  -2.577  1.00 20.00     0.083 A 
HETATM    8  O11 UNL     1     -34.893  18.410  -1.546  1.00 20.00    -0.375 OA
ENDROOT
BRANCH   6   9
HETATM    9  C8  UNL     1     -35.016  14.713  -4.121  1.00 20.00    -0.010 A 
HETATM   10  C3  UNL     1     -34.947  14.052  -5.469  1.00 20.00     0.005 A 
HETATM   11  C4  UNL     1     -35.116  13.217  -4.231  1.00 20.00     0.005 A 
ENDBRANCH   6   9
TORSDOF 1
ENDMDL
MODEL 7
REMARK VINA RESULT:      -4.0      2.417      4.186
REMARK  1 active torsions:
REMARK  status: ('A' for Active; 'I' for Inactive)
REMARK    1  A    between atoms: C8_8  and  C9_9 
ROOT
HETATM    1  C1  UNL     1     -33.746  17.070  -2.113  1.00 20.00     0.004 C 
HETATM    2  C2  UNL     1     -34.736  15.926  -1.861  1.00 20.00     0.005 C 
HETATM    3  C5  UNL     1     -34.134  17.994  -3.266  1.00 20.00     0.040 C 
HETATM    4  C6  UNL     1     -36.282  16.676  -3.734  1.00 20.00     0.045 C 
HETATM    5  C7  UNL     1     -36.436  19.171  -2.968  1.00 20.00     0.207 A 
HETATM    6  C9  UNL     1     -35.520  15.492  -3.106  1.00 20.00    -0.008 C 
HETATM    7  C10 UNL     1     -35.615  18.002  -3.473  1.00 20.00     0.083 A 
HETATM    8  O11 UNL     1     -36.069  19.049  -4.346  1.00 20.00    -0.375 OA
ENDROOT
BRANCH   6   9
HETATM    9  C8  UNL     1     -34.640  14.781  -4.106  1.00 20.00    -0.010 A 
HETATM   10  C3  UNL     1     -33.663  13.736  -3.648  1.00 20.00     0.005 A 
HETATM   11  C4  UNL     1     -34.880  13.333  -4.430  1.00 20.00     0.005 A 
ENDBRANCH   6   9
TORSDOF 1
ENDMDL
MODEL 8
REMARK VINA RESULT:      -3.9      2.002      2.764
REMARK  1 active torsions:
REMARK  status: ('A' for Active; 'I' for Inactive)
REMARK    1  A    between atoms: C8_8  and  C9_9 
ROOT
HETATM    1  C1  UNL     1     -35.248  18.545  -3.548  1.00 20.00     0.004 C 
HETATM    2  C2  UNL     1     -36.008  17.555  -2.657  1.00 20.00     0.005 C 
HETATM    3  C5  UNL     1     -33.858  18.070  -3.970  1.00 20.00     0.040 C 
HETATM    4  C6  UNL     1     -34.120  15.855  -2.708  1.00 20.00     0.045 C 
HETATM    5  C7  UNL     1     -33.848  15.838  -5.307  1.00 20.00     0.207 A 
HETATM    6  C9  UNL     1     -35.102  16.644  -1.819  1.00 20.00    -0.008 C 
HETATM    7  C10 UNL     1     -33.782  16.576  -3.986  1.00 20.00     0.083 A 
HETATM    8  O11 UNL     1     -32.605  16.066  -4.634  1.00 20.00    -0.375 OA
ENDROOT
BRANCH   6   9
HETATM    9  C8  UNL     1     -34.398  17.405  -0.721  1.00 20.00    -0.010 A 
HETATM   10  C3  UNL     1     -35.050  18.604  -0.092  1.00 20.00     0.005 A 
HETATM   11  C4  UNL     1     -34.901  17.331   0.693  1.00 20.00     0.005 A 
ENDBRANCH   6   9
TORSDOF 1
ENDMDL
MODEL 9
REMARK VINA RESULT:      -3.9     12.068     14.027
REMARK  1 active torsions:
REMARK  status: ('A' for Active; 'I' for Inactive)
REMARK    1  A    between atoms: C8_8  and  C9_9 
ROOT
HETATM    1  C1  UNL     1     -42.178   4.245   0.133  1.00 20.00     0.004 C 
HETATM    2  C2  UNL     1     -43.410   4.026  -0.754  1.00 20.00     0.005 C 
HETATM    3  C5  UNL     1     -41.096   5.118  -0.500  1.00 20.00     0.040 C 
HETATM    4  C6  UNL     1     -42.474   5.459  -2.633  1.00 20.00     0.045 C 
HETATM    5  C7  UNL     1     -41.886   7.516  -1.131  1.00 20.00     0.207 A 
HETATM    6  C9  UNL     1     -43.120   4.111  -2.258  1.00 20.00    -0.008 C 
HETATM    7  C10 UNL     1     -41.683   6.061  -1.501  1.00 20.00     0.083 A 
HETATM    8  O11 UNL     1     -40.774   7.090  -1.926  1.00 20.00    -0.375 OA
ENDROOT
BRANCH   6   9
HETATM    9  C8  UNL     1     -42.310   2.932  -2.743  1.00 20.00    -0.010 A 
HETATM   10  C3  UNL     1     -42.898   1.549  -2.726  1.00 20.00     0.005 A 
HETATM   11  C4  UNL     1     -42.664   2.250  -4.035  1.00 20.00     0.005 A 
ENDBRANCH   6   9
TORSDOF 1
ENDMDL
