MODEL 1
REMARK VINA RESULT:      -4.6      0.000      0.000
REMARK  2 active torsions:
REMARK  status: ('A' for Active; 'I' for Inactive)
REMARK    1  A    between atoms: C3_3  and  C6_6 
REMARK    2  A    between atoms: C3_3  and  O8_8 
ROOT
HETATM    1  C1  UNL     1     -33.496   7.285   6.974  1.00 20.00     0.013 C 
HETATM    2  C2  UNL     1     -34.043   6.524   6.223  1.00 20.00    -0.103 C 
HETATM    3  C4  UNL     1     -34.672   4.174   5.848  1.00 20.00     0.034 C 
HETATM    4  C6  UNL     1     -34.721   5.595   5.299  1.00 20.00     0.159 C 
ENDROOT
BRANCH   4   5
HETATM    5  C3  UNL     1     -34.088   5.641   3.918  1.00 20.00     0.273 C 
HETATM    6  O7  UNL     1     -34.620   5.250   2.887  1.00 20.00    -0.264 OA
BRANCH   5   7
HETATM    7  O8  UNL     1     -32.839   6.189   4.010  1.00 20.00    -0.326 OA
HETATM    8  C5  UNL     1     -32.422   6.967   2.883  1.00 20.00     0.213 C 
ENDBRANCH   5   7
ENDBRANCH   4   5
TORSDOF 2
ENDMDL
MODEL 2
REMARK VINA RESULT:      -4.3      1.564      1.931
REMARK  2 active torsions:
REMARK  status: ('A' for Active; 'I' for Inactive)
REMARK    1  A    between atoms: C3_3  and  C6_6 
REMARK    2  A    between atoms: C3_3  and  O8_8 
ROOT
HETATM    1  C1  UNL     1     -33.961   6.483   6.538  1.00 20.00     0.013 C 
HETATM    2  C2  UNL     1     -33.950   6.479   5.337  1.00 20.00    -0.103 C 
HETATM    3  C4  UNL     1     -34.755   5.311   3.324  1.00 20.00     0.034 C 
HETATM    4  C6  UNL     1     -33.938   6.481   3.862  1.00 20.00     0.159 C 
ENDROOT
BRANCH   4   5
HETATM    5  C3  UNL     1     -32.517   6.411   3.328  1.00 20.00     0.273 C 
HETATM    6  O7  UNL     1     -31.936   5.383   3.007  1.00 20.00    -0.264 OA
BRANCH   5   7
HETATM    7  O8  UNL     1     -31.996   7.673   3.260  1.00 20.00    -0.326 OA
HETATM    8  C5  UNL     1     -32.079   8.308   1.979  1.00 20.00     0.213 C 
ENDBRANCH   5   7
ENDBRANCH   4   5
TORSDOF 2
ENDMDL
MODEL 3
REMARK VINA RESULT:      -4.2      1.686      3.365
REMARK  2 active torsions:
REMARK  status: ('A' for Active; 'I' for Inactive)
REMARK    1  A    between atoms: C3_3  and  C6_6 
REMARK    2  A    between atoms: C3_3  and  O8_8 
ROOT
HETATM    1  C1  UNL     1     -32.102   7.250   3.060  1.00 20.00     0.013 C 
HETATM    2  C2  UNL     1     -32.930   6.543   3.565  1.00 20.00    -0.103 C 
HETATM    3  C4  UNL     1     -35.265   5.774   3.436  1.00 20.00     0.034 C 
HETATM    4  C6  UNL     1     -33.942   5.668   4.186  1.00 20.00     0.159 C 
ENDROOT
BRANCH   4   5
HETATM    5  C3  UNL     1     -34.145   6.022   5.650  1.00 20.00     0.273 C 
HETATM    6  O7  UNL     1     -33.581   6.935   6.238  1.00 20.00    -0.264 OA
BRANCH   5   7
HETATM    7  O8  UNL     1     -35.058   5.166   6.201  1.00 20.00    -0.326 OA
HETATM    8  C5  UNL     1     -34.829   3.775   5.951  1.00 20.00     0.213 C 
ENDBRANCH   5   7
ENDBRANCH   4   5
TORSDOF 2
ENDMDL
MODEL 4
REMARK VINA RESULT:      -4.0      0.866      2.046
REMARK  2 active torsions:
REMARK  status: ('A' for Active; 'I' for Inactive)
REMARK    1  A    between atoms: C3_3  and  C6_6 
REMARK    2  A    between atoms: C3_3  and  O8_8 
ROOT
HETATM    1  C1  UNL     1     -35.331   3.972   5.920  1.00 20.00     0.013 C 
HETATM    2  C2  UNL     1     -34.505   4.827   5.753  1.00 20.00    -0.103 C 
HETATM    3  C4  UNL     1     -33.768   7.072   6.445  1.00 20.00     0.034 C 
HETATM    4  C6  UNL     1     -33.484   5.873   5.548  1.00 20.00     0.159 C 
ENDROOT
BRANCH   4   5
HETATM    5  C3  UNL     1     -33.438   6.312   4.094  1.00 20.00     0.273 C 
HETATM    6  O7  UNL     1     -34.333   6.140   3.278  1.00 20.00    -0.264 OA
BRANCH   5   7
HETATM    7  O8  UNL     1     -32.243   6.929   3.845  1.00 20.00    -0.326 OA
HETATM    8  C5  UNL     1     -32.167   7.653   2.612  1.00 20.00     0.213 C 
ENDBRANCH   5   7
ENDBRANCH   4   5
TORSDOF 2
ENDMDL
MODEL 5
REMARK VINA RESULT:      -3.9     11.774     12.561
REMARK  2 active torsions:
REMARK  status: ('A' for Active; 'I' for Inactive)
REMARK    1  A    between atoms: C3_3  and  C6_6 
REMARK    2  A    between atoms: C3_3  and  O8_8 
ROOT
HETATM    1  C1  UNL     1     -34.460  16.684  -1.202  1.00 20.00     0.013 C 
HETATM    2  C2  UNL     1     -34.016  16.130  -2.170  1.00 20.00    -0.103 C 
HETATM    3  C4  UNL     1     -33.331  16.426  -4.517  1.00 20.00     0.034 C 
HETATM    4  C6  UNL     1     -33.466  15.446  -3.356  1.00 20.00     0.159 C 
ENDROOT
BRANCH   4   5
HETATM    5  C3  UNL     1     -34.342  14.275  -3.765  1.00 20.00     0.273 C 
HETATM    6  O7  UNL     1     -34.152  13.108  -3.447  1.00 20.00    -0.264 OA
BRANCH   5   7
HETATM    7  O8  UNL     1     -35.374  14.729  -4.540  1.00 20.00    -0.326 OA
HETATM    8  C5  UNL     1     -36.687  14.480  -4.026  1.00 20.00     0.213 C 
ENDBRANCH   5   7
ENDBRANCH   4   5
TORSDOF 2
ENDMDL
MODEL 6
REMARK VINA RESULT:      -3.9     11.969     13.223
REMARK  2 active torsions:
REMARK  status: ('A' for Active; 'I' for Inactive)
REMARK    1  A    between atoms: C3_3  and  C6_6 
REMARK    2  A    between atoms: C3_3  and  O8_8 
ROOT
HETATM    1  C1  UNL     1     -34.355  15.166  -7.266  1.00 20.00     0.013 C 
HETATM    2  C2  UNL     1     -34.534  15.068  -6.082  1.00 20.00    -0.103 C 
HETATM    3  C4  UNL     1     -33.435  15.018  -3.880  1.00 20.00     0.034 C 
HETATM    4  C6  UNL     1     -34.761  14.953  -4.629  1.00 20.00     0.159 C 
ENDROOT
BRANCH   4   5
HETATM    5  C3  UNL     1     -35.485  13.661  -4.291  1.00 20.00     0.273 C 
HETATM    6  O7  UNL     1     -34.994  12.541  -4.352  1.00 20.00    -0.264 OA
BRANCH   5   7
HETATM    7  O8  UNL     1     -36.766  13.947  -3.906  1.00 20.00    -0.326 OA
HETATM    8  C5  UNL     1     -36.998  15.297  -3.487  1.00 20.00     0.213 C 
ENDBRANCH   5   7
ENDBRANCH   4   5
TORSDOF 2
ENDMDL
MODEL 7
REMARK VINA RESULT:      -3.8     11.789     12.643
REMARK  2 active torsions:
REMARK  status: ('A' for Active; 'I' for Inactive)
REMARK    1  A    between atoms: C3_3  and  C6_6 
REMARK    2  A    between atoms: C3_3  and  O8_8 
ROOT
HETATM    1  C1  UNL     1     -35.826  16.355  -2.785  1.00 20.00     0.013 C 
HETATM    2  C2  UNL     1     -35.047  15.483  -3.058  1.00 20.00    -0.103 C 
HETATM    3  C4  UNL     1     -32.706  14.990  -3.640  1.00 20.00     0.034 C 
HETATM    4  C6  UNL     1     -34.092  14.408  -3.388  1.00 20.00     0.159 C 
ENDROOT
BRANCH   4   5
HETATM    5  C3  UNL     1     -34.554  13.622  -4.603  1.00 20.00     0.273 C 
HETATM    6  O7  UNL     1     -35.074  12.515  -4.570  1.00 20.00    -0.264 OA
BRANCH   5   7
HETATM    7  O8  UNL     1     -34.301  14.347  -5.735  1.00 20.00    -0.326 OA
HETATM    8  C5  UNL     1     -35.349  14.354  -6.711  1.00 20.00     0.213 C 
ENDBRANCH   5   7
ENDBRANCH   4   5
TORSDOF 2
ENDMDL
MODEL 8
REMARK VINA RESULT:      -3.8     12.011     12.805
REMARK  2 active torsions:
REMARK  status: ('A' for Active; 'I' for Inactive)
REMARK    1  A    between atoms: C3_3  and  C6_6 
REMARK    2  A    between atoms: C3_3  and  O8_8 
ROOT
HETATM    1  C1  UNL     1     -34.559  16.585  -0.821  1.00 20.00     0.013 C 
HETATM    2  C2  UNL     1     -34.644  16.230  -1.965  1.00 20.00    -0.103 C 
HETATM    3  C4  UNL     1     -35.857  14.769  -3.532  1.00 20.00     0.034 C 
HETATM    4  C6  UNL     1     -34.747  15.802  -3.373  1.00 20.00     0.159 C 
ENDROOT
BRANCH   4   5
HETATM    5  C3  UNL     1     -33.430  15.228  -3.866  1.00 20.00     0.273 C 
HETATM    6  O7  UNL     1     -33.053  14.076  -3.690  1.00 20.00    -0.264 OA
BRANCH   5   7
HETATM    7  O8  UNL     1     -32.737  16.196  -4.539  1.00 20.00    -0.326 OA
HETATM    8  C5  UNL     1     -33.502  16.967  -5.472  1.00 20.00     0.213 C 
ENDBRANCH   5   7
ENDBRANCH   4   5
TORSDOF 2
ENDMDL
MODEL 9
REMARK VINA RESULT:      -3.8      1.656      2.977
REMARK  2 active torsions:
REMARK  status: ('A' for Active; 'I' for Inactive)
REMARK    1  A    between atoms: C3_3  and  C6_6 
REMARK    2  A    between atoms: C3_3  and  O8_8 
ROOT
HETATM    1  C1  UNL     1     -32.159   6.568   3.315  1.00 20.00     0.013 C 
HETATM    2  C2  UNL     1     -33.016   6.472   4.151  1.00 20.00    -0.103 C 
HETATM    3  C4  UNL     1     -33.590   6.921   6.502  1.00 20.00     0.034 C 
HETATM    4  C6  UNL     1     -34.074   6.357   5.172  1.00 20.00     0.159 C 
ENDROOT
BRANCH   4   5
HETATM    5  C3  UNL     1     -34.507   4.911   5.348  1.00 20.00     0.273 C 
HETATM    6  O7  UNL     1     -34.225   4.204   6.306  1.00 20.00    -0.264 OA
BRANCH   5   7
HETATM    7  O8  UNL     1     -35.261   4.529   4.273  1.00 20.00    -0.326 OA
HETATM    8  C5  UNL     1     -36.001   5.576   3.635  1.00 20.00     0.213 C 
ENDBRANCH   5   7
ENDBRANCH   4   5
TORSDOF 2
ENDMDL
