MODEL 1
REMARK VINA RESULT:      -4.3      0.000      0.000
REMARK  1 active torsions:
REMARK  status: ('A' for Active; 'I' for Inactive)
REMARK    1  A    between atoms: C1_1  and  C2_2 
ROOT
HETATM    1  C1  UNL     1     -34.911   5.240   3.933  1.00 20.00     0.401 C 
HETATM    2  F3  UNL     1     -34.042   6.276   3.851  1.00 20.00    -0.210 F 
HETATM    3  F4  UNL     1     -36.081   5.668   3.394  1.00 20.00    -0.210 F 
ENDROOT
BRANCH   1   4
HETATM    4  C2  UNL     1     -35.137   4.865   5.378  1.00 20.00     0.330 C 
HETATM    5  F5  UNL     1     -34.676   3.602   5.577  1.00 20.00    -0.227 F 
HETATM    6 CL6  UNL     1     -34.281   5.971   6.465  1.00 20.00    -0.084 Cl
ENDBRANCH   1   4
TORSDOF 1
ENDMDL
MODEL 2
REMARK VINA RESULT:      -4.3      1.187      1.620
REMARK  1 active torsions:
REMARK  status: ('A' for Active; 'I' for Inactive)
REMARK    1  A    between atoms: C1_1  and  C2_2 
ROOT
HETATM    1  C1  UNL     1     -34.920   4.831   4.653  1.00 20.00     0.401 C 
HETATM    2  F3  UNL     1     -36.004   5.444   4.119  1.00 20.00    -0.210 F 
HETATM    3  F4  UNL     1     -35.126   3.496   4.530  1.00 20.00    -0.210 F 
ENDROOT
BRANCH   1   4
HETATM    4  C2  UNL     1     -34.795   5.181   6.117  1.00 20.00     0.330 C 
HETATM    5  F5  UNL     1     -34.085   4.203   6.739  1.00 20.00    -0.227 F 
HETATM    6 CL6  UNL     1     -33.961   6.729   6.333  1.00 20.00    -0.084 Cl
ENDBRANCH   1   4
TORSDOF 1
ENDMDL
MODEL 3
REMARK VINA RESULT:      -4.3      1.669      2.671
REMARK  1 active torsions:
REMARK  status: ('A' for Active; 'I' for Inactive)
REMARK    1  A    between atoms: C1_1  and  C2_2 
ROOT
HETATM    1  C1  UNL     1     -34.931   5.030   5.983  1.00 20.00     0.401 C 
HETATM    2  F3  UNL     1     -34.569   6.211   6.539  1.00 20.00    -0.210 F 
HETATM    3  F4  UNL     1     -34.060   4.097   6.443  1.00 20.00    -0.210 F 
ENDROOT
BRANCH   1   4
HETATM    4  C2  UNL     1     -34.825   5.110   4.479  1.00 20.00     0.330 C 
HETATM    5  F5  UNL     1     -36.060   5.358   3.968  1.00 20.00    -0.227 F 
HETATM    6 CL6  UNL     1     -33.723   6.408   3.986  1.00 20.00    -0.084 Cl
ENDBRANCH   1   4
TORSDOF 1
ENDMDL
MODEL 4
REMARK VINA RESULT:      -4.2      1.695      2.729
REMARK  1 active torsions:
REMARK  status: ('A' for Active; 'I' for Inactive)
REMARK    1  A    between atoms: C1_1  and  C2_2 
ROOT
HETATM    1  C1  UNL     1     -34.545   4.855   5.955  1.00 20.00     0.401 C 
HETATM    2  F3  UNL     1     -35.477   3.981   6.406  1.00 20.00    -0.210 F 
HETATM    3  F4  UNL     1     -34.768   6.031   6.595  1.00 20.00    -0.210 F 
ENDROOT
BRANCH   1   4
HETATM    4  C2  UNL     1     -34.703   5.061   4.467  1.00 20.00     0.330 C 
HETATM    5  F5  UNL     1     -36.024   5.221   4.189  1.00 20.00    -0.227 F 
HETATM    6 CL6  UNL     1     -33.819   6.497   3.925  1.00 20.00    -0.084 Cl
ENDBRANCH   1   4
TORSDOF 1
ENDMDL
MODEL 5
REMARK VINA RESULT:      -4.2      0.970      2.294
REMARK  1 active torsions:
REMARK  status: ('A' for Active; 'I' for Inactive)
REMARK    1  A    between atoms: C1_1  and  C2_2 
ROOT
HETATM    1  C1  UNL     1     -35.043   4.769   4.796  1.00 20.00     0.401 C 
HETATM    2  F3  UNL     1     -36.129   5.201   4.110  1.00 20.00    -0.210 F 
HETATM    3  F4  UNL     1     -35.466   4.471   6.050  1.00 20.00    -0.210 F 
ENDROOT
BRANCH   1   4
HETATM    4  C2  UNL     1     -34.005   5.864   4.868  1.00 20.00     0.330 C 
HETATM    5  F5  UNL     1     -34.307   6.810   3.940  1.00 20.00    -0.227 F 
HETATM    6 CL6  UNL     1     -33.979   6.613   6.472  1.00 20.00    -0.084 Cl
ENDBRANCH   1   4
TORSDOF 1
ENDMDL
MODEL 6
REMARK VINA RESULT:      -4.1      1.137      1.591
REMARK  1 active torsions:
REMARK  status: ('A' for Active; 'I' for Inactive)
REMARK    1  A    between atoms: C1_1  and  C2_2 
ROOT
HETATM    1  C1  UNL     1     -34.409   5.768   3.743  1.00 20.00     0.401 C 
HETATM    2  F3  UNL     1     -34.344   5.047   2.597  1.00 20.00    -0.210 F 
HETATM    3  F4  UNL     1     -33.135   5.910   4.188  1.00 20.00    -0.210 F 
ENDROOT
BRANCH   1   4
HETATM    4  C2  UNL     1     -35.218   5.025   4.779  1.00 20.00     0.330 C 
HETATM    5  F5  UNL     1     -35.089   3.691   4.556  1.00 20.00    -0.227 F 
HETATM    6 CL6  UNL     1     -34.652   5.396   6.416  1.00 20.00    -0.084 Cl
ENDBRANCH   1   4
TORSDOF 1
ENDMDL
MODEL 7
REMARK VINA RESULT:      -4.1      2.008      2.675
REMARK  1 active torsions:
REMARK  status: ('A' for Active; 'I' for Inactive)
REMARK    1  A    between atoms: C1_1  and  C2_2 
ROOT
HETATM    1  C1  UNL     1     -34.657   4.375   5.661  1.00 20.00     0.401 C 
HETATM    2  F3  UNL     1     -35.186   3.740   4.587  1.00 20.00    -0.210 F 
HETATM    3  F4  UNL     1     -35.570   4.280   6.660  1.00 20.00    -0.210 F 
ENDROOT
BRANCH   1   4
HETATM    4  C2  UNL     1     -34.422   5.832   5.340  1.00 20.00     0.330 C 
HETATM    5  F5  UNL     1     -33.889   6.438   6.434  1.00 20.00    -0.227 F 
HETATM    6 CL6  UNL     1     -33.305   6.011   3.977  1.00 20.00    -0.084 Cl
ENDBRANCH   1   4
TORSDOF 1
ENDMDL
MODEL 8
REMARK VINA RESULT:      -4.1      2.184      3.026
REMARK  1 active torsions:
REMARK  status: ('A' for Active; 'I' for Inactive)
REMARK    1  A    between atoms: C1_1  and  C2_2 
ROOT
HETATM    1  C1  UNL     1     -34.079   5.910   6.043  1.00 20.00     0.401 C 
HETATM    2  F3  UNL     1     -35.193   5.202   6.350  1.00 20.00    -0.210 F 
HETATM    3  F4  UNL     1     -34.133   7.058   6.765  1.00 20.00    -0.210 F 
ENDROOT
BRANCH   1   4
HETATM    4  C2  UNL     1     -34.067   6.248   4.571  1.00 20.00     0.330 C 
HETATM    5  F5  UNL     1     -32.870   5.873   4.049  1.00 20.00    -0.227 F 
HETATM    6 CL6  UNL     1     -35.364   5.400   3.712  1.00 20.00    -0.084 Cl
ENDBRANCH   1   4
TORSDOF 1
ENDMDL
MODEL 9
REMARK VINA RESULT:      -4.0      1.731      2.215
REMARK  1 active torsions:
REMARK  status: ('A' for Active; 'I' for Inactive)
REMARK    1  A    between atoms: C1_1  and  C2_2 
ROOT
HETATM    1  C1  UNL     1     -34.080   6.174   4.347  1.00 20.00     0.401 C 
HETATM    2  F3  UNL     1     -35.113   5.611   3.675  1.00 20.00    -0.210 F 
HETATM    3  F4  UNL     1     -32.947   5.826   3.685  1.00 20.00    -0.210 F 
ENDROOT
BRANCH   1   4
HETATM    4  C2  UNL     1     -34.019   5.632   5.755  1.00 20.00     0.330 C 
HETATM    5  F5  UNL     1     -34.397   6.614   6.615  1.00 20.00    -0.227 F 
HETATM    6 CL6  UNL     1     -35.101   4.243   5.951  1.00 20.00    -0.084 Cl
ENDBRANCH   1   4
TORSDOF 1
ENDMDL
