MODEL 1
REMARK VINA RESULT:      -4.2      0.000      0.000
REMARK  1 active torsions:
REMARK  status: ('A' for Active; 'I' for Inactive)
REMARK    1  A    between atoms: C1_1  and  C2_2 
ROOT
HETATM    1  C1  UNL     1     -34.730   5.811   3.847  1.00 20.00     0.385 C 
HETATM    2  F3  UNL     1     -36.037   5.456   3.779  1.00 20.00    -0.212 F 
HETATM    3  F4  UNL     1     -34.113   5.243   2.779  1.00 20.00    -0.212 F 
ENDROOT
BRANCH   1   4
HETATM    4  C2  UNL     1     -34.102   5.307   5.131  1.00 20.00     0.242 C 
HETATM    5 CL5  UNL     1     -34.017   6.614   6.334  1.00 20.00    -0.102 Cl
HETATM    6 CL6  UNL     1     -35.031   3.939   5.793  1.00 20.00    -0.102 Cl
ENDBRANCH   1   4
TORSDOF 1
ENDMDL
MODEL 2
REMARK VINA RESULT:      -4.2      1.551      2.081
REMARK  1 active torsions:
REMARK  status: ('A' for Active; 'I' for Inactive)
REMARK    1  A    between atoms: C1_1  and  C2_2 
ROOT
HETATM    1  C1  UNL     1     -35.272   5.046   4.660  1.00 20.00     0.385 C 
HETATM    2  F3  UNL     1     -35.212   3.692   4.612  1.00 20.00    -0.212 F 
HETATM    3  F4  UNL     1     -35.691   5.463   3.438  1.00 20.00    -0.212 F 
ENDROOT
BRANCH   1   4
HETATM    4  C2  UNL     1     -33.908   5.634   4.964  1.00 20.00     0.242 C 
HETATM    5 CL5  UNL     1     -33.335   6.612   3.594  1.00 20.00    -0.102 Cl
HETATM    6 CL6  UNL     1     -33.969   6.637   6.435  1.00 20.00    -0.102 Cl
ENDBRANCH   1   4
TORSDOF 1
ENDMDL
MODEL 3
REMARK VINA RESULT:      -4.1      1.589      2.088
REMARK  1 active torsions:
REMARK  status: ('A' for Active; 'I' for Inactive)
REMARK    1  A    between atoms: C1_1  and  C2_2 
ROOT
HETATM    1  C1  UNL     1     -35.010   5.205   3.932  1.00 20.00     0.385 C 
HETATM    2  F3  UNL     1     -36.183   5.671   3.436  1.00 20.00    -0.212 F 
HETATM    3  F4  UNL     1     -35.313   4.478   5.038  1.00 20.00    -0.212 F 
ENDROOT
BRANCH   1   4
HETATM    4  C2  UNL     1     -34.091   6.350   4.306  1.00 20.00     0.242 C 
HETATM    5 CL5  UNL     1     -33.885   6.432   6.070  1.00 20.00    -0.102 Cl
HETATM    6 CL6  UNL     1     -32.501   6.163   3.523  1.00 20.00    -0.102 Cl
ENDBRANCH   1   4
TORSDOF 1
ENDMDL
MODEL 4
REMARK VINA RESULT:      -4.1      2.625      2.869
REMARK  1 active torsions:
REMARK  status: ('A' for Active; 'I' for Inactive)
REMARK    1  A    between atoms: C1_1  and  C2_2 
ROOT
HETATM    1  C1  UNL     1     -34.037   5.996   6.029  1.00 20.00     0.385 C 
HETATM    2  F3  UNL     1     -35.076   5.247   6.477  1.00 20.00    -0.212 F 
HETATM    3  F4  UNL     1     -34.019   7.129   6.776  1.00 20.00    -0.212 F 
ENDROOT
BRANCH   1   4
HETATM    4  C2  UNL     1     -34.219   6.348   4.566  1.00 20.00     0.242 C 
HETATM    5 CL5  UNL     1     -32.677   6.190   3.694  1.00 20.00    -0.102 Cl
HETATM    6 CL6  UNL     1     -35.446   5.298   3.813  1.00 20.00    -0.102 Cl
ENDBRANCH   1   4
TORSDOF 1
ENDMDL
MODEL 5
REMARK VINA RESULT:      -4.1      2.787      3.374
REMARK  1 active torsions:
REMARK  status: ('A' for Active; 'I' for Inactive)
REMARK    1  A    between atoms: C1_1  and  C2_2 
ROOT
HETATM    1  C1  UNL     1     -34.244   6.458   5.960  1.00 20.00     0.385 C 
HETATM    2  F3  UNL     1     -33.147   6.913   6.616  1.00 20.00    -0.212 F 
HETATM    3  F4  UNL     1     -34.878   5.603   6.802  1.00 20.00    -0.212 F 
ENDROOT
BRANCH   1   4
HETATM    4  C2  UNL     1     -33.849   5.731   4.690  1.00 20.00     0.242 C 
HETATM    5 CL5  UNL     1     -35.280   5.423   3.681  1.00 20.00    -0.102 Cl
HETATM    6 CL6  UNL     1     -32.654   6.678   3.767  1.00 20.00    -0.102 Cl
ENDBRANCH   1   4
TORSDOF 1
ENDMDL
MODEL 6
REMARK VINA RESULT:      -4.0      0.963      2.113
REMARK  1 active torsions:
REMARK  status: ('A' for Active; 'I' for Inactive)
REMARK    1  A    between atoms: C1_1  and  C2_2 
ROOT
HETATM    1  C1  UNL     1     -33.835   5.734   3.883  1.00 20.00     0.385 C 
HETATM    2  F3  UNL     1     -33.601   7.033   3.567  1.00 20.00    -0.212 F 
HETATM    3  F4  UNL     1     -34.482   5.183   2.825  1.00 20.00    -0.212 F 
ENDROOT
BRANCH   1   4
HETATM    4  C2  UNL     1     -34.697   5.630   5.125  1.00 20.00     0.242 C 
HETATM    5 CL5  UNL     1     -34.878   3.930   5.614  1.00 20.00    -0.102 Cl
HETATM    6 CL6  UNL     1     -33.990   6.568   6.464  1.00 20.00    -0.102 Cl
ENDBRANCH   1   4
TORSDOF 1
ENDMDL
MODEL 7
REMARK VINA RESULT:      -4.0      0.923      2.046
REMARK  1 active torsions:
REMARK  status: ('A' for Active; 'I' for Inactive)
REMARK    1  A    between atoms: C1_1  and  C2_2 
ROOT
HETATM    1  C1  UNL     1     -34.086   5.928   3.759  1.00 20.00     0.385 C 
HETATM    2  F3  UNL     1     -34.444   5.038   2.801  1.00 20.00    -0.212 F 
HETATM    3  F4  UNL     1     -32.746   5.798   3.935  1.00 20.00    -0.212 F 
ENDROOT
BRANCH   1   4
HETATM    4  C2  UNL     1     -34.806   5.637   5.061  1.00 20.00     0.242 C 
HETATM    5 CL5  UNL     1     -34.832   3.888   5.377  1.00 20.00    -0.102 Cl
HETATM    6 CL6  UNL     1     -34.020   6.482   6.418  1.00 20.00    -0.102 Cl
ENDBRANCH   1   4
TORSDOF 1
ENDMDL
MODEL 8
REMARK VINA RESULT:      -3.9      1.101      1.428
REMARK  1 active torsions:
REMARK  status: ('A' for Active; 'I' for Inactive)
REMARK    1  A    between atoms: C1_1  and  C2_2 
ROOT
HETATM    1  C1  UNL     1     -33.718   6.172   3.715  1.00 20.00     0.385 C 
HETATM    2  F3  UNL     1     -34.088   5.391   2.669  1.00 20.00    -0.212 F 
HETATM    3  F4  UNL     1     -32.410   6.481   3.530  1.00 20.00    -0.212 F 
ENDROOT
BRANCH   1   4
HETATM    4  C2  UNL     1     -33.892   5.432   5.026  1.00 20.00     0.242 C 
HETATM    5 CL5  UNL     1     -34.041   6.583   6.373  1.00 20.00    -0.102 Cl
HETATM    6 CL6  UNL     1     -35.330   4.381   4.971  1.00 20.00    -0.102 Cl
ENDBRANCH   1   4
TORSDOF 1
ENDMDL
MODEL 9
REMARK VINA RESULT:      -3.9      2.723      2.931
REMARK  1 active torsions:
REMARK  status: ('A' for Active; 'I' for Inactive)
REMARK    1  A    between atoms: C1_1  and  C2_2 
ROOT
HETATM    1  C1  UNL     1     -34.260   6.196   6.321  1.00 20.00     0.385 C 
HETATM    2  F3  UNL     1     -33.189   6.975   6.614  1.00 20.00    -0.212 F 
HETATM    3  F4  UNL     1     -33.999   4.964   6.827  1.00 20.00    -0.212 F 
ENDROOT
BRANCH   1   4
HETATM    4  C2  UNL     1     -34.464   6.105   4.822  1.00 20.00     0.242 C 
HETATM    5 CL5  UNL     1     -32.920   6.331   3.970  1.00 20.00    -0.102 Cl
HETATM    6 CL6  UNL     1     -35.171   4.530   4.378  1.00 20.00    -0.102 Cl
ENDBRANCH   1   4
TORSDOF 1
ENDMDL
