MODEL 1
REMARK VINA RESULT:      -5.0      0.000      0.000
REMARK  0 active torsions:
REMARK  status: ('A' for Active; 'I' for Inactive)
ROOT
HETATM    1  C1  UNL     1     -34.710  13.513  -4.231  1.00 20.00     0.127 C 
HETATM    2  C2  UNL     1     -33.401  13.820  -3.539  1.00 20.00     0.079 C 
HETATM    3  C3  UNL     1     -35.885  14.396  -3.874  1.00 20.00     0.079 C 
HETATM    4  C4  UNL     1     -33.063  15.299  -3.673  1.00 20.00     0.017 C 
HETATM    5  C5  UNL     1     -35.506  15.868  -3.982  1.00 20.00     0.017 C 
HETATM    6  C6  UNL     1     -34.625  17.744  -1.762  1.00 20.00     0.002 C 
HETATM    7  C7  UNL     1     -33.879  17.680  -3.107  1.00 20.00     0.009 C 
HETATM    8  C8  UNL     1     -34.401  16.227  -1.625  1.00 20.00     0.009 C 
HETATM    9  C9  UNL     1     -34.230  16.162  -3.176  1.00 20.00    -0.040 C 
HETATM   10  O10 UNL     1     -34.838  12.535  -4.967  1.00 20.00    -0.298 OA
ENDROOT
TORSDOF 0
ENDMDL
MODEL 2
REMARK VINA RESULT:      -4.8     11.649     12.756
REMARK  0 active torsions:
REMARK  status: ('A' for Active; 'I' for Inactive)
ROOT
HETATM    1  C1  UNL     1     -34.934   4.633   5.928  1.00 20.00     0.127 C 
HETATM    2  C2  UNL     1     -35.006   4.256   4.466  1.00 20.00     0.079 C 
HETATM    3  C3  UNL     1     -33.809   5.560   6.330  1.00 20.00     0.079 C 
HETATM    4  C4  UNL     1     -34.957   5.501   3.591  1.00 20.00     0.017 C 
HETATM    5  C5  UNL     1     -33.762   6.779   5.416  1.00 20.00     0.017 C 
HETATM    6  C6  UNL     1     -32.004   7.227   2.980  1.00 20.00     0.002 C 
HETATM    7  C7  UNL     1     -33.511   7.541   2.957  1.00 20.00     0.009 C 
HETATM    8  C8  UNL     1     -32.362   5.797   3.421  1.00 20.00     0.009 C 
HETATM    9  C9  UNL     1     -33.728   6.351   3.940  1.00 20.00    -0.040 C 
HETATM   10  O10 UNL     1     -35.687   4.132   6.762  1.00 20.00    -0.298 OA
ENDROOT
TORSDOF 0
ENDMDL
MODEL 3
REMARK VINA RESULT:      -4.6      2.352      3.985
REMARK  0 active torsions:
REMARK  status: ('A' for Active; 'I' for Inactive)
ROOT
HETATM    1  C1  UNL     1     -33.760  17.743  -2.974  1.00 20.00     0.127 C 
HETATM    2  C2  UNL     1     -33.878  16.668  -1.917  1.00 20.00     0.079 C 
HETATM    3  C3  UNL     1     -33.608  17.270  -4.402  1.00 20.00     0.079 C 
HETATM    4  C4  UNL     1     -34.953  15.661  -2.300  1.00 20.00     0.017 C 
HETATM    5  C5  UNL     1     -34.675  16.237  -4.745  1.00 20.00     0.017 C 
HETATM    6  C6  UNL     1     -34.432  13.210  -4.707  1.00 20.00     0.002 C 
HETATM    7  C7  UNL     1     -35.642  13.931  -4.085  1.00 20.00     0.009 C 
HETATM    8  C8  UNL     1     -33.525  14.068  -3.807  1.00 20.00     0.009 C 
HETATM    9  C9  UNL     1     -34.689  15.105  -3.705  1.00 20.00    -0.040 C 
HETATM   10  O10 UNL     1     -33.689  18.935  -2.678  1.00 20.00    -0.298 OA
ENDROOT
TORSDOF 0
ENDMDL
MODEL 4
REMARK VINA RESULT:      -4.4      2.215      3.696
REMARK  0 active torsions:
REMARK  status: ('A' for Active; 'I' for Inactive)
ROOT
HETATM    1  C1  UNL     1     -34.680  16.062  -2.088  1.00 20.00     0.127 C 
HETATM    2  C2  UNL     1     -33.400  15.873  -2.870  1.00 20.00     0.079 C 
HETATM    3  C3  UNL     1     -35.970  15.962  -2.871  1.00 20.00     0.079 C 
HETATM    4  C4  UNL     1     -33.466  14.595  -3.696  1.00 20.00     0.017 C 
HETATM    5  C5  UNL     1     -35.991  14.692  -3.714  1.00 20.00     0.017 C 
HETATM    6  C6  UNL     1     -35.280  14.382  -6.651  1.00 20.00     0.002 C 
HETATM    7  C7  UNL     1     -34.755  13.403  -5.585  1.00 20.00     0.009 C 
HETATM    8  C8  UNL     1     -34.667  15.527  -5.825  1.00 20.00     0.009 C 
HETATM    9  C9  UNL     1     -34.722  14.591  -4.576  1.00 20.00    -0.040 C 
HETATM   10  O10 UNL     1     -34.670  16.383  -0.900  1.00 20.00    -0.298 OA
ENDROOT
TORSDOF 0
ENDMDL
MODEL 5
REMARK VINA RESULT:      -4.4      2.058      2.933
REMARK  0 active torsions:
REMARK  status: ('A' for Active; 'I' for Inactive)
ROOT
HETATM    1  C1  UNL     1     -33.593  13.931  -4.030  1.00 20.00     0.127 C 
HETATM    2  C2  UNL     1     -33.324  15.362  -3.624  1.00 20.00     0.079 C 
HETATM    3  C3  UNL     1     -34.722  13.709  -5.013  1.00 20.00     0.079 C 
HETATM    4  C4  UNL     1     -33.188  16.248  -4.855  1.00 20.00     0.017 C 
HETATM    5  C5  UNL     1     -34.577  14.634  -6.216  1.00 20.00     0.017 C 
HETATM    6  C6  UNL     1     -35.936  17.307  -6.698  1.00 20.00     0.002 C 
HETATM    7  C7  UNL     1     -34.429  17.111  -6.945  1.00 20.00     0.009 C 
HETATM    8  C8  UNL     1     -35.712  16.803  -5.261  1.00 20.00     0.009 C 
HETATM    9  C9  UNL     1     -34.414  16.094  -5.764  1.00 20.00    -0.040 C 
HETATM   10  O10 UNL     1     -32.995  12.989  -3.511  1.00 20.00    -0.298 OA
ENDROOT
TORSDOF 0
ENDMDL
MODEL 6
REMARK VINA RESULT:      -4.4      1.342      2.363
REMARK  0 active torsions:
REMARK  status: ('A' for Active; 'I' for Inactive)
ROOT
HETATM    1  C1  UNL     1     -34.662  13.687  -4.629  1.00 20.00     0.127 C 
HETATM    2  C2  UNL     1     -35.274  14.519  -5.733  1.00 20.00     0.079 C 
HETATM    3  C3  UNL     1     -33.599  14.359  -3.789  1.00 20.00     0.079 C 
HETATM    4  C4  UNL     1     -35.743  15.862  -5.190  1.00 20.00     0.017 C 
HETATM    5  C5  UNL     1     -34.083  15.715  -3.290  1.00 20.00     0.017 C 
HETATM    6  C6  UNL     1     -33.541  18.454  -4.486  1.00 20.00     0.002 C 
HETATM    7  C7  UNL     1     -34.953  18.032  -4.042  1.00 20.00     0.009 C 
HETATM    8  C8  UNL     1     -33.504  17.201  -5.379  1.00 20.00     0.009 C 
HETATM    9  C9  UNL     1     -34.598  16.572  -4.458  1.00 20.00    -0.040 C 
HETATM   10  O10 UNL     1     -34.939  12.497  -4.487  1.00 20.00    -0.298 OA
ENDROOT
TORSDOF 0
ENDMDL
MODEL 7
REMARK VINA RESULT:      -4.3      1.419      2.712
REMARK  0 active torsions:
REMARK  status: ('A' for Active; 'I' for Inactive)
ROOT
HETATM    1  C1  UNL     1     -33.503  13.762  -3.855  1.00 20.00     0.127 C 
HETATM    2  C2  UNL     1     -34.666  13.453  -4.770  1.00 20.00     0.079 C 
HETATM    3  C3  UNL     1     -33.364  15.198  -3.403  1.00 20.00     0.079 C 
HETATM    4  C4  UNL     1     -35.963  13.992  -4.182  1.00 20.00     0.017 C 
HETATM    5  C5  UNL     1     -34.685  15.720  -2.853  1.00 20.00     0.017 C 
HETATM    6  C6  UNL     1     -36.795  17.363  -4.294  1.00 20.00     0.002 C 
HETATM    7  C7  UNL     1     -37.171  16.144  -3.431  1.00 20.00     0.009 C 
HETATM    8  C8  UNL     1     -35.855  16.443  -5.092  1.00 20.00     0.009 C 
HETATM    9  C9  UNL     1     -35.824  15.485  -3.859  1.00 20.00    -0.040 C 
HETATM   10  O10 UNL     1     -32.657  12.913  -3.577  1.00 20.00    -0.298 OA
ENDROOT
TORSDOF 0
ENDMDL
MODEL 8
REMARK VINA RESULT:      -4.3      1.778      2.189
REMARK  0 active torsions:
REMARK  status: ('A' for Active; 'I' for Inactive)
ROOT
HETATM    1  C1  UNL     1     -34.819  13.732  -4.640  1.00 20.00     0.127 C 
HETATM    2  C2  UNL     1     -34.450  14.588  -3.450  1.00 20.00     0.079 C 
HETATM    3  C3  UNL     1     -35.362  14.459  -5.850  1.00 20.00     0.079 C 
HETATM    4  C4  UNL     1     -33.544  15.735  -3.879  1.00 20.00     0.017 C 
HETATM    5  C5  UNL     1     -34.455  15.621  -6.234  1.00 20.00     0.017 C 
HETATM    6  C6  UNL     1     -34.759  18.554  -5.505  1.00 20.00     0.002 C 
HETATM    7  C7  UNL     1     -33.407  17.827  -5.381  1.00 20.00     0.009 C 
HETATM    8  C8  UNL     1     -35.367  17.468  -4.601  1.00 20.00     0.009 C 
HETATM    9  C9  UNL     1     -34.191  16.529  -5.021  1.00 20.00    -0.040 C 
HETATM   10  O10 UNL     1     -34.776  12.504  -4.591  1.00 20.00    -0.298 OA
ENDROOT
TORSDOF 0
ENDMDL
MODEL 9
REMARK VINA RESULT:      -4.3      2.404      3.872
REMARK  0 active torsions:
REMARK  status: ('A' for Active; 'I' for Inactive)
ROOT
HETATM    1  C1  UNL     1     -34.632  15.850  -2.446  1.00 20.00     0.127 C 
HETATM    2  C2  UNL     1     -35.962  15.622  -3.129  1.00 20.00     0.079 C 
HETATM    3  C3  UNL     1     -33.395  15.529  -3.254  1.00 20.00     0.079 C 
HETATM    4  C4  UNL     1     -35.982  16.299  -4.493  1.00 20.00     0.017 C 
HETATM    5  C5  UNL     1     -33.461  16.190  -4.626  1.00 20.00     0.017 C 
HETATM    6  C6  UNL     1     -34.355  14.962  -7.256  1.00 20.00     0.002 C 
HETATM    7  C7  UNL     1     -34.843  16.351  -6.806  1.00 20.00     0.009 C 
HETATM    8  C8  UNL     1     -34.885  14.403  -5.923  1.00 20.00     0.009 C 
HETATM    9  C9  UNL     1     -34.782  15.845  -5.333  1.00 20.00    -0.040 C 
HETATM   10  O10 UNL     1     -34.562  16.181  -1.262  1.00 20.00    -0.298 OA
ENDROOT
TORSDOF 0
ENDMDL
