MODEL 1
REMARK VINA RESULT:      -4.2      0.000      0.000
REMARK  0 active torsions:
REMARK  status: ('A' for Active; 'I' for Inactive)
ROOT
HETATM    1  C1  UNL     1     -40.856   5.940  -0.112  1.00 20.00     0.005 C 
HETATM    2  C2  UNL     1     -41.121   7.174  -0.972  1.00 20.00     0.026 C 
HETATM    3  C3  UNL     1     -40.691   4.696  -0.982  1.00 20.00     0.042 C 
HETATM    4  C4  UNL     1     -41.881   3.249  -2.761  1.00 20.00     0.309 C 
HETATM    5  C5  UNL     1     -43.182   3.927  -1.282  1.00 20.00     0.309 C 
HETATM    6  C6  UNL     1     -42.304   6.940  -1.903  1.00 20.00     0.169 C 
HETATM    7  C7  UNL     1     -41.902   4.540  -1.907  1.00 20.00     0.113 C 
HETATM    8  N8  UNL     1     -42.774   2.601  -1.782  1.00 20.00     0.089 N 
HETATM    9  O9  UNL     1     -42.095   5.757  -2.671  1.00 20.00    -0.377 OA
HETATM   10  H22 UNL     1     -43.539   2.088  -2.220  1.00 20.00     0.316 HD
ENDROOT
TORSDOF 0
ENDMDL
MODEL 2
REMARK VINA RESULT:      -4.0      9.541     10.497
REMARK  0 active torsions:
REMARK  status: ('A' for Active; 'I' for Inactive)
ROOT
HETATM    1  C1  UNL     1     -33.984   5.354   6.382  1.00 20.00     0.005 C 
HETATM    2  C2  UNL     1     -35.205   4.566   5.912  1.00 20.00     0.026 C 
HETATM    3  C3  UNL     1     -33.810   6.630   5.560  1.00 20.00     0.042 C 
HETATM    4  C4  UNL     1     -33.497   7.505   3.149  1.00 20.00     0.309 C 
HETATM    5  C5  UNL     1     -32.429   5.752   3.509  1.00 20.00     0.309 C 
HETATM    6  C6  UNL     1     -35.133   4.301   4.414  1.00 20.00     0.169 C 
HETATM    7  C7  UNL     1     -33.772   6.290   4.067  1.00 20.00     0.113 C 
HETATM    8  N8  UNL     1     -32.074   7.121   3.088  1.00 20.00     0.089 N 
HETATM    9  O9  UNL     1     -34.953   5.528   3.709  1.00 20.00    -0.377 OA
HETATM   10  H22 UNL     1     -31.692   7.160   2.143  1.00 20.00     0.316 HD
ENDROOT
TORSDOF 0
ENDMDL
MODEL 3
REMARK VINA RESULT:      -3.9     11.807     13.162
REMARK  0 active torsions:
REMARK  status: ('A' for Active; 'I' for Inactive)
ROOT
HETATM    1  C1  UNL     1     -33.523  17.068  -4.556  1.00 20.00     0.005 C 
HETATM    2  C2  UNL     1     -33.840  17.636  -3.174  1.00 20.00     0.026 C 
HETATM    3  C3  UNL     1     -34.527  15.983  -4.942  1.00 20.00     0.042 C 
HETATM    4  C4  UNL     1     -35.501  13.712  -4.187  1.00 20.00     0.309 C 
HETATM    5  C5  UNL     1     -33.451  13.856  -3.842  1.00 20.00     0.309 C 
HETATM    6  C6  UNL     1     -33.934  16.523  -2.141  1.00 20.00     0.169 C 
HETATM    7  C7  UNL     1     -34.586  14.913  -3.847  1.00 20.00     0.113 C 
HETATM    8  N8  UNL     1     -34.316  12.947  -4.618  1.00 20.00     0.089 N 
HETATM    9  O9  UNL     1     -34.871  15.536  -2.569  1.00 20.00    -0.377 OA
HETATM   10  H22 UNL     1     -34.309  11.991  -4.261  1.00 20.00     0.316 HD
ENDROOT
TORSDOF 0
ENDMDL
MODEL 4
REMARK VINA RESULT:      -3.8     12.321     13.700
REMARK  0 active torsions:
REMARK  status: ('A' for Active; 'I' for Inactive)
ROOT
HETATM    1  C1  UNL     1     -33.673  13.804  -3.768  1.00 20.00     0.005 C 
HETATM    2  C2  UNL     1     -34.645  13.189  -4.774  1.00 20.00     0.026 C 
HETATM    3  C3  UNL     1     -34.209  15.133  -3.238  1.00 20.00     0.042 C 
HETATM    4  C4  UNL     1     -34.998  17.481  -3.973  1.00 20.00     0.309 C 
HETATM    5  C5  UNL     1     -33.353  16.813  -5.064  1.00 20.00     0.309 C 
HETATM    6  C6  UNL     1     -34.975  14.179  -5.882  1.00 20.00     0.169 C 
HETATM    7  C7  UNL     1     -34.542  16.066  -4.406  1.00 20.00     0.113 C 
HETATM    8  N8  UNL     1     -33.628  17.979  -4.204  1.00 20.00     0.089 N 
HETATM    9  O9  UNL     1     -35.451  15.401  -5.320  1.00 20.00    -0.377 OA
HETATM   10  H22 UNL     1     -33.607  18.863  -4.713  1.00 20.00     0.316 HD
ENDROOT
TORSDOF 0
ENDMDL
MODEL 5
REMARK VINA RESULT:      -3.8     12.319     13.514
REMARK  0 active torsions:
REMARK  status: ('A' for Active; 'I' for Inactive)
ROOT
HETATM    1  C1  UNL     1     -34.600  17.290  -2.841  1.00 20.00     0.005 C 
HETATM    2  C2  UNL     1     -33.762  18.044  -3.872  1.00 20.00     0.026 C 
HETATM    3  C3  UNL     1     -34.009  15.909  -2.564  1.00 20.00     0.042 C 
HETATM    4  C4  UNL     1     -33.332  13.688  -3.698  1.00 20.00     0.309 C 
HETATM    5  C5  UNL     1     -35.100  14.475  -4.472  1.00 20.00     0.309 C 
HETATM    6  C6  UNL     1     -33.581  17.212  -5.134  1.00 20.00     0.169 C 
HETATM    7  C7  UNL     1     -33.832  15.142  -3.878  1.00 20.00     0.113 C 
HETATM    8  N8  UNL     1     -34.723  13.209  -3.816  1.00 20.00     0.089 N 
HETATM    9  O9  UNL     1     -33.045  15.933  -4.804  1.00 20.00    -0.377 OA
HETATM   10  H22 UNL     1     -34.813  12.400  -4.431  1.00 20.00     0.316 HD
ENDROOT
TORSDOF 0
ENDMDL
MODEL 6
REMARK VINA RESULT:      -3.8     11.393     12.197
REMARK  0 active torsions:
REMARK  status: ('A' for Active; 'I' for Inactive)
ROOT
HETATM    1  C1  UNL     1     -33.696  15.225  -3.422  1.00 20.00     0.005 C 
HETATM    2  C2  UNL     1     -33.395  13.766  -3.757  1.00 20.00     0.026 C 
HETATM    3  C3  UNL     1     -35.142  15.389  -2.955  1.00 20.00     0.042 C 
HETATM    4  C4  UNL     1     -37.596  15.005  -3.666  1.00 20.00     0.309 C 
HETATM    5  C5  UNL     1     -36.404  15.674  -5.238  1.00 20.00     0.309 C 
HETATM    6  C6  UNL     1     -34.406  13.222  -4.757  1.00 20.00     0.169 C 
HETATM    7  C7  UNL     1     -36.097  14.798  -3.996  1.00 20.00     0.113 C 
HETATM    8  N8  UNL     1     -37.621  16.170  -4.570  1.00 20.00     0.089 N 
HETATM    9  O9  UNL     1     -35.732  13.422  -4.271  1.00 20.00    -0.377 OA
HETATM   10  H22 UNL     1     -38.436  16.179  -5.184  1.00 20.00     0.316 HD
ENDROOT
TORSDOF 0
ENDMDL
MODEL 7
REMARK VINA RESULT:      -3.8     12.696     13.507
REMARK  0 active torsions:
REMARK  status: ('A' for Active; 'I' for Inactive)
ROOT
HETATM    1  C1  UNL     1     -33.400  15.558  -3.004  1.00 20.00     0.005 C 
HETATM    2  C2  UNL     1     -34.704  15.965  -2.320  1.00 20.00     0.026 C 
HETATM    3  C3  UNL     1     -33.300  16.177  -4.398  1.00 20.00     0.042 C 
HETATM    4  C4  UNL     1     -34.500  16.323  -6.681  1.00 20.00     0.309 C 
HETATM    5  C5  UNL     1     -34.591  14.414  -5.851  1.00 20.00     0.309 C 
HETATM    6  C6  UNL     1     -35.901  15.638  -3.201  1.00 20.00     0.169 C 
HETATM    7  C7  UNL     1     -34.547  15.828  -5.215  1.00 20.00     0.113 C 
HETATM    8  N8  UNL     1     -34.065  14.980  -7.108  1.00 20.00     0.089 N 
HETATM    9  O9  UNL     1     -35.737  16.228  -4.489  1.00 20.00    -0.377 OA
HETATM   10  H22 UNL     1     -34.563  14.645  -7.934  1.00 20.00     0.316 HD
ENDROOT
TORSDOF 0
ENDMDL
MODEL 8
REMARK VINA RESULT:      -3.8     11.822     13.113
REMARK  0 active torsions:
REMARK  status: ('A' for Active; 'I' for Inactive)
ROOT
HETATM    1  C1  UNL     1     -34.240  16.143  -6.849  1.00 20.00     0.005 C 
HETATM    2  C2  UNL     1     -35.318  17.126  -6.393  1.00 20.00     0.026 C 
HETATM    3  C3  UNL     1     -34.574  14.722  -6.398  1.00 20.00     0.042 C 
HETATM    4  C4  UNL     1     -35.063  13.281  -4.310  1.00 20.00     0.309 C 
HETATM    5  C5  UNL     1     -33.558  14.684  -3.979  1.00 20.00     0.309 C 
HETATM    6  C6  UNL     1     -35.547  17.019  -4.892  1.00 20.00     0.169 C 
HETATM    7  C7  UNL     1     -34.816  14.697  -4.886  1.00 20.00     0.113 C 
HETATM    8  N8  UNL     1     -33.647  13.214  -3.902  1.00 20.00     0.089 N 
HETATM    9  O9  UNL     1     -35.835  15.668  -4.536  1.00 20.00    -0.377 OA
HETATM   10  H22 UNL     1     -33.523  12.857  -2.954  1.00 20.00     0.316 HD
ENDROOT
TORSDOF 0
ENDMDL
MODEL 9
REMARK VINA RESULT:      -3.8     12.340     13.081
REMARK  0 active torsions:
REMARK  status: ('A' for Active; 'I' for Inactive)
ROOT
HETATM    1  C1  UNL     1     -34.249  14.051  -3.690  1.00 20.00     0.005 C 
HETATM    2  C2  UNL     1     -33.063  15.013  -3.648  1.00 20.00     0.026 C 
HETATM    3  C3  UNL     1     -34.575  13.654  -5.129  1.00 20.00     0.042 C 
HETATM    4  C4  UNL     1     -35.219  14.613  -7.439  1.00 20.00     0.309 C 
HETATM    5  C5  UNL     1     -36.160  15.609  -5.870  1.00 20.00     0.309 C 
HETATM    6  C6  UNL     1     -33.307  16.213  -4.554  1.00 20.00     0.169 C 
HETATM    7  C7  UNL     1     -34.782  14.907  -5.984  1.00 20.00     0.113 C 
HETATM    8  N8  UNL     1     -36.622  14.864  -7.056  1.00 20.00     0.089 N 
HETATM    9  O9  UNL     1     -33.624  15.773  -5.873  1.00 20.00    -0.377 OA
HETATM   10  H22 UNL     1     -37.118  15.451  -7.726  1.00 20.00     0.316 HD
ENDROOT
TORSDOF 0
ENDMDL
