MODEL 1
REMARK VINA RESULT:      -4.5      0.000      0.000
REMARK  1 active torsions:
REMARK  status: ('A' for Active; 'I' for Inactive)
REMARK    1  A    between atoms: C6_6  and  O8_8 
ROOT
HETATM    1  C1  UNL     1     -34.507  16.243  -1.901  1.00 20.00     0.064 C 
HETATM    2  C2  UNL     1     -33.045  15.274  -3.653  1.00 20.00     0.022 C 
HETATM    3  C3  UNL     1     -33.348  13.785  -3.700  1.00 20.00     0.033 C 
HETATM    4  C4  UNL     1     -35.464  14.918  -3.765  1.00 20.00     0.051 C 
HETATM    5  C5  UNL     1     -34.393  15.934  -3.335  1.00 20.00     0.095 C 
HETATM    6  C6  UNL     1     -34.706  13.743  -4.379  1.00 20.00     0.119 C 
HETATM    7  N7  UNL     1     -34.596  16.486  -0.769  1.00 20.00    -0.197 NA
ENDROOT
BRANCH   6   8
HETATM    8  O8  UNL     1     -35.377  12.523  -4.134  1.00 20.00    -0.396 OA
HETATM    9  H17 UNL     1     -36.254  12.599  -4.542  1.00 20.00     0.210 HD
ENDBRANCH   6   8
TORSDOF 1
ENDMDL
MODEL 2
REMARK VINA RESULT:      -4.5     11.927     12.491
REMARK  1 active torsions:
REMARK  status: ('A' for Active; 'I' for Inactive)
REMARK    1  A    between atoms: C6_6  and  O8_8 
ROOT
HETATM    1  C1  UNL     1     -32.973   6.547   3.429  1.00 20.00     0.064 C 
HETATM    2  C2  UNL     1     -35.181   5.450   3.685  1.00 20.00     0.022 C 
HETATM    3  C3  UNL     1     -34.992   4.316   4.680  1.00 20.00     0.033 C 
HETATM    4  C4  UNL     1     -34.000   6.267   5.668  1.00 20.00     0.051 C 
HETATM    5  C5  UNL     1     -34.241   6.557   4.177  1.00 20.00     0.095 C 
HETATM    6  C6  UNL     1     -34.862   5.052   6.003  1.00 20.00     0.119 C 
HETATM    7  N7  UNL     1     -31.974   6.539   2.838  1.00 20.00    -0.197 NA
ENDROOT
BRANCH   6   8
HETATM    8  O8  UNL     1     -34.246   4.249   6.990  1.00 20.00    -0.396 OA
HETATM    9  H17 UNL     1     -33.290   4.284   6.823  1.00 20.00     0.210 HD
ENDBRANCH   6   8
TORSDOF 1
ENDMDL
MODEL 3
REMARK VINA RESULT:      -4.1      1.811      2.387
REMARK  1 active torsions:
REMARK  status: ('A' for Active; 'I' for Inactive)
REMARK    1  A    between atoms: C6_6  and  O8_8 
ROOT
HETATM    1  C1  UNL     1     -33.451  16.750  -4.190  1.00 20.00     0.064 C 
HETATM    2  C2  UNL     1     -35.221  15.606  -2.885  1.00 20.00     0.022 C 
HETATM    3  C3  UNL     1     -35.781  14.509  -3.778  1.00 20.00     0.033 C 
HETATM    4  C4  UNL     1     -33.390  14.295  -3.847  1.00 20.00     0.051 C 
HETATM    5  C5  UNL     1     -33.729  15.665  -3.235  1.00 20.00     0.095 C 
HETATM    6  C6  UNL     1     -34.672  13.470  -3.765  1.00 20.00     0.119 C 
HETATM    7  N7  UNL     1     -33.233  17.606  -4.943  1.00 20.00    -0.197 NA
ENDROOT
BRANCH   6   8
HETATM    8  O8  UNL     1     -34.776  12.581  -4.858  1.00 20.00    -0.396 OA
HETATM    9  H17 UNL     1     -34.064  11.929  -4.757  1.00 20.00     0.210 HD
ENDBRANCH   6   8
TORSDOF 1
ENDMDL
MODEL 4
REMARK VINA RESULT:      -4.0      2.171      2.454
REMARK  1 active torsions:
REMARK  status: ('A' for Active; 'I' for Inactive)
REMARK    1  A    between atoms: C6_6  and  O8_8 
ROOT
HETATM    1  C1  UNL     1     -35.014  16.763  -5.434  1.00 20.00     0.064 C 
HETATM    2  C2  UNL     1     -33.280  15.527  -4.165  1.00 20.00     0.022 C 
HETATM    3  C3  UNL     1     -33.993  14.395  -3.441  1.00 20.00     0.033 C 
HETATM    4  C4  UNL     1     -34.728  14.318  -5.727  1.00 20.00     0.051 C 
HETATM    5  C5  UNL     1     -34.031  15.669  -5.495  1.00 20.00     0.095 C 
HETATM    6  C6  UNL     1     -34.300  13.422  -4.567  1.00 20.00     0.119 C 
HETATM    7  N7  UNL     1     -35.789  17.626  -5.385  1.00 20.00    -0.197 NA
ENDROOT
BRANCH   6   8
HETATM    8  O8  UNL     1     -35.331  12.521  -4.214  1.00 20.00    -0.396 OA
HETATM    9  H17 UNL     1     -36.067  12.686  -4.824  1.00 20.00     0.210 HD
ENDBRANCH   6   8
TORSDOF 1
ENDMDL
MODEL 5
REMARK VINA RESULT:      -3.9      3.241      3.834
REMARK  1 active torsions:
REMARK  status: ('A' for Active; 'I' for Inactive)
REMARK    1  A    between atoms: C6_6  and  O8_8 
ROOT
HETATM    1  C1  UNL     1     -35.366  14.568  -6.524  1.00 20.00     0.064 C 
HETATM    2  C2  UNL     1     -35.165  13.685  -4.216  1.00 20.00     0.022 C 
HETATM    3  C3  UNL     1     -33.680  13.495  -3.950  1.00 20.00     0.033 C 
HETATM    4  C4  UNL     1     -33.938  15.707  -4.848  1.00 20.00     0.051 C 
HETATM    5  C5  UNL     1     -35.242  14.934  -5.104  1.00 20.00     0.095 C 
HETATM    6  C6  UNL     1     -33.188  14.922  -3.775  1.00 20.00     0.119 C 
HETATM    7  N7  UNL     1     -35.464  14.279  -7.644  1.00 20.00    -0.197 NA
ENDROOT
BRANCH   6   8
HETATM    8  O8  UNL     1     -31.789  15.019  -3.957  1.00 20.00    -0.396 OA
HETATM    9  H17 UNL     1     -31.476  14.132  -4.195  1.00 20.00     0.210 HD
ENDBRANCH   6   8
TORSDOF 1
ENDMDL
MODEL 6
REMARK VINA RESULT:      -3.8      2.234      2.812
REMARK  1 active torsions:
REMARK  status: ('A' for Active; 'I' for Inactive)
REMARK    1  A    between atoms: C6_6  and  O8_8 
ROOT
HETATM    1  C1  UNL     1     -37.191  14.704  -4.156  1.00 20.00     0.064 C 
HETATM    2  C2  UNL     1     -35.167  16.040  -3.643  1.00 20.00     0.022 C 
HETATM    3  C3  UNL     1     -34.136  15.072  -3.084  1.00 20.00     0.033 C 
HETATM    4  C4  UNL     1     -34.985  14.081  -5.100  1.00 20.00     0.051 C 
HETATM    5  C5  UNL     1     -35.927  15.228  -4.699  1.00 20.00     0.095 C 
HETATM    6  C6  UNL     1     -33.692  14.309  -4.320  1.00 20.00     0.119 C 
HETATM    7  N7  UNL     1     -38.188  14.291  -3.728  1.00 20.00    -0.197 NA
ENDROOT
BRANCH   6   8
HETATM    8  O8  UNL     1     -33.078  13.080  -3.984  1.00 20.00    -0.396 OA
HETATM    9  H17 UNL     1     -32.590  12.787  -4.770  1.00 20.00     0.210 HD
ENDBRANCH   6   8
TORSDOF 1
ENDMDL
MODEL 7
REMARK VINA RESULT:      -3.8      2.860      3.436
REMARK  1 active torsions:
REMARK  status: ('A' for Active; 'I' for Inactive)
REMARK    1  A    between atoms: C6_6  and  O8_8 
ROOT
HETATM    1  C1  UNL     1     -34.561  13.508  -4.117  1.00 20.00     0.064 C 
HETATM    2  C2  UNL     1     -32.907  15.315  -3.740  1.00 20.00     0.022 C 
HETATM    3  C3  UNL     1     -33.475  16.568  -4.389  1.00 20.00     0.033 C 
HETATM    4  C4  UNL     1     -35.231  15.638  -3.040  1.00 20.00     0.051 C 
HETATM    5  C5  UNL     1     -34.133  14.572  -3.195  1.00 20.00     0.095 C 
HETATM    6  C6  UNL     1     -34.584  16.965  -3.430  1.00 20.00     0.119 C 
HETATM    7  N7  UNL     1     -34.898  12.668  -4.845  1.00 20.00    -0.197 NA
ENDROOT
BRANCH   6   8
HETATM    8  O8  UNL     1     -35.523  17.827  -4.043  1.00 20.00    -0.396 OA
HETATM    9  H17 UNL     1     -36.352  17.328  -4.118  1.00 20.00     0.210 HD
ENDBRANCH   6   8
TORSDOF 1
ENDMDL
MODEL 8
REMARK VINA RESULT:      -3.7      2.696      2.966
REMARK  1 active torsions:
REMARK  status: ('A' for Active; 'I' for Inactive)
REMARK    1  A    between atoms: C6_6  and  O8_8 
ROOT
HETATM    1  C1  UNL     1     -37.136  14.723  -3.788  1.00 20.00     0.064 C 
HETATM    2  C2  UNL     1     -34.757  14.088  -3.504  1.00 20.00     0.022 C 
HETATM    3  C3  UNL     1     -34.245  13.687  -4.878  1.00 20.00     0.033 C 
HETATM    4  C4  UNL     1     -35.365  15.794  -5.152  1.00 20.00     0.051 C 
HETATM    5  C5  UNL     1     -35.752  15.223  -3.778  1.00 20.00     0.095 C 
HETATM    6  C6  UNL     1     -34.122  15.023  -5.591  1.00 20.00     0.119 C 
HETATM    7  N7  UNL     1     -38.228  14.327  -3.796  1.00 20.00    -0.197 NA
ENDROOT
BRANCH   6   8
HETATM    8  O8  UNL     1     -34.091  14.866  -6.996  1.00 20.00    -0.396 OA
HETATM    9  H17 UNL     1     -34.808  15.413  -7.354  1.00 20.00     0.210 HD
ENDBRANCH   6   8
TORSDOF 1
ENDMDL
MODEL 9
REMARK VINA RESULT:      -3.7      1.434      1.443
REMARK  1 active torsions:
REMARK  status: ('A' for Active; 'I' for Inactive)
REMARK    1  A    between atoms: C6_6  and  O8_8 
ROOT
HETATM    1  C1  UNL     1     -35.100  16.964  -3.795  1.00 20.00     0.064 C 
HETATM    2  C2  UNL     1     -33.087  15.557  -4.134  1.00 20.00     0.022 C 
HETATM    3  C3  UNL     1     -33.434  14.168  -3.621  1.00 20.00     0.033 C 
HETATM    4  C4  UNL     1     -35.235  14.838  -5.062  1.00 20.00     0.051 C 
HETATM    5  C5  UNL     1     -34.394  16.084  -4.740  1.00 20.00     0.095 C 
HETATM    6  C6  UNL     1     -34.363  13.638  -4.700  1.00 20.00     0.119 C 
HETATM    7  N7  UNL     1     -35.656  17.658  -3.049  1.00 20.00    -0.197 NA
ENDROOT
BRANCH   6   8
HETATM    8  O8  UNL     1     -35.149  12.560  -4.231  1.00 20.00    -0.396 OA
HETATM    9  H17 UNL     1     -36.054  12.896  -4.137  1.00 20.00     0.210 HD
ENDBRANCH   6   8
TORSDOF 1
ENDMDL
