MODEL 1
REMARK VINA RESULT:      -5.6      0.000      0.000
REMARK  0 active torsions:
REMARK  status: ('A' for Active; 'I' for Inactive)
ROOT
HETATM    1  C1  UNL     1     -33.935   6.381   6.244  1.00 20.00     0.013 C 
HETATM    2  C2  UNL     1     -34.949   5.205   6.272  1.00 20.00     0.080 C 
HETATM    3  C3  UNL     1     -32.499   7.162   4.123  1.00 20.00     0.274 C 
HETATM    4  C4  UNL     1     -33.588   5.513   2.737  1.00 20.00     0.280 C 
HETATM    5  C5  UNL     1     -33.756   6.637   4.763  1.00 20.00     0.025 C 
HETATM    6  C6  UNL     1     -33.793   5.233   4.200  1.00 20.00     0.092 C 
HETATM    7  C7  UNL     1     -35.062   4.713   4.817  1.00 20.00     0.249 C 
HETATM    8  N8  UNL     1     -32.538   6.568   2.759  1.00 20.00     0.084 N 
HETATM    9  F9  UNL     1     -35.169   3.378   4.734  1.00 20.00    -0.206 F 
HETATM   10  F10 UNL     1     -36.149   5.260   4.229  1.00 20.00    -0.206 F 
HETATM   11  H21 UNL     1     -32.779   7.287   2.077  1.00 20.00     0.315 HD
ENDROOT
TORSDOF 0
ENDMDL
MODEL 2
REMARK VINA RESULT:      -4.5      2.537      3.712
REMARK  0 active torsions:
REMARK  status: ('A' for Active; 'I' for Inactive)
ROOT
HETATM    1  C1  UNL     1     -34.182   4.885   2.787  1.00 20.00     0.013 C 
HETATM    2  C2  UNL     1     -33.073   5.877   2.341  1.00 20.00     0.080 C 
HETATM    3  C3  UNL     1     -35.201   4.679   5.254  1.00 20.00     0.274 C 
HETATM    4  C4  UNL     1     -33.848   6.532   6.003  1.00 20.00     0.280 C 
HETATM    5  C5  UNL     1     -34.653   5.473   4.099  1.00 20.00     0.025 C 
HETATM    6  C6  UNL     1     -33.357   5.978   4.695  1.00 20.00     0.092 C 
HETATM    7  C7  UNL     1     -32.819   6.794   3.551  1.00 20.00     0.249 C 
HETATM    8  N8  UNL     1     -34.828   5.499   6.438  1.00 20.00     0.084 N 
HETATM    9  F9  UNL     1     -31.521   7.100   3.700  1.00 20.00    -0.206 F 
HETATM   10  F10 UNL     1     -33.509   7.947   3.409  1.00 20.00    -0.206 F 
HETATM   11  H21 UNL     1     -35.655   5.964   6.810  1.00 20.00     0.315 HD
ENDROOT
TORSDOF 0
ENDMDL
MODEL 3
REMARK VINA RESULT:      -4.5      1.697      2.567
REMARK  0 active torsions:
REMARK  status: ('A' for Active; 'I' for Inactive)
ROOT
HETATM    1  C1  UNL     1     -35.343   4.473   4.840  1.00 20.00     0.013 C 
HETATM    2  C2  UNL     1     -35.274   5.045   6.283  1.00 20.00     0.080 C 
HETATM    3  C3  UNL     1     -33.906   5.325   2.747  1.00 20.00     0.274 C 
HETATM    4  C4  UNL     1     -32.726   6.892   4.152  1.00 20.00     0.280 C 
HETATM    5  C5  UNL     1     -34.073   5.001   4.207  1.00 20.00     0.025 C 
HETATM    6  C6  UNL     1     -33.976   6.383   4.814  1.00 20.00     0.092 C 
HETATM    7  C7  UNL     1     -34.117   6.060   6.277  1.00 20.00     0.249 C 
HETATM    8  N8  UNL     1     -32.888   6.410   2.753  1.00 20.00     0.084 N 
HETATM    9  F9  UNL     1     -34.381   7.144   7.023  1.00 20.00    -0.206 F 
HETATM   10  F10 UNL     1     -32.993   5.483   6.758  1.00 20.00    -0.206 F 
HETATM   11  H21 UNL     1     -31.994   6.045   2.424  1.00 20.00     0.315 HD
ENDROOT
TORSDOF 0
ENDMDL
MODEL 4
REMARK VINA RESULT:      -4.4      9.474     10.413
REMARK  0 active torsions:
REMARK  status: ('A' for Active; 'I' for Inactive)
ROOT
HETATM    1  C1  UNL     1     -42.946   6.379  -3.215  1.00 20.00     0.013 C 
HETATM    2  C2  UNL     1     -42.744   7.711  -2.441  1.00 20.00     0.080 C 
HETATM    3  C3  UNL     1     -41.905   4.005  -2.547  1.00 20.00     0.274 C 
HETATM    4  C4  UNL     1     -40.939   4.953  -0.549  1.00 20.00     0.280 C 
HETATM    5  C5  UNL     1     -42.521   5.335  -2.206  1.00 20.00     0.025 C 
HETATM    6  C6  UNL     1     -41.356   6.018  -1.525  1.00 20.00     0.092 C 
HETATM    7  C7  UNL     1     -41.976   7.339  -1.159  1.00 20.00     0.249 C 
HETATM    8  N8  UNL     1     -41.049   3.713  -1.365  1.00 20.00     0.084 N 
HETATM    9  F9  UNL     1     -41.064   8.263  -0.821  1.00 20.00    -0.206 F 
HETATM   10  F10 UNL     1     -42.839   7.202  -0.128  1.00 20.00    -0.206 F 
HETATM   11  H21 UNL     1     -41.481   2.983  -0.799  1.00 20.00     0.315 HD
ENDROOT
TORSDOF 0
ENDMDL
MODEL 5
REMARK VINA RESULT:      -4.4     12.016     12.799
REMARK  0 active torsions:
REMARK  status: ('A' for Active; 'I' for Inactive)
ROOT
HETATM    1  C1  UNL     1     -36.439  15.441  -3.637  1.00 20.00     0.013 C 
HETATM    2  C2  UNL     1     -35.875  16.717  -2.953  1.00 20.00     0.080 C 
HETATM    3  C3  UNL     1     -34.999  13.337  -4.456  1.00 20.00     0.274 C 
HETATM    4  C4  UNL     1     -32.985  14.327  -3.568  1.00 20.00     0.280 C 
HETATM    5  C5  UNL     1     -35.303  14.451  -3.491  1.00 20.00     0.025 C 
HETATM    6  C6  UNL     1     -34.093  15.336  -3.692  1.00 20.00     0.092 C 
HETATM    7  C7  UNL     1     -34.381  16.438  -2.710  1.00 20.00     0.249 C 
HETATM    8  N8  UNL     1     -33.527  13.165  -4.324  1.00 20.00     0.084 N 
HETATM    9  F9  UNL     1     -33.617  17.524  -2.910  1.00 20.00    -0.206 F 
HETATM   10  F10 UNL     1     -34.191  16.019  -1.439  1.00 20.00    -0.206 F 
HETATM   11  H21 UNL     1     -33.326  12.311  -3.805  1.00 20.00     0.315 HD
ENDROOT
TORSDOF 0
ENDMDL
MODEL 6
REMARK VINA RESULT:      -4.4     12.551     13.643
REMARK  0 active torsions:
REMARK  status: ('A' for Active; 'I' for Inactive)
ROOT
HETATM    1  C1  UNL     1     -34.860  13.526  -4.942  1.00 20.00     0.013 C 
HETATM    2  C2  UNL     1     -34.251  13.719  -3.526  1.00 20.00     0.080 C 
HETATM    3  C3  UNL     1     -34.887  15.354  -6.898  1.00 20.00     0.274 C 
HETATM    4  C4  UNL     1     -33.620  16.886  -5.529  1.00 20.00     0.280 C 
HETATM    5  C5  UNL     1     -34.238  14.656  -5.733  1.00 20.00     0.025 C 
HETATM    6  C6  UNL     1     -34.216  15.773  -4.713  1.00 20.00     0.092 C 
HETATM    7  C7  UNL     1     -33.545  15.086  -3.556  1.00 20.00     0.249 C 
HETATM    8  N8  UNL     1     -34.308  16.724  -6.839  1.00 20.00     0.084 N 
HETATM    9  F9  UNL     1     -33.682  15.760  -2.403  1.00 20.00    -0.206 F 
HETATM   10  F10 UNL     1     -32.224  14.919  -3.789  1.00 20.00    -0.206 F 
HETATM   11  H21 UNL     1     -33.626  16.843  -7.588  1.00 20.00     0.315 HD
ENDROOT
TORSDOF 0
ENDMDL
MODEL 7
REMARK VINA RESULT:      -4.3     12.814     14.059
REMARK  0 active torsions:
REMARK  status: ('A' for Active; 'I' for Inactive)
ROOT
HETATM    1  C1  UNL     1     -34.530  14.869  -6.948  1.00 20.00     0.013 C 
HETATM    2  C2  UNL     1     -34.192  16.371  -6.739  1.00 20.00     0.080 C 
HETATM    3  C3  UNL     1     -34.673  13.014  -5.022  1.00 20.00     0.274 C 
HETATM    4  C4  UNL     1     -34.253  14.687  -3.334  1.00 20.00     0.280 C 
HETATM    5  C5  UNL     1     -34.885  14.408  -5.551  1.00 20.00     0.025 C 
HETATM    6  C6  UNL     1     -33.896  15.182  -4.708  1.00 20.00     0.092 C 
HETATM    7  C7  UNL     1     -34.124  16.579  -5.216  1.00 20.00     0.249 C 
HETATM    8  N8  UNL     1     -34.465  13.231  -3.565  1.00 20.00     0.084 N 
HETATM    9  F9  UNL     1     -33.147  17.426  -4.856  1.00 20.00    -0.206 F 
HETATM   10  F10 UNL     1     -35.298  17.075  -4.765  1.00 20.00    -0.206 F 
HETATM   11  H21 UNL     1     -35.293  12.933  -3.051  1.00 20.00     0.315 HD
ENDROOT
TORSDOF 0
ENDMDL
MODEL 8
REMARK VINA RESULT:      -4.3     12.327     13.341
REMARK  0 active torsions:
REMARK  status: ('A' for Active; 'I' for Inactive)
ROOT
HETATM    1  C1  UNL     1     -32.736  15.053  -3.692  1.00 20.00     0.013 C 
HETATM    2  C2  UNL     1     -33.404  13.650  -3.699  1.00 20.00     0.080 C 
HETATM    3  C3  UNL     1     -33.477  17.148  -5.185  1.00 20.00     0.274 C 
HETATM    4  C4  UNL     1     -35.329  15.891  -6.090  1.00 20.00     0.280 C 
HETATM    5  C5  UNL     1     -33.777  15.924  -4.362  1.00 20.00     0.025 C 
HETATM    6  C6  UNL     1     -34.320  14.996  -5.425  1.00 20.00     0.092 C 
HETATM    7  C7  UNL     1     -34.644  13.780  -4.601  1.00 20.00     0.249 C 
HETATM    8  N8  UNL     1     -34.607  17.191  -6.153  1.00 20.00     0.084 N 
HETATM    9  F9  UNL     1     -34.850  12.686  -5.351  1.00 20.00    -0.206 F 
HETATM   10  F10 UNL     1     -35.746  13.985  -3.844  1.00 20.00    -0.206 F 
HETATM   11  H21 UNL     1     -35.251  17.939  -5.898  1.00 20.00     0.315 HD
ENDROOT
TORSDOF 0
ENDMDL
MODEL 9
REMARK VINA RESULT:      -4.3     12.190     12.761
REMARK  0 active torsions:
REMARK  status: ('A' for Active; 'I' for Inactive)
ROOT
HETATM    1  C1  UNL     1     -33.575  16.325  -2.834  1.00 20.00     0.013 C 
HETATM    2  C2  UNL     1     -32.979  15.147  -3.653  1.00 20.00     0.080 C 
HETATM    3  C3  UNL     1     -36.181  16.822  -2.473  1.00 20.00     0.274 C 
HETATM    4  C4  UNL     1     -36.764  14.820  -3.689  1.00 20.00     0.280 C 
HETATM    5  C5  UNL     1     -35.007  15.889  -2.611  1.00 20.00     0.025 C 
HETATM    6  C6  UNL     1     -35.334  15.218  -3.927  1.00 20.00     0.092 C 
HETATM    7  C7  UNL     1     -34.176  14.267  -4.055  1.00 20.00     0.249 C 
HETATM    8  N8  UNL     1     -37.317  16.017  -2.998  1.00 20.00     0.084 N 
HETATM    9  F9  UNL     1     -34.052  13.767  -5.295  1.00 20.00    -0.206 F 
HETATM   10  F10 UNL     1     -34.298  13.232  -3.195  1.00 20.00    -0.206 F 
HETATM   11  H21 UNL     1     -37.907  15.709  -2.225  1.00 20.00     0.315 HD
ENDROOT
TORSDOF 0
ENDMDL
