MODEL 1
REMARK VINA RESULT:      -4.9      0.000      0.000
REMARK  1 active torsions:
REMARK  status: ('A' for Active; 'I' for Inactive)
REMARK    1  A    between atoms: C7_7  and  C10_10 
ROOT
HETATM    1  C1  UNL     1     -34.526  14.934  -6.250  1.00 20.00     0.127 C 
HETATM    2  C2  UNL     1     -34.845  13.723  -5.403  1.00 20.00     0.078 C 
HETATM    3  C3  UNL     1     -34.617  16.299  -5.607  1.00 20.00     0.079 C 
HETATM    4  C4  UNL     1     -34.014  13.630  -4.128  1.00 20.00     0.008 C 
HETATM    5  C5  UNL     1     -33.443  16.526  -4.665  1.00 20.00     0.012 C 
HETATM    6  C6  UNL     1     -34.401  14.684  -3.091  1.00 20.00     0.005 C 
HETATM    7  C7  UNL     1     -33.666  16.028  -3.226  1.00 20.00    -0.011 C 
HETATM    8  O11 UNL     1     -34.242  14.813  -7.444  1.00 20.00    -0.298 OA
ENDROOT
BRANCH   7   9
HETATM    9  C10 UNL     1     -34.385  17.090  -2.386  1.00 20.00    -0.019 C 
HETATM   10  C8  UNL     1     -34.608  16.582  -0.966  1.00 20.00     0.010 C 
HETATM   11  C9  UNL     1     -33.587  18.390  -2.378  1.00 20.00     0.010 C 
ENDBRANCH   7   9
TORSDOF 1
ENDMDL
MODEL 2
REMARK VINA RESULT:      -4.8      1.274      2.444
REMARK  1 active torsions:
REMARK  status: ('A' for Active; 'I' for Inactive)
REMARK    1  A    between atoms: C7_7  and  C10_10 
ROOT
HETATM    1  C1  UNL     1     -34.464  13.683  -4.781  1.00 20.00     0.127 C 
HETATM    2  C2  UNL     1     -34.421  14.673  -5.924  1.00 20.00     0.078 C 
HETATM    3  C3  UNL     1     -33.989  14.143  -3.421  1.00 20.00     0.079 C 
HETATM    4  C4  UNL     1     -35.179  15.967  -5.643  1.00 20.00     0.008 C 
HETATM    5  C5  UNL     1     -35.013  15.072  -2.784  1.00 20.00     0.012 C 
HETATM    6  C6  UNL     1     -34.477  16.850  -4.612  1.00 20.00     0.005 C 
HETATM    7  C7  UNL     1     -34.848  16.559  -3.147  1.00 20.00    -0.011 C 
HETATM    8  O11 UNL     1     -34.833  12.522  -4.965  1.00 20.00    -0.298 OA
ENDROOT
BRANCH   7   9
HETATM    9  C10 UNL     1     -33.835  17.239  -2.220  1.00 20.00    -0.019 C 
HETATM   10  C8  UNL     1     -33.709  18.718  -2.565  1.00 20.00     0.010 C 
HETATM   11  C9  UNL     1     -34.246  17.055  -0.762  1.00 20.00     0.010 C 
ENDBRANCH   7   9
TORSDOF 1
ENDMDL
MODEL 3
REMARK VINA RESULT:      -4.8      2.014      3.460
REMARK  1 active torsions:
REMARK  status: ('A' for Active; 'I' for Inactive)
REMARK    1  A    between atoms: C7_7  and  C10_10 
ROOT
HETATM    1  C1  UNL     1     -34.930  13.727  -4.499  1.00 20.00     0.127 C 
HETATM    2  C2  UNL     1     -34.108  14.321  -3.377  1.00 20.00     0.078 C 
HETATM    3  C3  UNL     1     -35.500  14.665  -5.539  1.00 20.00     0.079 C 
HETATM    4  C4  UNL     1     -32.931  15.163  -3.857  1.00 20.00     0.008 C 
HETATM    5  C5  UNL     1     -34.404  15.161  -6.470  1.00 20.00     0.012 C 
HETATM    6  C6  UNL     1     -33.368  16.487  -4.482  1.00 20.00     0.005 C 
HETATM    7  C7  UNL     1     -33.671  16.426  -5.989  1.00 20.00    -0.011 C 
HETATM    8  O11 UNL     1     -35.164  12.517  -4.539  1.00 20.00    -0.298 OA
ENDROOT
BRANCH   7   9
HETATM    9  C10 UNL     1     -34.430  17.689  -6.409  1.00 20.00    -0.019 C 
HETATM   10  C8  UNL     1     -33.670  18.936  -5.969  1.00 20.00     0.010 C 
HETATM   11  C9  UNL     1     -34.654  17.696  -7.918  1.00 20.00     0.010 C 
ENDBRANCH   7   9
TORSDOF 1
ENDMDL
MODEL 4
REMARK VINA RESULT:      -4.8      1.752      2.152
REMARK  1 active torsions:
REMARK  status: ('A' for Active; 'I' for Inactive)
REMARK    1  A    between atoms: C7_7  and  C10_10 
ROOT
HETATM    1  C1  UNL     1     -34.738  13.530  -4.286  1.00 20.00     0.127 C 
HETATM    2  C2  UNL     1     -33.338  13.682  -3.734  1.00 20.00     0.078 C 
HETATM    3  C3  UNL     1     -35.840  14.365  -3.675  1.00 20.00     0.079 C 
HETATM    4  C4  UNL     1     -32.823  15.116  -3.756  1.00 20.00     0.008 C 
HETATM    5  C5  UNL     1     -35.717  15.817  -4.115  1.00 20.00     0.012 C 
HETATM    6  C6  UNL     1     -33.519  16.010  -2.730  1.00 20.00     0.005 C 
HETATM    7  C7  UNL     1     -34.809  16.686  -3.227  1.00 20.00    -0.011 C 
HETATM    8  O11 UNL     1     -34.981  12.715  -5.179  1.00 20.00    -0.298 OA
ENDROOT
BRANCH   7   9
HETATM    9  C10 UNL     1     -35.587  17.243  -2.030  1.00 20.00    -0.019 C 
HETATM   10  C8  UNL     1     -34.859  16.923  -0.729  1.00 20.00     0.010 C 
HETATM   11  C9  UNL     1     -35.787  18.748  -2.183  1.00 20.00     0.010 C 
ENDBRANCH   7   9
TORSDOF 1
ENDMDL
MODEL 5
REMARK VINA RESULT:      -4.6      1.289      2.725
REMARK  1 active torsions:
REMARK  status: ('A' for Active; 'I' for Inactive)
REMARK    1  A    between atoms: C7_7  and  C10_10 
ROOT
HETATM    1  C1  UNL     1     -33.967  15.113  -4.708  1.00 20.00     0.127 C 
HETATM    2  C2  UNL     1     -33.416  16.405  -5.268  1.00 20.00     0.078 C 
HETATM    3  C3  UNL     1     -33.974  14.932  -3.207  1.00 20.00     0.079 C 
HETATM    4  C4  UNL     1     -34.091  17.653  -4.710  1.00 20.00     0.008 C 
HETATM    5  C5  UNL     1     -35.060  15.787  -2.570  1.00 20.00     0.012 C 
HETATM    6  C6  UNL     1     -33.726  17.919  -3.250  1.00 20.00     0.005 C 
HETATM    7  C7  UNL     1     -34.629  17.221  -2.217  1.00 20.00    -0.011 C 
HETATM    8  O11 UNL     1     -34.359  14.215  -5.457  1.00 20.00    -0.298 OA
ENDROOT
BRANCH   7   9
HETATM    9  C10 UNL     1     -33.958  17.266  -0.840  1.00 20.00    -0.019 C 
HETATM   10  C8  UNL     1     -33.052  18.487  -0.731  1.00 20.00     0.010 C 
HETATM   11  C9  UNL     1     -35.012  17.273   0.263  1.00 20.00     0.010 C 
ENDBRANCH   7   9
TORSDOF 1
ENDMDL
MODEL 6
REMARK VINA RESULT:      -4.5      1.088      1.568
REMARK  1 active torsions:
REMARK  status: ('A' for Active; 'I' for Inactive)
REMARK    1  A    between atoms: C7_7  and  C10_10 
ROOT
HETATM    1  C1  UNL     1     -34.554  15.271  -6.000  1.00 20.00     0.127 C 
HETATM    2  C2  UNL     1     -35.976  14.996  -5.565  1.00 20.00     0.078 C 
HETATM    3  C3  UNL     1     -33.712  16.190  -5.144  1.00 20.00     0.079 C 
HETATM    4  C4  UNL     1     -36.089  14.450  -4.146  1.00 20.00     0.008 C 
HETATM    5  C5  UNL     1     -33.289  15.489  -3.862  1.00 20.00     0.012 C 
HETATM    6  C6  UNL     1     -35.775  15.501  -3.082  1.00 20.00     0.005 C 
HETATM    7  C7  UNL     1     -34.289  15.613  -2.699  1.00 20.00    -0.011 C 
HETATM    8  O11 UNL     1     -34.109  14.794  -7.046  1.00 20.00    -0.298 OA
ENDROOT
BRANCH   7   9
HETATM    9  C10 UNL     1     -34.060  16.912  -1.918  1.00 20.00    -0.019 C 
HETATM   10  C8  UNL     1     -34.700  18.089  -2.647  1.00 20.00     0.010 C 
HETATM   11  C9  UNL     1     -34.615  16.785  -0.503  1.00 20.00     0.010 C 
ENDBRANCH   7   9
TORSDOF 1
ENDMDL
MODEL 7
REMARK VINA RESULT:      -4.4      2.185      4.211
REMARK  1 active torsions:
REMARK  status: ('A' for Active; 'I' for Inactive)
REMARK    1  A    between atoms: C7_7  and  C10_10 
ROOT
HETATM    1  C1  UNL     1     -33.632  13.904  -3.852  1.00 20.00     0.127 C 
HETATM    2  C2  UNL     1     -33.230  15.345  -3.629  1.00 20.00     0.078 C 
HETATM    3  C3  UNL     1     -34.995  13.628  -4.446  1.00 20.00     0.079 C 
HETATM    4  C4  UNL     1     -33.310  16.206  -4.886  1.00 20.00     0.008 C 
HETATM    5  C5  UNL     1     -35.010  13.966  -5.930  1.00 20.00     0.012 C 
HETATM    6  C6  UNL     1     -34.748  16.485  -5.320  1.00 20.00     0.005 C 
HETATM    7  C7  UNL     1     -35.360  15.428  -6.256  1.00 20.00    -0.011 C 
HETATM    8  O11 UNL     1     -32.887  12.981  -3.518  1.00 20.00    -0.298 OA
ENDROOT
BRANCH   7   9
HETATM    9  C10 UNL     1     -36.879  15.624  -6.322  1.00 20.00    -0.019 C 
HETATM   10  C8  UNL     1     -37.235  17.091  -6.114  1.00 20.00     0.010 C 
HETATM   11  C9  UNL     1     -37.421  15.118  -7.656  1.00 20.00     0.010 C 
ENDBRANCH   7   9
TORSDOF 1
ENDMDL
MODEL 8
REMARK VINA RESULT:      -4.4      2.152      4.170
REMARK  1 active torsions:
REMARK  status: ('A' for Active; 'I' for Inactive)
REMARK    1  A    between atoms: C7_7  and  C10_10 
ROOT
HETATM    1  C1  UNL     1     -33.700  18.044  -3.053  1.00 20.00     0.127 C 
HETATM    2  C2  UNL     1     -33.763  17.089  -1.882  1.00 20.00     0.078 C 
HETATM    3  C3  UNL     1     -33.622  17.460  -4.446  1.00 20.00     0.079 C 
HETATM    4  C4  UNL     1     -34.909  16.086  -1.969  1.00 20.00     0.008 C 
HETATM    5  C5  UNL     1     -34.968  16.883  -4.860  1.00 20.00     0.012 C 
HETATM    6  C6  UNL     1     -34.688  15.030  -3.051  1.00 20.00     0.005 C 
HETATM    7  C7  UNL     1     -35.196  15.418  -4.450  1.00 20.00    -0.011 C 
HETATM    8  O11 UNL     1     -33.669  19.263  -2.874  1.00 20.00    -0.298 OA
ENDROOT
BRANCH   7   9
HETATM    9  C10 UNL     1     -34.605  14.461  -5.492  1.00 20.00    -0.019 C 
HETATM   10  C8  UNL     1     -34.517  13.048  -4.925  1.00 20.00     0.010 C 
HETATM   11  C9  UNL     1     -35.441  14.483  -6.767  1.00 20.00     0.010 C 
ENDBRANCH   7   9
TORSDOF 1
ENDMDL
MODEL 9
REMARK VINA RESULT:      -4.3      1.903      2.573
REMARK  1 active torsions:
REMARK  status: ('A' for Active; 'I' for Inactive)
REMARK    1  A    between atoms: C7_7  and  C10_10 
ROOT
HETATM    1  C1  UNL     1     -33.532  13.815  -3.937  1.00 20.00     0.127 C 
HETATM    2  C2  UNL     1     -34.822  13.533  -4.674  1.00 20.00     0.078 C 
HETATM    3  C3  UNL     1     -33.154  15.258  -3.687  1.00 20.00     0.079 C 
HETATM    4  C4  UNL     1     -36.049  14.170  -4.030  1.00 20.00     0.008 C 
HETATM    5  C5  UNL     1     -34.026  15.857  -2.593  1.00 20.00     0.012 C 
HETATM    6  C6  UNL     1     -36.078  15.690  -4.190  1.00 20.00     0.005 C 
HETATM    7  C7  UNL     1     -35.347  16.473  -3.086  1.00 20.00    -0.011 C 
HETATM    8  O11 UNL     1     -32.788  12.896  -3.589  1.00 20.00    -0.298 OA
ENDROOT
BRANCH   7   9
HETATM    9  C10 UNL     1     -35.138  17.922  -3.541  1.00 20.00    -0.019 C 
HETATM   10  C8  UNL     1     -33.938  18.535  -2.827  1.00 20.00     0.010 C 
HETATM   11  C9  UNL     1     -34.955  17.980  -5.055  1.00 20.00     0.010 C 
ENDBRANCH   7   9
TORSDOF 1
ENDMDL
