MODEL 1
REMARK VINA RESULT:      -4.7      0.000      0.000
REMARK  1 active torsions:
REMARK  status: ('A' for Active; 'I' for Inactive)
REMARK    1  A    between atoms: C7_7  and  C10_10 
ROOT
HETATM    1  C1  UNL     1     -35.172  14.692  -5.509  1.00 20.00     0.127 C 
HETATM    2  C2  UNL     1     -34.472  16.028  -5.627  1.00 20.00     0.078 C 
HETATM    3  C3  UNL     1     -35.937  14.372  -4.234  1.00 20.00     0.079 C 
HETATM    4  C4  UNL     1     -33.246  16.149  -4.728  1.00 20.00     0.008 C 
HETATM    5  C5  UNL     1     -35.887  15.465  -3.170  1.00 20.00     0.012 C 
HETATM    6  C6  UNL     1     -33.296  15.385  -3.403  1.00 20.00     0.005 C 
HETATM    7  C7  UNL     1     -34.512  15.648  -2.501  1.00 20.00    -0.011 C 
HETATM    8  O11 UNL     1     -35.129  13.875  -6.430  1.00 20.00    -0.298 OA
ENDROOT
BRANCH   7   9
HETATM    9  C10 UNL     1     -34.430  17.031  -1.847  1.00 20.00    -0.019 C 
HETATM   10  C8  UNL     1     -35.431  17.982  -2.490  1.00 20.00     0.010 C 
HETATM   11  C9  UNL     1     -34.671  16.922  -0.346  1.00 20.00     0.010 C 
ENDBRANCH   7   9
TORSDOF 1
ENDMDL
MODEL 2
REMARK VINA RESULT:      -4.7      1.367      2.476
REMARK  1 active torsions:
REMARK  status: ('A' for Active; 'I' for Inactive)
REMARK    1  A    between atoms: C7_7  and  C10_10 
ROOT
HETATM    1  C1  UNL     1     -34.693  13.563  -4.280  1.00 20.00     0.127 C 
HETATM    2  C2  UNL     1     -35.918  14.392  -3.959  1.00 20.00     0.078 C 
HETATM    3  C3  UNL     1     -33.333  14.043  -3.798  1.00 20.00     0.079 C 
HETATM    4  C4  UNL     1     -35.981  15.702  -4.736  1.00 20.00     0.008 C 
HETATM    5  C5  UNL     1     -33.357  15.368  -3.043  1.00 20.00     0.012 C 
HETATM    6  C6  UNL     1     -34.640  16.353  -5.080  1.00 20.00     0.005 C 
HETATM    7  C7  UNL     1     -33.673  16.599  -3.912  1.00 20.00    -0.011 C 
HETATM    8  O11 UNL     1     -34.792  12.513  -4.917  1.00 20.00    -0.298 OA
ENDROOT
BRANCH   7   9
HETATM    9  C10 UNL     1     -34.152  17.754  -3.027  1.00 20.00    -0.019 C 
HETATM   10  C8  UNL     1     -33.671  17.560  -1.594  1.00 20.00     0.010 C 
HETATM   11  C9  UNL     1     -33.667  19.086  -3.586  1.00 20.00     0.010 C 
ENDBRANCH   7   9
TORSDOF 1
ENDMDL
MODEL 3
REMARK VINA RESULT:      -4.6      1.836      2.647
REMARK  1 active torsions:
REMARK  status: ('A' for Active; 'I' for Inactive)
REMARK    1  A    between atoms: C7_7  and  C10_10 
ROOT
HETATM    1  C1  UNL     1     -33.532  13.857  -3.841  1.00 20.00     0.127 C 
HETATM    2  C2  UNL     1     -33.108  15.307  -3.940  1.00 20.00     0.078 C 
HETATM    3  C3  UNL     1     -34.996  13.503  -4.049  1.00 20.00     0.079 C 
HETATM    4  C4  UNL     1     -33.596  16.159  -2.774  1.00 20.00     0.008 C 
HETATM    5  C5  UNL     1     -35.908  14.696  -4.317  1.00 20.00     0.012 C 
HETATM    6  C6  UNL     1     -34.934  15.756  -2.150  1.00 20.00     0.005 C 
HETATM    7  C7  UNL     1     -36.129  15.622  -3.107  1.00 20.00    -0.011 C 
HETATM    8  O11 UNL     1     -32.707  12.975  -3.599  1.00 20.00    -0.298 OA
ENDROOT
BRANCH   7   9
HETATM    9  C10 UNL     1     -36.618  16.994  -3.581  1.00 20.00    -0.019 C 
HETATM   10  C8  UNL     1     -36.427  17.134  -5.087  1.00 20.00     0.010 C 
HETATM   11  C9  UNL     1     -38.079  17.197  -3.198  1.00 20.00     0.010 C 
ENDBRANCH   7   9
TORSDOF 1
ENDMDL
MODEL 4
REMARK VINA RESULT:      -4.5      1.751      2.938
REMARK  1 active torsions:
REMARK  status: ('A' for Active; 'I' for Inactive)
REMARK    1  A    between atoms: C7_7  and  C10_10 
ROOT
HETATM    1  C1  UNL     1     -34.415  13.638  -4.764  1.00 20.00     0.127 C 
HETATM    2  C2  UNL     1     -33.421  14.263  -3.809  1.00 20.00     0.078 C 
HETATM    3  C3  UNL     1     -34.815  14.404  -6.015  1.00 20.00     0.079 C 
HETATM    4  C4  UNL     1     -33.988  15.449  -3.037  1.00 20.00     0.008 C 
HETATM    5  C5  UNL     1     -34.164  15.776  -6.156  1.00 20.00     0.012 C 
HETATM    6  C6  UNL     1     -35.041  16.290  -3.761  1.00 20.00     0.005 C 
HETATM    7  C7  UNL     1     -34.658  16.830  -5.148  1.00 20.00    -0.011 C 
HETATM    8  O11 UNL     1     -34.893  12.525  -4.537  1.00 20.00    -0.298 OA
ENDROOT
BRANCH   7   9
HETATM    9  C10 UNL     1     -33.639  17.968  -5.039  1.00 20.00    -0.019 C 
HETATM   10  C8  UNL     1     -33.600  18.770  -6.334  1.00 20.00     0.010 C 
HETATM   11  C9  UNL     1     -33.973  18.866  -3.854  1.00 20.00     0.010 C 
ENDBRANCH   7   9
TORSDOF 1
ENDMDL
MODEL 5
REMARK VINA RESULT:      -4.5      1.995      3.240
REMARK  1 active torsions:
REMARK  status: ('A' for Active; 'I' for Inactive)
REMARK    1  A    between atoms: C7_7  and  C10_10 
ROOT
HETATM    1  C1  UNL     1     -34.758  13.752  -4.465  1.00 20.00     0.127 C 
HETATM    2  C2  UNL     1     -35.895  14.596  -4.999  1.00 20.00     0.078 C 
HETATM    3  C3  UNL     1     -33.544  14.445  -3.866  1.00 20.00     0.079 C 
HETATM    4  C4  UNL     1     -35.545  15.338  -6.284  1.00 20.00     0.008 C 
HETATM    5  C5  UNL     1     -33.603  15.970  -3.898  1.00 20.00     0.012 C 
HETATM    6  C6  UNL     1     -34.085  15.765  -6.446  1.00 20.00     0.005 C 
HETATM    7  C7  UNL     1     -33.476  16.590  -5.301  1.00 20.00    -0.011 C 
HETATM    8  O11 UNL     1     -34.812  12.522  -4.510  1.00 20.00    -0.298 OA
ENDROOT
BRANCH   7   9
HETATM    9  C10 UNL     1     -34.027  18.019  -5.293  1.00 20.00    -0.019 C 
HETATM   10  C8  UNL     1     -33.497  18.784  -4.086  1.00 20.00     0.010 C 
HETATM   11  C9  UNL     1     -33.666  18.734  -6.589  1.00 20.00     0.010 C 
ENDBRANCH   7   9
TORSDOF 1
ENDMDL
MODEL 6
REMARK VINA RESULT:      -4.4      1.442      2.483
REMARK  1 active torsions:
REMARK  status: ('A' for Active; 'I' for Inactive)
REMARK    1  A    between atoms: C7_7  and  C10_10 
ROOT
HETATM    1  C1  UNL     1     -33.639  16.350  -4.990  1.00 20.00     0.127 C 
HETATM    2  C2  UNL     1     -33.020  15.408  -3.979  1.00 20.00     0.078 C 
HETATM    3  C3  UNL     1     -34.030  17.752  -4.546  1.00 20.00     0.079 C 
HETATM    4  C4  UNL     1     -34.008  14.920  -2.925  1.00 20.00     0.008 C 
HETATM    5  C5  UNL     1     -33.768  18.049  -3.073  1.00 20.00     0.012 C 
HETATM    6  C6  UNL     1     -35.123  15.893  -2.536  1.00 20.00     0.005 C 
HETATM    7  C7  UNL     1     -34.688  17.298  -2.092  1.00 20.00    -0.011 C 
HETATM    8  O11 UNL     1     -33.821  15.993  -6.155  1.00 20.00    -0.298 OA
ENDROOT
BRANCH   7   9
HETATM    9  C10 UNL     1     -34.053  17.269  -0.698  1.00 20.00    -0.019 C 
HETATM   10  C8  UNL     1     -33.054  18.410  -0.547  1.00 20.00     0.010 C 
HETATM   11  C9  UNL     1     -35.130  17.344   0.377  1.00 20.00     0.010 C 
ENDBRANCH   7   9
TORSDOF 1
ENDMDL
MODEL 7
REMARK VINA RESULT:      -4.4      1.356      2.203
REMARK  1 active torsions:
REMARK  status: ('A' for Active; 'I' for Inactive)
REMARK    1  A    between atoms: C7_7  and  C10_10 
ROOT
HETATM    1  C1  UNL     1     -36.209  15.074  -6.699  1.00 20.00     0.127 C 
HETATM    2  C2  UNL     1     -34.843  14.477  -6.437  1.00 20.00     0.078 C 
HETATM    3  C3  UNL     1     -36.745  16.131  -5.746  1.00 20.00     0.079 C 
HETATM    4  C4  UNL     1     -34.809  13.559  -5.221  1.00 20.00     0.008 C 
HETATM    5  C5  UNL     1     -35.822  16.461  -4.577  1.00 20.00     0.012 C 
HETATM    6  C6  UNL     1     -35.763  13.908  -4.077  1.00 20.00     0.005 C 
HETATM    7  C7  UNL     1     -35.686  15.342  -3.529  1.00 20.00    -0.011 C 
HETATM    8  O11 UNL     1     -36.878  14.716  -7.670  1.00 20.00    -0.298 OA
ENDROOT
BRANCH   7   9
HETATM    9  C10 UNL     1     -34.413  15.552  -2.702  1.00 20.00    -0.019 C 
HETATM   10  C8  UNL     1     -33.368  16.303  -3.519  1.00 20.00     0.010 C 
HETATM   11  C9  UNL     1     -34.736  16.301  -1.415  1.00 20.00     0.010 C 
ENDBRANCH   7   9
TORSDOF 1
ENDMDL
MODEL 8
REMARK VINA RESULT:      -4.4      2.192      3.531
REMARK  1 active torsions:
REMARK  status: ('A' for Active; 'I' for Inactive)
REMARK    1  A    between atoms: C7_7  and  C10_10 
ROOT
HETATM    1  C1  UNL     1     -33.540  13.875  -3.910  1.00 20.00     0.127 C 
HETATM    2  C2  UNL     1     -34.965  13.705  -4.392  1.00 20.00     0.078 C 
HETATM    3  C3  UNL     1     -32.978  15.280  -3.758  1.00 20.00     0.079 C 
HETATM    4  C4  UNL     1     -35.151  14.059  -5.864  1.00 20.00     0.008 C 
HETATM    5  C5  UNL     1     -33.941  16.396  -4.149  1.00 20.00     0.012 C 
HETATM    6  C6  UNL     1     -34.243  15.159  -6.418  1.00 20.00     0.005 C 
HETATM    7  C7  UNL     1     -34.234  16.494  -5.657  1.00 20.00    -0.011 C 
HETATM    8  O11 UNL     1     -32.845  12.894  -3.640  1.00 20.00    -0.298 OA
ENDROOT
BRANCH   7   9
HETATM    9  C10 UNL     1     -35.533  17.273  -5.888  1.00 20.00    -0.019 C 
HETATM   10  C8  UNL     1     -36.271  17.475  -4.569  1.00 20.00     0.010 C 
HETATM   11  C9  UNL     1     -35.237  18.611  -6.554  1.00 20.00     0.010 C 
ENDBRANCH   7   9
TORSDOF 1
ENDMDL
MODEL 9
REMARK VINA RESULT:      -4.3      2.173      3.024
REMARK  1 active torsions:
REMARK  status: ('A' for Active; 'I' for Inactive)
REMARK    1  A    between atoms: C7_7  and  C10_10 
ROOT
HETATM    1  C1  UNL     1     -33.634  16.943  -3.690  1.00 20.00     0.127 C 
HETATM    2  C2  UNL     1     -34.169  18.349  -3.518  1.00 20.00     0.078 C 
HETATM    3  C3  UNL     1     -33.985  15.890  -2.650  1.00 20.00     0.079 C 
HETATM    4  C4  UNL     1     -33.515  19.106  -2.367  1.00 20.00     0.008 C 
HETATM    5  C5  UNL     1     -34.845  16.397  -1.496  1.00 20.00     0.012 C 
HETATM    6  C6  UNL     1     -33.066  18.268  -1.169  1.00 20.00     0.005 C 
HETATM    7  C7  UNL     1     -34.124  17.355  -0.530  1.00 20.00    -0.011 C 
HETATM    8  O11 UNL     1     -32.930  16.651  -4.657  1.00 20.00    -0.298 OA
ENDROOT
BRANCH   7   9
HETATM    9  C10 UNL     1     -35.153  18.169   0.263  1.00 20.00    -0.019 C 
HETATM   10  C8  UNL     1     -36.465  18.258  -0.507  1.00 20.00     0.010 C 
HETATM   11  C9  UNL     1     -35.371  17.550   1.638  1.00 20.00     0.010 C 
ENDBRANCH   7   9
TORSDOF 1
ENDMDL
