MODEL 1
REMARK VINA RESULT:      -4.7      0.000      0.000
REMARK  2 active torsions:
REMARK  status: ('A' for Active; 'I' for Inactive)
REMARK    1  A    between atoms: C5_5  and  C6_6 
REMARK    2  A    between atoms: C6_6  and  C7_7 
ROOT
HETATM    1  C1  UNL     1     -32.058   8.380   1.907  1.00 20.00     0.012 C 
HETATM    2  C2  UNL     1     -32.250   7.524   2.726  1.00 20.00    -0.117 C 
HETATM    3  C5  UNL     1     -32.481   6.469   3.727  1.00 20.00     0.098 C 
ENDROOT
BRANCH   3   4
HETATM    4  C6  UNL     1     -33.869   6.591   4.394  1.00 20.00     0.011 C 
HETATM    5  C3  UNL     1     -33.747   6.527   5.925  1.00 20.00     0.012 C 
BRANCH   4   6
HETATM    6  C7  UNL     1     -34.860   5.548   3.813  1.00 20.00     0.082 C 
HETATM    7  C4  UNL     1     -35.159   4.401   4.774  1.00 20.00     0.027 C 
HETATM    8 CL8  UNL     1     -34.300   4.866   2.253  1.00 20.00    -0.125 Cl
ENDBRANCH   4   6
ENDBRANCH   3   4
TORSDOF 2
ENDMDL
MODEL 2
REMARK VINA RESULT:      -4.6      1.423      1.511
REMARK  2 active torsions:
REMARK  status: ('A' for Active; 'I' for Inactive)
REMARK    1  A    between atoms: C5_5  and  C6_6 
REMARK    2  A    between atoms: C6_6  and  C7_7 
ROOT
HETATM    1  C1  UNL     1     -32.037   8.435   2.111  1.00 20.00     0.012 C 
HETATM    2  C2  UNL     1     -32.227   7.500   2.838  1.00 20.00    -0.117 C 
HETATM    3  C5  UNL     1     -32.456   6.347   3.724  1.00 20.00     0.098 C 
ENDROOT
BRANCH   3   4
HETATM    4  C6  UNL     1     -33.767   6.482   4.531  1.00 20.00     0.011 C 
HETATM    5  C3  UNL     1     -33.471   6.816   6.002  1.00 20.00     0.012 C 
BRANCH   4   6
HETATM    6  C7  UNL     1     -34.662   5.227   4.354  1.00 20.00     0.082 C 
HETATM    7  C4  UNL     1     -35.933   5.501   3.557  1.00 20.00     0.027 C 
HETATM    8 CL8  UNL     1     -35.110   4.479   5.920  1.00 20.00    -0.125 Cl
ENDBRANCH   4   6
ENDBRANCH   3   4
TORSDOF 2
ENDMDL
MODEL 3
REMARK VINA RESULT:      -4.5      1.532      2.128
REMARK  2 active torsions:
REMARK  status: ('A' for Active; 'I' for Inactive)
REMARK    1  A    between atoms: C5_5  and  C6_6 
REMARK    2  A    between atoms: C6_6  and  C7_7 
ROOT
HETATM    1  C1  UNL     1     -31.976   7.978   1.721  1.00 20.00     0.012 C 
HETATM    2  C2  UNL     1     -32.266   7.524   2.794  1.00 20.00    -0.117 C 
HETATM    3  C5  UNL     1     -32.614   6.971   4.112  1.00 20.00     0.098 C 
ENDROOT
BRANCH   3   4
HETATM    4  C6  UNL     1     -33.493   5.705   4.001  1.00 20.00     0.011 C 
HETATM    5  C3  UNL     1     -34.151   5.618   2.615  1.00 20.00     0.012 C 
BRANCH   4   6
HETATM    6  C7  UNL     1     -34.512   5.630   5.170  1.00 20.00     0.082 C 
HETATM    7  C4  UNL     1     -34.068   6.407   6.405  1.00 20.00     0.027 C 
HETATM    8 CL8  UNL     1     -34.882   3.943   5.648  1.00 20.00    -0.125 Cl
ENDBRANCH   4   6
ENDBRANCH   3   4
TORSDOF 2
ENDMDL
MODEL 4
REMARK VINA RESULT:      -4.4      1.782      3.953
REMARK  2 active torsions:
REMARK  status: ('A' for Active; 'I' for Inactive)
REMARK    1  A    between atoms: C5_5  and  C6_6 
REMARK    2  A    between atoms: C6_6  and  C7_7 
ROOT
HETATM    1  C1  UNL     1     -35.090   4.408   5.932  1.00 20.00     0.012 C 
HETATM    2  C2  UNL     1     -34.424   5.340   5.576  1.00 20.00    -0.117 C 
HETATM    3  C5  UNL     1     -33.608   6.488   5.146  1.00 20.00     0.098 C 
ENDROOT
BRANCH   3   4
HETATM    4  C6  UNL     1     -33.578   6.640   3.609  1.00 20.00     0.011 C 
HETATM    5  C3  UNL     1     -34.086   5.362   2.924  1.00 20.00     0.012 C 
BRANCH   4   6
HETATM    6  C7  UNL     1     -32.173   7.082   3.120  1.00 20.00     0.082 C 
HETATM    7  C4  UNL     1     -31.309   7.676   4.229  1.00 20.00     0.027 C 
HETATM    8 CL8  UNL     1     -32.255   8.249   1.762  1.00 20.00    -0.125 Cl
ENDBRANCH   4   6
ENDBRANCH   3   4
TORSDOF 2
ENDMDL
MODEL 5
REMARK VINA RESULT:      -4.3      1.811      2.152
REMARK  2 active torsions:
REMARK  status: ('A' for Active; 'I' for Inactive)
REMARK    1  A    between atoms: C5_5  and  C6_6 
REMARK    2  A    between atoms: C6_6  and  C7_7 
ROOT
HETATM    1  C1  UNL     1     -31.911   8.064   1.625  1.00 20.00     0.012 C 
HETATM    2  C2  UNL     1     -32.268   7.639   2.689  1.00 20.00    -0.117 C 
HETATM    3  C5  UNL     1     -32.701   7.122   3.997  1.00 20.00     0.098 C 
ENDROOT
BRANCH   3   4
HETATM    4  C6  UNL     1     -33.343   5.720   3.887  1.00 20.00     0.011 C 
HETATM    5  C3  UNL     1     -34.390   5.686   2.762  1.00 20.00     0.012 C 
BRANCH   4   6
HETATM    6  C7  UNL     1     -33.900   5.254   5.259  1.00 20.00     0.082 C 
HETATM    7  C4  UNL     1     -35.254   4.558   5.153  1.00 20.00     0.027 C 
HETATM    8 CL8  UNL     1     -34.030   6.597   6.438  1.00 20.00    -0.125 Cl
ENDBRANCH   4   6
ENDBRANCH   3   4
TORSDOF 2
ENDMDL
MODEL 6
REMARK VINA RESULT:      -4.3      1.264      1.996
REMARK  2 active torsions:
REMARK  status: ('A' for Active; 'I' for Inactive)
REMARK    1  A    between atoms: C5_5  and  C6_6 
REMARK    2  A    between atoms: C6_6  and  C7_7 
ROOT
HETATM    1  C1  UNL     1     -32.159   8.694   1.320  1.00 20.00     0.012 C 
HETATM    2  C2  UNL     1     -32.026   8.074   2.338  1.00 20.00    -0.117 C 
HETATM    3  C5  UNL     1     -31.854   7.316   3.588  1.00 20.00     0.098 C 
ENDROOT
BRANCH   3   4
HETATM    4  C6  UNL     1     -32.793   6.090   3.661  1.00 20.00     0.011 C 
HETATM    5  C3  UNL     1     -33.048   5.514   2.259  1.00 20.00     0.012 C 
BRANCH   4   6
HETATM    6  C7  UNL     1     -34.096   6.432   4.432  1.00 20.00     0.082 C 
HETATM    7  C4  UNL     1     -33.939   6.347   5.947  1.00 20.00     0.027 C 
HETATM    8 CL8  UNL     1     -35.476   5.402   3.934  1.00 20.00    -0.125 Cl
ENDBRANCH   4   6
ENDBRANCH   3   4
TORSDOF 2
ENDMDL
MODEL 7
REMARK VINA RESULT:      -4.0     10.971     11.700
REMARK  2 active torsions:
REMARK  status: ('A' for Active; 'I' for Inactive)
REMARK    1  A    between atoms: C5_5  and  C6_6 
REMARK    2  A    between atoms: C6_6  and  C7_7 
ROOT
HETATM    1  C1  UNL     1     -34.783  16.929  -0.490  1.00 20.00     0.012 C 
HETATM    2  C2  UNL     1     -34.320  16.507  -1.514  1.00 20.00    -0.117 C 
HETATM    3  C5  UNL     1     -33.750  15.997  -2.771  1.00 20.00     0.098 C 
ENDROOT
BRANCH   3   4
HETATM    4  C6  UNL     1     -34.486  14.736  -3.277  1.00 20.00     0.011 C 
HETATM    5  C3  UNL     1     -33.487  13.692  -3.799  1.00 20.00     0.012 C 
BRANCH   4   6
HETATM    6  C7  UNL     1     -35.582  15.108  -4.311  1.00 20.00     0.082 C 
HETATM    7  C4  UNL     1     -36.998  14.842  -3.810  1.00 20.00     0.027 C 
HETATM    8 CL8  UNL     1     -35.355  14.271  -5.880  1.00 20.00    -0.125 Cl
ENDBRANCH   4   6
ENDBRANCH   3   4
TORSDOF 2
ENDMDL
MODEL 8
REMARK VINA RESULT:      -3.9     11.300     12.073
REMARK  2 active torsions:
REMARK  status: ('A' for Active; 'I' for Inactive)
REMARK    1  A    between atoms: C5_5  and  C6_6 
REMARK    2  A    between atoms: C6_6  and  C7_7 
ROOT
HETATM    1  C1  UNL     1     -34.439  17.064  -0.476  1.00 20.00     0.012 C 
HETATM    2  C2  UNL     1     -34.670  16.376  -1.432  1.00 20.00    -0.117 C 
HETATM    3  C5  UNL     1     -34.957  15.528  -2.601  1.00 20.00     0.098 C 
ENDROOT
BRANCH   3   4
HETATM    4  C6  UNL     1     -33.788  15.510  -3.611  1.00 20.00     0.011 C 
HETATM    5  C3  UNL     1     -33.539  16.914  -4.183  1.00 20.00     0.012 C 
BRANCH   4   6
HETATM    6  C7  UNL     1     -34.014  14.432  -4.705  1.00 20.00     0.082 C 
HETATM    7  C4  UNL     1     -34.393  15.021  -6.060  1.00 20.00     0.027 C 
HETATM    8 CL8  UNL     1     -35.251  13.225  -4.231  1.00 20.00    -0.125 Cl
ENDBRANCH   4   6
ENDBRANCH   3   4
TORSDOF 2
ENDMDL
MODEL 9
REMARK VINA RESULT:      -3.9     11.349     12.413
REMARK  2 active torsions:
REMARK  status: ('A' for Active; 'I' for Inactive)
REMARK    1  A    between atoms: C5_5  and  C6_6 
REMARK    2  A    between atoms: C6_6  and  C7_7 
ROOT
HETATM    1  C1  UNL     1     -34.784  16.789  -0.810  1.00 20.00     0.012 C 
HETATM    2  C2  UNL     1     -34.310  16.246  -1.770  1.00 20.00    -0.117 C 
HETATM    3  C5  UNL     1     -33.722  15.585  -2.946  1.00 20.00     0.098 C 
ENDROOT
BRANCH   3   4
HETATM    4  C6  UNL     1     -34.801  15.060  -3.920  1.00 20.00     0.011 C 
HETATM    5  C3  UNL     1     -34.749  13.527  -4.017  1.00 20.00     0.012 C 
BRANCH   4   6
HETATM    6  C7  UNL     1     -34.698  15.766  -5.298  1.00 20.00     0.082 C 
HETATM    7  C4  UNL     1     -34.566  14.792  -6.465  1.00 20.00     0.027 C 
HETATM    8 CL8  UNL     1     -33.347  16.941  -5.367  1.00 20.00    -0.125 Cl
ENDBRANCH   4   6
ENDBRANCH   3   4
TORSDOF 2
ENDMDL
