MODEL 1
REMARK VINA RESULT:      -4.3      0.000      0.000
REMARK  2 active torsions:
REMARK  status: ('A' for Active; 'I' for Inactive)
REMARK    1  A    between atoms: C2_2  and  C7_7 
REMARK    2  A    between atoms: C7_7  and  C8_8 
ROOT
HETATM    1  C7  UNL     1     -33.155   5.271   4.107  1.00 20.00     0.035 C 
ENDROOT
BRANCH   1   2
HETATM    2  C2  UNL     1     -33.158   6.174   2.904  1.00 20.00    -0.030 C 
HETATM    3  C1  UNL     1     -32.363   7.246   2.776  1.00 20.00    -0.035 C 
HETATM    4  C3  UNL     1     -31.378   7.679   3.810  1.00 20.00     0.035 C 
ENDBRANCH   1   2
BRANCH   1   5
HETATM    5  C8  UNL     1     -34.447   5.304   4.970  1.00 20.00    -0.048 C 
HETATM    6  C4  UNL     1     -34.335   6.338   6.105  1.00 20.00     0.014 C 
HETATM    7  C5  UNL     1     -34.740   3.920   5.575  1.00 20.00     0.014 C 
HETATM    8  C6  UNL     1     -35.625   5.702   4.061  1.00 20.00     0.014 C 
ENDBRANCH   1   5
TORSDOF 2
ENDMDL
MODEL 2
REMARK VINA RESULT:      -4.3      0.037      1.529
REMARK  2 active torsions:
REMARK  status: ('A' for Active; 'I' for Inactive)
REMARK    1  A    between atoms: C2_2  and  C7_7 
REMARK    2  A    between atoms: C7_7  and  C8_8 
ROOT
HETATM    1  C7  UNL     1     -33.136   5.312   4.153  1.00 20.00     0.035 C 
ENDROOT
BRANCH   1   2
HETATM    2  C2  UNL     1     -33.123   6.180   2.924  1.00 20.00    -0.030 C 
HETATM    3  C1  UNL     1     -32.333   7.253   2.778  1.00 20.00    -0.035 C 
HETATM    4  C3  UNL     1     -31.369   7.723   3.817  1.00 20.00     0.035 C 
ENDBRANCH   1   2
BRANCH   1   5
HETATM    5  C8  UNL     1     -34.468   5.309   4.953  1.00 20.00    -0.048 C 
HETATM    6  C4  UNL     1     -34.741   3.930   5.580  1.00 20.00     0.014 C 
HETATM    7  C5  UNL     1     -35.653   5.698   4.051  1.00 20.00     0.014 C 
HETATM    8  C6  UNL     1     -34.352   6.346   6.086  1.00 20.00     0.014 C 
ENDBRANCH   1   5
TORSDOF 2
ENDMDL
MODEL 3
REMARK VINA RESULT:      -4.2      0.063      1.522
REMARK  2 active torsions:
REMARK  status: ('A' for Active; 'I' for Inactive)
REMARK    1  A    between atoms: C2_2  and  C7_7 
REMARK    2  A    between atoms: C7_7  and  C8_8 
ROOT
HETATM    1  C7  UNL     1     -33.143   5.282   4.173  1.00 20.00     0.035 C 
ENDROOT
BRANCH   1   2
HETATM    2  C2  UNL     1     -33.127   6.124   2.927  1.00 20.00    -0.030 C 
HETATM    3  C1  UNL     1     -32.351   7.207   2.769  1.00 20.00    -0.035 C 
HETATM    4  C3  UNL     1     -31.409   7.713   3.809  1.00 20.00     0.035 C 
ENDBRANCH   1   2
BRANCH   1   5
HETATM    5  C8  UNL     1     -34.475   5.297   4.971  1.00 20.00    -0.048 C 
HETATM    6  C4  UNL     1     -35.661   5.696   4.074  1.00 20.00     0.014 C 
HETATM    7  C5  UNL     1     -34.393   6.269   6.162  1.00 20.00     0.014 C 
HETATM    8  C6  UNL     1     -34.729   3.877   5.513  1.00 20.00     0.014 C 
ENDBRANCH   1   5
TORSDOF 2
ENDMDL
MODEL 4
REMARK VINA RESULT:      -4.1      1.103      3.848
REMARK  2 active torsions:
REMARK  status: ('A' for Active; 'I' for Inactive)
REMARK    1  A    between atoms: C2_2  and  C7_7 
REMARK    2  A    between atoms: C7_7  and  C8_8 
ROOT
HETATM    1  C7  UNL     1     -33.840   6.875   4.013  1.00 20.00     0.035 C 
ENDROOT
BRANCH   1   2
HETATM    2  C2  UNL     1     -34.615   5.623   3.704  1.00 20.00    -0.030 C 
HETATM    3  C1  UNL     1     -35.066   4.776   4.641  1.00 20.00    -0.035 C 
HETATM    4  C3  UNL     1     -34.855   4.968   6.105  1.00 20.00     0.035 C 
ENDBRANCH   1   2
BRANCH   1   5
HETATM    5  C8  UNL     1     -32.471   7.008   3.291  1.00 20.00    -0.048 C 
HETATM    6  C4  UNL     1     -31.388   7.548   4.241  1.00 20.00     0.014 C 
HETATM    7  C5  UNL     1     -32.581   7.939   2.070  1.00 20.00     0.014 C 
HETATM    8  C6  UNL     1     -32.043   5.610   2.806  1.00 20.00     0.014 C 
ENDBRANCH   1   5
TORSDOF 2
ENDMDL
MODEL 5
REMARK VINA RESULT:      -4.0      1.106      3.851
REMARK  2 active torsions:
REMARK  status: ('A' for Active; 'I' for Inactive)
REMARK    1  A    between atoms: C2_2  and  C7_7 
REMARK    2  A    between atoms: C7_7  and  C8_8 
ROOT
HETATM    1  C7  UNL     1     -33.817   6.869   4.053  1.00 20.00     0.035 C 
ENDROOT
BRANCH   1   2
HETATM    2  C2  UNL     1     -34.650   5.660   3.724  1.00 20.00    -0.030 C 
HETATM    3  C1  UNL     1     -35.107   4.797   4.643  1.00 20.00    -0.035 C 
HETATM    4  C3  UNL     1     -34.847   4.927   6.107  1.00 20.00     0.035 C 
ENDBRANCH   1   2
BRANCH   1   5
HETATM    5  C8  UNL     1     -32.472   6.982   3.285  1.00 20.00    -0.048 C 
HETATM    6  C4  UNL     1     -32.594   7.931   2.079  1.00 20.00     0.014 C 
HETATM    7  C5  UNL     1     -32.001   5.601   2.795  1.00 20.00     0.014 C 
HETATM    8  C6  UNL     1     -31.412   7.549   4.248  1.00 20.00     0.014 C 
ENDBRANCH   1   5
TORSDOF 2
ENDMDL
MODEL 6
REMARK VINA RESULT:      -4.0      1.103      3.836
REMARK  2 active torsions:
REMARK  status: ('A' for Active; 'I' for Inactive)
REMARK    1  A    between atoms: C2_2  and  C7_7 
REMARK    2  A    between atoms: C7_7  and  C8_8 
ROOT
HETATM    1  C7  UNL     1     -33.848   6.906   4.009  1.00 20.00     0.035 C 
ENDROOT
BRANCH   1   2
HETATM    2  C2  UNL     1     -34.656   5.671   3.719  1.00 20.00    -0.030 C 
HETATM    3  C1  UNL     1     -35.081   4.820   4.664  1.00 20.00    -0.035 C 
HETATM    4  C3  UNL     1     -34.806   4.990   6.120  1.00 20.00     0.035 C 
ENDBRANCH   1   2
BRANCH   1   5
HETATM    5  C8  UNL     1     -32.459   6.973   3.316  1.00 20.00    -0.048 C 
HETATM    6  C4  UNL     1     -32.002   5.582   2.844  1.00 20.00     0.014 C 
HETATM    7  C5  UNL     1     -31.398   7.558   4.266  1.00 20.00     0.014 C 
HETATM    8  C6  UNL     1     -32.577   7.893   2.086  1.00 20.00     0.014 C 
ENDBRANCH   1   5
TORSDOF 2
ENDMDL
MODEL 7
REMARK VINA RESULT:      -3.9     11.334     12.329
REMARK  2 active torsions:
REMARK  status: ('A' for Active; 'I' for Inactive)
REMARK    1  A    between atoms: C2_2  and  C7_7 
REMARK    2  A    between atoms: C7_7  and  C8_8 
ROOT
HETATM    1  C7  UNL     1     -34.718  15.431  -2.705  1.00 20.00     0.035 C 
ENDROOT
BRANCH   1   2
HETATM    2  C2  UNL     1     -33.730  16.511  -2.358  1.00 20.00    -0.030 C 
HETATM    3  C1  UNL     1     -33.776  17.226  -1.225  1.00 20.00    -0.035 C 
HETATM    4  C3  UNL     1     -34.812  17.043  -0.167  1.00 20.00     0.035 C 
ENDBRANCH   1   2
BRANCH   1   5
HETATM    5  C8  UNL     1     -34.353  14.563  -3.941  1.00 20.00    -0.048 C 
HETATM    6  C4  UNL     1     -34.106  15.436  -5.184  1.00 20.00     0.014 C 
HETATM    7  C5  UNL     1     -35.467  13.548  -4.249  1.00 20.00     0.014 C 
HETATM    8  C6  UNL     1     -33.059  13.790  -3.622  1.00 20.00     0.014 C 
ENDBRANCH   1   5
TORSDOF 2
ENDMDL
MODEL 8
REMARK VINA RESULT:      -3.9     11.311     12.308
REMARK  2 active torsions:
REMARK  status: ('A' for Active; 'I' for Inactive)
REMARK    1  A    between atoms: C2_2  and  C7_7 
REMARK    2  A    between atoms: C7_7  and  C8_8 
ROOT
HETATM    1  C7  UNL     1     -34.726  15.450  -2.689  1.00 20.00     0.035 C 
ENDROOT
BRANCH   1   2
HETATM    2  C2  UNL     1     -33.734  16.525  -2.339  1.00 20.00    -0.030 C 
HETATM    3  C1  UNL     1     -33.778  17.239  -1.204  1.00 20.00    -0.035 C 
HETATM    4  C3  UNL     1     -34.816  17.057  -0.148  1.00 20.00     0.035 C 
ENDBRANCH   1   2
BRANCH   1   5
HETATM    5  C8  UNL     1     -34.343  14.557  -3.901  1.00 20.00    -0.048 C 
HETATM    6  C4  UNL     1     -35.475  13.575  -4.254  1.00 20.00     0.014 C 
HETATM    7  C5  UNL     1     -33.056  13.763  -3.614  1.00 20.00     0.014 C 
HETATM    8  C6  UNL     1     -34.094  15.472  -5.115  1.00 20.00     0.014 C 
ENDBRANCH   1   5
TORSDOF 2
ENDMDL
MODEL 9
REMARK VINA RESULT:      -3.8     11.398     12.503
REMARK  2 active torsions:
REMARK  status: ('A' for Active; 'I' for Inactive)
REMARK    1  A    between atoms: C2_2  and  C7_7 
REMARK    2  A    between atoms: C7_7  and  C8_8 
ROOT
HETATM    1  C7  UNL     1     -33.733  16.070  -2.683  1.00 20.00     0.035 C 
ENDROOT
BRANCH   1   2
HETATM    2  C2  UNL     1     -34.711  16.214  -1.548  1.00 20.00    -0.030 C 
HETATM    3  C1  UNL     1     -34.563  17.088  -0.543  1.00 20.00    -0.035 C 
HETATM    4  C3  UNL     1     -33.410  18.028  -0.422  1.00 20.00     0.035 C 
ENDBRANCH   1   2
BRANCH   1   5
HETATM    5  C8  UNL     1     -34.155  15.086  -3.807  1.00 20.00    -0.048 C 
HETATM    6  C4  UNL     1     -33.346  13.778  -3.739  1.00 20.00     0.014 C 
HETATM    7  C5  UNL     1     -33.968  15.723  -5.196  1.00 20.00     0.014 C 
HETATM    8  C6  UNL     1     -35.646  14.748  -3.619  1.00 20.00     0.014 C 
ENDBRANCH   1   5
TORSDOF 2
ENDMDL
