MODEL 1
REMARK VINA RESULT:      -5.1      0.000      0.000
REMARK  3 active torsions:
REMARK  status: ('A' for Active; 'I' for Inactive)
REMARK    1  A    between atoms: C2_2  and  C6_6 
REMARK    2  A    between atoms: C6_6  and  C7_7 
REMARK    3  A    between atoms: C7_7  and  C8_8 
ROOT
HETATM    1  C4  UNL     1     -35.217   5.565   3.353  1.00 20.00     0.011 C 
HETATM    2  C7  UNL     1     -34.010   6.257   4.007  1.00 20.00    -0.001 C 
ENDROOT
BRANCH   2   3
HETATM    3  C6  UNL     1     -32.753   6.194   3.103  1.00 20.00     0.038 C 
BRANCH   3   4
HETATM    4  C2  UNL     1     -31.953   7.478   3.044  1.00 20.00    -0.093 C 
HETATM    5  C1  UNL     1     -31.132   7.839   4.044  1.00 20.00     0.014 C 
HETATM    6  C3  UNL     1     -32.083   8.310   1.801  1.00 20.00     0.042 C 
ENDBRANCH   3   4
ENDBRANCH   2   3
BRANCH   2   7
HETATM    7  C8  UNL     1     -33.769   5.739   5.444  1.00 20.00     0.057 C 
HETATM    8  C5  UNL     1     -33.844   6.823   6.512  1.00 20.00     0.022 C 
HETATM    9 BR9  UNL     1     -35.011   4.306   5.942  1.00 20.00    -0.091 Br
ENDBRANCH   2   7
TORSDOF 3
ENDMDL
MODEL 2
REMARK VINA RESULT:      -4.1      1.251      1.421
REMARK  3 active torsions:
REMARK  status: ('A' for Active; 'I' for Inactive)
REMARK    1  A    between atoms: C2_2  and  C6_6 
REMARK    2  A    between atoms: C6_6  and  C7_7 
REMARK    3  A    between atoms: C7_7  and  C8_8 
ROOT
HETATM    1  C4  UNL     1     -34.856   5.320   2.770  1.00 20.00     0.011 C 
HETATM    2  C7  UNL     1     -34.119   6.156   3.828  1.00 20.00    -0.001 C 
ENDROOT
BRANCH   2   3
HETATM    3  C6  UNL     1     -32.581   6.053   3.672  1.00 20.00     0.038 C 
BRANCH   3   4
HETATM    4  C2  UNL     1     -31.889   7.363   3.361  1.00 20.00    -0.093 C 
HETATM    5  C1  UNL     1     -31.020   7.919   4.221  1.00 20.00     0.014 C 
HETATM    6  C3  UNL     1     -32.183   7.994   2.030  1.00 20.00     0.042 C 
ENDBRANCH   3   4
ENDBRANCH   2   3
BRANCH   2   7
HETATM    7  C8  UNL     1     -34.621   5.835   5.256  1.00 20.00     0.057 C 
HETATM    8  C5  UNL     1     -34.507   4.363   5.634  1.00 20.00     0.022 C 
HETATM    9 BR9  UNL     1     -33.703   6.890   6.629  1.00 20.00    -0.091 Br
ENDBRANCH   2   7
TORSDOF 3
ENDMDL
MODEL 3
REMARK VINA RESULT:      -4.0      2.345      4.092
REMARK  3 active torsions:
REMARK  status: ('A' for Active; 'I' for Inactive)
REMARK    1  A    between atoms: C2_2  and  C6_6 
REMARK    2  A    between atoms: C6_6  and  C7_7 
REMARK    3  A    between atoms: C7_7  and  C8_8 
ROOT
HETATM    1  C4  UNL     1     -32.964   5.508   2.088  1.00 20.00     0.011 C 
HETATM    2  C7  UNL     1     -32.978   6.196   3.463  1.00 20.00    -0.001 C 
ENDROOT
BRANCH   2   3
HETATM    3  C6  UNL     1     -34.382   6.143   4.117  1.00 20.00     0.038 C 
BRANCH   3   4
HETATM    4  C2  UNL     1     -34.390   5.687   5.560  1.00 20.00    -0.093 C 
HETATM    5  C1  UNL     1     -34.024   6.508   6.557  1.00 20.00     0.014 C 
HETATM    6  C3  UNL     1     -34.865   4.289   5.835  1.00 20.00     0.042 C 
ENDBRANCH   3   4
ENDBRANCH   2   3
BRANCH   2   7
HETATM    7  C8  UNL     1     -32.380   7.620   3.391  1.00 20.00     0.057 C 
HETATM    8  C5  UNL     1     -31.090   7.789   4.184  1.00 20.00     0.022 C 
HETATM    9 BR9  UNL     1     -32.042   8.200   1.549  1.00 20.00    -0.091 Br
ENDBRANCH   2   7
TORSDOF 3
ENDMDL
MODEL 4
REMARK VINA RESULT:      -3.9     11.573     12.656
REMARK  3 active torsions:
REMARK  status: ('A' for Active; 'I' for Inactive)
REMARK    1  A    between atoms: C2_2  and  C6_6 
REMARK    2  A    between atoms: C6_6  and  C7_7 
REMARK    3  A    between atoms: C7_7  and  C8_8 
ROOT
HETATM    1  C4  UNL     1     -33.281  16.656  -5.200  1.00 20.00     0.011 C 
HETATM    2  C7  UNL     1     -34.265  15.738  -4.456  1.00 20.00    -0.001 C 
ENDROOT
BRANCH   2   3
HETATM    3  C6  UNL     1     -33.933  15.646  -2.946  1.00 20.00     0.038 C 
BRANCH   3   4
HETATM    4  C2  UNL     1     -34.888  16.396  -2.042  1.00 20.00    -0.093 C 
HETATM    5  C1  UNL     1     -34.582  16.660  -0.762  1.00 20.00     0.014 C 
HETATM    6  C3  UNL     1     -36.176  16.870  -2.651  1.00 20.00     0.042 C 
ENDBRANCH   3   4
ENDBRANCH   2   3
BRANCH   2   7
HETATM    7  C8  UNL     1     -34.390  14.361  -5.150  1.00 20.00     0.057 C 
HETATM    8  C5  UNL     1     -35.110  13.311  -4.313  1.00 20.00     0.022 C 
HETATM    9 BR9  UNL     1     -35.292  14.477  -6.888  1.00 20.00    -0.091 Br
ENDBRANCH   2   7
TORSDOF 3
ENDMDL
MODEL 5
REMARK VINA RESULT:      -3.9      1.374      2.123
REMARK  3 active torsions:
REMARK  status: ('A' for Active; 'I' for Inactive)
REMARK    1  A    between atoms: C2_2  and  C6_6 
REMARK    2  A    between atoms: C6_6  and  C7_7 
REMARK    3  A    between atoms: C7_7  and  C8_8 
ROOT
HETATM    1  C4  UNL     1     -33.790   6.930   6.606  1.00 20.00     0.011 C 
HETATM    2  C7  UNL     1     -33.506   6.238   5.263  1.00 20.00    -0.001 C 
ENDROOT
BRANCH   2   3
HETATM    3  C6  UNL     1     -33.517   7.246   4.086  1.00 20.00     0.038 C 
BRANCH   3   4
HETATM    4  C2  UNL     1     -32.455   7.001   3.035  1.00 20.00    -0.093 C 
HETATM    5  C1  UNL     1     -31.898   5.791   2.869  1.00 20.00     0.014 C 
HETATM    6  C3  UNL     1     -32.082   8.161   2.156  1.00 20.00     0.042 C 
ENDBRANCH   3   4
ENDBRANCH   2   3
BRANCH   2   7
HETATM    7  C8  UNL     1     -34.431   5.018   5.046  1.00 20.00     0.057 C 
HETATM    8  C5  UNL     1     -35.104   4.519   6.319  1.00 20.00     0.022 C 
HETATM    9 BR9  UNL     1     -35.829   5.364   3.715  1.00 20.00    -0.091 Br
ENDBRANCH   2   7
TORSDOF 3
ENDMDL
MODEL 6
REMARK VINA RESULT:      -3.8     11.172     12.447
REMARK  3 active torsions:
REMARK  status: ('A' for Active; 'I' for Inactive)
REMARK    1  A    between atoms: C2_2  and  C6_6 
REMARK    2  A    between atoms: C6_6  and  C7_7 
REMARK    3  A    between atoms: C7_7  and  C8_8 
ROOT
HETATM    1  C4  UNL     1     -33.376  16.525  -5.234  1.00 20.00     0.011 C 
HETATM    2  C7  UNL     1     -34.328  16.142  -4.089  1.00 20.00    -0.001 C 
ENDROOT
BRANCH   2   3
HETATM    3  C6  UNL     1     -33.581  16.033  -2.736  1.00 20.00     0.038 C 
BRANCH   3   4
HETATM    4  C2  UNL     1     -33.999  17.056  -1.701  1.00 20.00    -0.093 C 
HETATM    5  C1  UNL     1     -34.697  16.705  -0.609  1.00 20.00     0.014 C 
HETATM    6  C3  UNL     1     -33.563  18.476  -1.926  1.00 20.00     0.042 C 
ENDBRANCH   3   4
ENDBRANCH   2   3
BRANCH   2   7
HETATM    7  C8  UNL     1     -35.163  14.888  -4.441  1.00 20.00     0.057 C 
HETATM    8  C5  UNL     1     -34.550  13.581  -3.953  1.00 20.00     0.022 C 
HETATM    9 BR9  UNL     1     -36.998  14.994  -3.758  1.00 20.00    -0.091 Br
ENDBRANCH   2   7
TORSDOF 3
ENDMDL
MODEL 7
REMARK VINA RESULT:      -3.8     11.426     12.511
REMARK  3 active torsions:
REMARK  status: ('A' for Active; 'I' for Inactive)
REMARK    1  A    between atoms: C2_2  and  C6_6 
REMARK    2  A    between atoms: C6_6  and  C7_7 
REMARK    3  A    between atoms: C7_7  and  C8_8 
ROOT
HETATM    1  C4  UNL     1     -32.559  14.809  -3.504  1.00 20.00     0.011 C 
HETATM    2  C7  UNL     1     -33.790  15.721  -3.635  1.00 20.00    -0.001 C 
ENDROOT
BRANCH   2   3
HETATM    3  C6  UNL     1     -34.617  15.759  -2.326  1.00 20.00     0.038 C 
BRANCH   3   4
HETATM    4  C2  UNL     1     -34.387  16.986  -1.469  1.00 20.00    -0.093 C 
HETATM    5  C1  UNL     1     -34.736  17.013  -0.173  1.00 20.00     0.014 C 
HETATM    6  C3  UNL     1     -33.711  18.159  -2.121  1.00 20.00     0.042 C 
ENDBRANCH   3   4
ENDBRANCH   2   3
BRANCH   2   7
HETATM    7  C8  UNL     1     -34.625  15.368  -4.889  1.00 20.00     0.057 C 
HETATM    8  C5  UNL     1     -34.058  15.931  -6.186  1.00 20.00     0.022 C 
HETATM    9 BR9  UNL     1     -34.860  13.435  -5.114  1.00 20.00    -0.091 Br
ENDBRANCH   2   7
TORSDOF 3
ENDMDL
MODEL 8
REMARK VINA RESULT:      -3.7      1.484      2.442
REMARK  3 active torsions:
REMARK  status: ('A' for Active; 'I' for Inactive)
REMARK    1  A    between atoms: C2_2  and  C6_6 
REMARK    2  A    between atoms: C6_6  and  C7_7 
REMARK    3  A    between atoms: C7_7  and  C8_8 
ROOT
HETATM    1  C4  UNL     1     -32.103   5.322   3.100  1.00 20.00     0.011 C 
HETATM    2  C7  UNL     1     -32.957   6.593   2.962  1.00 20.00    -0.001 C 
ENDROOT
BRANCH   2   3
HETATM    3  C6  UNL     1     -32.096   7.877   3.068  1.00 20.00     0.038 C 
BRANCH   3   4
HETATM    4  C2  UNL     1     -32.214   8.815   1.886  1.00 20.00    -0.093 C 
HETATM    5  C1  UNL     1     -32.790  10.022   2.003  1.00 20.00     0.014 C 
HETATM    6  C3  UNL     1     -31.621   8.355   0.584  1.00 20.00     0.042 C 
ENDBRANCH   3   4
ENDBRANCH   2   3
BRANCH   2   7
HETATM    7  C8  UNL     1     -34.164   6.573   3.930  1.00 20.00     0.057 C 
HETATM    8  C5  UNL     1     -35.119   5.408   3.701  1.00 20.00     0.022 C 
HETATM    9 BR9  UNL     1     -33.615   6.550   5.812  1.00 20.00    -0.091 Br
ENDBRANCH   2   7
TORSDOF 3
ENDMDL
MODEL 9
REMARK VINA RESULT:      -3.7     11.436     12.762
REMARK  3 active torsions:
REMARK  status: ('A' for Active; 'I' for Inactive)
REMARK    1  A    between atoms: C2_2  and  C6_6 
REMARK    2  A    between atoms: C6_6  and  C7_7 
REMARK    3  A    between atoms: C7_7  and  C8_8 
ROOT
HETATM    1  C4  UNL     1     -36.717  14.508  -3.858  1.00 20.00     0.011 C 
HETATM    2  C7  UNL     1     -35.311  14.928  -4.315  1.00 20.00    -0.001 C 
ENDROOT
BRANCH   2   3
HETATM    3  C6  UNL     1     -34.848  14.124  -5.556  1.00 20.00     0.038 C 
BRANCH   3   4
HETATM    4  C2  UNL     1     -34.936  14.878  -6.866  1.00 20.00    -0.093 C 
HETATM    5  C1  UNL     1     -35.653  14.408  -7.899  1.00 20.00     0.014 C 
HETATM    6  C3  UNL     1     -34.222  16.197  -6.946  1.00 20.00     0.042 C 
ENDBRANCH   3   4
ENDBRANCH   2   3
BRANCH   2   7
HETATM    7  C8  UNL     1     -34.301  14.899  -3.144  1.00 20.00     0.057 C 
HETATM    8  C5  UNL     1     -32.846  15.024  -3.579  1.00 20.00     0.022 C 
HETATM    9 BR9  UNL     1     -34.659  16.292  -1.810  1.00 20.00    -0.091 Br
ENDBRANCH   2   7
TORSDOF 3
ENDMDL
