MODEL 1
REMARK VINA RESULT:      -5.2      0.000      0.000
REMARK  2 active torsions:
REMARK  status: ('A' for Active; 'I' for Inactive)
REMARK    1  A    between atoms: C5_5  and  C6_6 
REMARK    2  A    between atoms: C6_6  and  C7_7 
ROOT
HETATM    1  C1  UNL     1     -32.126   8.536   1.746  1.00 20.00     0.012 C 
HETATM    2  C2  UNL     1     -32.218   7.634   2.532  1.00 20.00    -0.117 C 
HETATM    3  C5  UNL     1     -32.324   6.524   3.494  1.00 20.00     0.098 C 
ENDROOT
BRANCH   3   4
HETATM    4  C6  UNL     1     -33.785   6.264   3.927  1.00 20.00     0.011 C 
HETATM    5  C3  UNL     1     -34.518   5.402   2.889  1.00 20.00     0.012 C 
BRANCH   4   6
HETATM    6  C7  UNL     1     -33.831   5.680   5.363  1.00 20.00     0.082 C 
HETATM    7  C4  UNL     1     -33.936   6.748   6.448  1.00 20.00     0.027 C 
HETATM    8 CL8  UNL     1     -35.167   4.504   5.575  1.00 20.00    -0.125 Cl
ENDBRANCH   4   6
ENDBRANCH   3   4
TORSDOF 2
ENDMDL
MODEL 2
REMARK VINA RESULT:      -5.1      1.315      1.459
REMARK  2 active torsions:
REMARK  status: ('A' for Active; 'I' for Inactive)
REMARK    1  A    between atoms: C5_5  and  C6_6 
REMARK    2  A    between atoms: C6_6  and  C7_7 
ROOT
HETATM    1  C1  UNL     1     -32.025   8.233   1.951  1.00 20.00     0.012 C 
HETATM    2  C2  UNL     1     -32.301   7.436   2.805  1.00 20.00    -0.117 C 
HETATM    3  C5  UNL     1     -32.633   6.457   3.853  1.00 20.00     0.098 C 
ENDROOT
BRANCH   3   4
HETATM    4  C6  UNL     1     -34.158   6.320   4.064  1.00 20.00     0.011 C 
HETATM    5  C3  UNL     1     -34.745   5.251   3.129  1.00 20.00     0.012 C 
BRANCH   4   6
HETATM    6  C7  UNL     1     -34.482   6.081   5.561  1.00 20.00     0.082 C 
HETATM    7  C4  UNL     1     -34.453   4.607   5.959  1.00 20.00     0.027 C 
HETATM    8 CL8  UNL     1     -33.388   6.995   6.647  1.00 20.00    -0.125 Cl
ENDBRANCH   4   6
ENDBRANCH   3   4
TORSDOF 2
ENDMDL
MODEL 3
REMARK VINA RESULT:      -4.3      2.331      4.246
REMARK  2 active torsions:
REMARK  status: ('A' for Active; 'I' for Inactive)
REMARK    1  A    between atoms: C5_5  and  C6_6 
REMARK    2  A    between atoms: C6_6  and  C7_7 
ROOT
HETATM    1  C1  UNL     1     -35.182   3.883   5.776  1.00 20.00     0.012 C 
HETATM    2  C2  UNL     1     -34.968   4.670   4.896  1.00 20.00    -0.117 C 
HETATM    3  C5  UNL     1     -34.707   5.631   3.811  1.00 20.00     0.098 C 
ENDROOT
BRANCH   3   4
HETATM    4  C6  UNL     1     -33.786   6.787   4.262  1.00 20.00     0.011 C 
HETATM    5  C3  UNL     1     -33.631   6.798   5.791  1.00 20.00     0.012 C 
BRANCH   4   6
HETATM    6  C7  UNL     1     -32.435   6.735   3.502  1.00 20.00     0.082 C 
HETATM    7  C4  UNL     1     -32.228   5.438   2.724  1.00 20.00     0.027 C 
HETATM    8 CL8  UNL     1     -32.231   8.121   2.385  1.00 20.00    -0.125 Cl
ENDBRANCH   4   6
ENDBRANCH   3   4
TORSDOF 2
ENDMDL
MODEL 4
REMARK VINA RESULT:      -4.2      2.115      4.023
REMARK  2 active torsions:
REMARK  status: ('A' for Active; 'I' for Inactive)
REMARK    1  A    between atoms: C5_5  and  C6_6 
REMARK    2  A    between atoms: C6_6  and  C7_7 
ROOT
HETATM    1  C1  UNL     1     -35.040   4.563   6.131  1.00 20.00     0.012 C 
HETATM    2  C2  UNL     1     -34.411   5.425   5.581  1.00 20.00    -0.117 C 
HETATM    3  C5  UNL     1     -33.642   6.487   4.909  1.00 20.00     0.098 C 
ENDROOT
BRANCH   3   4
HETATM    4  C6  UNL     1     -32.960   5.986   3.616  1.00 20.00     0.011 C 
HETATM    5  C3  UNL     1     -34.006   5.602   2.559  1.00 20.00     0.012 C 
BRANCH   4   6
HETATM    6  C7  UNL     1     -31.921   7.021   3.113  1.00 20.00     0.082 C 
HETATM    7  C4  UNL     1     -32.501   8.031   2.126  1.00 20.00     0.027 C 
HETATM    8 CL8  UNL     1     -31.140   7.909   4.460  1.00 20.00    -0.125 Cl
ENDBRANCH   4   6
ENDBRANCH   3   4
TORSDOF 2
ENDMDL
MODEL 5
REMARK VINA RESULT:      -4.1      1.489      1.960
REMARK  2 active torsions:
REMARK  status: ('A' for Active; 'I' for Inactive)
REMARK    1  A    between atoms: C5_5  and  C6_6 
REMARK    2  A    between atoms: C6_6  and  C7_7 
ROOT
HETATM    1  C1  UNL     1     -32.138   9.147   0.873  1.00 20.00     0.012 C 
HETATM    2  C2  UNL     1     -32.134   8.505   1.887  1.00 20.00    -0.117 C 
HETATM    3  C5  UNL     1     -32.123   7.720   3.133  1.00 20.00     0.098 C 
ENDROOT
BRANCH   3   4
HETATM    4  C6  UNL     1     -32.973   6.434   3.020  1.00 20.00     0.011 C 
HETATM    5  C3  UNL     1     -32.092   5.182   3.151  1.00 20.00     0.012 C 
BRANCH   4   6
HETATM    6  C7  UNL     1     -34.152   6.470   4.027  1.00 20.00     0.082 C 
HETATM    7  C4  UNL     1     -35.115   5.296   3.874  1.00 20.00     0.027 C 
HETATM    8 CL8  UNL     1     -33.592   6.543   5.727  1.00 20.00    -0.125 Cl
ENDBRANCH   4   6
ENDBRANCH   3   4
TORSDOF 2
ENDMDL
MODEL 6
REMARK VINA RESULT:      -4.1     11.506     12.707
REMARK  2 active torsions:
REMARK  status: ('A' for Active; 'I' for Inactive)
REMARK    1  A    between atoms: C5_5  and  C6_6 
REMARK    2  A    between atoms: C6_6  and  C7_7 
ROOT
HETATM    1  C1  UNL     1     -34.584  16.888  -0.459  1.00 20.00     0.012 C 
HETATM    2  C2  UNL     1     -34.683  16.328  -1.516  1.00 20.00    -0.117 C 
HETATM    3  C5  UNL     1     -34.811  15.639  -2.811  1.00 20.00     0.098 C 
ENDROOT
BRANCH   3   4
HETATM    4  C6  UNL     1     -33.437  15.353  -3.459  1.00 20.00     0.011 C 
HETATM    5  C3  UNL     1     -33.244  13.846  -3.690  1.00 20.00     0.012 C 
BRANCH   4   6
HETATM    6  C7  UNL     1     -33.252  16.205  -4.741  1.00 20.00     0.082 C 
HETATM    7  C4  UNL     1     -34.126  15.747  -5.905  1.00 20.00     0.027 C 
HETATM    8 CL8  UNL     1     -33.547  17.948  -4.446  1.00 20.00    -0.125 Cl
ENDBRANCH   4   6
ENDBRANCH   3   4
TORSDOF 2
ENDMDL
MODEL 7
REMARK VINA RESULT:      -4.0      1.291      2.145
REMARK  2 active torsions:
REMARK  status: ('A' for Active; 'I' for Inactive)
REMARK    1  A    between atoms: C5_5  and  C6_6 
REMARK    2  A    between atoms: C6_6  and  C7_7 
ROOT
HETATM    1  C1  UNL     1     -31.683   7.235   2.373  1.00 20.00     0.012 C 
HETATM    2  C2  UNL     1     -32.625   7.224   3.116  1.00 20.00    -0.117 C 
HETATM    3  C5  UNL     1     -33.783   7.218   4.027  1.00 20.00     0.098 C 
ENDROOT
BRANCH   3   4
HETATM    4  C6  UNL     1     -33.664   6.128   5.115  1.00 20.00     0.011 C 
HETATM    5  C3  UNL     1     -33.908   6.720   6.512  1.00 20.00     0.012 C 
BRANCH   4   6
HETATM    6  C7  UNL     1     -34.582   4.923   4.783  1.00 20.00     0.082 C 
HETATM    7  C4  UNL     1     -35.130   4.220   6.021  1.00 20.00     0.027 C 
HETATM    8 CL8  UNL     1     -35.953   5.386   3.725  1.00 20.00    -0.125 Cl
ENDBRANCH   4   6
ENDBRANCH   3   4
TORSDOF 2
ENDMDL
MODEL 8
REMARK VINA RESULT:      -4.0     10.904     11.762
REMARK  2 active torsions:
REMARK  status: ('A' for Active; 'I' for Inactive)
REMARK    1  A    between atoms: C5_5  and  C6_6 
REMARK    2  A    between atoms: C6_6  and  C7_7 
ROOT
HETATM    1  C1  UNL     1     -34.807  17.056  -0.089  1.00 20.00     0.012 C 
HETATM    2  C2  UNL     1     -34.468  16.671  -1.174  1.00 20.00    -0.117 C 
HETATM    3  C5  UNL     1     -34.049  16.203  -2.506  1.00 20.00     0.098 C 
ENDROOT
BRANCH   3   4
HETATM    4  C6  UNL     1     -35.041  15.181  -3.106  1.00 20.00     0.011 C 
HETATM    5  C3  UNL     1     -35.844  15.808  -4.257  1.00 20.00     0.012 C 
BRANCH   4   6
HETATM    6  C7  UNL     1     -34.305  13.875  -3.502  1.00 20.00     0.082 C 
HETATM    7  C4  UNL     1     -34.767  13.301  -4.838  1.00 20.00     0.027 C 
HETATM    8 CL8  UNL     1     -32.526  14.085  -3.544  1.00 20.00    -0.125 Cl
ENDBRANCH   4   6
ENDBRANCH   3   4
TORSDOF 2
ENDMDL
MODEL 9
REMARK VINA RESULT:      -3.9      1.770      3.513
REMARK  2 active torsions:
REMARK  status: ('A' for Active; 'I' for Inactive)
REMARK    1  A    between atoms: C5_5  and  C6_6 
REMARK    2  A    between atoms: C6_6  and  C7_7 
ROOT
HETATM    1  C1  UNL     1     -33.140   7.729   7.096  1.00 20.00     0.012 C 
HETATM    2  C2  UNL     1     -33.839   6.819   6.742  1.00 20.00    -0.117 C 
HETATM    3  C5  UNL     1     -34.699   5.703   6.313  1.00 20.00     0.098 C 
ENDROOT
BRANCH   3   4
HETATM    4  C6  UNL     1     -34.136   4.974   5.073  1.00 20.00     0.011 C 
HETATM    5  C3  UNL     1     -34.982   3.738   4.733  1.00 20.00     0.012 C 
BRANCH   4   6
HETATM    6  C7  UNL     1     -33.976   5.961   3.887  1.00 20.00     0.082 C 
HETATM    7  C4  UNL     1     -32.522   6.324   3.593  1.00 20.00     0.027 C 
HETATM    8 CL8  UNL     1     -34.735   5.347   2.385  1.00 20.00    -0.125 Cl
ENDBRANCH   4   6
ENDBRANCH   3   4
TORSDOF 2
ENDMDL
