MODEL 1
REMARK VINA RESULT:      -4.5      0.000      0.000
REMARK  3 active torsions:
REMARK  status: ('A' for Active; 'I' for Inactive)
REMARK    1  A    between atoms: C1_1  and  C3_3 
REMARK       I    between atoms: C3_3  and  N10_10 
REMARK    2  A    between atoms: C8_8  and  C9_9 
REMARK    3  A    between atoms: C8_8  and  N10_10 
ROOT
HETATM    1  C3  UNL     1     -32.041   7.158   3.151  1.00 20.00     0.240 C 
HETATM    2  N10 UNL     1     -32.899   6.068   3.216  1.00 20.00    -0.357 N 
HETATM    3  O11 UNL     1     -31.315   7.546   4.060  1.00 20.00    -0.269 OA
HETATM    4  H28 UNL     1     -33.483   5.843   2.411  1.00 20.00     0.162 HD
ENDROOT
BRANCH   2   5
HETATM    5  C8  UNL     1     -33.039   5.249   4.390  1.00 20.00     0.131 C 
BRANCH   5   6
HETATM    6  C9  UNL     1     -34.420   5.350   5.074  1.00 20.00    -0.035 C 
HETATM    7  C5  UNL     1     -35.500   5.772   4.065  1.00 20.00     0.016 C 
HETATM    8  C6  UNL     1     -34.817   4.010   5.717  1.00 20.00     0.016 C 
HETATM    9  C7  UNL     1     -34.334   6.418   6.181  1.00 20.00     0.016 C 
ENDBRANCH   5   6
ENDBRANCH   2   5
BRANCH   1  10
HETATM   10  C1  UNL     1     -32.093   7.832   1.824  1.00 20.00     0.070 C 
HETATM   11  C2  UNL     1     -32.371   9.140   1.741  1.00 20.00    -0.026 C 
HETATM   12  C4  UNL     1     -32.439   9.884   0.448  1.00 20.00     0.036 C 
ENDBRANCH   1  10
TORSDOF 3
ENDMDL
MODEL 2
REMARK VINA RESULT:      -4.4     11.361     12.417
REMARK  3 active torsions:
REMARK  status: ('A' for Active; 'I' for Inactive)
REMARK    1  A    between atoms: C1_1  and  C3_3 
REMARK       I    between atoms: C3_3  and  N10_10 
REMARK    2  A    between atoms: C8_8  and  C9_9 
REMARK    3  A    between atoms: C8_8  and  N10_10 
ROOT
HETATM    1  C3  UNL     1     -33.446  16.000  -3.433  1.00 20.00     0.240 C 
HETATM    2  N10 UNL     1     -34.226  16.375  -4.519  1.00 20.00    -0.357 N 
HETATM    3  O11 UNL     1     -32.615  15.098  -3.433  1.00 20.00    -0.269 OA
HETATM    4  H28 UNL     1     -34.908  17.124  -4.408  1.00 20.00     0.162 HD
ENDROOT
BRANCH   2   5
HETATM    5  C8  UNL     1     -34.148  15.729  -5.801  1.00 20.00     0.131 C 
BRANCH   5   6
HETATM    6  C9  UNL     1     -35.251  14.677  -6.050  1.00 20.00    -0.035 C 
HETATM    7  C5  UNL     1     -35.465  14.456  -7.556  1.00 20.00     0.016 C 
HETATM    8  C6  UNL     1     -34.895  13.337  -5.383  1.00 20.00     0.016 C 
HETATM    9  C7  UNL     1     -36.563  15.197  -5.435  1.00 20.00     0.016 C 
ENDBRANCH   5   6
ENDBRANCH   2   5
BRANCH   1  10
HETATM   10  C1  UNL     1     -33.728  16.830  -2.229  1.00 20.00     0.070 C 
HETATM   11  C2  UNL     1     -34.573  16.389  -1.287  1.00 20.00    -0.026 C 
HETATM   12  C4  UNL     1     -34.904  17.163  -0.054  1.00 20.00     0.036 C 
ENDBRANCH   1  10
TORSDOF 3
ENDMDL
MODEL 3
REMARK VINA RESULT:      -4.3     11.218     12.183
REMARK  3 active torsions:
REMARK  status: ('A' for Active; 'I' for Inactive)
REMARK    1  A    between atoms: C1_1  and  C3_3 
REMARK       I    between atoms: C3_3  and  N10_10 
REMARK    2  A    between atoms: C8_8  and  C9_9 
REMARK    3  A    between atoms: C8_8  and  N10_10 
ROOT
HETATM    1  C3  UNL     1     -34.105  16.708  -2.209  1.00 20.00     0.240 C 
HETATM    2  N10 UNL     1     -34.180  15.519  -2.921  1.00 20.00    -0.357 N 
HETATM    3  O11 UNL     1     -33.652  17.765  -2.636  1.00 20.00    -0.269 OA
HETATM    4  H28 UNL     1     -34.550  14.686  -2.464  1.00 20.00     0.162 HD
ENDROOT
BRANCH   2   5
HETATM    5  C8  UNL     1     -33.720  15.386  -4.277  1.00 20.00     0.131 C 
BRANCH   5   6
HETATM    6  C9  UNL     1     -34.732  14.707  -5.227  1.00 20.00    -0.035 C 
HETATM    7  C5  UNL     1     -36.158  15.214  -4.958  1.00 20.00     0.016 C 
HETATM    8  C6  UNL     1     -34.366  14.966  -6.698  1.00 20.00     0.016 C 
HETATM    9  C7  UNL     1     -34.691  13.189  -4.972  1.00 20.00     0.016 C 
ENDBRANCH   5   6
ENDBRANCH   2   5
BRANCH   1  10
HETATM   10  C1  UNL     1     -34.646  16.569  -0.829  1.00 20.00     0.070 C 
HETATM   11  C2  UNL     1     -34.655  17.619   0.003  1.00 20.00    -0.026 C 
HETATM   12  C4  UNL     1     -35.181  17.556   1.399  1.00 20.00     0.036 C 
ENDBRANCH   1  10
TORSDOF 3
ENDMDL
MODEL 4
REMARK VINA RESULT:      -4.2     11.007     12.026
REMARK  3 active torsions:
REMARK  status: ('A' for Active; 'I' for Inactive)
REMARK    1  A    between atoms: C1_1  and  C3_3 
REMARK       I    between atoms: C3_3  and  N10_10 
REMARK    2  A    between atoms: C8_8  and  C9_9 
REMARK    3  A    between atoms: C8_8  and  N10_10 
ROOT
HETATM    1  C3  UNL     1     -34.273  14.036  -4.222  1.00 20.00     0.240 C 
HETATM    2  N10 UNL     1     -34.319  15.368  -3.832  1.00 20.00    -0.357 N 
HETATM    3  O11 UNL     1     -33.815  13.116  -3.554  1.00 20.00    -0.269 OA
HETATM    4  H28 UNL     1     -34.697  16.063  -4.474  1.00 20.00     0.162 HD
ENDROOT
BRANCH   2   5
HETATM    5  C8  UNL     1     -33.817  15.833  -2.567  1.00 20.00     0.131 C 
BRANCH   5   6
HETATM    6  C9  UNL     1     -34.565  17.059  -1.999  1.00 20.00    -0.035 C 
HETATM    7  C5  UNL     1     -33.812  18.359  -2.328  1.00 20.00     0.016 C 
HETATM    8  C6  UNL     1     -35.995  17.141  -2.560  1.00 20.00     0.016 C 
HETATM    9  C7  UNL     1     -34.648  16.909  -0.468  1.00 20.00     0.016 C 
ENDBRANCH   5   6
ENDBRANCH   2   5
BRANCH   1  10
HETATM   10  C1  UNL     1     -34.855  13.830  -5.577  1.00 20.00     0.070 C 
HETATM   11  C2  UNL     1     -34.675  14.747  -6.537  1.00 20.00    -0.026 C 
HETATM   12  C4  UNL     1     -35.226  14.609  -7.918  1.00 20.00     0.036 C 
ENDBRANCH   1  10
TORSDOF 3
ENDMDL
MODEL 5
REMARK VINA RESULT:      -4.2     11.184     12.809
REMARK  3 active torsions:
REMARK  status: ('A' for Active; 'I' for Inactive)
REMARK    1  A    between atoms: C1_1  and  C3_3 
REMARK       I    between atoms: C3_3  and  N10_10 
REMARK    2  A    between atoms: C8_8  and  C9_9 
REMARK    3  A    between atoms: C8_8  and  N10_10 
ROOT
HETATM    1  C3  UNL     1     -34.266  15.400  -3.325  1.00 20.00     0.240 C 
HETATM    2  N10 UNL     1     -35.203  14.847  -4.187  1.00 20.00    -0.357 N 
HETATM    3  O11 UNL     1     -33.075  15.557  -3.574  1.00 20.00    -0.269 OA
HETATM    4  H28 UNL     1     -36.166  14.737  -3.873  1.00 20.00     0.162 HD
ENDROOT
BRANCH   2   5
HETATM    5  C8  UNL     1     -34.874  14.380  -5.507  1.00 20.00     0.131 C 
BRANCH   5   6
HETATM    6  C9  UNL     1     -35.389  15.285  -6.648  1.00 20.00    -0.035 C 
HETATM    7  C5  UNL     1     -36.738  15.921  -6.274  1.00 20.00     0.016 C 
HETATM    8  C6  UNL     1     -34.374  16.394  -6.972  1.00 20.00     0.016 C 
HETATM    9  C7  UNL     1     -35.584  14.416  -7.904  1.00 20.00     0.016 C 
ENDBRANCH   5   6
ENDBRANCH   2   5
BRANCH   1  10
HETATM   10  C1  UNL     1     -34.870  15.797  -2.023  1.00 20.00     0.070 C 
HETATM   11  C2  UNL     1     -34.287  16.735  -1.264  1.00 20.00    -0.026 C 
HETATM   12  C4  UNL     1     -34.833  17.185   0.050  1.00 20.00     0.036 C 
ENDBRANCH   1  10
TORSDOF 3
ENDMDL
MODEL 6
REMARK VINA RESULT:      -4.1     10.856     12.120
REMARK  3 active torsions:
REMARK  status: ('A' for Active; 'I' for Inactive)
REMARK    1  A    between atoms: C1_1  and  C3_3 
REMARK       I    between atoms: C3_3  and  N10_10 
REMARK    2  A    between atoms: C8_8  and  C9_9 
REMARK    3  A    between atoms: C8_8  and  N10_10 
ROOT
HETATM    1  C3  UNL     1     -35.064  16.987  -1.679  1.00 20.00     0.240 C 
HETATM    2  N10 UNL     1     -35.102  15.711  -2.225  1.00 20.00    -0.357 N 
HETATM    3  O11 UNL     1     -35.266  18.029  -2.292  1.00 20.00    -0.269 OA
HETATM    4  H28 UNL     1     -34.893  14.908  -1.633  1.00 20.00     0.162 HD
ENDROOT
BRANCH   2   5
HETATM    5  C8  UNL     1     -35.390  15.459  -3.611  1.00 20.00     0.131 C 
BRANCH   5   6
HETATM    6  C9  UNL     1     -34.174  14.986  -4.437  1.00 20.00    -0.035 C 
HETATM    7  C5  UNL     1     -33.194  16.145  -4.680  1.00 20.00     0.016 C 
HETATM    8  C6  UNL     1     -33.440  13.836  -3.727  1.00 20.00     0.016 C 
HETATM    9  C7  UNL     1     -34.682  14.475  -5.798  1.00 20.00     0.016 C 
ENDBRANCH   5   6
ENDBRANCH   2   5
BRANCH   1  10
HETATM   10  C1  UNL     1     -34.740  16.963  -0.225  1.00 20.00     0.070 C 
HETATM   11  C2  UNL     1     -35.438  17.716   0.635  1.00 20.00    -0.026 C 
HETATM   12  C4  UNL     1     -35.171  17.744   2.104  1.00 20.00     0.036 C 
ENDBRANCH   1  10
TORSDOF 3
ENDMDL
MODEL 7
REMARK VINA RESULT:      -3.9     10.277     11.785
REMARK  3 active torsions:
REMARK  status: ('A' for Active; 'I' for Inactive)
REMARK    1  A    between atoms: C1_1  and  C3_3 
REMARK       I    between atoms: C3_3  and  N10_10 
REMARK    2  A    between atoms: C8_8  and  C9_9 
REMARK    3  A    between atoms: C8_8  and  N10_10 
ROOT
HETATM    1  C3  UNL     1     -42.583   3.011  -3.141  1.00 20.00     0.240 C 
HETATM    2  N10 UNL     1     -41.851   3.656  -2.154  1.00 20.00    -0.357 N 
HETATM    3  O11 UNL     1     -43.299   3.562  -3.970  1.00 20.00    -0.269 OA
HETATM    4  H28 UNL     1     -41.304   3.103  -1.495  1.00 20.00     0.162 HD
ENDROOT
BRANCH   2   5
HETATM    5  C8  UNL     1     -41.852   5.085  -1.984  1.00 20.00     0.131 C 
BRANCH   5   6
HETATM    6  C9  UNL     1     -41.994   5.550  -0.518  1.00 20.00    -0.035 C 
HETATM    7  C5  UNL     1     -43.074   6.637  -0.393  1.00 20.00     0.016 C 
HETATM    8  C6  UNL     1     -42.347   4.370   0.402  1.00 20.00     0.016 C 
HETATM    9  C7  UNL     1     -40.645   6.138  -0.065  1.00 20.00     0.016 C 
ENDBRANCH   5   6
ENDBRANCH   2   5
BRANCH   1  10
HETATM   10  C1  UNL     1     -42.406   1.533  -3.092  1.00 20.00     0.070 C 
HETATM   11  C2  UNL     1     -41.741   0.898  -4.067  1.00 20.00    -0.026 C 
HETATM   12  C4  UNL     1     -41.523  -0.579  -4.085  1.00 20.00     0.036 C 
ENDBRANCH   1  10
TORSDOF 3
ENDMDL
MODEL 8
REMARK VINA RESULT:      -3.8     11.251     12.252
REMARK  3 active torsions:
REMARK  status: ('A' for Active; 'I' for Inactive)
REMARK    1  A    between atoms: C1_1  and  C3_3 
REMARK       I    between atoms: C3_3  and  N10_10 
REMARK    2  A    between atoms: C8_8  and  C9_9 
REMARK    3  A    between atoms: C8_8  and  N10_10 
ROOT
HETATM    1  C3  UNL     1     -34.664  15.899  -2.263  1.00 20.00     0.240 C 
HETATM    2  N10 UNL     1     -35.954  15.490  -2.574  1.00 20.00    -0.357 N 
HETATM    3  O11 UNL     1     -33.674  15.722  -2.965  1.00 20.00    -0.269 OA
HETATM    4  H28 UNL     1     -36.706  15.662  -1.909  1.00 20.00     0.162 HD
ENDROOT
BRANCH   2   5
HETATM    5  C8  UNL     1     -36.285  14.791  -3.787  1.00 20.00     0.131 C 
BRANCH   5   6
HETATM    6  C9  UNL     1     -37.414  15.449  -4.611  1.00 20.00    -0.035 C 
HETATM    7  C5  UNL     1     -37.545  16.941  -4.265  1.00 20.00     0.016 C 
HETATM    8  C6  UNL     1     -37.157  15.295  -6.120  1.00 20.00     0.016 C 
HETATM    9  C7  UNL     1     -38.738  14.743  -4.265  1.00 20.00     0.016 C 
ENDBRANCH   5   6
ENDBRANCH   2   5
BRANCH   1  10
HETATM   10  C1  UNL     1     -34.600  16.595  -0.949  1.00 20.00     0.070 C 
HETATM   11  C2  UNL     1     -33.723  17.588  -0.751  1.00 20.00    -0.026 C 
HETATM   12  C4  UNL     1     -33.601  18.332   0.538  1.00 20.00     0.036 C 
ENDBRANCH   1  10
TORSDOF 3
ENDMDL
MODEL 9
REMARK VINA RESULT:      -3.8     11.540     12.868
REMARK  3 active torsions:
REMARK  status: ('A' for Active; 'I' for Inactive)
REMARK    1  A    between atoms: C1_1  and  C3_3 
REMARK       I    between atoms: C3_3  and  N10_10 
REMARK    2  A    between atoms: C8_8  and  C9_9 
REMARK    3  A    between atoms: C8_8  and  N10_10 
ROOT
HETATM    1  C3  UNL     1     -32.373  18.933   0.442  1.00 20.00     0.240 C 
HETATM    2  N10 UNL     1     -33.509  18.651  -0.306  1.00 20.00    -0.357 N 
HETATM    3  O11 UNL     1     -31.261  19.170  -0.017  1.00 20.00    -0.269 OA
HETATM    4  H28 UNL     1     -34.383  18.441   0.174  1.00 20.00     0.162 HD
ENDROOT
BRANCH   2   5
HETATM    5  C8  UNL     1     -33.509  18.603  -1.744  1.00 20.00     0.131 C 
BRANCH   5   6
HETATM    6  C9  UNL     1     -34.400  17.491  -2.341  1.00 20.00    -0.035 C 
HETATM    7  C5  UNL     1     -34.679  16.396  -1.299  1.00 20.00     0.016 C 
HETATM    8  C6  UNL     1     -35.734  18.066  -2.847  1.00 20.00     0.016 C 
HETATM    9  C7  UNL     1     -33.654  16.862  -3.532  1.00 20.00     0.016 C 
ENDBRANCH   5   6
ENDBRANCH   2   5
BRANCH   1  10
HETATM   10  C1  UNL     1     -32.649  18.916   1.905  1.00 20.00     0.070 C 
HETATM   11  C2  UNL     1     -31.637  18.903   2.784  1.00 20.00    -0.026 C 
HETATM   12  C4  UNL     1     -31.836  18.887   4.264  1.00 20.00     0.036 C 
ENDBRANCH   1  10
TORSDOF 3
ENDMDL
