MODEL 1
REMARK VINA RESULT:      -5.6      0.000      0.000
REMARK  2 active torsions:
REMARK  status: ('A' for Active; 'I' for Inactive)
REMARK    1  A    between atoms: C2_2  and  C9_9 
REMARK    2  A    between atoms: C6_6  and  C9_9 
ROOT
HETATM    1  C3  UNL     1     -35.162   4.272   4.773  1.00 20.00     0.002 C 
HETATM    2  C4  UNL     1     -35.127   5.358   3.693  1.00 20.00     0.006 C 
HETATM    3  C5  UNL     1     -34.544   4.887   6.030  1.00 20.00     0.020 C 
HETATM    4  C6  UNL     1     -34.142   6.417   4.202  1.00 20.00     0.008 C 
HETATM    5  C7  UNL     1     -34.412   6.373   5.710  1.00 20.00     0.086 C 
HETATM    6 CL10 UNL     1     -33.200   7.179   6.719  1.00 20.00    -0.125 Cl
ENDROOT
BRANCH   4   7
HETATM    7  C9  UNL     1     -32.729   6.090   3.790  1.00 20.00     0.039 C 
BRANCH   7   8
HETATM    8  C2  UNL     1     -31.945   7.309   3.370  1.00 20.00    -0.093 C 
HETATM    9  C1  UNL     1     -30.993   7.837   4.155  1.00 20.00     0.014 C 
HETATM   10  C8  UNL     1     -32.300   7.928   2.048  1.00 20.00     0.042 C 
ENDBRANCH   7   8
ENDBRANCH   4   7
TORSDOF 2
ENDMDL
MODEL 2
REMARK VINA RESULT:      -4.4     11.384     12.270
REMARK  2 active torsions:
REMARK  status: ('A' for Active; 'I' for Inactive)
REMARK    1  A    between atoms: C2_2  and  C9_9 
REMARK    2  A    between atoms: C6_6  and  C9_9 
ROOT
HETATM    1  C3  UNL     1     -33.399  13.652  -3.798  1.00 20.00     0.002 C 
HETATM    2  C4  UNL     1     -33.060  15.138  -3.640  1.00 20.00     0.006 C 
HETATM    3  C5  UNL     1     -34.916  13.567  -3.977  1.00 20.00     0.020 C 
HETATM    4  C6  UNL     1     -34.390  15.834  -3.324  1.00 20.00     0.008 C 
HETATM    5  C7  UNL     1     -35.366  15.011  -4.173  1.00 20.00     0.086 C 
HETATM    6 CL10 UNL     1     -37.079  15.245  -3.796  1.00 20.00    -0.125 Cl
ENDROOT
BRANCH   4   7
HETATM    7  C9  UNL     1     -34.667  15.833  -1.842  1.00 20.00     0.039 C 
BRANCH   7   8
HETATM    8  C2  UNL     1     -34.385  17.166  -1.193  1.00 20.00    -0.093 C 
HETATM    9  C1  UNL     1     -33.749  18.148  -1.852  1.00 20.00     0.014 C 
HETATM   10  C8  UNL     1     -34.817  17.337   0.236  1.00 20.00     0.042 C 
ENDBRANCH   7   8
ENDBRANCH   4   7
TORSDOF 2
ENDMDL
MODEL 3
REMARK VINA RESULT:      -4.4     11.769     12.639
REMARK  2 active torsions:
REMARK  status: ('A' for Active; 'I' for Inactive)
REMARK    1  A    between atoms: C2_2  and  C9_9 
REMARK    2  A    between atoms: C6_6  and  C9_9 
ROOT
HETATM    1  C3  UNL     1     -34.579  13.264  -4.459  1.00 20.00     0.002 C 
HETATM    2  C4  UNL     1     -33.457  14.030  -3.751  1.00 20.00     0.006 C 
HETATM    3  C5  UNL     1     -35.497  14.315  -5.086  1.00 20.00     0.020 C 
HETATM    4  C6  UNL     1     -33.954  15.476  -3.631  1.00 20.00     0.008 C 
HETATM    5  C7  UNL     1     -34.738  15.630  -4.939  1.00 20.00     0.086 C 
HETATM    6 CL10 UNL     1     -35.805  17.040  -5.020  1.00 20.00    -0.125 Cl
ENDROOT
BRANCH   4   7
HETATM    7  C9  UNL     1     -34.759  15.672  -2.371  1.00 20.00     0.039 C 
BRANCH   7   8
HETATM    8  C2  UNL     1     -34.376  16.924  -1.621  1.00 20.00    -0.093 C 
HETATM    9  C1  UNL     1     -33.668  17.903  -2.205  1.00 20.00     0.014 C 
HETATM   10  C8  UNL     1     -34.792  17.013  -0.180  1.00 20.00     0.042 C 
ENDBRANCH   7   8
ENDBRANCH   4   7
TORSDOF 2
ENDMDL
MODEL 4
REMARK VINA RESULT:      -4.3      9.583     11.346
REMARK  2 active torsions:
REMARK  status: ('A' for Active; 'I' for Inactive)
REMARK    1  A    between atoms: C2_2  and  C9_9 
REMARK    2  A    between atoms: C6_6  and  C9_9 
ROOT
HETATM    1  C3  UNL     1     -40.767   6.145  -0.035  1.00 20.00     0.002 C 
HETATM    2  C4  UNL     1     -41.552   4.836   0.099  1.00 20.00     0.006 C 
HETATM    3  C5  UNL     1     -41.292   6.843  -1.291  1.00 20.00     0.020 C 
HETATM    4  C6  UNL     1     -42.209   4.606  -1.268  1.00 20.00     0.008 C 
HETATM    5  C7  UNL     1     -42.529   6.044  -1.690  1.00 20.00     0.086 C 
HETATM    6 CL10 UNL     1     -42.951   6.255  -3.396  1.00 20.00    -0.125 Cl
ENDROOT
BRANCH   4   7
HETATM    7  C9  UNL     1     -41.287   3.853  -2.195  1.00 20.00     0.039 C 
BRANCH   7   8
HETATM    8  C2  UNL     1     -41.973   2.706  -2.896  1.00 20.00    -0.093 C 
HETATM    9  C1  UNL     1     -41.331   1.954  -3.804  1.00 20.00     0.014 C 
HETATM   10  C8  UNL     1     -43.417   2.463  -2.561  1.00 20.00     0.042 C 
ENDBRANCH   7   8
ENDBRANCH   4   7
TORSDOF 2
ENDMDL
MODEL 5
REMARK VINA RESULT:      -4.2     11.895     12.847
REMARK  2 active torsions:
REMARK  status: ('A' for Active; 'I' for Inactive)
REMARK    1  A    between atoms: C2_2  and  C9_9 
REMARK    2  A    between atoms: C6_6  and  C9_9 
ROOT
HETATM    1  C3  UNL     1     -33.687  17.736  -0.776  1.00 20.00     0.002 C 
HETATM    2  C4  UNL     1     -34.758  16.640  -0.791  1.00 20.00     0.006 C 
HETATM    3  C5  UNL     1     -33.681  18.360  -2.173  1.00 20.00     0.020 C 
HETATM    4  C6  UNL     1     -35.058  16.376  -2.272  1.00 20.00     0.008 C 
HETATM    5  C7  UNL     1     -34.914  17.784  -2.861  1.00 20.00     0.086 C 
HETATM    6 CL10 UNL     1     -34.803  17.858  -4.626  1.00 20.00    -0.125 Cl
ENDROOT
BRANCH   4   7
HETATM    7  C9  UNL     1     -34.121  15.341  -2.841  1.00 20.00     0.039 C 
BRANCH   7   8
HETATM    8  C2  UNL     1     -34.822  14.346  -3.734  1.00 20.00    -0.093 C 
HETATM    9  C1  UNL     1     -34.138  13.415  -4.420  1.00 20.00     0.014 C 
HETATM   10  C8  UNL     1     -36.314  14.463  -3.851  1.00 20.00     0.042 C 
ENDBRANCH   7   8
ENDBRANCH   4   7
TORSDOF 2
ENDMDL
MODEL 6
REMARK VINA RESULT:      -4.1     11.325     12.354
REMARK  2 active torsions:
REMARK  status: ('A' for Active; 'I' for Inactive)
REMARK    1  A    between atoms: C2_2  and  C9_9 
REMARK    2  A    between atoms: C6_6  and  C9_9 
ROOT
HETATM    1  C3  UNL     1     -35.960  14.784  -5.254  1.00 20.00     0.002 C 
HETATM    2  C4  UNL     1     -36.273  15.205  -3.814  1.00 20.00     0.006 C 
HETATM    3  C5  UNL     1     -34.603  14.079  -5.217  1.00 20.00     0.020 C 
HETATM    4  C6  UNL     1     -34.943  15.108  -3.056  1.00 20.00     0.008 C 
HETATM    5  C7  UNL     1     -34.303  13.890  -3.734  1.00 20.00     0.086 C 
HETATM    6 CL10 UNL     1     -32.576  13.668  -3.414  1.00 20.00    -0.125 Cl
ENDROOT
BRANCH   4   7
HETATM    7  C9  UNL     1     -34.159  16.391  -3.166  1.00 20.00     0.039 C 
BRANCH   7   8
HETATM    8  C2  UNL     1     -34.100  17.153  -1.864  1.00 20.00    -0.093 C 
HETATM    9  C1  UNL     1     -34.614  16.649  -0.731  1.00 20.00     0.014 C 
HETATM   10  C8  UNL     1     -33.471  18.517  -1.897  1.00 20.00     0.042 C 
ENDBRANCH   7   8
ENDBRANCH   4   7
TORSDOF 2
ENDMDL
MODEL 7
REMARK VINA RESULT:      -4.1     11.399     12.876
REMARK  2 active torsions:
REMARK  status: ('A' for Active; 'I' for Inactive)
REMARK    1  A    between atoms: C2_2  and  C9_9 
REMARK    2  A    between atoms: C6_6  and  C9_9 
ROOT
HETATM    1  C3  UNL     1     -33.696  17.849  -4.108  1.00 20.00     0.002 C 
HETATM    2  C4  UNL     1     -33.376  16.351  -4.153  1.00 20.00     0.006 C 
HETATM    3  C5  UNL     1     -34.115  18.162  -2.670  1.00 20.00     0.020 C 
HETATM    4  C6  UNL     1     -33.994  15.757  -2.881  1.00 20.00     0.008 C 
HETATM    5  C7  UNL     1     -33.776  16.901  -1.883  1.00 20.00     0.086 C 
HETATM    6 CL10 UNL     1     -34.696  16.774  -0.376  1.00 20.00    -0.125 Cl
ENDROOT
BRANCH   4   7
HETATM    7  C9  UNL     1     -35.431  15.364  -3.106  1.00 20.00     0.039 C 
BRANCH   7   8
HETATM    8  C2  UNL     1     -35.608  14.446  -4.292  1.00 20.00    -0.093 C 
HETATM    9  C1  UNL     1     -35.040  13.230  -4.329  1.00 20.00     0.014 C 
HETATM   10  C8  UNL     1     -36.418  14.967  -5.445  1.00 20.00     0.042 C 
ENDBRANCH   7   8
ENDBRANCH   4   7
TORSDOF 2
ENDMDL
MODEL 8
REMARK VINA RESULT:      -4.0     12.068     13.223
REMARK  2 active torsions:
REMARK  status: ('A' for Active; 'I' for Inactive)
REMARK    1  A    between atoms: C2_2  and  C9_9 
REMARK    2  A    between atoms: C6_6  and  C9_9 
ROOT
HETATM    1  C3  UNL     1     -33.642  17.751  -4.894  1.00 20.00     0.002 C 
HETATM    2  C4  UNL     1     -34.630  18.003  -3.750  1.00 20.00     0.006 C 
HETATM    3  C5  UNL     1     -33.493  16.233  -5.015  1.00 20.00     0.020 C 
HETATM    4  C6  UNL     1     -34.715  16.680  -2.978  1.00 20.00     0.008 C 
HETATM    5  C7  UNL     1     -34.586  15.662  -4.117  1.00 20.00     0.086 C 
HETATM    6 CL10 UNL     1     -34.248  14.000  -3.610  1.00 20.00    -0.125 Cl
ENDROOT
BRANCH   4   7
HETATM    7  C9  UNL     1     -33.647  16.599  -1.917  1.00 20.00     0.039 C 
BRANCH   7   8
HETATM    8  C2  UNL     1     -33.954  17.454  -0.711  1.00 20.00    -0.093 C 
HETATM    9  C1  UNL     1     -35.081  17.289  -0.002  1.00 20.00     0.014 C 
HETATM   10  C8  UNL     1     -32.959  18.523  -0.359  1.00 20.00     0.042 C 
ENDBRANCH   7   8
ENDBRANCH   4   7
TORSDOF 2
ENDMDL
MODEL 9
REMARK VINA RESULT:      -4.0     11.266     13.375
REMARK  2 active torsions:
REMARK  status: ('A' for Active; 'I' for Inactive)
REMARK    1  A    between atoms: C2_2  and  C9_9 
REMARK    2  A    between atoms: C6_6  and  C9_9 
ROOT
HETATM    1  C3  UNL     1     -34.562  13.241  -4.902  1.00 20.00     0.002 C 
HETATM    2  C4  UNL     1     -35.320  14.390  -5.575  1.00 20.00     0.006 C 
HETATM    3  C5  UNL     1     -34.046  13.781  -3.567  1.00 20.00     0.020 C 
HETATM    4  C6  UNL     1     -34.891  15.661  -4.831  1.00 20.00     0.008 C 
HETATM    5  C7  UNL     1     -34.738  15.131  -3.401  1.00 20.00     0.086 C 
HETATM    6 CL10 UNL     1     -33.876  16.202  -2.286  1.00 20.00    -0.125 Cl
ENDROOT
BRANCH   4   7
HETATM    7  C9  UNL     1     -33.642  16.251  -5.437  1.00 20.00     0.039 C 
BRANCH   7   8
HETATM    8  C2  UNL     1     -33.820  17.690  -5.857  1.00 20.00    -0.093 C 
HETATM    9  C1  UNL     1     -33.523  18.705  -5.030  1.00 20.00     0.014 C 
HETATM   10  C8  UNL     1     -34.375  17.938  -7.230  1.00 20.00     0.042 C 
ENDBRANCH   7   8
ENDBRANCH   4   7
TORSDOF 2
ENDMDL
