MODEL 1
REMARK VINA RESULT:      -5.3      0.000      0.000
REMARK  6 active torsions:
REMARK  status: ('A' for Active; 'I' for Inactive)
REMARK    1  A    between atoms: C4_4  and  C6_6 
REMARK    2  A    between atoms: C5_5  and  C7_7 
REMARK    3  A    between atoms: C6_6  and  C8_8 
REMARK    4  A    between atoms: C7_7  and  C9_9 
REMARK    5  A    between atoms: C8_8  and  C9_9 
REMARK    6  A    between atoms: C9_9  and  O10_10 
ROOT
HETATM    1  C1  UNL     1     -32.035   8.771   1.180  1.00 20.00     0.012 C 
HETATM    2  C2  UNL     1     -32.072   8.116   2.185  1.00 20.00    -0.117 C 
HETATM    3  C4  UNL     1     -32.117   7.320   3.419  1.00 20.00     0.093 C 
ENDROOT
BRANCH   3   4
HETATM    4  C6  UNL     1     -32.326   5.829   3.140  1.00 20.00     0.014 C 
BRANCH   4   5
HETATM    5  C8  UNL     1     -33.773   5.492   2.751  1.00 20.00     0.032 C 
BRANCH   5   6
HETATM    6  C9  UNL     1     -34.751   5.722   3.911  1.00 20.00     0.118 C 
BRANCH   6   7
HETATM    7  C7  UNL     1     -34.742   4.593   4.951  1.00 20.00     0.031 C 
BRANCH   7   8
HETATM    8  C5  UNL     1     -34.568   5.083   6.388  1.00 20.00    -0.002 C 
HETATM    9  C3  UNL     1     -34.051   6.514   6.426  1.00 20.00     0.005 C 
ENDBRANCH   7   8
ENDBRANCH   6   7
BRANCH   6  10
HETATM   10  O10 UNL     1     -36.078   5.830   3.394  1.00 20.00    -0.396 OA
HETATM   11  H26 UNL     1     -36.208   6.763   3.167  1.00 20.00     0.210 HD
ENDBRANCH   6  10
ENDBRANCH   5   6
ENDBRANCH   4   5
ENDBRANCH   3   4
TORSDOF 6
ENDMDL
MODEL 2
REMARK VINA RESULT:      -4.6     11.015     12.343
REMARK  6 active torsions:
REMARK  status: ('A' for Active; 'I' for Inactive)
REMARK    1  A    between atoms: C4_4  and  C6_6 
REMARK    2  A    between atoms: C5_5  and  C7_7 
REMARK    3  A    between atoms: C6_6  and  C8_8 
REMARK    4  A    between atoms: C7_7  and  C9_9 
REMARK    5  A    between atoms: C8_8  and  C9_9 
REMARK    6  A    between atoms: C9_9  and  O10_10 
ROOT
HETATM    1  C1  UNL     1     -34.730  17.107  -0.027  1.00 20.00     0.012 C 
HETATM    2  C2  UNL     1     -34.357  16.770  -1.116  1.00 20.00    -0.117 C 
HETATM    3  C4  UNL     1     -33.897  16.362  -2.451  1.00 20.00     0.093 C 
ENDROOT
BRANCH   3   4
HETATM    4  C6  UNL     1     -34.573  15.075  -2.930  1.00 20.00     0.014 C 
BRANCH   4   5
HETATM    5  C8  UNL     1     -33.640  14.187  -3.766  1.00 20.00     0.032 C 
BRANCH   5   6
HETATM    6  C9  UNL     1     -34.405  13.387  -4.829  1.00 20.00     0.118 C 
BRANCH   6   7
HETATM    7  C7  UNL     1     -35.200  14.268  -5.802  1.00 20.00     0.031 C 
BRANCH   7   8
HETATM    8  C5  UNL     1     -34.325  15.035  -6.792  1.00 20.00    -0.002 C 
HETATM    9  C3  UNL     1     -34.419  16.537  -6.565  1.00 20.00     0.005 C 
ENDBRANCH   7   8
ENDBRANCH   6   7
BRANCH   6  10
HETATM   10  O10 UNL     1     -35.326  12.506  -4.184  1.00 20.00    -0.396 OA
HETATM   11  H26 UNL     1     -35.432  11.743  -4.773  1.00 20.00     0.210 HD
ENDBRANCH   6  10
ENDBRANCH   5   6
ENDBRANCH   4   5
ENDBRANCH   3   4
TORSDOF 6
ENDMDL
MODEL 3
REMARK VINA RESULT:      -4.6      1.982      5.015
REMARK  6 active torsions:
REMARK  status: ('A' for Active; 'I' for Inactive)
REMARK    1  A    between atoms: C4_4  and  C6_6 
REMARK    2  A    between atoms: C5_5  and  C7_7 
REMARK    3  A    between atoms: C6_6  and  C8_8 
REMARK    4  A    between atoms: C7_7  and  C9_9 
REMARK    5  A    between atoms: C8_8  and  C9_9 
REMARK    6  A    between atoms: C9_9  and  O10_10 
ROOT
HETATM    1  C1  UNL     1     -35.024   4.294   6.082  1.00 20.00     0.012 C 
HETATM    2  C2  UNL     1     -35.135   4.821   5.010  1.00 20.00    -0.117 C 
HETATM    3  C4  UNL     1     -35.277   5.468   3.697  1.00 20.00     0.093 C 
ENDROOT
BRANCH   3   4
HETATM    4  C6  UNL     1     -33.934   5.623   2.979  1.00 20.00     0.014 C 
BRANCH   4   5
HETATM    5  C8  UNL     1     -32.848   6.241   3.872  1.00 20.00     0.032 C 
BRANCH   5   6
HETATM    6  C9  UNL     1     -32.271   7.530   3.270  1.00 20.00     0.118 C 
BRANCH   6   7
HETATM    7  C7  UNL     1     -32.062   7.455   1.751  1.00 20.00     0.031 C 
BRANCH   7   8
HETATM    8  C5  UNL     1     -31.738   8.803   1.108  1.00 20.00    -0.002 C 
HETATM    9  C3  UNL     1     -32.651   9.901   1.636  1.00 20.00     0.005 C 
ENDBRANCH   7   8
ENDBRANCH   6   7
BRANCH   6  10
HETATM   10  O10 UNL     1     -31.006   7.807   3.872  1.00 20.00    -0.396 OA
HETATM   11  H26 UNL     1     -30.366   7.869   3.147  1.00 20.00     0.210 HD
ENDBRANCH   6  10
ENDBRANCH   5   6
ENDBRANCH   4   5
ENDBRANCH   3   4
TORSDOF 6
ENDMDL
MODEL 4
REMARK VINA RESULT:      -4.6      1.051      1.176
REMARK  6 active torsions:
REMARK  status: ('A' for Active; 'I' for Inactive)
REMARK    1  A    between atoms: C4_4  and  C6_6 
REMARK    2  A    between atoms: C5_5  and  C7_7 
REMARK    3  A    between atoms: C6_6  and  C8_8 
REMARK    4  A    between atoms: C7_7  and  C9_9 
REMARK    5  A    between atoms: C8_8  and  C9_9 
REMARK    6  A    between atoms: C9_9  and  O10_10 
ROOT
HETATM    1  C1  UNL     1     -32.344   9.114   0.840  1.00 20.00     0.012 C 
HETATM    2  C2  UNL     1     -32.015   8.523   1.831  1.00 20.00    -0.117 C 
HETATM    3  C4  UNL     1     -31.608   7.803   3.046  1.00 20.00     0.093 C 
ENDROOT
BRANCH   3   4
HETATM    4  C6  UNL     1     -32.182   6.385   3.100  1.00 20.00     0.014 C 
BRANCH   4   5
HETATM    5  C8  UNL     1     -33.334   6.245   4.106  1.00 20.00     0.032 C 
BRANCH   5   6
HETATM    6  C9  UNL     1     -34.623   5.744   3.441  1.00 20.00     0.118 C 
BRANCH   6   7
HETATM    7  C7  UNL     1     -35.470   4.844   4.350  1.00 20.00     0.031 C 
BRANCH   7   8
HETATM    8  C5  UNL     1     -34.723   4.340   5.584  1.00 20.00    -0.002 C 
HETATM    9  C3  UNL     1     -34.821   5.333   6.734  1.00 20.00     0.005 C 
ENDBRANCH   7   8
ENDBRANCH   6   7
BRANCH   6  10
HETATM   10  O10 UNL     1     -34.290   4.994   2.271  1.00 20.00    -0.396 OA
HETATM   11  H26 UNL     1     -33.342   5.129   2.122  1.00 20.00     0.210 HD
ENDBRANCH   6  10
ENDBRANCH   5   6
ENDBRANCH   4   5
ENDBRANCH   3   4
TORSDOF 6
ENDMDL
MODEL 5
REMARK VINA RESULT:      -4.5      1.138      4.298
REMARK  6 active torsions:
REMARK  status: ('A' for Active; 'I' for Inactive)
REMARK    1  A    between atoms: C4_4  and  C6_6 
REMARK    2  A    between atoms: C5_5  and  C7_7 
REMARK    3  A    between atoms: C6_6  and  C8_8 
REMARK    4  A    between atoms: C7_7  and  C9_9 
REMARK    5  A    between atoms: C8_8  and  C9_9 
REMARK    6  A    between atoms: C9_9  and  O10_10 
ROOT
HETATM    1  C1  UNL     1     -33.778   6.933   6.702  1.00 20.00     0.012 C 
HETATM    2  C2  UNL     1     -34.352   5.892   6.539  1.00 20.00    -0.117 C 
HETATM    3  C4  UNL     1     -35.056   4.617   6.345  1.00 20.00     0.093 C 
ENDROOT
BRANCH   3   4
HETATM    4  C6  UNL     1     -35.051   4.168   4.882  1.00 20.00     0.014 C 
BRANCH   4   5
HETATM    5  C8  UNL     1     -35.127   5.344   3.897  1.00 20.00     0.032 C 
BRANCH   5   6
HETATM    6  C9  UNL     1     -33.782   5.604   3.204  1.00 20.00     0.118 C 
BRANCH   6   7
HETATM    7  C7  UNL     1     -33.394   7.088   3.161  1.00 20.00     0.031 C 
BRANCH   7   8
HETATM    8  C5  UNL     1     -31.980   7.338   2.637  1.00 20.00    -0.002 C 
HETATM    9  C3  UNL     1     -31.963   8.455   1.603  1.00 20.00     0.005 C 
ENDBRANCH   7   8
ENDBRANCH   6   7
BRANCH   6  10
HETATM   10  O10 UNL     1     -33.846   5.129   1.858  1.00 20.00    -0.396 OA
HETATM   11  H26 UNL     1     -32.966   4.782   1.649  1.00 20.00     0.210 HD
ENDBRANCH   6  10
ENDBRANCH   5   6
ENDBRANCH   4   5
ENDBRANCH   3   4
TORSDOF 6
ENDMDL
MODEL 6
REMARK VINA RESULT:      -4.5      1.783      2.253
REMARK  6 active torsions:
REMARK  status: ('A' for Active; 'I' for Inactive)
REMARK    1  A    between atoms: C4_4  and  C6_6 
REMARK    2  A    between atoms: C5_5  and  C7_7 
REMARK    3  A    between atoms: C6_6  and  C8_8 
REMARK    4  A    between atoms: C7_7  and  C9_9 
REMARK    5  A    between atoms: C8_8  and  C9_9 
REMARK    6  A    between atoms: C9_9  and  O10_10 
ROOT
HETATM    1  C1  UNL     1     -32.457   9.331   1.376  1.00 20.00     0.012 C 
HETATM    2  C2  UNL     1     -32.082   8.456   2.106  1.00 20.00    -0.117 C 
HETATM    3  C4  UNL     1     -31.617   7.387   3.001  1.00 20.00     0.093 C 
ENDROOT
BRANCH   3   4
HETATM    4  C6  UNL     1     -32.738   6.415   3.375  1.00 20.00     0.014 C 
BRANCH   4   5
HETATM    5  C8  UNL     1     -33.684   6.978   4.446  1.00 20.00     0.032 C 
BRANCH   5   6
HETATM    6  C9  UNL     1     -33.424   6.360   5.827  1.00 20.00     0.118 C 
BRANCH   6   7
HETATM    7  C7  UNL     1     -34.655   5.671   6.430  1.00 20.00     0.031 C 
BRANCH   7   8
HETATM    8  C5  UNL     1     -34.796   4.203   6.029  1.00 20.00    -0.002 C 
HETATM    9  C3  UNL     1     -35.311   4.066   4.603  1.00 20.00     0.005 C 
ENDBRANCH   7   8
ENDBRANCH   6   7
BRANCH   6  10
HETATM   10  O10 UNL     1     -33.010   7.386   6.732  1.00 20.00    -0.396 OA
HETATM   11  H26 UNL     1     -32.068   7.535   6.563  1.00 20.00     0.210 HD
ENDBRANCH   6  10
ENDBRANCH   5   6
ENDBRANCH   4   5
ENDBRANCH   3   4
TORSDOF 6
ENDMDL
MODEL 7
REMARK VINA RESULT:      -4.4      1.464      4.761
REMARK  6 active torsions:
REMARK  status: ('A' for Active; 'I' for Inactive)
REMARK    1  A    between atoms: C4_4  and  C6_6 
REMARK    2  A    between atoms: C5_5  and  C7_7 
REMARK    3  A    between atoms: C6_6  and  C8_8 
REMARK    4  A    between atoms: C7_7  and  C9_9 
REMARK    5  A    between atoms: C8_8  and  C9_9 
REMARK    6  A    between atoms: C9_9  and  O10_10 
ROOT
HETATM    1  C1  UNL     1     -35.117   3.754   5.033  1.00 20.00     0.012 C 
HETATM    2  C2  UNL     1     -34.807   4.687   5.721  1.00 20.00    -0.117 C 
HETATM    3  C4  UNL     1     -34.430   5.827   6.569  1.00 20.00     0.093 C 
ENDROOT
BRANCH   3   4
HETATM    4  C6  UNL     1     -33.622   6.877   5.803  1.00 20.00     0.014 C 
BRANCH   4   5
HETATM    5  C8  UNL     1     -33.807   6.779   4.281  1.00 20.00     0.032 C 
BRANCH   5   6
HETATM    6  C9  UNL     1     -32.483   6.504   3.556  1.00 20.00     0.118 C 
BRANCH   6   7
HETATM    7  C7  UNL     1     -31.733   7.779   3.146  1.00 20.00     0.031 C 
BRANCH   7   8
HETATM    8  C5  UNL     1     -31.982   8.199   1.698  1.00 20.00    -0.002 C 
HETATM    9  C3  UNL     1     -32.520   9.620   1.619  1.00 20.00     0.005 C 
ENDBRANCH   7   8
ENDBRANCH   6   7
BRANCH   6  10
HETATM   10  O10 UNL     1     -32.743   5.749   2.371  1.00 20.00    -0.396 OA
HETATM   11  H26 UNL     1     -33.705   5.737   2.260  1.00 20.00     0.210 HD
ENDBRANCH   6  10
ENDBRANCH   5   6
ENDBRANCH   4   5
ENDBRANCH   3   4
TORSDOF 6
ENDMDL
MODEL 8
REMARK VINA RESULT:      -4.3     10.962     12.084
REMARK  6 active torsions:
REMARK  status: ('A' for Active; 'I' for Inactive)
REMARK    1  A    between atoms: C4_4  and  C6_6 
REMARK    2  A    between atoms: C5_5  and  C7_7 
REMARK    3  A    between atoms: C6_6  and  C8_8 
REMARK    4  A    between atoms: C7_7  and  C9_9 
REMARK    5  A    between atoms: C8_8  and  C9_9 
REMARK    6  A    between atoms: C9_9  and  O10_10 
ROOT
HETATM    1  C1  UNL     1     -32.844  18.606  -0.625  1.00 20.00     0.012 C 
HETATM    2  C2  UNL     1     -33.673  17.738  -0.624  1.00 20.00    -0.117 C 
HETATM    3  C4  UNL     1     -34.688  16.675  -0.618  1.00 20.00     0.093 C 
ENDROOT
BRANCH   3   4
HETATM    4  C6  UNL     1     -34.766  15.939  -1.958  1.00 20.00     0.014 C 
BRANCH   4   5
HETATM    5  C8  UNL     1     -33.571  16.240  -2.874  1.00 20.00     0.032 C 
BRANCH   5   6
HETATM    6  C9  UNL     1     -33.268  15.076  -3.827  1.00 20.00     0.118 C 
BRANCH   6   7
HETATM    7  C7  UNL     1     -34.169  13.854  -3.606  1.00 20.00     0.031 C 
BRANCH   7   8
HETATM    8  C5  UNL     1     -34.784  13.302  -4.892  1.00 20.00    -0.002 C 
HETATM    9  C3  UNL     1     -34.798  14.353  -5.993  1.00 20.00     0.005 C 
ENDBRANCH   7   8
ENDBRANCH   6   7
BRANCH   6  10
HETATM   10  O10 UNL     1     -31.913  14.658  -3.646  1.00 20.00    -0.396 OA
HETATM   11  H26 UNL     1     -31.829  14.402  -2.716  1.00 20.00     0.210 HD
ENDBRANCH   6  10
ENDBRANCH   5   6
ENDBRANCH   4   5
ENDBRANCH   3   4
TORSDOF 6
ENDMDL
MODEL 9
REMARK VINA RESULT:      -4.2     10.909     12.304
REMARK  6 active torsions:
REMARK  status: ('A' for Active; 'I' for Inactive)
REMARK    1  A    between atoms: C4_4  and  C6_6 
REMARK    2  A    between atoms: C5_5  and  C7_7 
REMARK    3  A    between atoms: C6_6  and  C8_8 
REMARK    4  A    between atoms: C7_7  and  C9_9 
REMARK    5  A    between atoms: C8_8  and  C9_9 
REMARK    6  A    between atoms: C9_9  and  O10_10 
ROOT
HETATM    1  C1  UNL     1     -33.769  17.472  -5.985  1.00 20.00     0.012 C 
HETATM    2  C2  UNL     1     -34.085  16.371  -6.344  1.00 20.00    -0.117 C 
HETATM    3  C4  UNL     1     -34.470  15.024  -6.787  1.00 20.00     0.093 C 
ENDROOT
BRANCH   3   4
HETATM    4  C6  UNL     1     -35.290  14.278  -5.732  1.00 20.00     0.014 C 
BRANCH   4   5
HETATM    5  C8  UNL     1     -34.455  13.267  -4.933  1.00 20.00     0.032 C 
BRANCH   5   6
HETATM    6  C9  UNL     1     -33.960  13.851  -3.602  1.00 20.00     0.118 C 
BRANCH   6   7
HETATM    7  C7  UNL     1     -34.821  15.013  -3.088  1.00 20.00     0.031 C 
BRANCH   7   8
HETATM    8  C5  UNL     1     -34.010  16.154  -2.474  1.00 20.00    -0.002 C 
HETATM    9  C3  UNL     1     -34.557  16.550  -1.110  1.00 20.00     0.005 C 
ENDBRANCH   7   8
ENDBRANCH   6   7
BRANCH   6  10
HETATM   10  O10 UNL     1     -32.626  14.335  -3.766  1.00 20.00    -0.396 OA
HETATM   11  H26 UNL     1     -32.079  13.562  -3.971  1.00 20.00     0.210 HD
ENDBRANCH   6  10
ENDBRANCH   5   6
ENDBRANCH   4   5
ENDBRANCH   3   4
TORSDOF 6
ENDMDL
