MODEL 1
REMARK VINA RESULT:      -4.0      0.000      0.000
REMARK  2 active torsions:
REMARK  status: ('A' for Active; 'I' for Inactive)
REMARK    1  A    between atoms: C5_5  and  N8_8 
REMARK    2  A    between atoms: C6_6  and  N8_8 
ROOT
HETATM    1  N8  UNL     1     -33.497   6.118   5.064  1.00 20.00     0.097 N 
HETATM    2  H22 UNL     1     -32.802   5.420   5.316  1.00 20.00     0.317 HD
ENDROOT
BRANCH   1   3
HETATM    3  C5  UNL     1     -33.453   6.322   3.613  1.00 20.00     0.225 A 
HETATM    4  C1  UNL     1     -32.358   5.684   2.797  1.00 20.00     0.042 A 
HETATM    5  C4  UNL     1     -32.390   7.178   2.967  1.00 20.00     0.016 A 
HETATM    6  C7  UNL     1     -31.332   7.862   3.763  1.00 20.00     0.012 C 
ENDBRANCH   1   3
BRANCH   1   7
HETATM    7  C6  UNL     1     -34.815   5.666   5.477  1.00 20.00     0.268 C 
HETATM    8  C2  UNL     1     -34.683   4.278   6.101  1.00 20.00     0.205 C 
HETATM    9  O9  UNL     1     -35.098   3.640   4.866  1.00 20.00    -0.387 OA
HETATM   10  C3  UNL     1     -35.468   4.928   4.308  1.00 20.00     0.205 C 
ENDBRANCH   1   7
TORSDOF 2
ENDMDL
MODEL 2
REMARK VINA RESULT:      -3.9      2.246      4.218
REMARK  2 active torsions:
REMARK  status: ('A' for Active; 'I' for Inactive)
REMARK    1  A    between atoms: C5_5  and  N8_8 
REMARK    2  A    between atoms: C6_6  and  N8_8 
ROOT
HETATM    1  N8  UNL     1     -33.449   6.480   4.102  1.00 20.00     0.097 N 
HETATM    2  H22 UNL     1     -33.930   7.366   3.976  1.00 20.00     0.317 HD
ENDROOT
BRANCH   1   3
HETATM    3  C5  UNL     1     -34.338   5.397   3.671  1.00 20.00     0.225 A 
HETATM    4  C1  UNL     1     -35.826   5.524   3.865  1.00 20.00     0.042 A 
HETATM    5  C4  UNL     1     -35.051   4.516   4.668  1.00 20.00     0.016 A 
HETATM    6  C7  UNL     1     -34.893   4.696   6.140  1.00 20.00     0.012 C 
ENDBRANCH   1   3
BRANCH   1   7
HETATM    7  C6  UNL     1     -32.222   6.476   3.322  1.00 20.00     0.268 C 
HETATM    8  C2  UNL     1     -31.352   7.648   3.773  1.00 20.00     0.205 C 
HETATM    9  O9  UNL     1     -31.795   8.458   2.653  1.00 20.00    -0.387 OA
HETATM   10  C3  UNL     1     -32.443   7.304   2.057  1.00 20.00     0.205 C 
ENDBRANCH   1   7
TORSDOF 2
ENDMDL
MODEL 3
REMARK VINA RESULT:      -3.9     11.704     12.708
REMARK  2 active torsions:
REMARK  status: ('A' for Active; 'I' for Inactive)
REMARK    1  A    between atoms: C5_5  and  N8_8 
REMARK    2  A    between atoms: C6_6  and  N8_8 
ROOT
HETATM    1  N8  UNL     1     -34.741  15.752  -3.893  1.00 20.00     0.097 N 
HETATM    2  H22 UNL     1     -35.700  15.466  -3.716  1.00 20.00     0.317 HD
ENDROOT
BRANCH   1   3
HETATM    3  C5  UNL     1     -34.039  15.861  -2.611  1.00 20.00     0.225 A 
HETATM    4  C1  UNL     1     -34.773  16.353  -1.391  1.00 20.00     0.042 A 
HETATM    5  C4  UNL     1     -33.697  17.202  -2.008  1.00 20.00     0.016 A 
HETATM    6  C7  UNL     1     -34.052  18.486  -2.679  1.00 20.00     0.012 C 
ENDBRANCH   1   3
BRANCH   1   7
HETATM    7  C6  UNL     1     -34.091  14.776  -4.751  1.00 20.00     0.268 C 
HETATM    8  C2  UNL     1     -35.150  13.816  -5.291  1.00 20.00     0.205 C 
HETATM    9  O9  UNL     1     -34.817  12.823  -4.288  1.00 20.00    -0.387 OA
HETATM   10  C3  UNL     1     -33.649  13.589  -3.895  1.00 20.00     0.205 C 
ENDBRANCH   1   7
TORSDOF 2
ENDMDL
MODEL 4
REMARK VINA RESULT:      -3.7     12.392     12.894
REMARK  2 active torsions:
REMARK  status: ('A' for Active; 'I' for Inactive)
REMARK    1  A    between atoms: C5_5  and  N8_8 
REMARK    2  A    between atoms: C6_6  and  N8_8 
ROOT
HETATM    1  N8  UNL     1     -36.489  16.336  -2.557  1.00 20.00     0.097 N 
HETATM    2  H22 UNL     1     -36.410  15.502  -1.982  1.00 20.00     0.317 HD
ENDROOT
BRANCH   1   3
HETATM    3  C5  UNL     1     -35.158  16.930  -2.709  1.00 20.00     0.225 A 
HETATM    4  C1  UNL     1     -33.930  16.116  -2.390  1.00 20.00     0.042 A 
HETATM    5  C4  UNL     1     -34.305  17.278  -1.513  1.00 20.00     0.016 A 
HETATM    6  C7  UNL     1     -34.767  17.041  -0.115  1.00 20.00     0.012 C 
ENDBRANCH   1   3
BRANCH   1   7
HETATM    7  C6  UNL     1     -37.045  15.985  -3.854  1.00 20.00     0.268 C 
HETATM    8  C2  UNL     1     -38.511  15.597  -3.669  1.00 20.00     0.205 C 
HETATM    9  O9  UNL     1     -38.178  14.185  -3.680  1.00 20.00    -0.387 OA
HETATM   10  C3  UNL     1     -36.822  14.493  -4.094  1.00 20.00     0.205 C 
ENDBRANCH   1   7
TORSDOF 2
ENDMDL
MODEL 5
REMARK VINA RESULT:      -3.6     12.629     13.730
REMARK  2 active torsions:
REMARK  status: ('A' for Active; 'I' for Inactive)
REMARK    1  A    between atoms: C5_5  and  N8_8 
REMARK    2  A    between atoms: C6_6  and  N8_8 
ROOT
HETATM    1  N8  UNL     1     -34.022  15.172  -5.591  1.00 20.00     0.097 N 
HETATM    2  H22 UNL     1     -33.323  14.533  -5.959  1.00 20.00     0.317 HD
ENDROOT
BRANCH   1   3
HETATM    3  C5  UNL     1     -35.207  15.120  -6.453  1.00 20.00     0.225 A 
HETATM    4  C1  UNL     1     -35.058  14.802  -7.918  1.00 20.00     0.042 A 
HETATM    5  C4  UNL     1     -35.477  16.182  -7.491  1.00 20.00     0.016 A 
HETATM    6  C7  UNL     1     -34.560  17.339  -7.698  1.00 20.00     0.012 C 
ENDBRANCH   1   3
BRANCH   1   7
HETATM    7  C6  UNL     1     -34.362  14.792  -4.230  1.00 20.00     0.268 C 
HETATM    8  C2  UNL     1     -33.650  13.483  -3.895  1.00 20.00     0.205 C 
HETATM    9  O9  UNL     1     -34.849  12.715  -4.170  1.00 20.00    -0.387 OA
HETATM   10  C3  UNL     1     -35.628  13.936  -4.263  1.00 20.00     0.205 C 
ENDBRANCH   1   7
TORSDOF 2
ENDMDL
MODEL 6
REMARK VINA RESULT:      -3.6     12.539     13.704
REMARK  2 active torsions:
REMARK  status: ('A' for Active; 'I' for Inactive)
REMARK    1  A    between atoms: C5_5  and  N8_8 
REMARK    2  A    between atoms: C6_6  and  N8_8 
ROOT
HETATM    1  N8  UNL     1     -33.673  15.355  -5.276  1.00 20.00     0.097 N 
HETATM    2  H22 UNL     1     -34.327  15.306  -6.052  1.00 20.00     0.317 HD
ENDROOT
BRANCH   1   3
HETATM    3  C5  UNL     1     -33.328  16.760  -5.040  1.00 20.00     0.225 A 
HETATM    4  C1  UNL     1     -34.402  17.744  -4.655  1.00 20.00     0.042 A 
HETATM    5  C4  UNL     1     -33.741  17.848  -6.001  1.00 20.00     0.016 A 
HETATM    6  C7  UNL     1     -34.518  17.558  -7.240  1.00 20.00     0.012 C 
ENDBRANCH   1   3
BRANCH   1   7
HETATM    7  C6  UNL     1     -34.277  14.771  -4.090  1.00 20.00     0.268 C 
HETATM    8  C2  UNL     1     -33.649  13.399  -3.847  1.00 20.00     0.205 C 
HETATM    9  O9  UNL     1     -34.772  12.730  -4.474  1.00 20.00    -0.387 OA
HETATM   10  C3  UNL     1     -35.514  13.977  -4.512  1.00 20.00     0.205 C 
ENDBRANCH   1   7
TORSDOF 2
ENDMDL
MODEL 7
REMARK VINA RESULT:      -3.6     11.952     12.870
REMARK  2 active torsions:
REMARK  status: ('A' for Active; 'I' for Inactive)
REMARK    1  A    between atoms: C5_5  and  N8_8 
REMARK    2  A    between atoms: C6_6  and  N8_8 
ROOT
HETATM    1  N8  UNL     1     -34.225  16.122  -3.668  1.00 20.00     0.097 N 
HETATM    2  H22 UNL     1     -33.233  16.335  -3.729  1.00 20.00     0.317 HD
ENDROOT
BRANCH   1   3
HETATM    3  C5  UNL     1     -34.382  14.717  -3.282  1.00 20.00     0.225 A 
HETATM    4  C1  UNL     1     -33.369  13.696  -3.732  1.00 20.00     0.042 A 
HETATM    5  C4  UNL     1     -34.766  13.658  -4.288  1.00 20.00     0.016 A 
HETATM    6  C7  UNL     1     -35.008  13.981  -5.723  1.00 20.00     0.012 C 
ENDBRANCH   1   3
BRANCH   1   7
HETATM    7  C6  UNL     1     -34.852  16.995  -2.689  1.00 20.00     0.268 C 
HETATM    8  C2  UNL     1     -33.848  18.070  -2.277  1.00 20.00     0.205 C 
HETATM    9  O9  UNL     1     -33.501  17.340  -1.073  1.00 20.00    -0.387 OA
HETATM   10  C3  UNL     1     -34.604  16.422  -1.294  1.00 20.00     0.205 C 
ENDBRANCH   1   7
TORSDOF 2
ENDMDL
MODEL 8
REMARK VINA RESULT:      -3.6      9.790     11.218
REMARK  2 active torsions:
REMARK  status: ('A' for Active; 'I' for Inactive)
REMARK    1  A    between atoms: C5_5  and  N8_8 
REMARK    2  A    between atoms: C6_6  and  N8_8 
ROOT
HETATM    1  N8  UNL     1     -41.550   3.678  -1.820  1.00 20.00     0.097 N 
HETATM    2  H22 UNL     1     -41.280   2.926  -1.192  1.00 20.00     0.317 HD
ENDROOT
BRANCH   1   3
HETATM    3  C5  UNL     1     -42.655   3.212  -2.664  1.00 20.00     0.225 A 
HETATM    4  C1  UNL     1     -43.176   1.807  -2.511  1.00 20.00     0.042 A 
HETATM    5  C4  UNL     1     -42.438   2.199  -3.761  1.00 20.00     0.016 A 
HETATM    6  C7  UNL     1     -41.095   1.618  -4.050  1.00 20.00     0.012 C 
ENDBRANCH   1   3
BRANCH   1   7
HETATM    7  C6  UNL     1     -41.953   4.841  -1.046  1.00 20.00     0.268 C 
HETATM    8  C2  UNL     1     -42.138   6.022  -1.997  1.00 20.00     0.205 C 
HETATM    9  O9  UNL     1     -40.823   6.541  -1.670  1.00 20.00    -0.387 OA
HETATM   10  C3  UNL     1     -40.698   5.582  -0.588  1.00 20.00     0.205 C 
ENDBRANCH   1   7
TORSDOF 2
ENDMDL
MODEL 9
REMARK VINA RESULT:      -3.5     11.988     12.758
REMARK  2 active torsions:
REMARK  status: ('A' for Active; 'I' for Inactive)
REMARK    1  A    between atoms: C5_5  and  N8_8 
REMARK    2  A    between atoms: C6_6  and  N8_8 
ROOT
HETATM    1  N8  UNL     1     -35.620  15.961  -3.120  1.00 20.00     0.097 N 
HETATM    2  H22 UNL     1     -36.476  16.306  -2.695  1.00 20.00     0.317 HD
ENDROOT
BRANCH   1   3
HETATM    3  C5  UNL     1     -34.582  15.883  -2.087  1.00 20.00     0.225 A 
HETATM    4  C1  UNL     1     -34.747  16.643  -0.796  1.00 20.00     0.042 A 
HETATM    5  C4  UNL     1     -33.685  17.057  -1.777  1.00 20.00     0.016 A 
HETATM    6  C7  UNL     1     -33.802  18.356  -2.500  1.00 20.00     0.012 C 
ENDBRANCH   1   3
BRANCH   1   7
HETATM    7  C6  UNL     1     -35.858  14.652  -3.705  1.00 20.00     0.268 C 
HETATM    8  C2  UNL     1     -34.537  13.885  -3.741  1.00 20.00     0.205 C 
HETATM    9  O9  UNL     1     -34.333  14.223  -5.137  1.00 20.00    -0.387 OA
HETATM   10  C3  UNL     1     -35.681  14.755  -5.220  1.00 20.00     0.205 C 
ENDBRANCH   1   7
TORSDOF 2
ENDMDL
