MODEL 1
REMARK VINA RESULT:      -5.7      0.000      0.000
REMARK  3 active torsions:
REMARK  status: ('A' for Active; 'I' for Inactive)
REMARK    1  A    between atoms: C6_6  and  C9_9 
REMARK    2  A    between atoms: C7_7  and  O10_10 
REMARK    3  A    between atoms: C8_8  and  C9_9 
ROOT
HETATM    1  C1  UNL     1     -32.137   9.179   1.067  1.00 20.00     0.012 C 
HETATM    2  C2  UNL     1     -32.089   8.326   1.911  1.00 20.00    -0.117 C 
HETATM    3  C8  UNL     1     -32.026   7.283   2.942  1.00 20.00     0.093 C 
ENDROOT
BRANCH   3   4
HETATM    4  C9  UNL     1     -33.186   7.426   3.913  1.00 20.00     0.019 C 
BRANCH   4   5
HETATM    5  C6  UNL     1     -33.591   6.074   4.481  1.00 20.00     0.015 C 
HETATM    6  C4  UNL     1     -34.034   6.144   5.940  1.00 20.00     0.007 C 
HETATM    7  C3  UNL     1     -34.878   4.887   6.154  1.00 20.00     0.003 C 
HETATM    8  C5  UNL     1     -35.246   4.375   4.762  1.00 20.00     0.032 C 
HETATM    9  C7  UNL     1     -34.817   5.475   3.797  1.00 20.00     0.122 C 
BRANCH   9  10
HETATM   10  O10 UNL     1     -34.489   4.950   2.525  1.00 20.00    -0.395 OA
HETATM   11  H24 UNL     1     -33.561   5.180   2.351  1.00 20.00     0.210 HD
ENDBRANCH   9  10
ENDBRANCH   4   5
ENDBRANCH   3   4
TORSDOF 3
ENDMDL
MODEL 2
REMARK VINA RESULT:      -5.7      1.580      2.021
REMARK  3 active torsions:
REMARK  status: ('A' for Active; 'I' for Inactive)
REMARK    1  A    between atoms: C6_6  and  C9_9 
REMARK    2  A    between atoms: C7_7  and  O10_10 
REMARK    3  A    between atoms: C8_8  and  C9_9 
ROOT
HETATM    1  C1  UNL     1     -32.240   9.483   1.374  1.00 20.00     0.012 C 
HETATM    2  C2  UNL     1     -32.266   8.380   1.847  1.00 20.00    -0.117 C 
HETATM    3  C8  UNL     1     -32.295   7.029   2.422  1.00 20.00     0.093 C 
ENDROOT
BRANCH   3   4
HETATM    4  C9  UNL     1     -32.449   7.100   3.932  1.00 20.00     0.019 C 
BRANCH   4   5
HETATM    5  C6  UNL     1     -33.796   6.544   4.369  1.00 20.00     0.015 C 
HETATM    6  C4  UNL     1     -34.271   5.374   3.510  1.00 20.00     0.007 C 
HETATM    7  C3  UNL     1     -35.291   4.638   4.380  1.00 20.00     0.003 C 
HETATM    8  C5  UNL     1     -35.064   5.124   5.811  1.00 20.00     0.032 C 
HETATM    9  C7  UNL     1     -33.773   5.932   5.767  1.00 20.00     0.122 C 
BRANCH   9  10
HETATM   10  O10 UNL     1     -33.754   6.935   6.764  1.00 20.00    -0.395 OA
HETATM   11  H24 UNL     1     -34.557   6.821   7.301  1.00 20.00     0.210 HD
ENDBRANCH   9  10
ENDBRANCH   4   5
ENDBRANCH   3   4
TORSDOF 3
ENDMDL
MODEL 3
REMARK VINA RESULT:      -4.9     11.109     12.216
REMARK  3 active torsions:
REMARK  status: ('A' for Active; 'I' for Inactive)
REMARK    1  A    between atoms: C6_6  and  C9_9 
REMARK    2  A    between atoms: C7_7  and  O10_10 
REMARK    3  A    between atoms: C8_8  and  C9_9 
ROOT
HETATM    1  C1  UNL     1     -34.795  17.026  -0.071  1.00 20.00     0.012 C 
HETATM    2  C2  UNL     1     -34.362  16.834  -1.174  1.00 20.00    -0.117 C 
HETATM    3  C8  UNL     1     -33.830  16.604  -2.524  1.00 20.00     0.093 C 
ENDROOT
BRANCH   3   4
HETATM    4  C9  UNL     1     -33.976  15.141  -2.908  1.00 20.00     0.019 C 
BRANCH   4   5
HETATM    5  C6  UNL     1     -34.666  14.999  -4.257  1.00 20.00     0.015 C 
HETATM    6  C4  UNL     1     -34.042  15.868  -5.346  1.00 20.00     0.007 C 
HETATM    7  C3  UNL     1     -34.472  15.216  -6.661  1.00 20.00     0.003 C 
HETATM    8  C5  UNL     1     -34.944  13.806  -6.307  1.00 20.00     0.032 C 
HETATM    9  C7  UNL     1     -34.548  13.598  -4.850  1.00 20.00     0.122 C 
BRANCH   9  10
HETATM   10  O10 UNL     1     -35.418  12.691  -4.201  1.00 20.00    -0.395 OA
HETATM   11  H24 UNL     1     -35.718  13.119  -3.381  1.00 20.00     0.210 HD
ENDBRANCH   9  10
ENDBRANCH   4   5
ENDBRANCH   3   4
TORSDOF 3
ENDMDL
MODEL 4
REMARK VINA RESULT:      -4.9     11.178     11.818
REMARK  3 active torsions:
REMARK  status: ('A' for Active; 'I' for Inactive)
REMARK    1  A    between atoms: C6_6  and  C9_9 
REMARK    2  A    between atoms: C7_7  and  O10_10 
REMARK    3  A    between atoms: C8_8  and  C9_9 
ROOT
HETATM    1  C1  UNL     1     -32.545  18.995  -0.151  1.00 20.00     0.012 C 
HETATM    2  C2  UNL     1     -33.255  18.107  -0.534  1.00 20.00    -0.117 C 
HETATM    3  C8  UNL     1     -34.127  17.021  -0.999  1.00 20.00     0.093 C 
ENDROOT
BRANCH   3   4
HETATM    4  C9  UNL     1     -33.932  16.785  -2.487  1.00 20.00     0.019 C 
BRANCH   4   5
HETATM    5  C6  UNL     1     -34.195  15.330  -2.847  1.00 20.00     0.015 C 
HETATM    6  C4  UNL     1     -35.622  15.079  -3.327  1.00 20.00     0.007 C 
HETATM    7  C3  UNL     1     -35.545  13.775  -4.121  1.00 20.00     0.003 C 
HETATM    8  C5  UNL     1     -34.066  13.550  -4.434  1.00 20.00     0.032 C 
HETATM    9  C7  UNL     1     -33.363  14.841  -4.030  1.00 20.00     0.122 C 
BRANCH   9  10
HETATM   10  O10 UNL     1     -32.022  14.604  -3.649  1.00 20.00    -0.395 OA
HETATM   11  H24 UNL     1     -31.480  15.297  -4.063  1.00 20.00     0.210 HD
ENDBRANCH   9  10
ENDBRANCH   4   5
ENDBRANCH   3   4
TORSDOF 3
ENDMDL
MODEL 5
REMARK VINA RESULT:      -4.9     11.249     12.730
REMARK  3 active torsions:
REMARK  status: ('A' for Active; 'I' for Inactive)
REMARK    1  A    between atoms: C6_6  and  C9_9 
REMARK    2  A    between atoms: C7_7  and  O10_10 
REMARK    3  A    between atoms: C8_8  and  C9_9 
ROOT
HETATM    1  C1  UNL     1     -34.385  16.869  -0.808  1.00 20.00     0.012 C 
HETATM    2  C2  UNL     1     -34.814  16.241  -1.737  1.00 20.00    -0.117 C 
HETATM    3  C8  UNL     1     -35.342  15.476  -2.874  1.00 20.00     0.093 C 
ENDROOT
BRANCH   3   4
HETATM    4  C9  UNL     1     -34.357  14.395  -3.288  1.00 20.00     0.019 C 
BRANCH   4   5
HETATM    5  C6  UNL     1     -34.164  14.383  -4.797  1.00 20.00     0.015 C 
HETATM    6  C4  UNL     1     -35.397  13.901  -5.557  1.00 20.00     0.007 C 
HETATM    7  C3  UNL     1     -35.224  14.453  -6.973  1.00 20.00     0.003 C 
HETATM    8  C5  UNL     1     -34.167  15.553  -6.879  1.00 20.00     0.032 C 
HETATM    9  C7  UNL     1     -33.939  15.772  -5.388  1.00 20.00     0.122 C 
BRANCH   9  10
HETATM   10  O10 UNL     1     -32.628  16.234  -5.126  1.00 20.00    -0.395 OA
HETATM   11  H24 UNL     1     -32.432  16.927  -5.779  1.00 20.00     0.210 HD
ENDBRANCH   9  10
ENDBRANCH   4   5
ENDBRANCH   3   4
TORSDOF 3
ENDMDL
MODEL 6
REMARK VINA RESULT:      -4.8     11.209     12.246
REMARK  3 active torsions:
REMARK  status: ('A' for Active; 'I' for Inactive)
REMARK    1  A    between atoms: C6_6  and  C9_9 
REMARK    2  A    between atoms: C7_7  and  O10_10 
REMARK    3  A    between atoms: C8_8  and  C9_9 
ROOT
HETATM    1  C1  UNL     1     -34.692  17.482   0.200  1.00 20.00     0.012 C 
HETATM    2  C2  UNL     1     -34.764  16.792  -0.779  1.00 20.00    -0.117 C 
HETATM    3  C8  UNL     1     -34.857  15.948  -1.978  1.00 20.00     0.093 C 
ENDROOT
BRANCH   3   4
HETATM    4  C9  UNL     1     -33.563  16.012  -2.772  1.00 20.00     0.019 C 
BRANCH   4   5
HETATM    5  C6  UNL     1     -33.621  15.091  -3.982  1.00 20.00     0.015 C 
HETATM    6  C4  UNL     1     -34.355  13.781  -3.706  1.00 20.00     0.007 C 
HETATM    7  C3  UNL     1     -34.776  13.270  -5.085  1.00 20.00     0.003 C 
HETATM    8  C5  UNL     1     -34.664  14.461  -6.036  1.00 20.00     0.032 C 
HETATM    9  C7  UNL     1     -34.421  15.673  -5.145  1.00 20.00     0.122 C 
BRANCH   9  10
HETATM   10  O10 UNL     1     -33.686  16.675  -5.821  1.00 20.00    -0.395 OA
HETATM   11  H24 UNL     1     -33.765  16.496  -6.773  1.00 20.00     0.210 HD
ENDBRANCH   9  10
ENDBRANCH   4   5
ENDBRANCH   3   4
TORSDOF 3
ENDMDL
MODEL 7
REMARK VINA RESULT:      -4.8     11.144     11.744
REMARK  3 active torsions:
REMARK  status: ('A' for Active; 'I' for Inactive)
REMARK    1  A    between atoms: C6_6  and  C9_9 
REMARK    2  A    between atoms: C7_7  and  O10_10 
REMARK    3  A    between atoms: C8_8  and  C9_9 
ROOT
HETATM    1  C1  UNL     1     -35.181  17.377   0.620  1.00 20.00     0.012 C 
HETATM    2  C2  UNL     1     -34.436  17.264  -0.315  1.00 20.00    -0.117 C 
HETATM    3  C8  UNL     1     -33.522  17.125  -1.455  1.00 20.00     0.093 C 
ENDROOT
BRANCH   3   4
HETATM    4  C9  UNL     1     -34.303  16.862  -2.732  1.00 20.00     0.019 C 
BRANCH   4   5
HETATM    5  C6  UNL     1     -34.433  15.369  -2.993  1.00 20.00     0.015 C 
HETATM    6  C4  UNL     1     -35.830  14.958  -3.448  1.00 20.00     0.007 C 
HETATM    7  C3  UNL     1     -35.633  13.616  -4.154  1.00 20.00     0.003 C 
HETATM    8  C5  UNL     1     -34.140  13.506  -4.459  1.00 20.00     0.032 C 
HETATM    9  C7  UNL     1     -33.558  14.880  -4.145  1.00 20.00     0.122 C 
BRANCH   9  10
HETATM   10  O10 UNL     1     -32.201  14.792  -3.756  1.00 20.00    -0.395 OA
HETATM   11  H24 UNL     1     -31.696  14.516  -4.539  1.00 20.00     0.210 HD
ENDBRANCH   9  10
ENDBRANCH   4   5
ENDBRANCH   3   4
TORSDOF 3
ENDMDL
MODEL 8
REMARK VINA RESULT:      -4.4     11.210     12.283
REMARK  3 active torsions:
REMARK  status: ('A' for Active; 'I' for Inactive)
REMARK    1  A    between atoms: C6_6  and  C9_9 
REMARK    2  A    between atoms: C7_7  and  O10_10 
REMARK    3  A    between atoms: C8_8  and  C9_9 
ROOT
HETATM    1  C1  UNL     1     -36.470  14.765  -7.864  1.00 20.00     0.012 C 
HETATM    2  C2  UNL     1     -35.595  14.635  -7.052  1.00 20.00    -0.117 C 
HETATM    3  C8  UNL     1     -34.522  14.480  -6.062  1.00 20.00     0.093 C 
ENDROOT
BRANCH   3   4
HETATM    4  C9  UNL     1     -34.997  13.629  -4.895  1.00 20.00     0.019 C 
BRANCH   4   5
HETATM    5  C6  UNL     1     -34.834  14.372  -3.578  1.00 20.00     0.015 C 
HETATM    6  C4  UNL     1     -33.528  15.157  -3.488  1.00 20.00     0.007 C 
HETATM    7  C3  UNL     1     -33.779  16.213  -2.411  1.00 20.00     0.003 C 
HETATM    8  C5  UNL     1     -35.294  16.288  -2.228  1.00 20.00     0.032 C 
HETATM    9  C7  UNL     1     -35.883  15.460  -3.365  1.00 20.00     0.122 C 
BRANCH   9  10
HETATM   10  O10 UNL     1     -37.133  14.904  -3.008  1.00 20.00    -0.395 OA
HETATM   11  H24 UNL     1     -37.820  15.504  -3.343  1.00 20.00     0.210 HD
ENDBRANCH   9  10
ENDBRANCH   4   5
ENDBRANCH   3   4
TORSDOF 3
ENDMDL
MODEL 9
REMARK VINA RESULT:      -4.3     11.681     12.735
REMARK  3 active torsions:
REMARK  status: ('A' for Active; 'I' for Inactive)
REMARK    1  A    between atoms: C6_6  and  C9_9 
REMARK    2  A    between atoms: C7_7  and  O10_10 
REMARK    3  A    between atoms: C8_8  and  C9_9 
ROOT
HETATM    1  C1  UNL     1     -34.480  16.895  -7.359  1.00 20.00     0.012 C 
HETATM    2  C2  UNL     1     -34.820  15.764  -7.146  1.00 20.00    -0.117 C 
HETATM    3  C8  UNL     1     -35.238  14.379  -6.892  1.00 20.00     0.093 C 
ENDROOT
BRANCH   3   4
HETATM    4  C9  UNL     1     -34.755  13.923  -5.525  1.00 20.00     0.019 C 
BRANCH   4   5
HETATM    5  C6  UNL     1     -34.667  15.095  -4.559  1.00 20.00     0.015 C 
HETATM    6  C4  UNL     1     -35.644  14.986  -3.392  1.00 20.00     0.007 C 
HETATM    7  C3  UNL     1     -35.062  15.895  -2.308  1.00 20.00     0.003 C 
HETATM    8  C5  UNL     1     -33.607  16.149  -2.697  1.00 20.00     0.032 C 
HETATM    9  C7  UNL     1     -33.320  15.193  -3.849  1.00 20.00     0.122 C 
BRANCH   9  10
HETATM   10  O10 UNL     1     -32.322  15.703  -4.711  1.00 20.00    -0.395 OA
HETATM   11  H24 UNL     1     -31.513  15.189  -4.549  1.00 20.00     0.210 HD
ENDBRANCH   9  10
ENDBRANCH   4   5
ENDBRANCH   3   4
TORSDOF 3
ENDMDL
