MODEL 1
REMARK VINA RESULT:      -4.7      0.000      0.000
REMARK  0 active torsions:
REMARK  status: ('A' for Active; 'I' for Inactive)
ROOT
HETATM    1  C1  UNL     1     -33.579  18.142  -4.902  1.00 20.00     0.002 A 
HETATM    2  C2  UNL     1     -33.750  17.063  -5.773  1.00 20.00     0.009 A 
HETATM    3  C3  UNL     1     -33.823  17.998  -3.528  1.00 20.00     0.019 A 
HETATM    4  C4  UNL     1     -34.158  15.849  -5.243  1.00 20.00    -0.032 A 
HETATM    5  C5  UNL     1     -34.394  15.706  -3.869  1.00 20.00    -0.033 A 
HETATM    6  C6  UNL     1     -34.239  16.773  -3.001  1.00 20.00     0.017 A 
HETATM    7  C7  UNL     1     -34.856  14.319  -3.548  1.00 20.00     0.042 C 
HETATM    8  C8  UNL     1     -34.400  13.560  -4.806  1.00 20.00     0.030 C 
HETATM    9  C9  UNL     1     -34.432  14.567  -5.969  1.00 20.00     0.116 C 
HETATM   10 CL10 UNL     1     -36.035  14.627  -6.732  1.00 20.00    -0.120 Cl
HETATM   11 BR11 UNL     1     -34.583  16.624  -1.151  1.00 20.00    -0.051 Br
ENDROOT
TORSDOF 0
ENDMDL
MODEL 2
REMARK VINA RESULT:      -4.6      2.755      4.212
REMARK  0 active torsions:
REMARK  status: ('A' for Active; 'I' for Inactive)
ROOT
HETATM    1  C1  UNL     1     -34.420  13.264  -4.719  1.00 20.00     0.002 A 
HETATM    2  C2  UNL     1     -33.908  13.978  -3.634  1.00 20.00     0.009 A 
HETATM    3  C3  UNL     1     -35.114  13.922  -5.745  1.00 20.00     0.019 A 
HETATM    4  C4  UNL     1     -34.096  15.351  -3.602  1.00 20.00    -0.032 A 
HETATM    5  C5  UNL     1     -34.783  16.007  -4.632  1.00 20.00    -0.033 A 
HETATM    6  C6  UNL     1     -35.305  15.305  -5.705  1.00 20.00     0.017 A 
HETATM    7  C7  UNL     1     -34.886  17.475  -4.355  1.00 20.00     0.042 C 
HETATM    8  C8  UNL     1     -33.776  17.653  -3.305  1.00 20.00     0.030 C 
HETATM    9  C9  UNL     1     -33.667  16.320  -2.543  1.00 20.00     0.116 C 
HETATM   10 CL10 UNL     1     -34.792  16.263  -1.169  1.00 20.00    -0.120 Cl
HETATM   11 BR11 UNL     1     -36.266  16.153  -7.091  1.00 20.00    -0.051 Br
ENDROOT
TORSDOF 0
ENDMDL
MODEL 3
REMARK VINA RESULT:      -4.6      5.037      6.606
REMARK  0 active torsions:
REMARK  status: ('A' for Active; 'I' for Inactive)
ROOT
HETATM    1  C1  UNL     1     -35.505  17.765   2.645  1.00 20.00     0.002 A 
HETATM    2  C2  UNL     1     -35.534  17.800   1.249  1.00 20.00     0.009 A 
HETATM    3  C3  UNL     1     -34.350  18.142   3.346  1.00 20.00     0.019 A 
HETATM    4  C4  UNL     1     -34.397  18.223   0.578  1.00 20.00    -0.032 A 
HETATM    5  C5  UNL     1     -33.247  18.605   1.281  1.00 20.00    -0.033 A 
HETATM    6  C6  UNL     1     -33.206  18.562   2.664  1.00 20.00     0.017 A 
HETATM    7  C7  UNL     1     -32.147  18.987   0.340  1.00 20.00     0.042 C 
HETATM    8  C8  UNL     1     -32.942  19.238  -0.953  1.00 20.00     0.030 C 
HETATM    9  C9  UNL     1     -34.176  18.320  -0.901  1.00 20.00     0.116 C 
HETATM   10 CL10 UNL     1     -33.820  16.715  -1.574  1.00 20.00    -0.120 Cl
HETATM   11 BR11 UNL     1     -31.662  19.037   3.641  1.00 20.00    -0.051 Br
ENDROOT
TORSDOF 0
ENDMDL
MODEL 4
REMARK VINA RESULT:      -4.5      2.965      4.034
REMARK  0 active torsions:
REMARK  status: ('A' for Active; 'I' for Inactive)
ROOT
HETATM    1  C1  UNL     1     -33.419  17.781  -5.331  1.00 20.00     0.002 A 
HETATM    2  C2  UNL     1     -33.685  18.625  -4.250  1.00 20.00     0.009 A 
HETATM    3  C3  UNL     1     -33.490  16.387  -5.186  1.00 20.00     0.019 A 
HETATM    4  C4  UNL     1     -34.026  18.050  -3.036  1.00 20.00    -0.032 A 
HETATM    5  C5  UNL     1     -34.103  16.658  -2.894  1.00 20.00    -0.033 A 
HETATM    6  C6  UNL     1     -33.830  15.814  -3.957  1.00 20.00     0.017 A 
HETATM    7  C7  UNL     1     -34.454  16.282  -1.488  1.00 20.00     0.042 C 
HETATM    8  C8  UNL     1     -35.034  17.608  -0.967  1.00 20.00     0.030 C 
HETATM    9  C9  UNL     1     -34.326  18.736  -1.738  1.00 20.00     0.116 C 
HETATM   10 CL10 UNL     1     -32.816  19.221  -0.938  1.00 20.00    -0.120 Cl
HETATM   11 BR11 UNL     1     -33.889  13.934  -3.792  1.00 20.00    -0.051 Br
ENDROOT
TORSDOF 0
ENDMDL
MODEL 5
REMARK VINA RESULT:      -4.5      2.200      2.964
REMARK  0 active torsions:
REMARK  status: ('A' for Active; 'I' for Inactive)
ROOT
HETATM    1  C1  UNL     1     -34.120  17.429  -1.533  1.00 20.00     0.002 A 
HETATM    2  C2  UNL     1     -34.342  16.085  -1.838  1.00 20.00     0.009 A 
HETATM    3  C3  UNL     1     -33.898  18.367  -2.552  1.00 20.00     0.019 A 
HETATM    4  C4  UNL     1     -34.344  15.705  -3.172  1.00 20.00    -0.032 A 
HETATM    5  C5  UNL     1     -34.129  16.645  -4.188  1.00 20.00    -0.033 A 
HETATM    6  C6  UNL     1     -33.896  17.977  -3.894  1.00 20.00     0.017 A 
HETATM    7  C7  UNL     1     -34.143  15.989  -5.534  1.00 20.00     0.042 C 
HETATM    8  C8  UNL     1     -34.861  14.668  -5.209  1.00 20.00     0.030 C 
HETATM    9  C9  UNL     1     -34.531  14.333  -3.743  1.00 20.00     0.116 C 
HETATM   10 CL10 UNL     1     -33.022  13.405  -3.614  1.00 20.00    -0.120 Cl
HETATM   11 BR11 UNL     1     -33.567  19.263  -5.236  1.00 20.00    -0.051 Br
ENDROOT
TORSDOF 0
ENDMDL
MODEL 6
REMARK VINA RESULT:      -4.5      2.036      2.827
REMARK  0 active torsions:
REMARK  status: ('A' for Active; 'I' for Inactive)
ROOT
HETATM    1  C1  UNL     1     -34.829  16.157  -7.772  1.00 20.00     0.002 A 
HETATM    2  C2  UNL     1     -34.737  14.959  -7.062  1.00 20.00     0.009 A 
HETATM    3  C3  UNL     1     -34.469  17.374  -7.174  1.00 20.00     0.019 A 
HETATM    4  C4  UNL     1     -34.275  15.003  -5.755  1.00 20.00    -0.032 A 
HETATM    5  C5  UNL     1     -33.910  16.219  -5.162  1.00 20.00    -0.033 A 
HETATM    6  C6  UNL     1     -34.010  17.412  -5.855  1.00 20.00     0.017 A 
HETATM    7  C7  UNL     1     -33.479  16.013  -3.743  1.00 20.00     0.042 C 
HETATM    8  C8  UNL     1     -33.182  14.503  -3.744  1.00 20.00     0.030 C 
HETATM    9  C9  UNL     1     -34.114  13.868  -4.791  1.00 20.00     0.116 C 
HETATM   10 CL10 UNL     1     -35.686  13.437  -4.085  1.00 20.00    -0.120 Cl
HETATM   11 BR11 UNL     1     -33.560  19.072  -5.074  1.00 20.00    -0.051 Br
ENDROOT
TORSDOF 0
ENDMDL
MODEL 7
REMARK VINA RESULT:      -4.5     12.261     13.458
REMARK  0 active torsions:
REMARK  status: ('A' for Active; 'I' for Inactive)
ROOT
HETATM    1  C1  UNL     1     -40.524   4.733  -0.707  1.00 20.00     0.002 A 
HETATM    2  C2  UNL     1     -40.804   6.101  -0.678  1.00 20.00     0.009 A 
HETATM    3  C3  UNL     1     -41.195   3.884  -1.600  1.00 20.00     0.019 A 
HETATM    4  C4  UNL     1     -41.754   6.597  -1.558  1.00 20.00    -0.032 A 
HETATM    5  C5  UNL     1     -42.417   5.748  -2.454  1.00 20.00    -0.033 A 
HETATM    6  C6  UNL     1     -42.155   4.389  -2.480  1.00 20.00     0.017 A 
HETATM    7  C7  UNL     1     -43.415   6.508  -3.271  1.00 20.00     0.042 C 
HETATM    8  C8  UNL     1     -42.912   7.949  -3.081  1.00 20.00     0.030 C 
HETATM    9  C9  UNL     1     -42.240   8.007  -1.698  1.00 20.00     0.116 C 
HETATM   10 CL10 UNL     1     -43.417   8.378  -0.420  1.00 20.00    -0.120 Cl
HETATM   11 BR11 UNL     1     -43.056   3.212  -3.650  1.00 20.00    -0.051 Br
ENDROOT
TORSDOF 0
ENDMDL
MODEL 8
REMARK VINA RESULT:      -4.4     12.214     13.665
REMARK  0 active torsions:
REMARK  status: ('A' for Active; 'I' for Inactive)
ROOT
HETATM    1  C1  UNL     1     -40.491   5.940  -0.426  1.00 20.00     0.002 A 
HETATM    2  C2  UNL     1     -40.739   4.604  -0.748  1.00 20.00     0.009 A 
HETATM    3  C3  UNL     1     -41.172   6.973  -1.086  1.00 20.00     0.019 A 
HETATM    4  C4  UNL     1     -41.678   4.328  -1.730  1.00 20.00    -0.032 A 
HETATM    5  C5  UNL     1     -42.362   5.361  -2.383  1.00 20.00    -0.033 A 
HETATM    6  C6  UNL     1     -42.114   6.688  -2.078  1.00 20.00     0.017 A 
HETATM    7  C7  UNL     1     -43.293   4.814  -3.420  1.00 20.00     0.042 C 
HETATM    8  C8  UNL     1     -43.417   3.352  -2.959  1.00 20.00     0.030 C 
HETATM    9  C9  UNL     1     -42.093   2.990  -2.264  1.00 20.00     0.116 C 
HETATM   10 CL10 UNL     1     -40.890   2.395  -3.427  1.00 20.00    -0.120 Cl
HETATM   11 BR11 UNL     1     -42.992   8.106  -2.963  1.00 20.00    -0.051 Br
ENDROOT
TORSDOF 0
ENDMDL
MODEL 9
REMARK VINA RESULT:      -4.3      1.693      3.032
REMARK  0 active torsions:
REMARK  status: ('A' for Active; 'I' for Inactive)
ROOT
HETATM    1  C1  UNL     1     -34.412  13.302  -4.615  1.00 20.00     0.002 A 
HETATM    2  C2  UNL     1     -34.978  13.877  -5.755  1.00 20.00     0.009 A 
HETATM    3  C3  UNL     1     -34.316  14.028  -3.418  1.00 20.00     0.019 A 
HETATM    4  C4  UNL     1     -35.447  15.179  -5.670  1.00 20.00    -0.032 A 
HETATM    5  C5  UNL     1     -35.357  15.900  -4.472  1.00 20.00    -0.033 A 
HETATM    6  C6  UNL     1     -34.787  15.341  -3.341  1.00 20.00     0.017 A 
HETATM    7  C7  UNL     1     -35.897  17.286  -4.641  1.00 20.00     0.042 C 
HETATM    8  C8  UNL     1     -36.736  17.120  -5.920  1.00 20.00     0.030 C 
HETATM    9  C9  UNL     1     -36.064  16.013  -6.751  1.00 20.00     0.116 C 
HETATM   10 CL10 UNL     1     -34.801  16.673  -7.811  1.00 20.00    -0.120 Cl
HETATM   11 BR11 UNL     1     -34.617  16.297  -1.722  1.00 20.00    -0.051 Br
ENDROOT
TORSDOF 0
ENDMDL
