MODEL 1
REMARK VINA RESULT:      -5.2      0.000      0.000
REMARK  4 active torsions:
REMARK  status: ('A' for Active; 'I' for Inactive)
REMARK    1  A    between atoms: C3_3  and  C9_9 
REMARK    2  A    between atoms: C6_6  and  C8_8 
REMARK    3  A    between atoms: C7_7  and  C9_9 
REMARK    4  A    between atoms: C8_8  and  C9_9 
ROOT
HETATM    1  C1  UNL     1     -32.173   8.786   1.201  1.00 20.00     0.012 C 
HETATM    2  C2  UNL     1     -32.051   8.134   2.200  1.00 20.00    -0.117 C 
HETATM    3  C6  UNL     1     -31.899   7.336   3.426  1.00 20.00     0.093 C 
ENDROOT
BRANCH   3   4
HETATM    4  C8  UNL     1     -32.867   6.147   3.432  1.00 20.00     0.024 C 
BRANCH   4   5
HETATM    5  C9  UNL     1     -33.978   6.303   4.486  1.00 20.00     0.055 C 
BRANCH   5   6
HETATM    6  C3  UNL     1     -35.129   5.322   4.257  1.00 20.00     0.127 C 
HETATM    7  C4  UNL     1     -35.110   4.047   5.062  1.00 20.00     0.091 C 
HETATM    8  O10 UNL     1     -36.052   5.559   3.476  1.00 20.00    -0.298 OA
ENDBRANCH   5   6
BRANCH   5   9
HETATM    9  C7  UNL     1     -33.441   6.166   5.922  1.00 20.00     0.007 C 
HETATM   10  C5  UNL     1     -33.703   7.366   6.823  1.00 20.00     0.006 C 
ENDBRANCH   5   9
ENDBRANCH   4   5
ENDBRANCH   3   4
TORSDOF 4
ENDMDL
MODEL 2
REMARK VINA RESULT:      -4.9      1.568      2.215
REMARK  4 active torsions:
REMARK  status: ('A' for Active; 'I' for Inactive)
REMARK    1  A    between atoms: C3_3  and  C9_9 
REMARK    2  A    between atoms: C6_6  and  C8_8 
REMARK    3  A    between atoms: C7_7  and  C9_9 
REMARK    4  A    between atoms: C8_8  and  C9_9 
ROOT
HETATM    1  C1  UNL     1     -32.188   9.071   1.471  1.00 20.00     0.012 C 
HETATM    2  C2  UNL     1     -32.126   8.075   2.137  1.00 20.00    -0.117 C 
HETATM    3  C6  UNL     1     -32.047   6.854   2.953  1.00 20.00     0.093 C 
ENDROOT
BRANCH   3   4
HETATM    4  C8  UNL     1     -32.983   6.940   4.163  1.00 20.00     0.024 C 
BRANCH   4   5
HETATM    5  C9  UNL     1     -33.648   5.589   4.484  1.00 20.00     0.055 C 
BRANCH   5   6
HETATM    6  C3  UNL     1     -34.315   5.589   5.861  1.00 20.00     0.127 C 
HETATM    7  C4  UNL     1     -35.021   4.323   6.277  1.00 20.00     0.091 C 
HETATM    8  O10 UNL     1     -34.264   6.559   6.619  1.00 20.00    -0.298 OA
ENDBRANCH   5   6
BRANCH   5   9
HETATM    9  C7  UNL     1     -34.659   5.166   3.404  1.00 20.00     0.007 C 
HETATM   10  C5  UNL     1     -35.939   5.992   3.363  1.00 20.00     0.006 C 
ENDBRANCH   5   9
ENDBRANCH   4   5
ENDBRANCH   3   4
TORSDOF 4
ENDMDL
MODEL 3
REMARK VINA RESULT:      -4.7     10.974     11.822
REMARK  4 active torsions:
REMARK  status: ('A' for Active; 'I' for Inactive)
REMARK    1  A    between atoms: C3_3  and  C9_9 
REMARK    2  A    between atoms: C6_6  and  C8_8 
REMARK    3  A    between atoms: C7_7  and  C9_9 
REMARK    4  A    between atoms: C8_8  and  C9_9 
ROOT
HETATM    1  C1  UNL     1     -35.172  17.434   0.793  1.00 20.00     0.012 C 
HETATM    2  C2  UNL     1     -34.670  17.126  -0.253  1.00 20.00    -0.117 C 
HETATM    3  C6  UNL     1     -34.052  16.750  -1.533  1.00 20.00     0.093 C 
ENDROOT
BRANCH   3   4
HETATM    4  C8  UNL     1     -34.979  15.840  -2.345  1.00 20.00     0.024 C 
BRANCH   4   5
HETATM    5  C9  UNL     1     -34.218  14.692  -3.032  1.00 20.00     0.055 C 
BRANCH   5   6
HETATM    6  C3  UNL     1     -35.131  13.849  -3.924  1.00 20.00     0.127 C 
HETATM    7  C4  UNL     1     -36.539  14.351  -4.127  1.00 20.00     0.091 C 
HETATM    8  O10 UNL     1     -34.743  12.821  -4.481  1.00 20.00    -0.298 OA
ENDBRANCH   5   6
BRANCH   5   9
HETATM    9  C7  UNL     1     -33.006  15.194  -3.835  1.00 20.00     0.007 C 
HETATM   10  C5  UNL     1     -33.337  16.181  -4.948  1.00 20.00     0.006 C 
ENDBRANCH   5   9
ENDBRANCH   4   5
ENDBRANCH   3   4
TORSDOF 4
ENDMDL
MODEL 4
REMARK VINA RESULT:      -4.6     11.211     12.306
REMARK  4 active torsions:
REMARK  status: ('A' for Active; 'I' for Inactive)
REMARK    1  A    between atoms: C3_3  and  C9_9 
REMARK    2  A    between atoms: C6_6  and  C8_8 
REMARK    3  A    between atoms: C7_7  and  C9_9 
REMARK    4  A    between atoms: C8_8  and  C9_9 
ROOT
HETATM    1  C1  UNL     1     -34.705  16.773  -0.663  1.00 20.00     0.012 C 
HETATM    2  C2  UNL     1     -34.229  16.695  -1.762  1.00 20.00    -0.117 C 
HETATM    3  C6  UNL     1     -33.646  16.602  -3.108  1.00 20.00     0.093 C 
ENDROOT
BRANCH   3   4
HETATM    4  C8  UNL     1     -33.201  15.169  -3.418  1.00 20.00     0.024 C 
BRANCH   4   5
HETATM    5  C9  UNL     1     -33.881  14.605  -4.679  1.00 20.00     0.055 C 
BRANCH   5   6
HETATM    6  C3  UNL     1     -35.124  13.780  -4.341  1.00 20.00     0.127 C 
HETATM    7  C4  UNL     1     -36.387  14.545  -4.030  1.00 20.00     0.091 C 
HETATM    8  O10 UNL     1     -35.121  12.548  -4.345  1.00 20.00    -0.298 OA
ENDBRANCH   5   6
BRANCH   5   9
HETATM    9  C7  UNL     1     -34.234  15.706  -5.693  1.00 20.00     0.007 C 
HETATM   10  C5  UNL     1     -34.445  15.222  -7.121  1.00 20.00     0.006 C 
ENDBRANCH   5   9
ENDBRANCH   4   5
ENDBRANCH   3   4
TORSDOF 4
ENDMDL
MODEL 5
REMARK VINA RESULT:      -4.4     11.113     12.079
REMARK  4 active torsions:
REMARK  status: ('A' for Active; 'I' for Inactive)
REMARK    1  A    between atoms: C3_3  and  C9_9 
REMARK    2  A    between atoms: C6_6  and  C8_8 
REMARK    3  A    between atoms: C7_7  and  C9_9 
REMARK    4  A    between atoms: C8_8  and  C9_9 
ROOT
HETATM    1  C1  UNL     1     -34.773  17.043  -0.258  1.00 20.00     0.012 C 
HETATM    2  C2  UNL     1     -34.364  16.673  -1.323  1.00 20.00    -0.117 C 
HETATM    3  C6  UNL     1     -33.860  16.223  -2.629  1.00 20.00     0.093 C 
ENDROOT
BRANCH   3   4
HETATM    4  C8  UNL     1     -34.409  14.837  -2.982  1.00 20.00     0.024 C 
BRANCH   4   5
HETATM    5  C9  UNL     1     -35.362  14.876  -4.191  1.00 20.00     0.055 C 
BRANCH   5   6
HETATM    6  C3  UNL     1     -35.042  13.781  -5.211  1.00 20.00     0.127 C 
HETATM    7  C4  UNL     1     -35.089  14.172  -6.667  1.00 20.00     0.091 C 
HETATM    8  O10 UNL     1     -34.732  12.637  -4.877  1.00 20.00    -0.298 OA
ENDBRANCH   5   6
BRANCH   5   9
HETATM    9  C7  UNL     1     -36.840  14.795  -3.771  1.00 20.00     0.007 C 
HETATM   10  C5  UNL     1     -37.521  16.140  -3.555  1.00 20.00     0.006 C 
ENDBRANCH   5   9
ENDBRANCH   4   5
ENDBRANCH   3   4
TORSDOF 4
ENDMDL
MODEL 6
REMARK VINA RESULT:      -4.4     11.217     12.096
REMARK  4 active torsions:
REMARK  status: ('A' for Active; 'I' for Inactive)
REMARK    1  A    between atoms: C3_3  and  C9_9 
REMARK    2  A    between atoms: C6_6  and  C8_8 
REMARK    3  A    between atoms: C7_7  and  C9_9 
REMARK    4  A    between atoms: C8_8  and  C9_9 
ROOT
HETATM    1  C1  UNL     1     -34.812  16.990  -0.352  1.00 20.00     0.012 C 
HETATM    2  C2  UNL     1     -34.324  16.618  -1.384  1.00 20.00    -0.117 C 
HETATM    3  C6  UNL     1     -33.724  16.161  -2.646  1.00 20.00     0.093 C 
ENDROOT
BRANCH   3   4
HETATM    4  C8  UNL     1     -34.795  15.957  -3.722  1.00 20.00     0.024 C 
BRANCH   4   5
HETATM    5  C9  UNL     1     -35.693  14.741  -3.431  1.00 20.00     0.055 C 
BRANCH   5   6
HETATM    6  C3  UNL     1     -37.178  15.071  -3.591  1.00 20.00     0.127 C 
HETATM    7  C4  UNL     1     -37.561  16.530  -3.551  1.00 20.00     0.091 C 
HETATM    8  O10 UNL     1     -38.032  14.202  -3.773  1.00 20.00    -0.298 OA
ENDBRANCH   5   6
BRANCH   5   9
HETATM    9  C7  UNL     1     -35.323  13.524  -4.297  1.00 20.00     0.007 C 
HETATM   10  C5  UNL     1     -34.834  13.857  -5.700  1.00 20.00     0.006 C 
ENDBRANCH   5   9
ENDBRANCH   4   5
ENDBRANCH   3   4
TORSDOF 4
ENDMDL
MODEL 7
REMARK VINA RESULT:      -4.4     10.710     12.086
REMARK  4 active torsions:
REMARK  status: ('A' for Active; 'I' for Inactive)
REMARK    1  A    between atoms: C3_3  and  C9_9 
REMARK    2  A    between atoms: C6_6  and  C8_8 
REMARK    3  A    between atoms: C7_7  and  C9_9 
REMARK    4  A    between atoms: C8_8  and  C9_9 
ROOT
HETATM    1  C1  UNL     1     -34.504  14.883  -7.521  1.00 20.00     0.012 C 
HETATM    2  C2  UNL     1     -34.676  15.571  -6.553  1.00 20.00    -0.117 C 
HETATM    3  C6  UNL     1     -34.886  16.416  -5.368  1.00 20.00     0.093 C 
ENDROOT
BRANCH   3   4
HETATM    4  C8  UNL     1     -35.885  15.769  -4.401  1.00 20.00     0.024 C 
BRANCH   4   5
HETATM    5  C9  UNL     1     -35.185  15.000  -3.266  1.00 20.00     0.055 C 
BRANCH   5   6
HETATM    6  C3  UNL     1     -34.511  13.721  -3.768  1.00 20.00     0.127 C 
HETATM    7  C4  UNL     1     -33.009  13.647  -3.642  1.00 20.00     0.091 C 
HETATM    8  O10 UNL     1     -35.150  12.776  -4.230  1.00 20.00    -0.298 OA
ENDBRANCH   5   6
BRANCH   5   9
HETATM    9  C7  UNL     1     -34.169  15.874  -2.510  1.00 20.00     0.007 C 
HETATM   10  C5  UNL     1     -34.682  16.475  -1.208  1.00 20.00     0.006 C 
ENDBRANCH   5   9
ENDBRANCH   4   5
ENDBRANCH   3   4
TORSDOF 4
ENDMDL
MODEL 8
REMARK VINA RESULT:      -4.3     11.382     12.549
REMARK  4 active torsions:
REMARK  status: ('A' for Active; 'I' for Inactive)
REMARK    1  A    between atoms: C3_3  and  C9_9 
REMARK    2  A    between atoms: C6_6  and  C8_8 
REMARK    3  A    between atoms: C7_7  and  C9_9 
REMARK    4  A    between atoms: C8_8  and  C9_9 
ROOT
HETATM    1  C1  UNL     1     -35.077  14.164  -6.435  1.00 20.00     0.012 C 
HETATM    2  C2  UNL     1     -34.747  13.972  -5.297  1.00 20.00    -0.117 C 
HETATM    3  C6  UNL     1     -34.344  13.734  -3.903  1.00 20.00     0.093 C 
ENDROOT
BRANCH   3   4
HETATM    4  C8  UNL     1     -33.125  14.584  -3.530  1.00 20.00     0.024 C 
BRANCH   4   5
HETATM    5  C9  UNL     1     -33.519  15.992  -3.046  1.00 20.00     0.055 C 
BRANCH   5   6
HETATM    6  C3  UNL     1     -33.684  16.973  -4.208  1.00 20.00     0.127 C 
HETATM    7  C4  UNL     1     -34.791  17.991  -4.088  1.00 20.00     0.091 C 
HETATM    8  O10 UNL     1     -32.940  16.967  -5.189  1.00 20.00    -0.298 OA
ENDBRANCH   5   6
BRANCH   5   9
HETATM    9  C7  UNL     1     -34.790  15.975  -2.180  1.00 20.00     0.007 C 
HETATM   10  C5  UNL     1     -34.634  16.594  -0.797  1.00 20.00     0.006 C 
ENDBRANCH   5   9
ENDBRANCH   4   5
ENDBRANCH   3   4
TORSDOF 4
ENDMDL
MODEL 9
REMARK VINA RESULT:      -4.2      1.339      3.936
REMARK  4 active torsions:
REMARK  status: ('A' for Active; 'I' for Inactive)
REMARK    1  A    between atoms: C3_3  and  C9_9 
REMARK    2  A    between atoms: C6_6  and  C8_8 
REMARK    3  A    between atoms: C7_7  and  C9_9 
REMARK    4  A    between atoms: C8_8  and  C9_9 
ROOT
HETATM    1  C1  UNL     1     -35.180   4.241   6.524  1.00 20.00     0.012 C 
HETATM    2  C2  UNL     1     -34.577   5.275   6.443  1.00 20.00    -0.117 C 
HETATM    3  C6  UNL     1     -33.837   6.542   6.348  1.00 20.00     0.093 C 
ENDROOT
BRANCH   3   4
HETATM    4  C8  UNL     1     -33.782   7.039   4.900  1.00 20.00     0.024 C 
BRANCH   4   5
HETATM    5  C9  UNL     1     -33.259   5.962   3.931  1.00 20.00     0.055 C 
BRANCH   5   6
HETATM    6  C3  UNL     1     -34.344   5.484   2.964  1.00 20.00     0.127 C 
HETATM    7  C4  UNL     1     -35.769   5.838   3.309  1.00 20.00     0.091 C 
HETATM    8  O10 UNL     1     -34.082   4.863   1.934  1.00 20.00    -0.298 OA
ENDBRANCH   5   6
BRANCH   5   9
HETATM    9  C7  UNL     1     -32.021   6.434   3.150  1.00 20.00     0.007 C 
HETATM   10  C5  UNL     1     -32.145   7.814   2.519  1.00 20.00     0.006 C 
ENDBRANCH   5   9
ENDBRANCH   4   5
ENDBRANCH   3   4
TORSDOF 4
ENDMDL
