MODEL 1
REMARK VINA RESULT:      -4.6      0.000      0.000
REMARK  3 active torsions:
REMARK  status: ('A' for Active; 'I' for Inactive)
REMARK    1  A    between atoms: C1_1  and  C5_5 
REMARK    2  A    between atoms: C1_1  and  C8_8 
REMARK    3  A    between atoms: C8_8  and  C9_9 
ROOT
HETATM    1  C1  UNL     1     -32.420   6.563   3.261  1.00 20.00     0.133 C 
HETATM    2  O10 UNL     1     -31.777   5.568   2.929  1.00 20.00    -0.297 OA
ENDROOT
BRANCH   1   3
HETATM    3  C5  UNL     1     -33.766   6.431   3.885  1.00 20.00     0.081 C 
HETATM    4  C2  UNL     1     -34.545   5.222   3.409  1.00 20.00     0.040 C 
HETATM    5  C3  UNL     1     -35.561   5.050   4.516  1.00 20.00     0.168 C 
HETATM    6  O11 UNL     1     -34.911   5.453   5.729  1.00 20.00    -0.390 OA
HETATM    7  C4  UNL     1     -33.730   6.196   5.388  1.00 20.00     0.179 C 
ENDBRANCH   1   3
BRANCH   1   8
HETATM    8  C8  UNL     1     -31.926   7.982   3.029  1.00 20.00     0.082 C 
BRANCH   8   9
HETATM    9  C9  UNL     1     -32.463   8.623   1.741  1.00 20.00    -0.016 C 
HETATM   10  C6  UNL     1     -31.482   8.445   0.578  1.00 20.00     0.010 C 
HETATM   11  C7  UNL     1     -32.728  10.113   1.968  1.00 20.00     0.010 C 
ENDBRANCH   8   9
ENDBRANCH   1   8
TORSDOF 3
ENDMDL
MODEL 2
REMARK VINA RESULT:      -4.6     10.262     11.501
REMARK  3 active torsions:
REMARK  status: ('A' for Active; 'I' for Inactive)
REMARK    1  A    between atoms: C1_1  and  C5_5 
REMARK    2  A    between atoms: C1_1  and  C8_8 
REMARK    3  A    between atoms: C8_8  and  C9_9 
ROOT
HETATM    1  C1  UNL     1     -33.674  16.674  -3.636  1.00 20.00     0.133 C 
HETATM    2  O10 UNL     1     -33.007  16.980  -4.623  1.00 20.00    -0.297 OA
ENDROOT
BRANCH   1   3
HETATM    3  C5  UNL     1     -34.125  15.271  -3.420  1.00 20.00     0.081 C 
HETATM    4  C2  UNL     1     -35.244  14.839  -4.346  1.00 20.00     0.040 C 
HETATM    5  C3  UNL     1     -35.136  13.332  -4.281  1.00 20.00     0.168 C 
HETATM    6  O11 UNL     1     -33.744  13.030  -4.126  1.00 20.00    -0.390 OA
HETATM    7  C4  UNL     1     -33.060  14.228  -3.722  1.00 20.00     0.179 C 
ENDBRANCH   1   3
BRANCH   1   8
HETATM    8  C8  UNL     1     -34.124  17.689  -2.596  1.00 20.00     0.082 C 
BRANCH   8   9
HETATM    9  C9  UNL     1     -33.644  17.374  -1.173  1.00 20.00    -0.016 C 
HETATM   10  C6  UNL     1     -34.812  16.986  -0.262  1.00 20.00     0.010 C 
HETATM   11  C7  UNL     1     -32.913  18.583  -0.586  1.00 20.00     0.010 C 
ENDBRANCH   8   9
ENDBRANCH   1   8
TORSDOF 3
ENDMDL
MODEL 3
REMARK VINA RESULT:      -4.4     10.428     11.353
REMARK  3 active torsions:
REMARK  status: ('A' for Active; 'I' for Inactive)
REMARK    1  A    between atoms: C1_1  and  C5_5 
REMARK    2  A    between atoms: C1_1  and  C8_8 
REMARK    3  A    between atoms: C8_8  and  C9_9 
ROOT
HETATM    1  C1  UNL     1     -35.526  16.284  -2.702  1.00 20.00     0.133 C 
HETATM    2  O10 UNL     1     -36.496  17.029  -2.828  1.00 20.00    -0.297 OA
ENDROOT
BRANCH   1   3
HETATM    3  C5  UNL     1     -35.153  15.322  -3.776  1.00 20.00     0.081 C 
HETATM    4  C2  UNL     1     -33.863  14.574  -3.506  1.00 20.00     0.040 C 
HETATM    5  C3  UNL     1     -34.003  13.375  -4.417  1.00 20.00     0.168 C 
HETATM    6  O11 UNL     1     -35.398  13.053  -4.454  1.00 20.00    -0.390 OA
HETATM    7  C4  UNL     1     -36.139  14.175  -3.946  1.00 20.00     0.179 C 
ENDBRANCH   1   3
BRANCH   1   8
HETATM    8  C8  UNL     1     -34.667  16.251  -1.446  1.00 20.00     0.082 C 
BRANCH   8   9
HETATM    9  C9  UNL     1     -34.609  17.590  -0.698  1.00 20.00    -0.016 C 
HETATM   10  C6  UNL     1     -33.183  18.146  -0.657  1.00 20.00     0.010 C 
HETATM   11  C7  UNL     1     -35.137  17.417   0.727  1.00 20.00     0.010 C 
ENDBRANCH   8   9
ENDBRANCH   1   8
TORSDOF 3
ENDMDL
MODEL 4
REMARK VINA RESULT:      -4.4     10.411     11.728
REMARK  3 active torsions:
REMARK  status: ('A' for Active; 'I' for Inactive)
REMARK    1  A    between atoms: C1_1  and  C5_5 
REMARK    2  A    between atoms: C1_1  and  C8_8 
REMARK    3  A    between atoms: C8_8  and  C9_9 
ROOT
HETATM    1  C1  UNL     1     -34.420  13.860  -4.265  1.00 20.00     0.133 C 
HETATM    2  O10 UNL     1     -33.646  12.905  -4.284  1.00 20.00    -0.297 OA
ENDROOT
BRANCH   1   3
HETATM    3  C5  UNL     1     -34.520  14.742  -3.069  1.00 20.00     0.081 C 
HETATM    4  C2  UNL     1     -33.436  15.798  -2.995  1.00 20.00     0.040 C 
HETATM    5  C3  UNL     1     -34.050  16.808  -2.052  1.00 20.00     0.168 C 
HETATM    6  O11 UNL     1     -35.462  16.788  -2.298  1.00 20.00    -0.390 OA
HETATM    7  C4  UNL     1     -35.779  15.596  -3.035  1.00 20.00     0.179 C 
ENDBRANCH   1   3
BRANCH   1   8
HETATM    8  C8  UNL     1     -35.353  14.191  -5.420  1.00 20.00     0.082 C 
BRANCH   8   9
HETATM    9  C9  UNL     1     -34.633  14.720  -6.668  1.00 20.00    -0.016 C 
HETATM   10  C6  UNL     1     -34.284  16.205  -6.525  1.00 20.00     0.010 C 
HETATM   11  C7  UNL     1     -35.509  14.514  -7.905  1.00 20.00     0.010 C 
ENDBRANCH   8   9
ENDBRANCH   1   8
TORSDOF 3
ENDMDL
MODEL 5
REMARK VINA RESULT:      -4.3      1.346      1.917
REMARK  3 active torsions:
REMARK  status: ('A' for Active; 'I' for Inactive)
REMARK    1  A    between atoms: C1_1  and  C5_5 
REMARK    2  A    between atoms: C1_1  and  C8_8 
REMARK    3  A    between atoms: C8_8  and  C9_9 
ROOT
HETATM    1  C1  UNL     1     -33.841   5.573   3.042  1.00 20.00     0.133 C 
HETATM    2  O10 UNL     1     -34.352   5.238   1.975  1.00 20.00    -0.297 OA
ENDROOT
BRANCH   1   3
HETATM    3  C5  UNL     1     -34.634   5.580   4.303  1.00 20.00     0.081 C 
HETATM    4  C2  UNL     1     -34.911   4.198   4.859  1.00 20.00     0.040 C 
HETATM    5  C3  UNL     1     -35.233   4.504   6.305  1.00 20.00     0.168 C 
HETATM    6  O11 UNL     1     -34.421   5.625   6.673  1.00 20.00    -0.390 OA
HETATM    7  C4  UNL     1     -33.924   6.242   5.475  1.00 20.00     0.179 C 
ENDBRANCH   1   3
BRANCH   1   8
HETATM    8  C8  UNL     1     -32.398   6.041   3.157  1.00 20.00     0.082 C 
BRANCH   8   9
HETATM    9  C9  UNL     1     -32.234   7.566   3.102  1.00 20.00    -0.016 C 
HETATM   10  C6  UNL     1     -31.961   8.049   1.675  1.00 20.00     0.010 C 
HETATM   11  C7  UNL     1     -31.092   8.003   4.022  1.00 20.00     0.010 C 
ENDBRANCH   8   9
ENDBRANCH   1   8
TORSDOF 3
ENDMDL
MODEL 6
REMARK VINA RESULT:      -4.3     10.480     12.000
REMARK  3 active torsions:
REMARK  status: ('A' for Active; 'I' for Inactive)
REMARK    1  A    between atoms: C1_1  and  C5_5 
REMARK    2  A    between atoms: C1_1  and  C8_8 
REMARK    3  A    between atoms: C8_8  and  C9_9 
ROOT
HETATM    1  C1  UNL     1     -34.513  14.029  -4.027  1.00 20.00     0.133 C 
HETATM    2  O10 UNL     1     -33.554  13.284  -3.832  1.00 20.00    -0.297 OA
ENDROOT
BRANCH   1   3
HETATM    3  C5  UNL     1     -35.187  14.080  -5.354  1.00 20.00     0.081 C 
HETATM    4  C2  UNL     1     -36.480  14.870  -5.353  1.00 20.00     0.040 C 
HETATM    5  C3  UNL     1     -36.651  15.188  -6.822  1.00 20.00     0.168 C 
HETATM    6  O11 UNL     1     -35.333  15.358  -7.357  1.00 20.00    -0.390 OA
HETATM    7  C4  UNL     1     -34.388  14.807  -6.426  1.00 20.00     0.179 C 
ENDBRANCH   1   3
BRANCH   1   8
HETATM    8  C8  UNL     1     -35.053  14.976  -2.966  1.00 20.00     0.082 C 
BRANCH   8   9
HETATM    9  C9  UNL     1     -34.014  15.979  -2.444  1.00 20.00    -0.016 C 
HETATM   10  C6  UNL     1     -34.476  16.633  -1.138  1.00 20.00     0.010 C 
HETATM   11  C7  UNL     1     -33.754  17.059  -3.496  1.00 20.00     0.010 C 
ENDBRANCH   8   9
ENDBRANCH   1   8
TORSDOF 3
ENDMDL
MODEL 7
REMARK VINA RESULT:      -4.1     11.062     12.107
REMARK  3 active torsions:
REMARK  status: ('A' for Active; 'I' for Inactive)
REMARK    1  A    between atoms: C1_1  and  C5_5 
REMARK    2  A    between atoms: C1_1  and  C8_8 
REMARK    3  A    between atoms: C8_8  and  C9_9 
ROOT
HETATM    1  C1  UNL     1     -32.510  19.132   0.444  1.00 20.00     0.133 C 
HETATM    2  O10 UNL     1     -31.354  19.187   0.028  1.00 20.00    -0.297 OA
ENDROOT
BRANCH   1   3
HETATM    3  C5  UNL     1     -32.809  19.263   1.897  1.00 20.00     0.081 C 
HETATM    4  C2  UNL     1     -33.996  18.438   2.354  1.00 20.00     0.040 C 
HETATM    5  C3  UNL     1     -33.753  18.344   3.844  1.00 20.00     0.168 C 
HETATM    6  O11 UNL     1     -32.332  18.303   4.022  1.00 20.00    -0.390 OA
HETATM    7  C4  UNL     1     -31.707  18.737   2.804  1.00 20.00     0.179 C 
ENDBRANCH   1   3
BRANCH   1   8
HETATM    8  C8  UNL     1     -33.705  18.886  -0.466  1.00 20.00     0.082 C 
BRANCH   8   9
HETATM    9  C9  UNL     1     -33.606  17.589  -1.282  1.00 20.00    -0.016 C 
HETATM   10  C6  UNL     1     -33.784  17.857  -2.780  1.00 20.00     0.010 C 
HETATM   11  C7  UNL     1     -34.664  16.590  -0.809  1.00 20.00     0.010 C 
ENDBRANCH   8   9
ENDBRANCH   1   8
TORSDOF 3
ENDMDL
MODEL 8
REMARK VINA RESULT:      -4.1     10.682     12.006
REMARK  3 active torsions:
REMARK  status: ('A' for Active; 'I' for Inactive)
REMARK    1  A    between atoms: C1_1  and  C5_5 
REMARK    2  A    between atoms: C1_1  and  C8_8 
REMARK    3  A    between atoms: C8_8  and  C9_9 
ROOT
HETATM    1  C1  UNL     1     -33.834  16.587  -4.244  1.00 20.00     0.133 C 
HETATM    2  O10 UNL     1     -33.099  17.254  -4.971  1.00 20.00    -0.297 OA
ENDROOT
BRANCH   1   3
HETATM    3  C5  UNL     1     -33.628  16.553  -2.770  1.00 20.00     0.081 C 
HETATM    4  C2  UNL     1     -33.622  17.924  -2.122  1.00 20.00     0.040 C 
HETATM    5  C3  UNL     1     -33.918  17.586  -0.678  1.00 20.00     0.168 C 
HETATM    6  O11 UNL     1     -34.795  16.452  -0.697  1.00 20.00    -0.390 OA
HETATM    7  C4  UNL     1     -34.748  15.862  -2.006  1.00 20.00     0.179 C 
ENDBRANCH   1   3
BRANCH   1   8
HETATM    8  C8  UNL     1     -34.965  15.722  -4.782  1.00 20.00     0.082 C 
BRANCH   8   9
HETATM    9  C9  UNL     1     -34.486  14.503  -5.583  1.00 20.00    -0.016 C 
HETATM   10  C6  UNL     1     -35.167  14.434  -6.954  1.00 20.00     0.010 C 
HETATM   11  C7  UNL     1     -34.769  13.219  -4.802  1.00 20.00     0.010 C 
ENDBRANCH   8   9
ENDBRANCH   1   8
TORSDOF 3
ENDMDL
MODEL 9
REMARK VINA RESULT:      -4.1     10.264     12.030
REMARK  3 active torsions:
REMARK  status: ('A' for Active; 'I' for Inactive)
REMARK    1  A    between atoms: C1_1  and  C5_5 
REMARK    2  A    between atoms: C1_1  and  C8_8 
REMARK    3  A    between atoms: C8_8  and  C9_9 
ROOT
HETATM    1  C1  UNL     1     -36.460  14.709  -4.290  1.00 20.00     0.133 C 
HETATM    2  O10 UNL     1     -37.471  14.163  -3.852  1.00 20.00    -0.297 OA
ENDROOT
BRANCH   1   3
HETATM    3  C5  UNL     1     -35.162  14.614  -3.567  1.00 20.00     0.081 C 
HETATM    4  C2  UNL     1     -34.301  13.446  -4.006  1.00 20.00     0.040 C 
HETATM    5  C3  UNL     1     -32.930  13.876  -3.535  1.00 20.00     0.168 C 
HETATM    6  O11 UNL     1     -32.885  15.303  -3.664  1.00 20.00    -0.390 OA
HETATM    7  C4  UNL     1     -34.228  15.789  -3.817  1.00 20.00     0.179 C 
ENDBRANCH   1   3
BRANCH   1   8
HETATM    8  C8  UNL     1     -36.459  15.549  -5.559  1.00 20.00     0.082 C 
BRANCH   8   9
HETATM    9  C9  UNL     1     -36.230  14.735  -6.841  1.00 20.00    -0.016 C 
HETATM   10  C6  UNL     1     -34.817  14.945  -7.391  1.00 20.00     0.010 C 
HETATM   11  C7  UNL     1     -37.260  15.129  -7.902  1.00 20.00     0.010 C 
ENDBRANCH   8   9
ENDBRANCH   1   8
TORSDOF 3
ENDMDL
