MODEL 1
REMARK VINA RESULT:      -6.1      0.000      0.000
REMARK  2 active torsions:
REMARK  status: ('A' for Active; 'I' for Inactive)
REMARK    1  A    between atoms: C7_7  and  C9_9 
REMARK    2  A    between atoms: C8_8  and  C9_9 
ROOT
HETATM    1  C1  UNL     1     -32.201   9.404   1.418  1.00 20.00     0.012 C 
HETATM    2  C2  UNL     1     -32.217   8.301   1.891  1.00 20.00    -0.117 C 
HETATM    3  C8  UNL     1     -32.235   6.948   2.465  1.00 20.00     0.093 C 
ENDROOT
BRANCH   3   4
HETATM    4  C9  UNL     1     -32.460   7.008   3.969  1.00 20.00     0.024 C 
BRANCH   4   5
HETATM    5  C7  UNL     1     -33.875   6.607   4.329  1.00 20.00     0.056 C 
HETATM    6  C3  UNL     1     -34.036   6.250   5.792  1.00 20.00     0.131 C 
HETATM    7  C4  UNL     1     -34.850   4.994   5.981  1.00 20.00     0.079 C 
HETATM    8  O10 UNL     1     -33.565   6.897   6.718  1.00 20.00    -0.298 OA
HETATM    9  C5  UNL     1     -35.396   4.757   4.579  1.00 20.00     0.008 C 
HETATM   10  C6  UNL     1     -34.318   5.308   3.654  1.00 20.00     0.013 C 
ENDBRANCH   4   5
ENDBRANCH   3   4
TORSDOF 2
ENDMDL
MODEL 2
REMARK VINA RESULT:      -5.6      1.509      1.959
REMARK  2 active torsions:
REMARK  status: ('A' for Active; 'I' for Inactive)
REMARK    1  A    between atoms: C7_7  and  C9_9 
REMARK    2  A    between atoms: C8_8  and  C9_9 
ROOT
HETATM    1  C1  UNL     1     -32.156   9.323   1.053  1.00 20.00     0.012 C 
HETATM    2  C2  UNL     1     -32.112   8.426   1.849  1.00 20.00    -0.117 C 
HETATM    3  C8  UNL     1     -32.051   7.326   2.822  1.00 20.00     0.093 C 
ENDROOT
BRANCH   3   4
HETATM    4  C9  UNL     1     -33.198   7.428   3.816  1.00 20.00     0.024 C 
BRANCH   4   5
HETATM    5  C7  UNL     1     -33.423   6.111   4.531  1.00 20.00     0.056 C 
HETATM    6  C3  UNL     1     -34.487   5.255   3.875  1.00 20.00     0.131 C 
HETATM    7  C4  UNL     1     -35.433   4.656   4.885  1.00 20.00     0.079 C 
HETATM    8  O10 UNL     1     -34.578   5.068   2.668  1.00 20.00    -0.298 OA
HETATM    9  C5  UNL     1     -34.733   4.974   6.200  1.00 20.00     0.008 C 
HETATM   10  C6  UNL     1     -34.003   6.284   5.936  1.00 20.00     0.013 C 
ENDBRANCH   4   5
ENDBRANCH   3   4
TORSDOF 2
ENDMDL
MODEL 3
REMARK VINA RESULT:      -4.9     11.233     12.256
REMARK  2 active torsions:
REMARK  status: ('A' for Active; 'I' for Inactive)
REMARK    1  A    between atoms: C7_7  and  C9_9 
REMARK    2  A    between atoms: C8_8  and  C9_9 
ROOT
HETATM    1  C1  UNL     1     -34.731  17.450   0.287  1.00 20.00     0.012 C 
HETATM    2  C2  UNL     1     -34.762  16.769  -0.701  1.00 20.00    -0.117 C 
HETATM    3  C8  UNL     1     -34.806  15.933  -1.909  1.00 20.00     0.093 C 
ENDROOT
BRANCH   3   4
HETATM    4  C9  UNL     1     -33.557  16.145  -2.751  1.00 20.00     0.024 C 
BRANCH   4   5
HETATM    5  C7  UNL     1     -33.406  15.055  -3.792  1.00 20.00     0.056 C 
HETATM    6  C3  UNL     1     -33.843  15.492  -5.175  1.00 20.00     0.131 C 
HETATM    7  C4  UNL     1     -34.689  14.446  -5.858  1.00 20.00     0.079 C 
HETATM    8  O10 UNL     1     -33.552  16.565  -5.686  1.00 20.00    -0.298 OA
HETATM    9  C5  UNL     1     -34.521  13.249  -4.929  1.00 20.00     0.008 C 
HETATM   10  C6  UNL     1     -34.334  13.863  -3.548  1.00 20.00     0.013 C 
ENDBRANCH   4   5
ENDBRANCH   3   4
TORSDOF 2
ENDMDL
MODEL 4
REMARK VINA RESULT:      -4.8     11.204     12.414
REMARK  2 active torsions:
REMARK  status: ('A' for Active; 'I' for Inactive)
REMARK    1  A    between atoms: C7_7  and  C9_9 
REMARK    2  A    between atoms: C8_8  and  C9_9 
ROOT
HETATM    1  C1  UNL     1     -34.770  16.991  -0.223  1.00 20.00     0.012 C 
HETATM    2  C2  UNL     1     -34.335  16.689  -1.300  1.00 20.00    -0.117 C 
HETATM    3  C8  UNL     1     -33.799  16.326  -2.619  1.00 20.00     0.093 C 
ENDROOT
BRANCH   3   4
HETATM    4  C9  UNL     1     -34.219  14.913  -2.996  1.00 20.00     0.024 C 
BRANCH   4   5
HETATM    5  C7  UNL     1     -35.214  14.922  -4.138  1.00 20.00     0.056 C 
HETATM    6  C3  UNL     1     -35.026  13.766  -5.098  1.00 20.00     0.131 C 
HETATM    7  C4  UNL     1     -35.102  14.208  -6.538  1.00 20.00     0.079 C 
HETATM    8  O10 UNL     1     -34.833  12.606  -4.756  1.00 20.00    -0.298 OA
HETATM    9  C5  UNL     1     -35.609  15.639  -6.402  1.00 20.00     0.008 C 
HETATM   10  C6  UNL     1     -35.039  16.120  -5.074  1.00 20.00     0.013 C 
ENDBRANCH   4   5
ENDBRANCH   3   4
TORSDOF 2
ENDMDL
MODEL 5
REMARK VINA RESULT:      -4.5     11.421     12.812
REMARK  2 active torsions:
REMARK  status: ('A' for Active; 'I' for Inactive)
REMARK    1  A    between atoms: C7_7  and  C9_9 
REMARK    2  A    between atoms: C8_8  and  C9_9 
ROOT
HETATM    1  C1  UNL     1     -34.430  16.899  -0.744  1.00 20.00     0.012 C 
HETATM    2  C2  UNL     1     -34.779  16.251  -1.692  1.00 20.00    -0.117 C 
HETATM    3  C8  UNL     1     -35.213  15.460  -2.852  1.00 20.00     0.093 C 
ENDROOT
BRANCH   3   4
HETATM    4  C9  UNL     1     -34.100  14.530  -3.311  1.00 20.00     0.024 C 
BRANCH   4   5
HETATM    5  C7  UNL     1     -34.035  14.457  -4.823  1.00 20.00     0.056 C 
HETATM    6  C3  UNL     1     -33.707  15.789  -5.466  1.00 20.00     0.131 C 
HETATM    7  C4  UNL     1     -34.587  16.073  -6.658  1.00 20.00     0.079 C 
HETATM    8  O10 UNL     1     -32.835  16.552  -5.072  1.00 20.00    -0.298 OA
HETATM    9  C5  UNL     1     -35.281  14.732  -6.864  1.00 20.00     0.008 C 
HETATM   10  C6  UNL     1     -35.387  14.139  -5.465  1.00 20.00     0.013 C 
ENDBRANCH   4   5
ENDBRANCH   3   4
TORSDOF 2
ENDMDL
MODEL 6
REMARK VINA RESULT:      -4.5     11.142     11.983
REMARK  2 active torsions:
REMARK  status: ('A' for Active; 'I' for Inactive)
REMARK    1  A    between atoms: C7_7  and  C9_9 
REMARK    2  A    between atoms: C8_8  and  C9_9 
ROOT
HETATM    1  C1  UNL     1     -33.225  18.340  -0.100  1.00 20.00     0.012 C 
HETATM    2  C2  UNL     1     -33.887  17.478  -0.609  1.00 20.00    -0.117 C 
HETATM    3  C8  UNL     1     -34.702  16.423  -1.226  1.00 20.00     0.093 C 
ENDROOT
BRANCH   3   4
HETATM    4  C9  UNL     1     -34.057  15.934  -2.515  1.00 20.00     0.024 C 
BRANCH   4   5
HETATM    5  C7  UNL     1     -35.019  15.087  -3.322  1.00 20.00     0.056 C 
HETATM    6  C3  UNL     1     -34.333  13.961  -4.069  1.00 20.00     0.131 C 
HETATM    7  C4  UNL     1     -34.827  13.841  -5.489  1.00 20.00     0.079 C 
HETATM    8  O10 UNL     1     -33.477  13.231  -3.587  1.00 20.00    -0.298 OA
HETATM    9  C5  UNL     1     -36.032  14.775  -5.484  1.00 20.00     0.008 C 
HETATM   10  C6  UNL     1     -35.671  15.855  -4.473  1.00 20.00     0.013 C 
ENDBRANCH   4   5
ENDBRANCH   3   4
TORSDOF 2
ENDMDL
MODEL 7
REMARK VINA RESULT:      -4.4     10.987     11.929
REMARK  2 active torsions:
REMARK  status: ('A' for Active; 'I' for Inactive)
REMARK    1  A    between atoms: C7_7  and  C9_9 
REMARK    2  A    between atoms: C8_8  and  C9_9 
ROOT
HETATM    1  C1  UNL     1     -33.019  18.614  -0.197  1.00 20.00     0.012 C 
HETATM    2  C2  UNL     1     -33.709  17.695  -0.543  1.00 20.00    -0.117 C 
HETATM    3  C8  UNL     1     -34.552  16.565  -0.960  1.00 20.00     0.093 C 
ENDROOT
BRANCH   3   4
HETATM    4  C9  UNL     1     -35.375  16.937  -2.185  1.00 20.00     0.024 C 
BRANCH   4   5
HETATM    5  C7  UNL     1     -34.978  16.103  -3.386  1.00 20.00     0.056 C 
HETATM    6  C3  UNL     1     -35.764  14.812  -3.496  1.00 20.00     0.131 C 
HETATM    7  C4  UNL     1     -34.877  13.636  -3.822  1.00 20.00     0.079 C 
HETATM    8  O10 UNL     1     -36.975  14.724  -3.340  1.00 20.00    -0.298 OA
HETATM    9  C5  UNL     1     -33.559  14.320  -4.165  1.00 20.00     0.008 C 
HETATM   10  C6  UNL     1     -33.545  15.573  -3.299  1.00 20.00     0.013 C 
ENDBRANCH   4   5
ENDBRANCH   3   4
TORSDOF 2
ENDMDL
MODEL 8
REMARK VINA RESULT:      -4.3     11.169     12.844
REMARK  2 active torsions:
REMARK  status: ('A' for Active; 'I' for Inactive)
REMARK    1  A    between atoms: C7_7  and  C9_9 
REMARK    2  A    between atoms: C8_8  and  C9_9 
ROOT
HETATM    1  C1  UNL     1     -38.337  14.746  -4.119  1.00 20.00     0.012 C 
HETATM    2  C2  UNL     1     -37.604  15.199  -4.954  1.00 20.00    -0.117 C 
HETATM    3  C8  UNL     1     -36.708  15.759  -5.975  1.00 20.00     0.093 C 
ENDROOT
BRANCH   3   4
HETATM    4  C9  UNL     1     -35.839  14.667  -6.582  1.00 20.00     0.024 C 
BRANCH   4   5
HETATM    5  C7  UNL     1     -34.464  14.645  -5.948  1.00 20.00     0.056 C 
HETATM    6  C3  UNL     1     -34.380  13.726  -4.747  1.00 20.00     0.131 C 
HETATM    7  C4  UNL     1     -33.647  14.367  -3.594  1.00 20.00     0.079 C 
HETATM    8  O10 UNL     1     -34.849  12.596  -4.705  1.00 20.00    -0.298 OA
HETATM    9  C5  UNL     1     -33.062  15.614  -4.247  1.00 20.00     0.008 C 
HETATM   10  C6  UNL     1     -34.069  15.986  -5.327  1.00 20.00     0.013 C 
ENDBRANCH   4   5
ENDBRANCH   3   4
TORSDOF 2
ENDMDL
MODEL 9
REMARK VINA RESULT:      -4.3     11.165     12.329
REMARK  2 active torsions:
REMARK  status: ('A' for Active; 'I' for Inactive)
REMARK    1  A    between atoms: C7_7  and  C9_9 
REMARK    2  A    between atoms: C8_8  and  C9_9 
ROOT
HETATM    1  C1  UNL     1     -36.893  15.019  -7.449  1.00 20.00     0.012 C 
HETATM    2  C2  UNL     1     -35.870  14.771  -6.873  1.00 20.00    -0.117 C 
HETATM    3  C8  UNL     1     -34.613  14.471  -6.172  1.00 20.00     0.093 C 
ENDROOT
BRANCH   3   4
HETATM    4  C9  UNL     1     -34.847  13.450  -5.068  1.00 20.00     0.024 C 
BRANCH   4   5
HETATM    5  C7  UNL     1     -34.719  14.084  -3.699  1.00 20.00     0.056 C 
HETATM    6  C3  UNL     1     -35.919  14.926  -3.321  1.00 20.00     0.131 C 
HETATM    7  C4  UNL     1     -35.515  16.245  -2.710  1.00 20.00     0.079 C 
HETATM    8  O10 UNL     1     -37.084  14.587  -3.488  1.00 20.00    -0.298 OA
HETATM    9  C5  UNL     1     -34.019  16.047  -2.494  1.00 20.00     0.008 C 
HETATM   10  C6  UNL     1     -33.592  15.116  -3.621  1.00 20.00     0.013 C 
ENDBRANCH   4   5
ENDBRANCH   3   4
TORSDOF 2
ENDMDL
