MODEL 1
REMARK VINA RESULT:      -4.3      0.000      0.000
REMARK  0 active torsions:
REMARK  status: ('A' for Active; 'I' for Inactive)
ROOT
HETATM    1  C1  UNL     1     -36.999  14.507  -3.943  1.00 20.00     0.101 C 
HETATM    2  C2  UNL     1     -33.455  15.781  -3.240  1.00 20.00     0.005 C 
HETATM    3  C3  UNL     1     -33.358  16.602  -4.520  1.00 20.00     0.030 C 
HETATM    4  C4  UNL     1     -34.900  15.354  -2.986  1.00 20.00     0.057 C 
HETATM    5  C5  UNL     1     -34.007  15.879  -5.695  1.00 20.00     0.272 C 
HETATM    6  C6  UNL     1     -35.549  14.670  -4.209  1.00 20.00     0.240 C 
HETATM    7  C7  UNL     1     -34.965  13.264  -4.443  1.00 20.00     0.066 C 
HETATM    8  N8  UNL     1     -38.132  14.381  -3.733  1.00 20.00    -0.195 NA
HETATM    9  N9  UNL     1     -35.397  15.507  -5.414  1.00 20.00     0.106 N 
HETATM   10  H21 UNL     1     -35.972  16.347  -5.337  1.00 20.00     0.318 HD
ENDROOT
TORSDOF 0
ENDMDL
MODEL 2
REMARK VINA RESULT:      -4.3      1.074      1.509
REMARK  0 active torsions:
REMARK  status: ('A' for Active; 'I' for Inactive)
ROOT
HETATM    1  C1  UNL     1     -37.075  14.518  -4.071  1.00 20.00     0.101 C 
HETATM    2  C2  UNL     1     -33.319  13.774  -3.952  1.00 20.00     0.005 C 
HETATM    3  C3  UNL     1     -32.922  15.188  -3.543  1.00 20.00     0.030 C 
HETATM    4  C4  UNL     1     -34.824  13.573  -3.788  1.00 20.00     0.057 C 
HETATM    5  C5  UNL     1     -33.770  16.233  -4.259  1.00 20.00     0.272 C 
HETATM    6  C6  UNL     1     -35.658  14.673  -4.480  1.00 20.00     0.240 C 
HETATM    7  C7  UNL     1     -35.606  14.537  -6.014  1.00 20.00     0.066 C 
HETATM    8  N8  UNL     1     -38.183  14.395  -3.751  1.00 20.00    -0.195 NA
HETATM    9  N9  UNL     1     -35.205  16.012  -4.057  1.00 20.00     0.106 N 
HETATM   10  H21 UNL     1     -35.447  16.175  -3.079  1.00 20.00     0.318 HD
ENDROOT
TORSDOF 0
ENDMDL
MODEL 3
REMARK VINA RESULT:      -4.2      1.850      2.197
REMARK  0 active torsions:
REMARK  status: ('A' for Active; 'I' for Inactive)
ROOT
HETATM    1  C1  UNL     1     -34.474  13.587  -4.271  1.00 20.00     0.101 C 
HETATM    2  C2  UNL     1     -34.070  16.971  -2.521  1.00 20.00     0.005 C 
HETATM    3  C3  UNL     1     -34.064  17.782  -3.811  1.00 20.00     0.030 C 
HETATM    4  C4  UNL     1     -34.549  15.545  -2.788  1.00 20.00     0.057 C 
HETATM    5  C5  UNL     1     -33.295  17.065  -4.916  1.00 20.00     0.272 C 
HETATM    6  C6  UNL     1     -33.788  14.860  -3.944  1.00 20.00     0.240 C 
HETATM    7  C7  UNL     1     -32.344  14.511  -3.537  1.00 20.00     0.066 C 
HETATM    8  N8  UNL     1     -35.012  12.592  -4.526  1.00 20.00    -0.195 NA
HETATM    9  N9  UNL     1     -33.802  15.709  -5.150  1.00 20.00     0.106 N 
HETATM   10  H21 UNL     1     -34.743  15.754  -5.541  1.00 20.00     0.318 HD
ENDROOT
TORSDOF 0
ENDMDL
MODEL 4
REMARK VINA RESULT:      -4.1      1.637      3.427
REMARK  0 active torsions:
REMARK  status: ('A' for Active; 'I' for Inactive)
ROOT
HETATM    1  C1  UNL     1     -33.920  17.496  -3.822  1.00 20.00     0.101 C 
HETATM    2  C2  UNL     1     -33.438  13.698  -3.714  1.00 20.00     0.005 C 
HETATM    3  C3  UNL     1     -34.716  13.385  -4.484  1.00 20.00     0.030 C 
HETATM    4  C4  UNL     1     -33.095  15.182  -3.828  1.00 20.00     0.057 C 
HETATM    5  C5  UNL     1     -35.852  14.318  -4.078  1.00 20.00     0.272 C 
HETATM    6  C6  UNL     1     -34.278  16.104  -3.460  1.00 20.00     0.240 C 
HETATM    7  C7  UNL     1     -34.558  16.081  -1.946  1.00 20.00     0.066 C 
HETATM    8  N8  UNL     1     -33.639  18.585  -4.105  1.00 20.00    -0.195 NA
HETATM    9  N9  UNL     1     -35.484  15.729  -4.223  1.00 20.00     0.106 N 
HETATM   10  H21 UNL     1     -35.365  15.957  -5.210  1.00 20.00     0.318 HD
ENDROOT
TORSDOF 0
ENDMDL
MODEL 5
REMARK VINA RESULT:      -4.1      1.879      2.665
REMARK  0 active torsions:
REMARK  status: ('A' for Active; 'I' for Inactive)
ROOT
HETATM    1  C1  UNL     1     -37.303  15.036  -3.608  1.00 20.00     0.101 C 
HETATM    2  C2  UNL     1     -33.750  16.016  -2.566  1.00 20.00     0.005 C 
HETATM    3  C3  UNL     1     -34.193  16.848  -1.369  1.00 20.00     0.030 C 
HETATM    4  C4  UNL     1     -34.907  15.162  -3.081  1.00 20.00     0.057 C 
HETATM    5  C5  UNL     1     -35.459  17.639  -1.678  1.00 20.00     0.272 C 
HETATM    6  C6  UNL     1     -36.192  15.979  -3.339  1.00 20.00     0.240 C 
HETATM    7  C7  UNL     1     -36.045  16.881  -4.579  1.00 20.00     0.066 C 
HETATM    8  N8  UNL     1     -38.172  14.296  -3.819  1.00 20.00    -0.195 NA
HETATM    9  N9  UNL     1     -36.547  16.776  -2.149  1.00 20.00     0.106 N 
HETATM   10  H21 UNL     1     -36.857  16.165  -1.393  1.00 20.00     0.318 HD
ENDROOT
TORSDOF 0
ENDMDL
MODEL 6
REMARK VINA RESULT:      -4.1     11.157     12.746
REMARK  0 active torsions:
REMARK  status: ('A' for Active; 'I' for Inactive)
ROOT
HETATM    1  C1  UNL     1     -41.722   3.117  -2.712  1.00 20.00     0.101 C 
HETATM    2  C2  UNL     1     -42.331   6.783  -1.786  1.00 20.00     0.005 C 
HETATM    3  C3  UNL     1     -41.030   6.936  -1.007  1.00 20.00     0.030 C 
HETATM    4  C4  UNL     1     -42.311   5.500  -2.614  1.00 20.00     0.057 C 
HETATM    5  C5  UNL     1     -40.714   5.681  -0.200  1.00 20.00     0.272 C 
HETATM    6  C6  UNL     1     -41.938   4.252  -1.784  1.00 20.00     0.240 C 
HETATM    7  C7  UNL     1     -43.078   3.853  -0.828  1.00 20.00     0.066 C 
HETATM    8  N8  UNL     1     -41.553   2.229  -3.439  1.00 20.00    -0.195 NA
HETATM    9  N9  UNL     1     -40.685   4.480  -1.039  1.00 20.00     0.106 N 
HETATM   10  H21 UNL     1     -39.894   4.524  -1.683  1.00 20.00     0.318 HD
ENDROOT
TORSDOF 0
ENDMDL
MODEL 7
REMARK VINA RESULT:      -4.0      1.911      3.034
REMARK  0 active torsions:
REMARK  status: ('A' for Active; 'I' for Inactive)
ROOT
HETATM    1  C1  UNL     1     -34.398  15.822  -2.345  1.00 20.00     0.101 C 
HETATM    2  C2  UNL     1     -34.294  15.470  -6.158  1.00 20.00     0.005 C 
HETATM    3  C3  UNL     1     -35.126  14.193  -6.191  1.00 20.00     0.030 C 
HETATM    4  C4  UNL     1     -34.381  16.129  -4.783  1.00 20.00     0.057 C 
HETATM    5  C5  UNL     1     -34.768  13.266  -5.034  1.00 20.00     0.272 C 
HETATM    6  C6  UNL     1     -34.063  15.155  -3.626  1.00 20.00     0.240 C 
HETATM    7  C7  UNL     1     -32.564  14.804  -3.584  1.00 20.00     0.066 C 
HETATM    8  N8  UNL     1     -34.660  16.344  -1.343  1.00 20.00    -0.195 NA
HETATM    9  N9  UNL     1     -34.885  13.935  -3.735  1.00 20.00     0.106 N 
HETATM   10  H21 UNL     1     -35.864  14.148  -3.542  1.00 20.00     0.318 HD
ENDROOT
TORSDOF 0
ENDMDL
MODEL 8
REMARK VINA RESULT:      -4.0      1.677      2.680
REMARK  0 active torsions:
REMARK  status: ('A' for Active; 'I' for Inactive)
ROOT
HETATM    1  C1  UNL     1     -34.799  13.734  -4.469  1.00 20.00     0.101 C 
HETATM    2  C2  UNL     1     -33.686  16.645  -2.241  1.00 20.00     0.005 C 
HETATM    3  C3  UNL     1     -35.061  16.865  -1.621  1.00 20.00     0.030 C 
HETATM    4  C4  UNL     1     -33.640  15.309  -2.981  1.00 20.00     0.057 C 
HETATM    5  C5  UNL     1     -36.170  16.688  -2.653  1.00 20.00     0.272 C 
HETATM    6  C6  UNL     1     -34.803  15.135  -3.982  1.00 20.00     0.240 C 
HETATM    7  C7  UNL     1     -34.629  16.048  -5.210  1.00 20.00     0.066 C 
HETATM    8  N8  UNL     1     -34.795  12.638  -4.849  1.00 20.00    -0.195 NA
HETATM    9  N9  UNL     1     -36.098  15.385  -3.322  1.00 20.00     0.106 N 
HETATM   10  H21 UNL     1     -36.306  14.641  -2.656  1.00 20.00     0.318 HD
ENDROOT
TORSDOF 0
ENDMDL
MODEL 9
REMARK VINA RESULT:      -4.0      2.123      2.675
REMARK  0 active torsions:
REMARK  status: ('A' for Active; 'I' for Inactive)
ROOT
HETATM    1  C1  UNL     1     -34.775  14.747  -6.692  1.00 20.00     0.101 C 
HETATM    2  C2  UNL     1     -35.449  15.532  -3.004  1.00 20.00     0.005 C 
HETATM    3  C3  UNL     1     -34.060  16.099  -2.738  1.00 20.00     0.030 C 
HETATM    4  C4  UNL     1     -35.691  15.393  -4.506  1.00 20.00     0.057 C 
HETATM    5  C5  UNL     1     -32.984  15.303  -3.469  1.00 20.00     0.272 C 
HETATM    6  C6  UNL     1     -34.563  14.626  -5.230  1.00 20.00     0.240 C 
HETATM    7  C7  UNL     1     -34.592  13.125  -4.884  1.00 20.00     0.066 C 
HETATM    8  N8  UNL     1     -34.942  14.842  -7.836  1.00 20.00    -0.195 NA
HETATM    9  N9  UNL     1     -33.248  15.213  -4.908  1.00 20.00     0.106 N 
HETATM   10  H21 UNL     1     -33.157  16.135  -5.336  1.00 20.00     0.318 HD
ENDROOT
TORSDOF 0
ENDMDL
