MODEL 1
REMARK VINA RESULT:      -5.0      0.000      0.000
REMARK  3 active torsions:
REMARK  status: ('A' for Active; 'I' for Inactive)
REMARK    1  A    between atoms: C4_4  and  C9_9 
REMARK    2  A    between atoms: C5_5  and  C10_10 
REMARK    3  A    between atoms: C9_9  and  C11_11 
ROOT
HETATM    1  C1  UNL     1     -33.471  13.852  -3.951  1.00 20.00     0.006 C 
HETATM    2  C2  UNL     1     -34.644  13.709  -4.918  1.00 20.00     0.021 C 
HETATM    3  C3  UNL     1     -33.219  16.275  -4.609  1.00 20.00     0.010 C 
HETATM    4  C4  UNL     1     -33.294  15.286  -3.438  1.00 20.00    -0.014 C 
HETATM    5  C5  UNL     1     -34.396  16.153  -5.597  1.00 20.00     0.004 C 
HETATM    6  C6  UNL     1     -34.542  14.697  -6.082  1.00 20.00     0.086 C 
HETATM    7 CL12 UNL     1     -35.986  14.499  -7.126  1.00 20.00    -0.125 Cl
ENDROOT
BRANCH   4   8
HETATM    8  C9  UNL     1     -34.386  15.673  -2.436  1.00 20.00     0.004 C 
BRANCH   8   9
HETATM    9  C11 UNL     1     -33.970  16.882  -1.607  1.00 20.00    -0.004 C 
HETATM   10  C8  UNL     1     -34.750  16.949  -0.304  1.00 20.00     0.005 C 
ENDBRANCH   8   9
ENDBRANCH   4   8
BRANCH   5  11
HETATM   11  C10 UNL     1     -34.183  17.135  -6.755  1.00 20.00     0.001 C 
HETATM   12  C7  UNL     1     -33.712  18.462  -6.264  1.00 20.00     0.005 C 
ENDBRANCH   5  11
TORSDOF 3
ENDMDL
MODEL 2
REMARK VINA RESULT:      -4.7      1.697      3.413
REMARK  3 active torsions:
REMARK  status: ('A' for Active; 'I' for Inactive)
REMARK    1  A    between atoms: C4_4  and  C9_9 
REMARK    2  A    between atoms: C5_5  and  C10_10 
REMARK    3  A    between atoms: C9_9  and  C11_11 
ROOT
HETATM    1  C1  UNL     1     -35.606  17.765  -2.765  1.00 20.00     0.006 C 
HETATM    2  C2  UNL     1     -34.825  17.692  -4.075  1.00 20.00     0.021 C 
HETATM    3  C3  UNL     1     -34.734  15.488  -2.114  1.00 20.00     0.010 C 
HETATM    4  C4  UNL     1     -34.971  16.931  -1.646  1.00 20.00    -0.014 C 
HETATM    5  C5  UNL     1     -33.942  15.388  -3.433  1.00 20.00     0.004 C 
HETATM    6  C6  UNL     1     -34.611  16.246  -4.527  1.00 20.00     0.086 C 
HETATM    7 CL12 UNL     1     -33.636  16.257  -6.032  1.00 20.00    -0.125 Cl
ENDROOT
BRANCH   4   8
HETATM    8  C9  UNL     1     -33.688  17.574  -1.113  1.00 20.00     0.004 C 
BRANCH   8   9
HETATM    9  C11 UNL     1     -33.886  18.110   0.300  1.00 20.00    -0.004 C 
HETATM   10  C8  UNL     1     -35.151  17.547   0.928  1.00 20.00     0.005 C 
ENDBRANCH   8   9
ENDBRANCH   4   8
BRANCH   5  11
HETATM   11  C10 UNL     1     -33.824  13.915  -3.837  1.00 20.00     0.001 C 
HETATM   12  C7  UNL     1     -35.135  13.368  -4.291  1.00 20.00     0.005 C 
ENDBRANCH   5  11
TORSDOF 3
ENDMDL
MODEL 3
REMARK VINA RESULT:      -4.6      2.062      3.113
REMARK  3 active torsions:
REMARK  status: ('A' for Active; 'I' for Inactive)
REMARK    1  A    between atoms: C4_4  and  C9_9 
REMARK    2  A    between atoms: C5_5  and  C10_10 
REMARK    3  A    between atoms: C9_9  and  C11_11 
ROOT
HETATM    1  C1  UNL     1     -33.618  16.953  -3.095  1.00 20.00     0.006 C 
HETATM    2  C2  UNL     1     -33.406  15.514  -3.555  1.00 20.00     0.021 C 
HETATM    3  C3  UNL     1     -36.098  16.528  -2.896  1.00 20.00     0.010 C 
HETATM    4  C4  UNL     1     -34.859  17.118  -2.209  1.00 20.00    -0.014 C 
HETATM    5  C5  UNL     1     -35.909  15.071  -3.365  1.00 20.00     0.004 C 
HETATM    6  C6  UNL     1     -34.649  14.950  -4.247  1.00 20.00     0.086 C 
HETATM    7 CL12 UNL     1     -34.329  13.243  -4.694  1.00 20.00    -0.125 Cl
ENDROOT
BRANCH   4   8
HETATM    8  C9  UNL     1     -34.646  16.526  -0.813  1.00 20.00     0.004 C 
BRANCH   8   9
HETATM    9  C11 UNL     1     -34.770  17.596   0.265  1.00 20.00    -0.004 C 
HETATM   10  C8  UNL     1     -33.506  18.436   0.353  1.00 20.00     0.005 C 
ENDBRANCH   8   9
ENDBRANCH   4   8
BRANCH   5  11
HETATM   11  C10 UNL     1     -37.177  14.610  -4.092  1.00 20.00     0.001 C 
HETATM   12  C7  UNL     1     -37.323  15.286  -5.413  1.00 20.00     0.005 C 
ENDBRANCH   5  11
TORSDOF 3
ENDMDL
MODEL 4
REMARK VINA RESULT:      -4.5      2.133      4.649
REMARK  3 active torsions:
REMARK  status: ('A' for Active; 'I' for Inactive)
REMARK    1  A    between atoms: C4_4  and  C9_9 
REMARK    2  A    between atoms: C5_5  and  C10_10 
REMARK    3  A    between atoms: C9_9  and  C11_11 
ROOT
HETATM    1  C1  UNL     1     -33.659  17.203  -5.227  1.00 20.00     0.006 C 
HETATM    2  C2  UNL     1     -34.948  17.832  -4.702  1.00 20.00     0.021 C 
HETATM    3  C3  UNL     1     -33.457  15.844  -3.110  1.00 20.00     0.010 C 
HETATM    4  C4  UNL     1     -33.396  15.810  -4.644  1.00 20.00    -0.014 C 
HETATM    5  C5  UNL     1     -34.752  16.470  -2.557  1.00 20.00     0.004 C 
HETATM    6  C6  UNL     1     -34.980  17.865  -3.173  1.00 20.00     0.086 C 
HETATM    7 CL12 UNL     1     -36.549  18.559  -2.651  1.00 20.00    -0.125 Cl
ENDROOT
BRANCH   4   8
HETATM    8  C9  UNL     1     -34.345  14.759  -5.227  1.00 20.00     0.004 C 
BRANCH   8   9
HETATM    9  C11 UNL     1     -34.415  14.863  -6.746  1.00 20.00    -0.004 C 
HETATM   10  C8  UNL     1     -35.850  14.757  -7.238  1.00 20.00     0.005 C 
ENDBRANCH   8   9
ENDBRANCH   4   8
BRANCH   5  11
HETATM   11  C10 UNL     1     -34.674  16.514  -1.027  1.00 20.00     0.001 C 
HETATM   12  C7  UNL     1     -33.780  17.610  -0.557  1.00 20.00     0.005 C 
ENDBRANCH   5  11
TORSDOF 3
ENDMDL
MODEL 5
REMARK VINA RESULT:      -4.4      1.790      2.815
REMARK  3 active torsions:
REMARK  status: ('A' for Active; 'I' for Inactive)
REMARK    1  A    between atoms: C4_4  and  C9_9 
REMARK    2  A    between atoms: C5_5  and  C10_10 
REMARK    3  A    between atoms: C9_9  and  C11_11 
ROOT
HETATM    1  C1  UNL     1     -36.444  16.645  -3.394  1.00 20.00     0.006 C 
HETATM    2  C2  UNL     1     -35.872  17.637  -4.403  1.00 20.00     0.021 C 
HETATM    3  C3  UNL     1     -35.171  14.772  -4.507  1.00 20.00     0.010 C 
HETATM    4  C4  UNL     1     -35.534  15.432  -3.169  1.00 20.00    -0.014 C 
HETATM    5  C5  UNL     1     -34.585  15.754  -5.541  1.00 20.00     0.004 C 
HETATM    6  C6  UNL     1     -35.527  16.960  -5.731  1.00 20.00     0.086 C 
HETATM    7 CL12 UNL     1     -34.807  18.183  -6.826  1.00 20.00    -0.125 Cl
ENDROOT
BRANCH   4   8
HETATM    8  C9  UNL     1     -34.288  15.796  -2.358  1.00 20.00     0.004 C 
BRANCH   8   9
HETATM    9  C11 UNL     1     -34.663  16.493  -1.055  1.00 20.00    -0.004 C 
HETATM   10  C8  UNL     1     -33.725  17.654  -0.764  1.00 20.00     0.005 C 
ENDBRANCH   8   9
ENDBRANCH   4   8
BRANCH   5  11
HETATM   11  C10 UNL     1     -34.324  15.004  -6.852  1.00 20.00     0.001 C 
HETATM   12  C7  UNL     1     -35.583  14.439  -7.416  1.00 20.00     0.005 C 
ENDBRANCH   5  11
TORSDOF 3
ENDMDL
MODEL 6
REMARK VINA RESULT:      -4.3      2.399      3.933
REMARK  3 active torsions:
REMARK  status: ('A' for Active; 'I' for Inactive)
REMARK    1  A    between atoms: C4_4  and  C9_9 
REMARK    2  A    between atoms: C5_5  and  C10_10 
REMARK    3  A    between atoms: C9_9  and  C11_11 
ROOT
HETATM    1  C1  UNL     1     -34.353  15.176  -6.415  1.00 20.00     0.006 C 
HETATM    2  C2  UNL     1     -34.125  16.669  -6.193  1.00 20.00     0.021 C 
HETATM    3  C3  UNL     1     -34.574  14.835  -3.925  1.00 20.00     0.010 C 
HETATM    4  C4  UNL     1     -35.182  14.528  -5.301  1.00 20.00    -0.014 C 
HETATM    5  C5  UNL     1     -34.340  16.337  -3.674  1.00 20.00     0.004 C 
HETATM    6  C6  UNL     1     -33.509  16.950  -4.820  1.00 20.00     0.086 C 
HETATM    7 CL12 UNL     1     -33.337  18.724  -4.623  1.00 20.00    -0.125 Cl
ENDROOT
BRANCH   4   8
HETATM    8  C9  UNL     1     -36.656  14.935  -5.375  1.00 20.00     0.004 C 
BRANCH   8   9
HETATM    9  C11 UNL     1     -37.379  14.630  -4.068  1.00 20.00    -0.004 C 
HETATM   10  C8  UNL     1     -38.177  15.832  -3.588  1.00 20.00     0.005 C 
ENDBRANCH   8   9
ENDBRANCH   4   8
BRANCH   5  11
HETATM   11  C10 UNL     1     -33.672  16.520  -2.307  1.00 20.00     0.001 C 
HETATM   12  C7  UNL     1     -34.671  16.473  -1.202  1.00 20.00     0.005 C 
ENDBRANCH   5  11
TORSDOF 3
ENDMDL
MODEL 7
REMARK VINA RESULT:      -4.3      2.357      4.511
REMARK  3 active torsions:
REMARK  status: ('A' for Active; 'I' for Inactive)
REMARK    1  A    between atoms: C4_4  and  C9_9 
REMARK    2  A    between atoms: C5_5  and  C10_10 
REMARK    3  A    between atoms: C9_9  and  C11_11 
ROOT
HETATM    1  C1  UNL     1     -36.266  14.018  -4.191  1.00 20.00     0.006 C 
HETATM    2  C2  UNL     1     -34.750  13.903  -4.336  1.00 20.00     0.021 C 
HETATM    3  C3  UNL     1     -35.988  16.223  -2.996  1.00 20.00     0.010 C 
HETATM    4  C4  UNL     1     -36.747  15.471  -4.098  1.00 20.00    -0.014 C 
HETATM    5  C5  UNL     1     -34.455  16.126  -3.125  1.00 20.00     0.004 C 
HETATM    6  C6  UNL     1     -34.016  14.651  -3.221  1.00 20.00     0.086 C 
HETATM    7 CL12 UNL     1     -32.251  14.514  -3.508  1.00 20.00    -0.125 Cl
ENDROOT
BRANCH   4   8
HETATM    8  C9  UNL     1     -36.652  16.190  -5.447  1.00 20.00     0.004 C 
BRANCH   8   9
HETATM    9  C11 UNL     1     -37.324  15.381  -6.550  1.00 20.00    -0.004 C 
HETATM   10  C8  UNL     1     -36.387  15.178  -7.730  1.00 20.00     0.005 C 
ENDBRANCH   8   9
ENDBRANCH   4   8
BRANCH   5  11
HETATM   11  C10 UNL     1     -33.805  16.852  -1.942  1.00 20.00     0.001 C 
HETATM   12  C7  UNL     1     -34.621  16.712  -0.702  1.00 20.00     0.005 C 
ENDBRANCH   5  11
TORSDOF 3
ENDMDL
MODEL 8
REMARK VINA RESULT:      -4.3      2.765      5.018
REMARK  3 active torsions:
REMARK  status: ('A' for Active; 'I' for Inactive)
REMARK    1  A    between atoms: C4_4  and  C9_9 
REMARK    2  A    between atoms: C5_5  and  C10_10 
REMARK    3  A    between atoms: C9_9  and  C11_11 
ROOT
HETATM    1  C1  UNL     1     -35.199  17.062  -3.895  1.00 20.00     0.006 C 
HETATM    2  C2  UNL     1     -36.372  17.457  -3.002  1.00 20.00     0.021 C 
HETATM    3  C3  UNL     1     -33.755  16.721  -1.854  1.00 20.00     0.010 C 
HETATM    4  C4  UNL     1     -34.206  16.126  -3.196  1.00 20.00    -0.014 C 
HETATM    5  C5  UNL     1     -34.923  17.122  -0.932  1.00 20.00     0.004 C 
HETATM    6  C6  UNL     1     -35.899  18.056  -1.675  1.00 20.00     0.086 C 
HETATM    7 CL12 UNL     1     -37.337  18.428  -0.672  1.00 20.00    -0.125 Cl
ENDROOT
BRANCH   4   8
HETATM    8  C9  UNL     1     -34.773  14.714  -3.030  1.00 20.00     0.004 C 
BRANCH   8   9
HETATM    9  C11 UNL     1     -33.966  13.699  -3.832  1.00 20.00    -0.004 C 
HETATM   10  C8  UNL     1     -34.702  13.291  -5.099  1.00 20.00     0.005 C 
ENDBRANCH   8   9
ENDBRANCH   4   8
BRANCH   5  11
HETATM   11  C10 UNL     1     -34.360  17.761   0.342  1.00 20.00     0.001 C 
HETATM   12  C7  UNL     1     -33.120  18.539   0.059  1.00 20.00     0.005 C 
ENDBRANCH   5  11
TORSDOF 3
ENDMDL
MODEL 9
REMARK VINA RESULT:      -4.3      1.825      2.933
REMARK  3 active torsions:
REMARK  status: ('A' for Active; 'I' for Inactive)
REMARK    1  A    between atoms: C4_4  and  C9_9 
REMARK    2  A    between atoms: C5_5  and  C10_10 
REMARK    3  A    between atoms: C9_9  and  C11_11 
ROOT
HETATM    1  C1  UNL     1     -33.690  17.869  -4.338  1.00 20.00     0.006 C 
HETATM    2  C2  UNL     1     -33.458  16.730  -5.329  1.00 20.00     0.021 C 
HETATM    3  C3  UNL     1     -35.923  16.875  -3.712  1.00 20.00     0.010 C 
HETATM    4  C4  UNL     1     -34.612  17.472  -3.180  1.00 20.00    -0.014 C 
HETATM    5  C5  UNL     1     -35.715  15.719  -4.711  1.00 20.00     0.004 C 
HETATM    6  C6  UNL     1     -34.777  16.159  -5.854  1.00 20.00     0.086 C 
HETATM    7 CL12 UNL     1     -34.410  14.793  -6.956  1.00 20.00    -0.125 Cl
ENDROOT
BRANCH   4   8
HETATM    8  C9  UNL     1     -33.917  16.529  -2.194  1.00 20.00     0.004 C 
BRANCH   8   9
HETATM    9  C11 UNL     1     -34.620  16.530  -0.841  1.00 20.00    -0.004 C 
HETATM   10  C8  UNL     1     -34.224  17.745  -0.018  1.00 20.00     0.005 C 
ENDBRANCH   8   9
ENDBRANCH   4   8
BRANCH   5  11
HETATM   11  C10 UNL     1     -37.080  15.248  -5.224  1.00 20.00     0.001 C 
HETATM   12  C7  UNL     1     -37.951  14.782  -4.108  1.00 20.00     0.005 C 
ENDBRANCH   5  11
TORSDOF 3
ENDMDL
