MODEL 1
REMARK VINA RESULT:      -4.9      0.000      0.000
REMARK  2 active torsions:
REMARK  status: ('A' for Active; 'I' for Inactive)
REMARK    1  A    between atoms: C1_1  and  C6_6 
REMARK    2  A    between atoms: C1_1  and  C8_8 
ROOT
HETATM    1  C2  UNL     1     -34.459   5.987   6.399  1.00 20.00     0.027 C 
HETATM    2  C3  UNL     1     -33.323   6.399   5.469  1.00 20.00     0.016 C 
HETATM    3  C4  UNL     1     -35.147   4.729   5.887  1.00 20.00     0.167 C 
HETATM    4  C5  UNL     1     -34.542   5.180   3.641  1.00 20.00     0.179 C 
HETATM    5  C6  UNL     1     -33.812   6.464   4.022  1.00 20.00     0.079 C 
HETATM    6  O10 UNL     1     -35.611   4.916   4.550  1.00 20.00    -0.390 OA
ENDROOT
BRANCH   5   7
HETATM    7  C1  UNL     1     -32.654   6.696   3.106  1.00 20.00     0.132 C 
HETATM    8  O9  UNL     1     -32.042   5.752   2.605  1.00 20.00    -0.298 OA
BRANCH   7   9
HETATM    9  C8  UNL     1     -32.290   8.146   2.842  1.00 20.00     0.074 C 
HETATM   10  C7  UNL     1     -31.922   8.402   1.392  1.00 20.00     0.013 C 
ENDBRANCH   7   9
ENDBRANCH   5   7
TORSDOF 2
ENDMDL
MODEL 2
REMARK VINA RESULT:      -4.4     11.143     12.119
REMARK  2 active torsions:
REMARK  status: ('A' for Active; 'I' for Inactive)
REMARK    1  A    between atoms: C1_1  and  C6_6 
REMARK    2  A    between atoms: C1_1  and  C8_8 
ROOT
HETATM    1  C2  UNL     1     -33.689  13.527  -3.994  1.00 20.00     0.027 C 
HETATM    2  C3  UNL     1     -33.236  14.927  -3.594  1.00 20.00     0.016 C 
HETATM    3  C4  UNL     1     -35.077  13.566  -4.618  1.00 20.00     0.167 C 
HETATM    4  C5  UNL     1     -35.669  15.539  -3.449  1.00 20.00     0.179 C 
HETATM    5  C6  UNL     1     -34.312  15.619  -2.757  1.00 20.00     0.079 C 
HETATM    6  O10 UNL     1     -36.012  14.184  -3.734  1.00 20.00    -0.390 OA
ENDROOT
BRANCH   5   7
HETATM    7  C1  UNL     1     -33.930  17.046  -2.523  1.00 20.00     0.132 C 
HETATM    8  O9  UNL     1     -33.847  17.842  -3.458  1.00 20.00    -0.298 OA
BRANCH   7   9
HETATM    9  C8  UNL     1     -33.658  17.437  -1.082  1.00 20.00     0.074 C 
HETATM   10  C7  UNL     1     -34.808  17.089  -0.154  1.00 20.00     0.013 C 
ENDBRANCH   7   9
ENDBRANCH   5   7
TORSDOF 2
ENDMDL
MODEL 3
REMARK VINA RESULT:      -4.3     11.039     12.489
REMARK  2 active torsions:
REMARK  status: ('A' for Active; 'I' for Inactive)
REMARK    1  A    between atoms: C1_1  and  C6_6 
REMARK    2  A    between atoms: C1_1  and  C8_8 
ROOT
HETATM    1  C2  UNL     1     -34.464  14.715  -6.166  1.00 20.00     0.027 C 
HETATM    2  C3  UNL     1     -34.544  15.874  -5.178  1.00 20.00     0.016 C 
HETATM    3  C4  UNL     1     -34.832  13.402  -5.489  1.00 20.00     0.167 C 
HETATM    4  C5  UNL     1     -34.163  14.185  -3.356  1.00 20.00     0.179 C 
HETATM    5  C6  UNL     1     -33.759  15.549  -3.907  1.00 20.00     0.079 C 
HETATM    6  O10 UNL     1     -34.005  13.172  -4.349  1.00 20.00    -0.390 OA
ENDROOT
BRANCH   5   7
HETATM    7  C1  UNL     1     -33.990  16.614  -2.883  1.00 20.00     0.132 C 
HETATM    8  O9  UNL     1     -33.569  17.758  -3.052  1.00 20.00    -0.298 OA
BRANCH   7   9
HETATM    9  C8  UNL     1     -34.762  16.194  -1.646  1.00 20.00     0.074 C 
HETATM   10  C7  UNL     1     -34.474  17.081  -0.448  1.00 20.00     0.013 C 
ENDBRANCH   7   9
ENDBRANCH   5   7
TORSDOF 2
ENDMDL
MODEL 4
REMARK VINA RESULT:      -4.3     11.503     12.234
REMARK  2 active torsions:
REMARK  status: ('A' for Active; 'I' for Inactive)
REMARK    1  A    between atoms: C1_1  and  C6_6 
REMARK    2  A    between atoms: C1_1  and  C8_8 
ROOT
HETATM    1  C2  UNL     1     -33.607  16.297  -2.484  1.00 20.00     0.027 C 
HETATM    2  C3  UNL     1     -33.614  15.093  -3.420  1.00 20.00     0.016 C 
HETATM    3  C4  UNL     1     -34.909  16.377  -1.699  1.00 20.00     0.167 C 
HETATM    4  C5  UNL     1     -36.123  15.231  -3.379  1.00 20.00     0.179 C 
HETATM    5  C6  UNL     1     -34.889  15.078  -4.263  1.00 20.00     0.079 C 
HETATM    6  O10 UNL     1     -36.030  16.411  -2.582  1.00 20.00    -0.390 OA
ENDROOT
BRANCH   5   7
HETATM    7  C1  UNL     1     -34.964  13.805  -5.045  1.00 20.00     0.132 C 
HETATM    8  O9  UNL     1     -34.975  12.713  -4.479  1.00 20.00    -0.298 OA
BRANCH   7   9
HETATM    9  C8  UNL     1     -35.023  13.951  -6.554  1.00 20.00     0.074 C 
HETATM   10  C7  UNL     1     -34.369  15.230  -7.044  1.00 20.00     0.013 C 
ENDBRANCH   7   9
ENDBRANCH   5   7
TORSDOF 2
ENDMDL
MODEL 5
REMARK VINA RESULT:      -4.2     11.098     12.356
REMARK  2 active torsions:
REMARK  status: ('A' for Active; 'I' for Inactive)
REMARK    1  A    between atoms: C1_1  and  C6_6 
REMARK    2  A    between atoms: C1_1  and  C8_8 
ROOT
HETATM    1  C2  UNL     1     -33.636  15.634  -3.056  1.00 20.00     0.027 C 
HETATM    2  C3  UNL     1     -35.054  15.888  -3.557  1.00 20.00     0.016 C 
HETATM    3  C4  UNL     1     -33.020  14.436  -3.765  1.00 20.00     0.167 C 
HETATM    4  C5  UNL     1     -35.135  13.456  -4.187  1.00 20.00     0.179 C 
HETATM    5  C6  UNL     1     -35.878  14.601  -3.506  1.00 20.00     0.079 C 
HETATM    6  O10 UNL     1     -33.841  13.279  -3.610  1.00 20.00    -0.390 OA
ENDROOT
BRANCH   5   7
HETATM    7  C1  UNL     1     -37.204  14.823  -4.160  1.00 20.00     0.132 C 
HETATM    8  O9  UNL     1     -38.194  14.173  -3.824  1.00 20.00    -0.298 OA
BRANCH   7   9
HETATM    9  C8  UNL     1     -37.244  15.882  -5.247  1.00 20.00     0.074 C 
HETATM   10  C7  UNL     1     -37.295  15.286  -6.642  1.00 20.00     0.013 C 
ENDBRANCH   7   9
ENDBRANCH   5   7
TORSDOF 2
ENDMDL
MODEL 6
REMARK VINA RESULT:      -4.2     11.250     12.548
REMARK  2 active torsions:
REMARK  status: ('A' for Active; 'I' for Inactive)
REMARK    1  A    between atoms: C1_1  and  C6_6 
REMARK    2  A    between atoms: C1_1  and  C8_8 
ROOT
HETATM    1  C2  UNL     1     -33.844  17.834  -0.354  1.00 20.00     0.027 C 
HETATM    2  C3  UNL     1     -34.570  16.625  -0.935  1.00 20.00     0.016 C 
HETATM    3  C4  UNL     1     -33.883  19.004  -1.327  1.00 20.00     0.167 C 
HETATM    4  C5  UNL     1     -34.084  17.578  -3.208  1.00 20.00     0.179 C 
HETATM    5  C6  UNL     1     -34.062  16.321  -2.344  1.00 20.00     0.079 C 
HETATM    6  O10 UNL     1     -33.339  18.628  -2.592  1.00 20.00    -0.390 OA
ENDROOT
BRANCH   5   7
HETATM    7  C1  UNL     1     -34.900  15.249  -2.964  1.00 20.00     0.132 C 
HETATM    8  O9  UNL     1     -36.123  15.365  -3.041  1.00 20.00    -0.298 OA
BRANCH   7   9
HETATM    9  C8  UNL     1     -34.154  14.032  -3.480  1.00 20.00     0.074 C 
HETATM   10  C7  UNL     1     -34.972  13.221  -4.469  1.00 20.00     0.013 C 
ENDBRANCH   7   9
ENDBRANCH   5   7
TORSDOF 2
ENDMDL
MODEL 7
REMARK VINA RESULT:      -4.1      9.319     10.788
REMARK  2 active torsions:
REMARK  status: ('A' for Active; 'I' for Inactive)
REMARK    1  A    between atoms: C1_1  and  C6_6 
REMARK    2  A    between atoms: C1_1  and  C8_8 
ROOT
HETATM    1  C2  UNL     1     -40.626   6.062  -0.049  1.00 20.00     0.027 C 
HETATM    2  C3  UNL     1     -41.497   4.828  -0.263  1.00 20.00     0.016 C 
HETATM    3  C4  UNL     1     -41.145   7.237  -0.865  1.00 20.00     0.167 C 
HETATM    4  C5  UNL     1     -42.142   5.819  -2.480  1.00 20.00     0.179 C 
HETATM    5  C6  UNL     1     -41.684   4.557  -1.755  1.00 20.00     0.079 C 
HETATM    6  O10 UNL     1     -41.231   6.893  -2.248  1.00 20.00    -0.390 OA
ENDROOT
BRANCH   5   7
HETATM    7  C1  UNL     1     -42.678   3.456  -1.949  1.00 20.00     0.132 C 
HETATM    8  O9  UNL     1     -43.417   3.101  -1.031  1.00 20.00    -0.298 OA
BRANCH   7   9
HETATM    9  C8  UNL     1     -42.710   2.820  -3.326  1.00 20.00     0.074 C 
HETATM   10  C7  UNL     1     -41.455   2.024  -3.632  1.00 20.00     0.013 C 
ENDBRANCH   7   9
ENDBRANCH   5   7
TORSDOF 2
ENDMDL
MODEL 8
REMARK VINA RESULT:      -4.0     11.511     12.431
REMARK  2 active torsions:
REMARK  status: ('A' for Active; 'I' for Inactive)
REMARK    1  A    between atoms: C1_1  and  C6_6 
REMARK    2  A    between atoms: C1_1  and  C8_8 
ROOT
HETATM    1  C2  UNL     1     -35.805  16.758  -2.525  1.00 20.00     0.027 C 
HETATM    2  C3  UNL     1     -36.019  15.756  -3.654  1.00 20.00     0.016 C 
HETATM    3  C4  UNL     1     -34.371  17.270  -2.522  1.00 20.00     0.167 C 
HETATM    4  C5  UNL     1     -33.550  15.302  -3.553  1.00 20.00     0.179 C 
HETATM    5  C6  UNL     1     -34.939  14.675  -3.621  1.00 20.00     0.079 C 
HETATM    6  O10 UNL     1     -33.448  16.185  -2.436  1.00 20.00    -0.390 OA
ENDROOT
BRANCH   5   7
HETATM    7  C1  UNL     1     -35.058  13.804  -4.832  1.00 20.00     0.132 C 
HETATM    8  O9  UNL     1     -34.737  12.616  -4.792  1.00 20.00    -0.298 OA
BRANCH   7   9
HETATM    9  C8  UNL     1     -35.588  14.472  -6.086  1.00 20.00     0.074 C 
HETATM   10  C7  UNL     1     -34.486  14.850  -7.059  1.00 20.00     0.013 C 
ENDBRANCH   7   9
ENDBRANCH   5   7
TORSDOF 2
ENDMDL
MODEL 9
REMARK VINA RESULT:      -4.0     11.304     13.208
REMARK  2 active torsions:
REMARK  status: ('A' for Active; 'I' for Inactive)
REMARK    1  A    between atoms: C1_1  and  C6_6 
REMARK    2  A    between atoms: C1_1  and  C8_8 
ROOT
HETATM    1  C2  UNL     1     -34.453  16.334  -7.155  1.00 20.00     0.027 C 
HETATM    2  C3  UNL     1     -33.881  15.972  -5.788  1.00 20.00     0.016 C 
HETATM    3  C4  UNL     1     -35.973  16.241  -7.146  1.00 20.00     0.167 C 
HETATM    4  C5  UNL     1     -35.975  14.638  -5.402  1.00 20.00     0.179 C 
HETATM    5  C6  UNL     1     -34.453  14.640  -5.304  1.00 20.00     0.079 C 
HETATM    6  O10 UNL     1     -36.397  14.943  -6.730  1.00 20.00    -0.390 OA
ENDROOT
BRANCH   5   7
HETATM    7  C1  UNL     1     -34.022  14.385  -3.895  1.00 20.00     0.132 C 
HETATM    8  O9  UNL     1     -34.044  13.250  -3.420  1.00 20.00    -0.298 OA
BRANCH   7   9
HETATM    9  C8  UNL     1     -33.565  15.599  -3.106  1.00 20.00     0.074 C 
HETATM   10  C7  UNL     1     -34.570  16.022  -2.051  1.00 20.00     0.013 C 
ENDBRANCH   7   9
ENDBRANCH   5   7
TORSDOF 2
ENDMDL
