MODEL 1
REMARK VINA RESULT:      -4.5      0.000      0.000
REMARK  4 active torsions:
REMARK  status: ('A' for Active; 'I' for Inactive)
REMARK    1  A    between atoms: C4_4  and  C8_8 
REMARK    2  A    between atoms: C8_8  and  C11_11 
REMARK    3  A    between atoms: C9_9  and  C10_10 
REMARK    4  A    between atoms: C10_10  and  C11_11 
ROOT
HETATM    1  C1  UNL     1     -34.224  18.458  -6.788  1.00 20.00     0.002 C 
HETATM    2  C2  UNL     1     -33.646  18.025  -5.437  1.00 20.00     0.006 C 
HETATM    3  C3  UNL     1     -34.769  17.192  -7.448  1.00 20.00     0.020 C 
HETATM    4  C4  UNL     1     -34.049  16.558  -5.267  1.00 20.00     0.004 C 
HETATM    5  C5  UNL     1     -34.075  16.055  -6.709  1.00 20.00     0.086 C 
HETATM    6 CL12 UNL     1     -34.942  14.521  -6.893  1.00 20.00    -0.125 Cl
ENDROOT
BRANCH   4   7
HETATM    7  C8  UNL     1     -33.102  15.790  -4.357  1.00 20.00     0.010 C 
BRANCH   7   8
HETATM    8  C11 UNL     1     -33.802  15.114  -3.164  1.00 20.00    -0.018 C 
HETATM    9  C7  UNL     1     -34.270  13.711  -3.566  1.00 20.00     0.010 C 
BRANCH   8  10
HETATM   10  C10 UNL     1     -34.953  15.935  -2.548  1.00 20.00     0.004 C 
BRANCH  10  11
HETATM   11  C9  UNL     1     -34.693  16.472  -1.138  1.00 20.00    -0.004 C 
HETATM   12  C6  UNL     1     -33.584  17.515  -1.142  1.00 20.00     0.005 C 
ENDBRANCH  10  11
ENDBRANCH   8  10
ENDBRANCH   7   8
ENDBRANCH   4   7
TORSDOF 4
ENDMDL
MODEL 2
REMARK VINA RESULT:      -4.5     10.856     13.530
REMARK  4 active torsions:
REMARK  status: ('A' for Active; 'I' for Inactive)
REMARK    1  A    between atoms: C4_4  and  C8_8 
REMARK    2  A    between atoms: C8_8  and  C11_11 
REMARK    3  A    between atoms: C9_9  and  C10_10 
REMARK    4  A    between atoms: C10_10  and  C11_11 
ROOT
HETATM    1  C1  UNL     1     -35.209   4.668   6.295  1.00 20.00     0.002 C 
HETATM    2  C2  UNL     1     -34.216   5.832   6.227  1.00 20.00     0.006 C 
HETATM    3  C3  UNL     1     -35.378   4.162   4.864  1.00 20.00     0.020 C 
HETATM    4  C4  UNL     1     -33.688   5.840   4.789  1.00 20.00     0.004 C 
HETATM    5  C5  UNL     1     -34.884   5.313   3.998  1.00 20.00     0.086 C 
HETATM    6 CL12 UNL     1     -34.452   4.775   2.366  1.00 20.00    -0.125 Cl
ENDROOT
BRANCH   4   7
HETATM    7  C8  UNL     1     -33.207   7.214   4.347  1.00 20.00     0.010 C 
BRANCH   7   8
HETATM    8  C11 UNL     1     -31.931   7.175   3.486  1.00 20.00    -0.018 C 
HETATM    9  C7  UNL     1     -30.829   8.001   4.159  1.00 20.00     0.010 C 
BRANCH   8  10
HETATM   10  C10 UNL     1     -32.136   7.603   2.018  1.00 20.00     0.004 C 
BRANCH  10  11
HETATM   11  C9  UNL     1     -32.223   9.114   1.785  1.00 20.00    -0.004 C 
HETATM   12  C6  UNL     1     -32.500   9.430   0.321  1.00 20.00     0.005 C 
ENDBRANCH  10  11
ENDBRANCH   8  10
ENDBRANCH   7   8
ENDBRANCH   4   7
TORSDOF 4
ENDMDL
MODEL 3
REMARK VINA RESULT:      -4.5      1.444      2.350
REMARK  4 active torsions:
REMARK  status: ('A' for Active; 'I' for Inactive)
REMARK    1  A    between atoms: C4_4  and  C8_8 
REMARK    2  A    between atoms: C8_8  and  C11_11 
REMARK    3  A    between atoms: C9_9  and  C10_10 
REMARK    4  A    between atoms: C10_10  and  C11_11 
ROOT
HETATM    1  C1  UNL     1     -33.985  16.084  -6.717  1.00 20.00     0.002 C 
HETATM    2  C2  UNL     1     -33.740  16.764  -5.368  1.00 20.00     0.006 C 
HETATM    3  C3  UNL     1     -34.579  14.711  -6.405  1.00 20.00     0.020 C 
HETATM    4  C4  UNL     1     -34.380  15.848  -4.321  1.00 20.00     0.004 C 
HETATM    5  C5  UNL     1     -34.211  14.465  -4.948  1.00 20.00     0.086 C 
HETATM    6 CL12 UNL     1     -35.245  13.235  -4.202  1.00 20.00    -0.125 Cl
ENDROOT
BRANCH   4   7
HETATM    7  C8  UNL     1     -33.742  15.990  -2.947  1.00 20.00     0.010 C 
BRANCH   7   8
HETATM    8  C11 UNL     1     -34.756  16.245  -1.817  1.00 20.00    -0.018 C 
HETATM    9  C7  UNL     1     -36.051  16.818  -2.405  1.00 20.00     0.010 C 
BRANCH   8  10
HETATM   10  C10 UNL     1     -34.225  17.125  -0.667  1.00 20.00     0.004 C 
BRANCH  10  11
HETATM   11  C9  UNL     1     -33.318  18.283  -1.095  1.00 20.00    -0.004 C 
HETATM   12  C6  UNL     1     -32.429  18.739   0.053  1.00 20.00     0.005 C 
ENDBRANCH  10  11
ENDBRANCH   8  10
ENDBRANCH   7   8
ENDBRANCH   4   7
TORSDOF 4
ENDMDL
MODEL 4
REMARK VINA RESULT:      -4.5      1.546      3.168
REMARK  4 active torsions:
REMARK  status: ('A' for Active; 'I' for Inactive)
REMARK    1  A    between atoms: C4_4  and  C8_8 
REMARK    2  A    between atoms: C8_8  and  C11_11 
REMARK    3  A    between atoms: C9_9  and  C10_10 
REMARK    4  A    between atoms: C10_10  and  C11_11 
ROOT
HETATM    1  C1  UNL     1     -33.466  13.647  -3.772  1.00 20.00     0.002 C 
HETATM    2  C2  UNL     1     -32.865  15.055  -3.728  1.00 20.00     0.006 C 
HETATM    3  C3  UNL     1     -34.585  13.689  -4.813  1.00 20.00     0.020 C 
HETATM    4  C4  UNL     1     -33.520  15.819  -4.882  1.00 20.00     0.004 C 
HETATM    5  C5  UNL     1     -34.901  15.171  -4.964  1.00 20.00     0.086 C 
HETATM    6 CL12 UNL     1     -35.739  15.516  -6.486  1.00 20.00    -0.125 Cl
ENDROOT
BRANCH   4   7
HETATM    7  C8  UNL     1     -33.552  17.322  -4.648  1.00 20.00     0.010 C 
BRANCH   7   8
HETATM    8  C11 UNL     1     -34.442  17.746  -3.465  1.00 20.00    -0.018 C 
HETATM    9  C7  UNL     1     -35.584  18.635  -3.971  1.00 20.00     0.010 C 
BRANCH   8  10
HETATM   10  C10 UNL     1     -33.683  18.415  -2.301  1.00 20.00     0.004 C 
BRANCH  10  11
HETATM   11  C9  UNL     1     -33.586  17.582  -1.020  1.00 20.00    -0.004 C 
HETATM   12  C6  UNL     1     -34.710  16.558  -0.943  1.00 20.00     0.005 C 
ENDBRANCH  10  11
ENDBRANCH   8  10
ENDBRANCH   7   8
ENDBRANCH   4   7
TORSDOF 4
ENDMDL
MODEL 5
REMARK VINA RESULT:      -4.5     10.988     13.670
REMARK  4 active torsions:
REMARK  status: ('A' for Active; 'I' for Inactive)
REMARK    1  A    between atoms: C4_4  and  C8_8 
REMARK    2  A    between atoms: C8_8  and  C11_11 
REMARK    3  A    between atoms: C9_9  and  C10_10 
REMARK    4  A    between atoms: C10_10  and  C11_11 
ROOT
HETATM    1  C1  UNL     1     -34.931   4.022   4.989  1.00 20.00     0.002 C 
HETATM    2  C2  UNL     1     -34.857   5.043   3.851  1.00 20.00     0.006 C 
HETATM    3  C3  UNL     1     -34.564   4.774   6.267  1.00 20.00     0.020 C 
HETATM    4  C4  UNL     1     -34.642   6.400   4.528  1.00 20.00     0.004 C 
HETATM    5  C5  UNL     1     -33.844   6.022   5.775  1.00 20.00     0.086 C 
HETATM    6 CL12 UNL     1     -33.825   7.301   7.000  1.00 20.00    -0.125 Cl
ENDROOT
BRANCH   4   7
HETATM    7  C8  UNL     1     -33.943   7.404   3.624  1.00 20.00     0.010 C 
BRANCH   7   8
HETATM    8  C11 UNL     1     -32.568   6.931   3.119  1.00 20.00    -0.018 C 
HETATM    9  C7  UNL     1     -31.464   7.506   4.014  1.00 20.00     0.010 C 
BRANCH   8  10
HETATM   10  C10 UNL     1     -32.295   7.227   1.630  1.00 20.00     0.004 C 
BRANCH  10  11
HETATM   11  C9  UNL     1     -31.549   8.535   1.350  1.00 20.00    -0.004 C 
HETATM   12  C6  UNL     1     -32.518   9.699   1.194  1.00 20.00     0.005 C 
ENDBRANCH  10  11
ENDBRANCH   8  10
ENDBRANCH   7   8
ENDBRANCH   4   7
TORSDOF 4
ENDMDL
MODEL 6
REMARK VINA RESULT:      -4.4      1.997      4.217
REMARK  4 active torsions:
REMARK  status: ('A' for Active; 'I' for Inactive)
REMARK    1  A    between atoms: C4_4  and  C8_8 
REMARK    2  A    between atoms: C8_8  and  C11_11 
REMARK    3  A    between atoms: C9_9  and  C10_10 
REMARK    4  A    between atoms: C10_10  and  C11_11 
ROOT
HETATM    1  C1  UNL     1     -34.637  16.499  -1.369  1.00 20.00     0.002 C 
HETATM    2  C2  UNL     1     -35.629  16.068  -2.452  1.00 20.00     0.006 C 
HETATM    3  C3  UNL     1     -33.726  17.545  -2.011  1.00 20.00     0.020 C 
HETATM    4  C4  UNL     1     -35.392  17.018  -3.630  1.00 20.00     0.004 C 
HETATM    5  C5  UNL     1     -33.901  17.327  -3.507  1.00 20.00     0.086 C 
HETATM    6 CL12 UNL     1     -33.408  18.747  -4.445  1.00 20.00    -0.125 Cl
ENDROOT
BRANCH   4   7
HETATM    7  C8  UNL     1     -35.794  16.409  -4.965  1.00 20.00     0.010 C 
BRANCH   7   8
HETATM    8  C11 UNL     1     -34.693  15.545  -5.607  1.00 20.00    -0.018 C 
HETATM    9  C7  UNL     1     -34.315  16.123  -6.976  1.00 20.00     0.010 C 
BRANCH   8  10
HETATM   10  C10 UNL     1     -35.035  14.044  -5.707  1.00 20.00     0.004 C 
BRANCH  10  11
HETATM   11  C9  UNL     1     -34.697  13.213  -4.466  1.00 20.00    -0.004 C 
HETATM   12  C6  UNL     1     -33.387  13.669  -3.838  1.00 20.00     0.005 C 
ENDBRANCH  10  11
ENDBRANCH   8  10
ENDBRANCH   7   8
ENDBRANCH   4   7
TORSDOF 4
ENDMDL
MODEL 7
REMARK VINA RESULT:      -4.4      1.831      3.214
REMARK  4 active torsions:
REMARK  status: ('A' for Active; 'I' for Inactive)
REMARK    1  A    between atoms: C4_4  and  C8_8 
REMARK    2  A    between atoms: C8_8  and  C11_11 
REMARK    3  A    between atoms: C9_9  and  C10_10 
REMARK    4  A    between atoms: C10_10  and  C11_11 
ROOT
HETATM    1  C1  UNL     1     -35.636  14.535  -7.668  1.00 20.00     0.002 C 
HETATM    2  C2  UNL     1     -34.278  15.040  -7.172  1.00 20.00     0.006 C 
HETATM    3  C3  UNL     1     -36.681  15.511  -7.130  1.00 20.00     0.020 C 
HETATM    4  C4  UNL     1     -34.555  16.402  -6.528  1.00 20.00     0.004 C 
HETATM    5  C5  UNL     1     -35.973  16.227  -5.987  1.00 20.00     0.086 C 
HETATM    6 CL12 UNL     1     -36.756  17.765  -5.585  1.00 20.00    -0.125 Cl
ENDROOT
BRANCH   4   7
HETATM    7  C8  UNL     1     -33.527  16.771  -5.468  1.00 20.00     0.010 C 
BRANCH   7   8
HETATM    8  C11 UNL     1     -33.810  16.149  -4.088  1.00 20.00    -0.018 C 
HETATM    9  C7  UNL     1     -33.885  17.255  -3.029  1.00 20.00     0.010 C 
BRANCH   8  10
HETATM   10  C10 UNL     1     -32.823  15.039  -3.672  1.00 20.00     0.004 C 
BRANCH  10  11
HETATM   11  C9  UNL     1     -33.361  13.610  -3.783  1.00 20.00    -0.004 C 
HETATM   12  C6  UNL     1     -34.881  13.601  -3.875  1.00 20.00     0.005 C 
ENDBRANCH  10  11
ENDBRANCH   8  10
ENDBRANCH   7   8
ENDBRANCH   4   7
TORSDOF 4
ENDMDL
MODEL 8
REMARK VINA RESULT:      -4.3      1.662      4.127
REMARK  4 active torsions:
REMARK  status: ('A' for Active; 'I' for Inactive)
REMARK    1  A    between atoms: C4_4  and  C8_8 
REMARK    2  A    between atoms: C8_8  and  C11_11 
REMARK    3  A    between atoms: C9_9  and  C10_10 
REMARK    4  A    between atoms: C10_10  and  C11_11 
ROOT
HETATM    1  C1  UNL     1     -33.805  16.253  -2.282  1.00 20.00     0.002 C 
HETATM    2  C2  UNL     1     -33.320  15.331  -3.404  1.00 20.00     0.006 C 
HETATM    3  C3  UNL     1     -35.328  16.139  -2.259  1.00 20.00     0.020 C 
HETATM    4  C4  UNL     1     -34.559  14.559  -3.867  1.00 20.00     0.004 C 
HETATM    5  C5  UNL     1     -35.682  15.566  -3.624  1.00 20.00     0.086 C 
HETATM    6 CL12 UNL     1     -37.291  14.824  -3.633  1.00 20.00    -0.125 Cl
ENDROOT
BRANCH   4   7
HETATM    7  C8  UNL     1     -34.451  14.085  -5.309  1.00 20.00     0.010 C 
BRANCH   7   8
HETATM    8  C11 UNL     1     -35.016  15.086  -6.334  1.00 20.00    -0.018 C 
HETATM    9  C7  UNL     1     -35.592  14.326  -7.534  1.00 20.00     0.010 C 
BRANCH   8  10
HETATM   10  C10 UNL     1     -34.019  16.173  -6.784  1.00 20.00     0.004 C 
BRANCH  10  11
HETATM   11  C9  UNL     1     -34.479  17.616  -6.555  1.00 20.00    -0.004 C 
HETATM   12  C6  UNL     1     -33.608  18.313  -5.519  1.00 20.00     0.005 C 
ENDBRANCH  10  11
ENDBRANCH   8  10
ENDBRANCH   7   8
ENDBRANCH   4   7
TORSDOF 4
ENDMDL
MODEL 9
REMARK VINA RESULT:      -4.3      2.037      2.774
REMARK  4 active torsions:
REMARK  status: ('A' for Active; 'I' for Inactive)
REMARK    1  A    between atoms: C4_4  and  C8_8 
REMARK    2  A    between atoms: C8_8  and  C11_11 
REMARK    3  A    between atoms: C9_9  and  C10_10 
REMARK    4  A    between atoms: C10_10  and  C11_11 
ROOT
HETATM    1  C1  UNL     1     -38.079  15.354  -5.053  1.00 20.00     0.002 C 
HETATM    2  C2  UNL     1     -37.249  14.737  -3.923  1.00 20.00     0.006 C 
HETATM    3  C3  UNL     1     -37.186  15.354  -6.292  1.00 20.00     0.020 C 
HETATM    4  C4  UNL     1     -35.971  14.217  -4.587  1.00 20.00     0.004 C 
HETATM    5  C5  UNL     1     -35.775  15.202  -5.739  1.00 20.00     0.086 C 
HETATM    6 CL12 UNL     1     -34.642  14.614  -6.967  1.00 20.00    -0.125 Cl
ENDROOT
BRANCH   4   7
HETATM    7  C8  UNL     1     -34.796  14.146  -3.623  1.00 20.00     0.010 C 
BRANCH   7   8
HETATM    8  C11 UNL     1     -33.793  15.303  -3.783  1.00 20.00    -0.018 C 
HETATM    9  C7  UNL     1     -32.365  14.780  -3.591  1.00 20.00     0.010 C 
BRANCH   8  10
HETATM   10  C10 UNL     1     -34.072  16.521  -2.878  1.00 20.00     0.004 C 
BRANCH  10  11
HETATM   11  C9  UNL     1     -34.738  16.199  -1.537  1.00 20.00    -0.004 C 
HETATM   12  C6  UNL     1     -34.352  17.216  -0.472  1.00 20.00     0.005 C 
ENDBRANCH  10  11
ENDBRANCH   8  10
ENDBRANCH   7   8
ENDBRANCH   4   7
TORSDOF 4
ENDMDL
