MODEL 1
REMARK VINA RESULT:      -5.6      0.000      0.000
REMARK  4 active torsions:
REMARK  status: ('A' for Active; 'I' for Inactive)
REMARK    1  A    between atoms: C3_3  and  C6_6 
REMARK    2  A    between atoms: C3_3  and  C7_7 
REMARK    3  A    between atoms: C5_5  and  C8_8 
REMARK    4  A    between atoms: C7_7  and  C8_8 
ROOT
HETATM    1  C1  UNL     1     -32.142   8.654   1.777  1.00 20.00     0.012 C 
HETATM    2  C2  UNL     1     -32.209   7.673   2.465  1.00 20.00    -0.117 C 
HETATM    3  C5  UNL     1     -32.286   6.472   3.311  1.00 20.00     0.093 C 
ENDROOT
BRANCH   3   4
HETATM    4  C8  UNL     1     -33.509   5.624   2.950  1.00 20.00     0.019 C 
BRANCH   4   5
HETATM    5  C7  UNL     1     -34.685   5.863   3.895  1.00 20.00     0.079 C 
BRANCH   5   6
HETATM    6  C3  UNL     1     -34.838   4.797   4.970  1.00 20.00     0.126 C 
HETATM    7  O9  UNL     1     -35.243   3.663   4.719  1.00 20.00    -0.298 OA
BRANCH   6   8
HETATM    8  C6  UNL     1     -34.489   5.237   6.382  1.00 20.00     0.074 C 
HETATM    9  C4  UNL     1     -33.995   6.671   6.445  1.00 20.00     0.013 C 
ENDBRANCH   6   8
ENDBRANCH   5   6
ENDBRANCH   4   5
ENDBRANCH   3   4
TORSDOF 4
ENDMDL
MODEL 2
REMARK VINA RESULT:      -5.3      1.552      1.954
REMARK  4 active torsions:
REMARK  status: ('A' for Active; 'I' for Inactive)
REMARK    1  A    between atoms: C3_3  and  C6_6 
REMARK    2  A    between atoms: C3_3  and  C7_7 
REMARK    3  A    between atoms: C5_5  and  C8_8 
REMARK    4  A    between atoms: C7_7  and  C8_8 
ROOT
HETATM    1  C1  UNL     1     -32.171   8.810   1.185  1.00 20.00     0.012 C 
HETATM    2  C2  UNL     1     -32.010   8.166   2.185  1.00 20.00    -0.117 C 
HETATM    3  C5  UNL     1     -31.809   7.382   3.413  1.00 20.00     0.093 C 
ENDROOT
BRANCH   3   4
HETATM    4  C8  UNL     1     -32.723   6.154   3.435  1.00 20.00     0.019 C 
BRANCH   4   5
HETATM    5  C7  UNL     1     -34.057   6.430   4.127  1.00 20.00     0.079 C 
BRANCH   5   6
HETATM    6  C3  UNL     1     -34.030   6.206   5.631  1.00 20.00     0.126 C 
HETATM    7  O9  UNL     1     -33.420   6.951   6.396  1.00 20.00    -0.298 OA
BRANCH   6   8
HETATM    8  C6  UNL     1     -34.777   4.978   6.123  1.00 20.00     0.074 C 
HETATM    9  C4  UNL     1     -35.129   4.016   5.002  1.00 20.00     0.013 C 
ENDBRANCH   6   8
ENDBRANCH   5   6
ENDBRANCH   4   5
ENDBRANCH   3   4
TORSDOF 4
ENDMDL
MODEL 3
REMARK VINA RESULT:      -5.2      1.227      1.455
REMARK  4 active torsions:
REMARK  status: ('A' for Active; 'I' for Inactive)
REMARK    1  A    between atoms: C3_3  and  C6_6 
REMARK    2  A    between atoms: C3_3  and  C7_7 
REMARK    3  A    between atoms: C5_5  and  C8_8 
REMARK    4  A    between atoms: C7_7  and  C8_8 
ROOT
HETATM    1  C1  UNL     1     -32.212   9.078   1.073  1.00 20.00     0.012 C 
HETATM    2  C2  UNL     1     -32.023   8.348   2.007  1.00 20.00    -0.117 C 
HETATM    3  C5  UNL     1     -31.787   7.458   3.153  1.00 20.00     0.093 C 
ENDROOT
BRANCH   3   4
HETATM    4  C8  UNL     1     -32.770   6.283   3.147  1.00 20.00     0.019 C 
BRANCH   4   5
HETATM    5  C7  UNL     1     -33.748   6.334   4.319  1.00 20.00     0.079 C 
BRANCH   5   6
HETATM    6  C3  UNL     1     -34.959   5.429   4.151  1.00 20.00     0.126 C 
HETATM    7  O9  UNL     1     -35.789   5.600   3.259  1.00 20.00    -0.298 OA
BRANCH   6   8
HETATM    8  C6  UNL     1     -35.094   4.319   5.180  1.00 20.00     0.074 C 
HETATM    9  C4  UNL     1     -34.467   4.676   6.516  1.00 20.00     0.013 C 
ENDBRANCH   6   8
ENDBRANCH   5   6
ENDBRANCH   4   5
ENDBRANCH   3   4
TORSDOF 4
ENDMDL
MODEL 4
REMARK VINA RESULT:      -5.1      2.286      4.912
REMARK  4 active torsions:
REMARK  status: ('A' for Active; 'I' for Inactive)
REMARK    1  A    between atoms: C3_3  and  C6_6 
REMARK    2  A    between atoms: C3_3  and  C7_7 
REMARK    3  A    between atoms: C5_5  and  C8_8 
REMARK    4  A    between atoms: C7_7  and  C8_8 
ROOT
HETATM    1  C1  UNL     1     -35.143   4.235   6.130  1.00 20.00     0.012 C 
HETATM    2  C2  UNL     1     -35.051   4.731   5.041  1.00 20.00    -0.117 C 
HETATM    3  C5  UNL     1     -34.942   5.336   3.705  1.00 20.00     0.093 C 
ENDROOT
BRANCH   3   4
HETATM    4  C8  UNL     1     -34.029   6.565   3.732  1.00 20.00     0.019 C 
BRANCH   4   5
HETATM    5  C7  UNL     1     -32.706   6.325   3.006  1.00 20.00     0.079 C 
BRANCH   5   6
HETATM    6  C3  UNL     1     -31.837   7.568   2.883  1.00 20.00     0.126 C 
HETATM    7  O9  UNL     1     -31.160   7.993   3.818  1.00 20.00    -0.298 OA
BRANCH   6   8
HETATM    8  C6  UNL     1     -31.887   8.271   1.537  1.00 20.00     0.074 C 
HETATM    9  C4  UNL     1     -32.506   9.655   1.619  1.00 20.00     0.013 C 
ENDBRANCH   6   8
ENDBRANCH   5   6
ENDBRANCH   4   5
ENDBRANCH   3   4
TORSDOF 4
ENDMDL
MODEL 5
REMARK VINA RESULT:      -4.9      1.257      3.797
REMARK  4 active torsions:
REMARK  status: ('A' for Active; 'I' for Inactive)
REMARK    1  A    between atoms: C3_3  and  C6_6 
REMARK    2  A    between atoms: C3_3  and  C7_7 
REMARK    3  A    between atoms: C5_5  and  C8_8 
REMARK    4  A    between atoms: C7_7  and  C8_8 
ROOT
HETATM    1  C1  UNL     1     -33.682   7.099   6.717  1.00 20.00     0.012 C 
HETATM    2  C2  UNL     1     -34.222   6.053   6.482  1.00 20.00    -0.117 C 
HETATM    3  C5  UNL     1     -34.884   4.771   6.199  1.00 20.00     0.093 C 
ENDROOT
BRANCH   3   4
HETATM    4  C8  UNL     1     -35.214   4.640   4.710  1.00 20.00     0.019 C 
BRANCH   4   5
HETATM    5  C7  UNL     1     -34.846   5.894   3.917  1.00 20.00     0.079 C 
BRANCH   5   6
HETATM    6  C3  UNL     1     -33.705   5.687   2.933  1.00 20.00     0.126 C 
HETATM    7  O9  UNL     1     -33.823   4.991   1.926  1.00 20.00    -0.298 OA
BRANCH   6   8
HETATM    8  C6  UNL     1     -32.397   6.371   3.295  1.00 20.00     0.074 C 
HETATM    9  C4  UNL     1     -32.166   7.650   2.511  1.00 20.00     0.013 C 
ENDBRANCH   6   8
ENDBRANCH   5   6
ENDBRANCH   4   5
ENDBRANCH   3   4
TORSDOF 4
ENDMDL
MODEL 6
REMARK VINA RESULT:      -4.6      1.570      4.439
REMARK  4 active torsions:
REMARK  status: ('A' for Active; 'I' for Inactive)
REMARK    1  A    between atoms: C3_3  and  C6_6 
REMARK    2  A    between atoms: C3_3  and  C7_7 
REMARK    3  A    between atoms: C5_5  and  C8_8 
REMARK    4  A    between atoms: C7_7  and  C8_8 
ROOT
HETATM    1  C1  UNL     1     -35.114   3.738   5.171  1.00 20.00     0.012 C 
HETATM    2  C2  UNL     1     -34.795   4.730   5.766  1.00 20.00    -0.117 C 
HETATM    3  C5  UNL     1     -34.407   5.944   6.500  1.00 20.00     0.093 C 
ENDROOT
BRANCH   3   4
HETATM    4  C8  UNL     1     -33.564   6.872   5.620  1.00 20.00     0.019 C 
BRANCH   4   5
HETATM    5  C7  UNL     1     -33.809   6.644   4.129  1.00 20.00     0.079 C 
BRANCH   5   6
HETATM    6  C3  UNL     1     -32.534   6.526   3.307  1.00 20.00     0.126 C 
HETATM    7  O9  UNL     1     -32.126   5.448   2.878  1.00 20.00    -0.298 OA
BRANCH   6   8
HETATM    8  C6  UNL     1     -31.779   7.825   3.080  1.00 20.00     0.074 C 
HETATM    9  C4  UNL     1     -32.054   8.434   1.717  1.00 20.00     0.013 C 
ENDBRANCH   6   8
ENDBRANCH   5   6
ENDBRANCH   4   5
ENDBRANCH   3   4
TORSDOF 4
ENDMDL
MODEL 7
REMARK VINA RESULT:      -4.3     11.463     12.459
REMARK  4 active torsions:
REMARK  status: ('A' for Active; 'I' for Inactive)
REMARK    1  A    between atoms: C3_3  and  C6_6 
REMARK    2  A    between atoms: C3_3  and  C7_7 
REMARK    3  A    between atoms: C5_5  and  C8_8 
REMARK    4  A    between atoms: C7_7  and  C8_8 
ROOT
HETATM    1  C1  UNL     1     -34.863  17.263   0.273  1.00 20.00     0.012 C 
HETATM    2  C2  UNL     1     -34.420  16.916  -0.787  1.00 20.00    -0.117 C 
HETATM    3  C5  UNL     1     -33.872  16.494  -2.084  1.00 20.00     0.093 C 
ENDROOT
BRANCH   3   4
HETATM    4  C8  UNL     1     -34.755  15.424  -2.732  1.00 20.00     0.019 C 
BRANCH   4   5
HETATM    5  C7  UNL     1     -33.954  14.443  -3.586  1.00 20.00     0.079 C 
BRANCH   5   6
HETATM    6  C3  UNL     1     -34.778  13.739  -4.653  1.00 20.00     0.126 C 
HETATM    7  O9  UNL     1     -34.916  12.518  -4.679  1.00 20.00    -0.298 OA
BRANCH   6   8
HETATM    8  C6  UNL     1     -35.392  14.644  -5.708  1.00 20.00     0.074 C 
HETATM    9  C4  UNL     1     -34.394  15.071  -6.770  1.00 20.00     0.013 C 
ENDBRANCH   6   8
ENDBRANCH   5   6
ENDBRANCH   4   5
ENDBRANCH   3   4
TORSDOF 4
ENDMDL
MODEL 8
REMARK VINA RESULT:      -4.1     11.567     12.303
REMARK  4 active torsions:
REMARK  status: ('A' for Active; 'I' for Inactive)
REMARK    1  A    between atoms: C3_3  and  C6_6 
REMARK    2  A    between atoms: C3_3  and  C7_7 
REMARK    3  A    between atoms: C5_5  and  C8_8 
REMARK    4  A    between atoms: C7_7  and  C8_8 
ROOT
HETATM    1  C1  UNL     1     -34.624  16.567  -0.824  1.00 20.00     0.012 C 
HETATM    2  C2  UNL     1     -34.125  16.605  -1.914  1.00 20.00    -0.117 C 
HETATM    3  C5  UNL     1     -33.513  16.656  -3.250  1.00 20.00     0.093 C 
ENDROOT
BRANCH   3   4
HETATM    4  C8  UNL     1     -33.214  15.248  -3.773  1.00 20.00     0.019 C 
BRANCH   4   5
HETATM    5  C7  UNL     1     -34.210  14.798  -4.840  1.00 20.00     0.079 C 
BRANCH   5   6
HETATM    6  C3  UNL     1     -35.274  13.840  -4.324  1.00 20.00     0.126 C 
HETATM    7  O9  UNL     1     -35.075  12.631  -4.220  1.00 20.00    -0.298 OA
BRANCH   6   8
HETATM    8  C6  UNL     1     -36.612  14.472  -3.979  1.00 20.00     0.074 C 
HETATM    9  C4  UNL     1     -36.852  15.778  -4.715  1.00 20.00     0.013 C 
ENDBRANCH   6   8
ENDBRANCH   5   6
ENDBRANCH   4   5
ENDBRANCH   3   4
TORSDOF 4
ENDMDL
MODEL 9
REMARK VINA RESULT:      -4.0     11.182     12.480
REMARK  4 active torsions:
REMARK  status: ('A' for Active; 'I' for Inactive)
REMARK    1  A    between atoms: C3_3  and  C6_6 
REMARK    2  A    between atoms: C3_3  and  C7_7 
REMARK    3  A    between atoms: C5_5  and  C8_8 
REMARK    4  A    between atoms: C7_7  and  C8_8 
ROOT
HETATM    1  C1  UNL     1     -34.321  16.623  -1.595  1.00 20.00     0.012 C 
HETATM    2  C2  UNL     1     -33.816  16.029  -2.508  1.00 20.00    -0.117 C 
HETATM    3  C5  UNL     1     -33.196  15.306  -3.628  1.00 20.00     0.093 C 
ENDROOT
BRANCH   3   4
HETATM    4  C8  UNL     1     -33.518  13.811  -3.562  1.00 20.00     0.019 C 
BRANCH   4   5
HETATM    5  C7  UNL     1     -34.386  13.348  -4.731  1.00 20.00     0.079 C 
BRANCH   5   6
HETATM    6  C3  UNL     1     -35.754  14.014  -4.784  1.00 20.00     0.126 C 
HETATM    7  O9  UNL     1     -36.593  13.863  -3.898  1.00 20.00    -0.298 OA
BRANCH   6   8
HETATM    8  C6  UNL     1     -36.027  14.850  -6.023  1.00 20.00     0.074 C 
HETATM    9  C4  UNL     1     -34.894  14.793  -7.032  1.00 20.00     0.013 C 
ENDBRANCH   6   8
ENDBRANCH   5   6
ENDBRANCH   4   5
ENDBRANCH   3   4
TORSDOF 4
ENDMDL
