MODEL 1
REMARK VINA RESULT:      -4.5      0.000      0.000
REMARK  2 active torsions:
REMARK  status: ('A' for Active; 'I' for Inactive)
REMARK    1  A    between atoms: C8_8  and  C9_9 
REMARK    2  A    between atoms: C8_8  and  N10_10 
ROOT
HETATM    1  C1  UNL     1     -33.410  13.631  -3.804  1.00 20.00     0.032 C 
HETATM    2  C2  UNL     1     -34.468  13.463  -4.899  1.00 20.00     0.024 C 
HETATM    3  C3  UNL     1     -33.055  15.096  -3.521  1.00 20.00     0.272 C 
HETATM    4  C4  UNL     1     -34.866  15.959  -4.911  1.00 20.00     0.292 C 
HETATM    5  C5  UNL     1     -34.553  14.716  -5.761  1.00 20.00     0.110 C 
HETATM    6  N10 UNL     1     -34.256  15.926  -3.570  1.00 20.00     0.090 N 
HETATM    7 CL11 UNL     1     -35.781  14.513  -7.039  1.00 20.00    -0.123 Cl
ENDROOT
BRANCH   6   8
HETATM    8  C8  UNL     1     -34.009  17.274  -3.068  1.00 20.00     0.276 C 
BRANCH   8   9
HETATM    9  C9  UNL     1     -33.632  17.268  -1.581  1.00 20.00     0.006 C 
HETATM   10  C6  UNL     1     -33.223  18.653  -1.081  1.00 20.00     0.011 C 
HETATM   11  C7  UNL     1     -34.746  16.686  -0.710  1.00 20.00     0.011 C 
ENDBRANCH   8   9
ENDBRANCH   6   8
TORSDOF 2
ENDMDL
MODEL 2
REMARK VINA RESULT:      -4.3      1.528      1.581
REMARK  2 active torsions:
REMARK  status: ('A' for Active; 'I' for Inactive)
REMARK    1  A    between atoms: C8_8  and  C9_9 
REMARK    2  A    between atoms: C8_8  and  N10_10 
ROOT
HETATM    1  C1  UNL     1     -33.566  14.082  -3.849  1.00 20.00     0.032 C 
HETATM    2  C2  UNL     1     -35.052  13.705  -3.871  1.00 20.00     0.024 C 
HETATM    3  C3  UNL     1     -33.321  15.574  -3.594  1.00 20.00     0.272 C 
HETATM    4  C4  UNL     1     -35.660  16.020  -3.057  1.00 20.00     0.292 C 
HETATM    5  C5  UNL     1     -35.914  14.937  -4.118  1.00 20.00     0.110 C 
HETATM    6  N10 UNL     1     -34.261  16.077  -2.595  1.00 20.00     0.090 N 
HETATM    7 CL11 UNL     1     -37.642  14.493  -4.150  1.00 20.00    -0.123 Cl
ENDROOT
BRANCH   6   8
HETATM    8  C8  UNL     1     -33.909  17.419  -2.141  1.00 20.00     0.276 C 
BRANCH   8   9
HETATM    9  C9  UNL     1     -33.623  17.453  -0.635  1.00 20.00     0.006 C 
HETATM   10  C6  UNL     1     -32.794  18.672  -0.229  1.00 20.00     0.011 C 
HETATM   11  C7  UNL     1     -34.905  17.371   0.195  1.00 20.00     0.011 C 
ENDBRANCH   8   9
ENDBRANCH   6   8
TORSDOF 2
ENDMDL
MODEL 3
REMARK VINA RESULT:      -4.1      2.487      4.911
REMARK  2 active torsions:
REMARK  status: ('A' for Active; 'I' for Inactive)
REMARK    1  A    between atoms: C8_8  and  C9_9 
REMARK    2  A    between atoms: C8_8  and  N10_10 
ROOT
HETATM    1  C1  UNL     1     -33.622  18.041  -4.269  1.00 20.00     0.032 C 
HETATM    2  C2  UNL     1     -34.208  18.011  -2.853  1.00 20.00     0.024 C 
HETATM    3  C3  UNL     1     -33.353  16.645  -4.845  1.00 20.00     0.272 C 
HETATM    4  C4  UNL     1     -34.501  15.506  -3.017  1.00 20.00     0.292 C 
HETATM    5  C5  UNL     1     -33.934  16.669  -2.187  1.00 20.00     0.110 C 
HETATM    6  N10 UNL     1     -34.427  15.729  -4.472  1.00 20.00     0.090 N 
HETATM    7 CL11 UNL     1     -34.612  16.642  -0.536  1.00 20.00    -0.123 Cl
ENDROOT
BRANCH   6   8
HETATM    8  C8  UNL     1     -34.344  14.465  -5.197  1.00 20.00     0.276 C 
BRANCH   8   9
HETATM    9  C9  UNL     1     -35.373  14.390  -6.331  1.00 20.00     0.006 C 
HETATM   10  C6  UNL     1     -36.650  15.166  -6.009  1.00 20.00     0.011 C 
HETATM   11  C7  UNL     1     -34.787  14.845  -7.668  1.00 20.00     0.011 C 
ENDBRANCH   8   9
ENDBRANCH   6   8
TORSDOF 2
ENDMDL
MODEL 4
REMARK VINA RESULT:      -4.0      1.933      2.613
REMARK  2 active torsions:
REMARK  status: ('A' for Active; 'I' for Inactive)
REMARK    1  A    between atoms: C8_8  and  C9_9 
REMARK    2  A    between atoms: C8_8  and  N10_10 
ROOT
HETATM    1  C1  UNL     1     -33.652  17.493  -5.463  1.00 20.00     0.032 C 
HETATM    2  C2  UNL     1     -33.162  16.058  -5.243  1.00 20.00     0.024 C 
HETATM    3  C3  UNL     1     -34.386  18.078  -4.250  1.00 20.00     0.272 C 
HETATM    4  C4  UNL     1     -33.784  16.210  -2.798  1.00 20.00     0.292 C 
HETATM    5  C5  UNL     1     -33.922  15.401  -4.098  1.00 20.00     0.110 C 
HETATM    6  N10 UNL     1     -33.725  17.667  -3.013  1.00 20.00     0.090 N 
HETATM    7 CL11 UNL     1     -33.353  13.728  -3.850  1.00 20.00    -0.123 Cl
ENDROOT
BRANCH   6   8
HETATM    8  C8  UNL     1     -34.234  18.394  -1.855  1.00 20.00     0.276 C 
BRANCH   8   9
HETATM    9  C9  UNL     1     -33.724  17.795  -0.538  1.00 20.00     0.006 C 
HETATM   10  C6  UNL     1     -32.642  18.658   0.111  1.00 20.00     0.011 C 
HETATM   11  C7  UNL     1     -34.862  17.524   0.447  1.00 20.00     0.011 C 
ENDBRANCH   8   9
ENDBRANCH   6   8
TORSDOF 2
ENDMDL
MODEL 5
REMARK VINA RESULT:      -3.9      1.474      2.208
REMARK  2 active torsions:
REMARK  status: ('A' for Active; 'I' for Inactive)
REMARK    1  A    between atoms: C8_8  and  C9_9 
REMARK    2  A    between atoms: C8_8  and  N10_10 
ROOT
HETATM    1  C1  UNL     1     -37.356  15.258  -4.676  1.00 20.00     0.032 C 
HETATM    2  C2  UNL     1     -36.820  15.375  -6.107  1.00 20.00     0.024 C 
HETATM    3  C3  UNL     1     -36.280  14.872  -3.653  1.00 20.00     0.272 C 
HETATM    4  C4  UNL     1     -34.454  15.143  -5.249  1.00 20.00     0.292 C 
HETATM    5  C5  UNL     1     -35.501  14.626  -6.248  1.00 20.00     0.110 C 
HETATM    6  N10 UNL     1     -35.026  15.557  -3.956  1.00 20.00     0.090 N 
HETATM    7 CL11 UNL     1     -34.884  14.758  -7.918  1.00 20.00    -0.123 Cl
ENDROOT
BRANCH   6   8
HETATM    8  C8  UNL     1     -34.053  15.417  -2.878  1.00 20.00     0.276 C 
BRANCH   8   9
HETATM    9  C9  UNL     1     -33.914  16.709  -2.063  1.00 20.00     0.006 C 
HETATM   10  C6  UNL     1     -34.242  17.954  -2.889  1.00 20.00     0.011 C 
HETATM   11  C7  UNL     1     -34.752  16.674  -0.784  1.00 20.00     0.011 C 
ENDBRANCH   8   9
ENDBRANCH   6   8
TORSDOF 2
ENDMDL
MODEL 6
REMARK VINA RESULT:      -3.9      2.565      4.910
REMARK  2 active torsions:
REMARK  status: ('A' for Active; 'I' for Inactive)
REMARK    1  A    between atoms: C8_8  and  C9_9 
REMARK    2  A    between atoms: C8_8  and  N10_10 
ROOT
HETATM    1  C1  UNL     1     -33.667  18.218  -3.944  1.00 20.00     0.032 C 
HETATM    2  C2  UNL     1     -34.035  18.236  -2.457  1.00 20.00     0.024 C 
HETATM    3  C3  UNL     1     -34.094  16.931  -4.661  1.00 20.00     0.272 C 
HETATM    4  C4  UNL     1     -35.393  16.126  -2.758  1.00 20.00     0.292 C 
HETATM    5  C5  UNL     1     -34.287  16.823  -1.949  1.00 20.00     0.110 C 
HETATM    6  N10 UNL     1     -35.406  16.499  -4.183  1.00 20.00     0.090 N 
HETATM    7 CL11 UNL     1     -34.709  16.848  -0.215  1.00 20.00    -0.123 Cl
ENDROOT
BRANCH   6   8
HETATM    8  C8  UNL     1     -35.961  15.428  -5.005  1.00 20.00     0.276 C 
BRANCH   8   9
HETATM    9  C9  UNL     1     -34.860  14.596  -5.675  1.00 20.00     0.006 C 
HETATM   10  C6  UNL     1     -34.665  13.239  -5.000  1.00 20.00     0.011 C 
HETATM   11  C7  UNL     1     -35.106  14.423  -7.175  1.00 20.00     0.011 C 
ENDBRANCH   8   9
ENDBRANCH   6   8
TORSDOF 2
ENDMDL
MODEL 7
REMARK VINA RESULT:      -3.9     12.642     14.626
REMARK  2 active torsions:
REMARK  status: ('A' for Active; 'I' for Inactive)
REMARK    1  A    between atoms: C8_8  and  C9_9 
REMARK    2  A    between atoms: C8_8  and  N10_10 
ROOT
HETATM    1  C1  UNL     1     -40.764   5.312  -0.772  1.00 20.00     0.032 C 
HETATM    2  C2  UNL     1     -41.300   6.725  -1.023  1.00 20.00     0.024 C 
HETATM    3  C3  UNL     1     -41.676   4.208  -1.323  1.00 20.00     0.272 C 
HETATM    4  C4  UNL     1     -43.112   5.783  -2.513  1.00 20.00     0.292 C 
HETATM    5  C5  UNL     1     -42.796   6.688  -1.311  1.00 20.00     0.110 C 
HETATM    6  N10 UNL     1     -42.228   4.608  -2.615  1.00 20.00     0.090 N 
HETATM    7 CL11 UNL     1     -43.417   8.337  -1.596  1.00 20.00    -0.123 Cl
ENDROOT
BRANCH   6   8
HETATM    8  C8  UNL     1     -42.898   3.500  -3.289  1.00 20.00     0.276 C 
BRANCH   8   9
HETATM    9  C9  UNL     1     -42.277   2.148  -2.918  1.00 20.00     0.006 C 
HETATM   10  C6  UNL     1     -43.332   1.107  -2.546  1.00 20.00     0.011 C 
HETATM   11  C7  UNL     1     -41.358   1.617  -4.019  1.00 20.00     0.011 C 
ENDBRANCH   8   9
ENDBRANCH   6   8
TORSDOF 2
ENDMDL
MODEL 8
REMARK VINA RESULT:      -3.8      2.823      4.995
REMARK  2 active torsions:
REMARK  status: ('A' for Active; 'I' for Inactive)
REMARK    1  A    between atoms: C8_8  and  C9_9 
REMARK    2  A    between atoms: C8_8  and  N10_10 
ROOT
HETATM    1  C1  UNL     1     -33.766  18.580  -3.396  1.00 20.00     0.032 C 
HETATM    2  C2  UNL     1     -33.930  18.916  -1.910  1.00 20.00     0.024 C 
HETATM    3  C3  UNL     1     -33.877  17.080  -3.696  1.00 20.00     0.272 C 
HETATM    4  C4  UNL     1     -34.620  16.531  -1.437  1.00 20.00     0.292 C 
HETATM    5  C5  UNL     1     -33.679  17.684  -1.050  1.00 20.00     0.110 C 
HETATM    6  N10 UNL     1     -34.926  16.477  -2.877  1.00 20.00     0.090 N 
HETATM    7 CL11 UNL     1     -33.864  18.082   0.680  1.00 20.00    -0.123 Cl
ENDROOT
BRANCH   6   8
HETATM    8  C8  UNL     1     -35.235  15.115  -3.301  1.00 20.00     0.276 C 
BRANCH   8   9
HETATM    9  C9  UNL     1     -34.211  14.588  -4.315  1.00 20.00     0.006 C 
HETATM   10  C6  UNL     1     -33.256  13.566  -3.697  1.00 20.00     0.011 C 
HETATM   11  C7  UNL     1     -34.883  14.014  -5.563  1.00 20.00     0.011 C 
ENDBRANCH   8   9
ENDBRANCH   6   8
TORSDOF 2
ENDMDL
MODEL 9
REMARK VINA RESULT:      -3.8      2.753      4.064
REMARK  2 active torsions:
REMARK  status: ('A' for Active; 'I' for Inactive)
REMARK    1  A    between atoms: C8_8  and  C9_9 
REMARK    2  A    between atoms: C8_8  and  N10_10 
ROOT
HETATM    1  C1  UNL     1     -34.569  13.192  -4.857  1.00 20.00     0.032 C 
HETATM    2  C2  UNL     1     -34.277  13.857  -3.507  1.00 20.00     0.024 C 
HETATM    3  C3  UNL     1     -34.982  14.187  -5.948  1.00 20.00     0.272 C 
HETATM    4  C4  UNL     1     -34.435  16.137  -4.586  1.00 20.00     0.292 C 
HETATM    5  C5  UNL     1     -34.919  15.236  -3.438  1.00 20.00     0.110 C 
HETATM    6  N10 UNL     1     -34.189  15.410  -5.844  1.00 20.00     0.090 N 
HETATM    7 CL11 UNL     1     -34.582  16.004  -1.863  1.00 20.00    -0.123 Cl
ENDROOT
BRANCH   6   8
HETATM    8  C8  UNL     1     -34.371  16.279  -7.002  1.00 20.00     0.276 C 
BRANCH   8   9
HETATM    9  C9  UNL     1     -34.896  17.663  -6.599  1.00 20.00     0.006 C 
HETATM   10  C6  UNL     1     -33.947  18.787  -7.013  1.00 20.00     0.011 C 
HETATM   11  C7  UNL     1     -36.305  17.920  -7.135  1.00 20.00     0.011 C 
ENDBRANCH   8   9
ENDBRANCH   6   8
TORSDOF 2
ENDMDL
