MODEL 1
REMARK VINA RESULT:      -5.7      0.000      0.000
REMARK  4 active torsions:
REMARK  status: ('A' for Active; 'I' for Inactive)
REMARK    1  A    between atoms: C3_3  and  C7_7 
REMARK    2  A    between atoms: C3_3  and  C9_9 
REMARK    3  A    between atoms: C6_6  and  C8_8 
REMARK    4  A    between atoms: C7_7  and  C8_8 
ROOT
HETATM    1  C1  UNL     1     -32.100   8.739   1.030  1.00 20.00     0.012 C 
HETATM    2  C2  UNL     1     -32.000   8.195   2.096  1.00 20.00    -0.117 C 
HETATM    3  C6  UNL     1     -31.877   7.534   3.402  1.00 20.00     0.093 C 
ENDROOT
BRANCH   3   4
HETATM    4  C8  UNL     1     -32.300   6.069   3.320  1.00 20.00     0.019 C 
BRANCH   4   5
HETATM    5  C7  UNL     1     -33.731   5.929   2.803  1.00 20.00     0.079 C 
BRANCH   5   6
HETATM    6  C3  UNL     1     -34.719   5.582   3.908  1.00 20.00     0.130 C 
HETATM    7  O10 UNL     1     -35.937   5.622   3.733  1.00 20.00    -0.298 OA
BRANCH   6   8
HETATM    8  C9  UNL     1     -34.115   5.207   5.261  1.00 20.00     0.047 C 
HETATM    9  C4  UNL     1     -34.828   3.998   5.860  1.00 20.00     0.017 C 
HETATM   10  C5  UNL     1     -34.184   6.403   6.203  1.00 20.00     0.017 C 
ENDBRANCH   6   8
ENDBRANCH   5   6
ENDBRANCH   4   5
ENDBRANCH   3   4
TORSDOF 4
ENDMDL
MODEL 2
REMARK VINA RESULT:      -5.2      1.425      1.731
REMARK  4 active torsions:
REMARK  status: ('A' for Active; 'I' for Inactive)
REMARK    1  A    between atoms: C3_3  and  C7_7 
REMARK    2  A    between atoms: C3_3  and  C9_9 
REMARK    3  A    between atoms: C6_6  and  C8_8 
REMARK    4  A    between atoms: C7_7  and  C8_8 
ROOT
HETATM    1  C1  UNL     1     -32.308   8.989   1.105  1.00 20.00     0.012 C 
HETATM    2  C2  UNL     1     -31.950   8.332   2.044  1.00 20.00    -0.117 C 
HETATM    3  C6  UNL     1     -31.508   7.531   3.194  1.00 20.00     0.093 C 
ENDROOT
BRANCH   3   4
HETATM    4  C8  UNL     1     -32.435   6.338   3.423  1.00 20.00     0.019 C 
BRANCH   4   5
HETATM    5  C7  UNL     1     -33.793   6.783   3.966  1.00 20.00     0.079 C 
BRANCH   5   6
HETATM    6  C3  UNL     1     -34.042   6.295   5.385  1.00 20.00     0.130 C 
HETATM    7  O10 UNL     1     -33.475   6.794   6.358  1.00 20.00    -0.298 OA
BRANCH   6   8
HETATM    8  C9  UNL     1     -35.016   5.128   5.537  1.00 20.00     0.047 C 
HETATM    9  C4  UNL     1     -34.317   3.907   6.128  1.00 20.00     0.017 C 
HETATM   10  C5  UNL     1     -35.639   4.799   4.186  1.00 20.00     0.017 C 
ENDBRANCH   6   8
ENDBRANCH   5   6
ENDBRANCH   4   5
ENDBRANCH   3   4
TORSDOF 4
ENDMDL
MODEL 3
REMARK VINA RESULT:      -4.9      1.971      5.158
REMARK  4 active torsions:
REMARK  status: ('A' for Active; 'I' for Inactive)
REMARK    1  A    between atoms: C3_3  and  C7_7 
REMARK    2  A    between atoms: C3_3  and  C9_9 
REMARK    3  A    between atoms: C6_6  and  C8_8 
REMARK    4  A    between atoms: C7_7  and  C8_8 
ROOT
HETATM    1  C1  UNL     1     -35.117   4.300   6.203  1.00 20.00     0.012 C 
HETATM    2  C2  UNL     1     -35.017   4.748   5.094  1.00 20.00    -0.117 C 
HETATM    3  C6  UNL     1     -34.897   5.293   3.734  1.00 20.00     0.093 C 
ENDROOT
BRANCH   3   4
HETATM    4  C8  UNL     1     -34.084   6.586   3.729  1.00 20.00     0.019 C 
BRANCH   4   5
HETATM    5  C7  UNL     1     -32.711   6.379   3.093  1.00 20.00     0.079 C 
BRANCH   5   6
HETATM    6  C3  UNL     1     -31.972   7.688   2.860  1.00 20.00     0.130 C 
HETATM    7  O10 UNL     1     -31.072   8.074   3.607  1.00 20.00    -0.298 OA
BRANCH   6   8
HETATM    8  C9  UNL     1     -32.429   8.518   1.661  1.00 20.00     0.047 C 
HETATM    9  C4  UNL     1     -31.397   8.467   0.537  1.00 20.00     0.017 C 
HETATM   10  C5  UNL     1     -32.688   9.955   2.099  1.00 20.00     0.017 C 
ENDBRANCH   6   8
ENDBRANCH   5   6
ENDBRANCH   4   5
ENDBRANCH   3   4
TORSDOF 4
ENDMDL
MODEL 4
REMARK VINA RESULT:      -4.7      1.431      4.313
REMARK  4 active torsions:
REMARK  status: ('A' for Active; 'I' for Inactive)
REMARK    1  A    between atoms: C3_3  and  C7_7 
REMARK    2  A    between atoms: C3_3  and  C9_9 
REMARK    3  A    between atoms: C6_6  and  C8_8 
REMARK    4  A    between atoms: C7_7  and  C8_8 
ROOT
HETATM    1  C1  UNL     1     -33.658   7.117   6.767  1.00 20.00     0.012 C 
HETATM    2  C2  UNL     1     -34.243   6.171   6.316  1.00 20.00    -0.117 C 
HETATM    3  C6  UNL     1     -34.962   5.012   5.768  1.00 20.00     0.093 C 
ENDROOT
BRANCH   3   4
HETATM    4  C8  UNL     1     -34.569   4.758   4.313  1.00 20.00     0.019 C 
BRANCH   4   5
HETATM    5  C7  UNL     1     -34.353   6.068   3.557  1.00 20.00     0.079 C 
BRANCH   5   6
HETATM    6  C3  UNL     1     -32.907   6.261   3.125  1.00 20.00     0.130 C 
HETATM    7  O10 UNL     1     -32.190   5.316   2.797  1.00 20.00    -0.298 OA
BRANCH   6   8
HETATM    8  C9  UNL     1     -32.381   7.696   3.150  1.00 20.00     0.047 C 
HETATM    9  C4  UNL     1     -32.045   8.178   1.741  1.00 20.00     0.017 C 
HETATM   10  C5  UNL     1     -31.162   7.781   4.060  1.00 20.00     0.017 C 
ENDBRANCH   6   8
ENDBRANCH   5   6
ENDBRANCH   4   5
ENDBRANCH   3   4
TORSDOF 4
ENDMDL
MODEL 5
REMARK VINA RESULT:      -4.6     11.236     12.420
REMARK  4 active torsions:
REMARK  status: ('A' for Active; 'I' for Inactive)
REMARK    1  A    between atoms: C3_3  and  C7_7 
REMARK    2  A    between atoms: C3_3  and  C9_9 
REMARK    3  A    between atoms: C6_6  and  C8_8 
REMARK    4  A    between atoms: C7_7  and  C8_8 
ROOT
HETATM    1  C1  UNL     1     -34.791  17.128  -0.021  1.00 20.00     0.012 C 
HETATM    2  C2  UNL     1     -34.413  16.825  -1.119  1.00 20.00    -0.117 C 
HETATM    3  C6  UNL     1     -33.947  16.457  -2.463  1.00 20.00     0.093 C 
ENDROOT
BRANCH   3   4
HETATM    4  C8  UNL     1     -34.501  15.096  -2.885  1.00 20.00     0.019 C 
BRANCH   4   5
HETATM    5  C7  UNL     1     -33.691  14.497  -4.033  1.00 20.00     0.079 C 
BRANCH   5   6
HETATM    6  C3  UNL     1     -34.557  13.725  -5.018  1.00 20.00     0.130 C 
HETATM    7  O10 UNL     1     -34.901  12.560  -4.814  1.00 20.00    -0.298 OA
BRANCH   6   8
HETATM    8  C9  UNL     1     -34.957  14.467  -6.292  1.00 20.00     0.047 C 
HETATM    9  C4  UNL     1     -33.996  15.618  -6.577  1.00 20.00     0.017 C 
HETATM   10  C5  UNL     1     -36.389  14.970  -6.167  1.00 20.00     0.017 C 
ENDBRANCH   6   8
ENDBRANCH   5   6
ENDBRANCH   4   5
ENDBRANCH   3   4
TORSDOF 4
ENDMDL
MODEL 6
REMARK VINA RESULT:      -4.4     10.983     12.707
REMARK  4 active torsions:
REMARK  status: ('A' for Active; 'I' for Inactive)
REMARK    1  A    between atoms: C3_3  and  C7_7 
REMARK    2  A    between atoms: C3_3  and  C9_9 
REMARK    3  A    between atoms: C6_6  and  C8_8 
REMARK    4  A    between atoms: C7_7  and  C8_8 
ROOT
HETATM    1  C1  UNL     1     -33.561  18.023  -5.189  1.00 20.00     0.012 C 
HETATM    2  C2  UNL     1     -33.980  17.335  -6.079  1.00 20.00    -0.117 C 
HETATM    3  C6  UNL     1     -34.494  16.497  -7.171  1.00 20.00     0.093 C 
ENDROOT
BRANCH   3   4
HETATM    4  C8  UNL     1     -34.447  15.016  -6.798  1.00 20.00     0.019 C 
BRANCH   4   5
HETATM    5  C7  UNL     1     -35.391  14.704  -5.638  1.00 20.00     0.079 C 
BRANCH   5   6
HETATM    6  C3  UNL     1     -34.790  13.721  -4.644  1.00 20.00     0.130 C 
HETATM    7  O10 UNL     1     -34.798  12.506  -4.839  1.00 20.00    -0.298 OA
BRANCH   6   8
HETATM    8  C9  UNL     1     -34.198  14.325  -3.371  1.00 20.00     0.047 C 
HETATM    9  C4  UNL     1     -35.037  15.503  -2.884  1.00 20.00     0.017 C 
HETATM   10  C5  UNL     1     -32.757  14.750  -3.625  1.00 20.00     0.017 C 
ENDBRANCH   6   8
ENDBRANCH   5   6
ENDBRANCH   4   5
ENDBRANCH   3   4
TORSDOF 4
ENDMDL
MODEL 7
REMARK VINA RESULT:      -4.4      1.374      2.094
REMARK  4 active torsions:
REMARK  status: ('A' for Active; 'I' for Inactive)
REMARK    1  A    between atoms: C3_3  and  C7_7 
REMARK    2  A    between atoms: C3_3  and  C9_9 
REMARK    3  A    between atoms: C6_6  and  C8_8 
REMARK    4  A    between atoms: C7_7  and  C8_8 
ROOT
HETATM    1  C1  UNL     1     -31.667   7.784   3.617  1.00 20.00     0.012 C 
HETATM    2  C2  UNL     1     -32.121   6.751   3.205  1.00 20.00    -0.117 C 
HETATM    3  C6  UNL     1     -32.672   5.485   2.703  1.00 20.00     0.093 C 
ENDROOT
BRANCH   3   4
HETATM    4  C8  UNL     1     -34.190   5.568   2.549  1.00 20.00     0.019 C 
BRANCH   4   5
HETATM    5  C7  UNL     1     -34.857   6.019   3.848  1.00 20.00     0.079 C 
BRANCH   5   6
HETATM    6  C3  UNL     1     -34.981   4.891   4.862  1.00 20.00     0.130 C 
HETATM    7  O10 UNL     1     -35.421   3.782   4.558  1.00 20.00    -0.298 OA
BRANCH   6   8
HETATM    8  C9  UNL     1     -34.555   5.220   6.293  1.00 20.00     0.047 C 
HETATM    9  C4  UNL     1     -33.988   6.634   6.382  1.00 20.00     0.017 C 
HETATM   10  C5  UNL     1     -33.539   4.193   6.775  1.00 20.00     0.017 C 
ENDBRANCH   6   8
ENDBRANCH   5   6
ENDBRANCH   4   5
ENDBRANCH   3   4
TORSDOF 4
ENDMDL
MODEL 8
REMARK VINA RESULT:      -4.4     11.138     12.261
REMARK  4 active torsions:
REMARK  status: ('A' for Active; 'I' for Inactive)
REMARK    1  A    between atoms: C3_3  and  C7_7 
REMARK    2  A    between atoms: C3_3  and  C9_9 
REMARK    3  A    between atoms: C6_6  and  C8_8 
REMARK    4  A    between atoms: C7_7  and  C8_8 
ROOT
HETATM    1  C1  UNL     1     -34.663  16.324  -1.506  1.00 20.00     0.012 C 
HETATM    2  C2  UNL     1     -34.028  15.913  -2.438  1.00 20.00    -0.117 C 
HETATM    3  C6  UNL     1     -33.248  15.415  -3.580  1.00 20.00     0.093 C 
ENDROOT
BRANCH   3   4
HETATM    4  C8  UNL     1     -33.434  13.909  -3.758  1.00 20.00     0.019 C 
BRANCH   4   5
HETATM    5  C7  UNL     1     -34.890  13.558  -4.059  1.00 20.00     0.079 C 
BRANCH   5   6
HETATM    6  C3  UNL     1     -35.400  14.223  -5.329  1.00 20.00     0.130 C 
HETATM    7  O10 UNL     1     -34.819  14.106  -6.408  1.00 20.00    -0.298 OA
BRANCH   6   8
HETATM    8  C9  UNL     1     -36.663  15.072  -5.187  1.00 20.00     0.047 C 
HETATM    9  C4  UNL     1     -36.345  16.555  -5.349  1.00 20.00     0.017 C 
HETATM   10  C5  UNL     1     -37.317  14.798  -3.838  1.00 20.00     0.017 C 
ENDBRANCH   6   8
ENDBRANCH   5   6
ENDBRANCH   4   5
ENDBRANCH   3   4
TORSDOF 4
ENDMDL
MODEL 9
REMARK VINA RESULT:      -4.2     11.515     12.512
REMARK  4 active torsions:
REMARK  status: ('A' for Active; 'I' for Inactive)
REMARK    1  A    between atoms: C3_3  and  C7_7 
REMARK    2  A    between atoms: C3_3  and  C9_9 
REMARK    3  A    between atoms: C6_6  and  C8_8 
REMARK    4  A    between atoms: C7_7  and  C8_8 
ROOT
HETATM    1  C1  UNL     1     -34.656  17.730   0.656  1.00 20.00     0.012 C 
HETATM    2  C2  UNL     1     -34.713  17.046  -0.329  1.00 20.00    -0.117 C 
HETATM    3  C6  UNL     1     -34.788  16.207  -1.533  1.00 20.00     0.093 C 
ENDROOT
BRANCH   3   4
HETATM    4  C8  UNL     1     -33.693  16.579  -2.532  1.00 20.00     0.019 C 
BRANCH   4   5
HETATM    5  C7  UNL     1     -33.312  15.388  -3.410  1.00 20.00     0.079 C 
BRANCH   5   6
HETATM    6  C3  UNL     1     -33.761  15.560  -4.853  1.00 20.00     0.130 C 
HETATM    7  O10 UNL     1     -33.307  16.445  -5.579  1.00 20.00    -0.298 OA
BRANCH   6   8
HETATM    8  C9  UNL     1     -34.832  14.589  -5.348  1.00 20.00     0.047 C 
HETATM    9  C4  UNL     1     -36.223  15.208  -5.239  1.00 20.00     0.017 C 
HETATM   10  C5  UNL     1     -34.751  13.288  -4.558  1.00 20.00     0.017 C 
ENDBRANCH   6   8
ENDBRANCH   5   6
ENDBRANCH   4   5
ENDBRANCH   3   4
TORSDOF 4
ENDMDL
