MODEL 1
REMARK VINA RESULT:      -5.2      0.000      0.000
REMARK  4 active torsions:
REMARK  status: ('A' for Active; 'I' for Inactive)
REMARK    1  A    between atoms: C5_5  and  C9_9 
REMARK    2  A    between atoms: C7_7  and  C8_8 
REMARK    3  A    between atoms: C8_8  and  C9_9 
REMARK    4  A    between atoms: C9_9  and  O10_10 
ROOT
HETATM    1  C1  UNL     1     -32.009   8.865   1.286  1.00 20.00     0.012 C 
HETATM    2  C2  UNL     1     -32.122   8.025   2.136  1.00 20.00    -0.117 C 
HETATM    3  C7  UNL     1     -32.256   6.994   3.177  1.00 20.00     0.096 C 
ENDROOT
BRANCH   3   4
HETATM    4  C8  UNL     1     -33.665   7.008   3.784  1.00 20.00     0.050 C 
BRANCH   4   5
HETATM    5  C9  UNL     1     -34.392   5.647   3.749  1.00 20.00     0.059 C 
HETATM    6  C6  UNL     1     -35.886   5.807   3.590  1.00 20.00     0.046 C 
BRANCH   5   7
HETATM    7  C5  UNL     1     -34.082   4.872   5.037  1.00 20.00     0.019 A 
HETATM    8  C3  UNL     1     -34.461   5.442   6.375  1.00 20.00     0.008 A 
HETATM    9  C4  UNL     1     -35.195   4.248   5.831  1.00 20.00     0.008 A 
ENDBRANCH   5   7
BRANCH   5  10
HETATM   10  O10 UNL     1     -33.885   4.890   2.649  1.00 20.00    -0.390 OA
HETATM   11  H24 UNL     1     -33.226   5.450   2.214  1.00 20.00     0.210 HD
ENDBRANCH   5  10
ENDBRANCH   4   5
ENDBRANCH   3   4
TORSDOF 4
ENDMDL
MODEL 2
REMARK VINA RESULT:      -4.9     10.813     12.170
REMARK  4 active torsions:
REMARK  status: ('A' for Active; 'I' for Inactive)
REMARK    1  A    between atoms: C5_5  and  C9_9 
REMARK    2  A    between atoms: C7_7  and  C8_8 
REMARK    3  A    between atoms: C8_8  and  C9_9 
REMARK    4  A    between atoms: C9_9  and  O10_10 
ROOT
HETATM    1  C1  UNL     1     -34.825  16.893  -0.382  1.00 20.00     0.012 C 
HETATM    2  C2  UNL     1     -34.481  16.431  -1.436  1.00 20.00    -0.117 C 
HETATM    3  C7  UNL     1     -34.055  15.867  -2.726  1.00 20.00     0.096 C 
ENDROOT
BRANCH   3   4
HETATM    4  C8  UNL     1     -35.161  14.994  -3.333  1.00 20.00     0.050 C 
BRANCH   4   5
HETATM    5  C9  UNL     1     -34.650  13.811  -4.183  1.00 20.00     0.059 C 
HETATM    6  C6  UNL     1     -33.206  13.481  -3.887  1.00 20.00     0.046 C 
BRANCH   5   7
HETATM    7  C5  UNL     1     -34.816  14.146  -5.672  1.00 20.00     0.019 A 
HETATM    8  C3  UNL     1     -35.751  15.241  -6.103  1.00 20.00     0.008 A 
HETATM    9  C4  UNL     1     -34.265  15.430  -6.225  1.00 20.00     0.008 A 
ENDBRANCH   5   7
BRANCH   5  10
HETATM   10  O10 UNL     1     -35.457  12.666  -3.899  1.00 20.00    -0.390 OA
HETATM   11  H24 UNL     1     -35.445  12.557  -2.937  1.00 20.00     0.210 HD
ENDBRANCH   5  10
ENDBRANCH   4   5
ENDBRANCH   3   4
TORSDOF 4
ENDMDL
MODEL 3
REMARK VINA RESULT:      -4.8     11.366     12.134
REMARK  4 active torsions:
REMARK  status: ('A' for Active; 'I' for Inactive)
REMARK    1  A    between atoms: C5_5  and  C9_9 
REMARK    2  A    between atoms: C7_7  and  C8_8 
REMARK    3  A    between atoms: C8_8  and  C9_9 
REMARK    4  A    between atoms: C9_9  and  O10_10 
ROOT
HETATM    1  C1  UNL     1     -34.733  17.513   0.501  1.00 20.00     0.012 C 
HETATM    2  C2  UNL     1     -34.736  16.865  -0.510  1.00 20.00    -0.117 C 
HETATM    3  C7  UNL     1     -34.744  16.071  -1.748  1.00 20.00     0.096 C 
ENDROOT
BRANCH   3   4
HETATM    4  C8  UNL     1     -33.483  16.343  -2.581  1.00 20.00     0.050 C 
BRANCH   4   5
HETATM    5  C9  UNL     1     -33.327  15.438  -3.822  1.00 20.00     0.059 C 
HETATM    6  C6  UNL     1     -33.353  16.230  -5.107  1.00 20.00     0.046 C 
BRANCH   5   7
HETATM    7  C5  UNL     1     -34.447  14.388  -3.830  1.00 20.00     0.019 A 
HETATM    8  C3  UNL     1     -35.384  14.288  -5.001  1.00 20.00     0.008 A 
HETATM    9  C4  UNL     1     -34.369  13.206  -4.755  1.00 20.00     0.008 A 
ENDBRANCH   5   7
BRANCH   5  10
HETATM   10  O10 UNL     1     -32.080  14.747  -3.725  1.00 20.00    -0.390 OA
HETATM   11  H24 UNL     1     -32.288  13.803  -3.774  1.00 20.00     0.210 HD
ENDBRANCH   5  10
ENDBRANCH   4   5
ENDBRANCH   3   4
TORSDOF 4
ENDMDL
MODEL 4
REMARK VINA RESULT:      -4.6     10.979     12.490
REMARK  4 active torsions:
REMARK  status: ('A' for Active; 'I' for Inactive)
REMARK    1  A    between atoms: C5_5  and  C9_9 
REMARK    2  A    between atoms: C7_7  and  C8_8 
REMARK    3  A    between atoms: C8_8  and  C9_9 
REMARK    4  A    between atoms: C9_9  and  O10_10 
ROOT
HETATM    1  C1  UNL     1     -34.235  17.651  -6.580  1.00 20.00     0.012 C 
HETATM    2  C2  UNL     1     -34.819  16.603  -6.517  1.00 20.00    -0.117 C 
HETATM    3  C7  UNL     1     -35.536  15.321  -6.442  1.00 20.00     0.096 C 
ENDROOT
BRANCH   3   4
HETATM    4  C8  UNL     1     -34.700  14.267  -5.704  1.00 20.00     0.050 C 
BRANCH   4   5
HETATM    5  C9  UNL     1     -35.202  13.929  -4.285  1.00 20.00     0.059 C 
HETATM    6  C6  UNL     1     -36.530  14.583  -3.982  1.00 20.00     0.046 C 
BRANCH   5   7
HETATM    7  C5  UNL     1     -34.153  14.371  -3.256  1.00 20.00     0.019 A 
HETATM    8  C3  UNL     1     -32.938  15.139  -3.694  1.00 20.00     0.008 A 
HETATM    9  C4  UNL     1     -34.012  15.823  -2.895  1.00 20.00     0.008 A 
ENDBRANCH   5   7
BRANCH   5  10
HETATM   10  O10 UNL     1     -35.347  12.511  -4.181  1.00 20.00    -0.390 OA
HETATM   11  H24 UNL     1     -34.455  12.155  -4.052  1.00 20.00     0.210 HD
ENDBRANCH   5  10
ENDBRANCH   4   5
ENDBRANCH   3   4
TORSDOF 4
ENDMDL
MODEL 5
REMARK VINA RESULT:      -4.6      0.979      4.818
REMARK  4 active torsions:
REMARK  status: ('A' for Active; 'I' for Inactive)
REMARK    1  A    between atoms: C5_5  and  C9_9 
REMARK    2  A    between atoms: C7_7  and  C8_8 
REMARK    3  A    between atoms: C8_8  and  C9_9 
REMARK    4  A    between atoms: C9_9  and  O10_10 
ROOT
HETATM    1  C1  UNL     1     -35.108   4.272   5.944  1.00 20.00     0.012 C 
HETATM    2  C2  UNL     1     -34.855   4.878   4.940  1.00 20.00    -0.117 C 
HETATM    3  C7  UNL     1     -34.547   5.619   3.707  1.00 20.00     0.096 C 
ENDROOT
BRANCH   3   4
HETATM    4  C8  UNL     1     -33.757   6.897   4.018  1.00 20.00     0.050 C 
BRANCH   4   5
HETATM    5  C9  UNL     1     -32.473   7.077   3.182  1.00 20.00     0.059 C 
HETATM    6  C6  UNL     1     -31.359   7.710   3.982  1.00 20.00     0.046 C 
BRANCH   5   7
HETATM    7  C5  UNL     1     -32.785   7.936   1.949  1.00 20.00     0.019 A 
HETATM    8  C3  UNL     1     -32.499   9.412   1.960  1.00 20.00     0.008 A 
HETATM    9  C4  UNL     1     -31.668   8.491   1.110  1.00 20.00     0.008 A 
ENDBRANCH   5   7
BRANCH   5  10
HETATM   10  O10 UNL     1     -32.045   5.793   2.724  1.00 20.00    -0.390 OA
HETATM   11  H24 UNL     1     -32.845   5.251   2.650  1.00 20.00     0.210 HD
ENDBRANCH   5  10
ENDBRANCH   4   5
ENDBRANCH   3   4
TORSDOF 4
ENDMDL
MODEL 6
REMARK VINA RESULT:      -4.3      0.954      1.174
REMARK  4 active torsions:
REMARK  status: ('A' for Active; 'I' for Inactive)
REMARK    1  A    between atoms: C5_5  and  C9_9 
REMARK    2  A    between atoms: C7_7  and  C8_8 
REMARK    3  A    between atoms: C8_8  and  C9_9 
REMARK    4  A    between atoms: C9_9  and  O10_10 
ROOT
HETATM    1  C1  UNL     1     -32.157   9.104   0.972  1.00 20.00     0.012 C 
HETATM    2  C2  UNL     1     -32.099   8.343   1.899  1.00 20.00    -0.117 C 
HETATM    3  C7  UNL     1     -32.024   7.411   3.034  1.00 20.00     0.096 C 
ENDROOT
BRANCH   3   4
HETATM    4  C8  UNL     1     -33.398   7.240   3.696  1.00 20.00     0.050 C 
BRANCH   4   5
HETATM    5  C9  UNL     1     -33.870   5.777   3.827  1.00 20.00     0.059 C 
HETATM    6  C6  UNL     1     -34.505   5.270   2.555  1.00 20.00     0.046 C 
BRANCH   5   7
HETATM    7  C5  UNL     1     -34.864   5.666   4.991  1.00 20.00     0.019 A 
HETATM    8  C3  UNL     1     -34.862   4.451   5.877  1.00 20.00     0.008 A 
HETATM    9  C4  UNL     1     -34.382   5.773   6.411  1.00 20.00     0.008 A 
ENDBRANCH   5   7
BRANCH   5  10
HETATM   10  O10 UNL     1     -32.738   4.961   4.139  1.00 20.00    -0.390 OA
HETATM   11  H24 UNL     1     -33.091   4.109   4.435  1.00 20.00     0.210 HD
ENDBRANCH   5  10
ENDBRANCH   4   5
ENDBRANCH   3   4
TORSDOF 4
ENDMDL
MODEL 7
REMARK VINA RESULT:      -4.3      8.973     10.544
REMARK  4 active torsions:
REMARK  status: ('A' for Active; 'I' for Inactive)
REMARK    1  A    between atoms: C5_5  and  C9_9 
REMARK    2  A    between atoms: C7_7  and  C8_8 
REMARK    3  A    between atoms: C8_8  and  C9_9 
REMARK    4  A    between atoms: C9_9  and  O10_10 
ROOT
HETATM    1  C1  UNL     1     -41.451   1.411  -4.049  1.00 20.00     0.012 C 
HETATM    2  C2  UNL     1     -42.024   2.111  -3.259  1.00 20.00    -0.117 C 
HETATM    3  C7  UNL     1     -42.728   2.964  -2.289  1.00 20.00     0.096 C 
ENDROOT
BRANCH   3   4
HETATM    4  C8  UNL     1     -42.216   4.409  -2.358  1.00 20.00     0.050 C 
BRANCH   4   5
HETATM    5  C9  UNL     1     -41.359   4.844  -1.151  1.00 20.00     0.059 C 
HETATM    6  C6  UNL     1     -42.031   4.529   0.165  1.00 20.00     0.046 C 
BRANCH   5   7
HETATM    7  C5  UNL     1     -41.072   6.348  -1.247  1.00 20.00     0.019 A 
HETATM    8  C3  UNL     1     -41.731   7.179  -2.313  1.00 20.00     0.008 A 
HETATM    9  C4  UNL     1     -42.133   7.346  -0.874  1.00 20.00     0.008 A 
ENDBRANCH   5   7
BRANCH   5  10
HETATM   10  O10 UNL     1     -40.108   4.155  -1.211  1.00 20.00    -0.390 OA
HETATM   11  H24 UNL     1     -40.151   3.582  -1.990  1.00 20.00     0.210 HD
ENDBRANCH   5  10
ENDBRANCH   4   5
ENDBRANCH   3   4
TORSDOF 4
ENDMDL
MODEL 8
REMARK VINA RESULT:      -4.2     11.118     12.715
REMARK  4 active torsions:
REMARK  status: ('A' for Active; 'I' for Inactive)
REMARK    1  A    between atoms: C5_5  and  C9_9 
REMARK    2  A    between atoms: C7_7  and  C8_8 
REMARK    3  A    between atoms: C8_8  and  C9_9 
REMARK    4  A    between atoms: C9_9  and  O10_10 
ROOT
HETATM    1  C1  UNL     1     -37.306  15.801  -5.941  1.00 20.00     0.012 C 
HETATM    2  C2  UNL     1     -36.178  15.397  -6.004  1.00 20.00    -0.117 C 
HETATM    3  C7  UNL     1     -34.796  14.899  -6.085  1.00 20.00     0.096 C 
ENDROOT
BRANCH   3   4
HETATM    4  C8  UNL     1     -33.846  15.784  -5.266  1.00 20.00     0.050 C 
BRANCH   4   5
HETATM    5  C9  UNL     1     -33.274  15.111  -4.000  1.00 20.00     0.059 C 
HETATM    6  C6  UNL     1     -33.750  13.685  -3.851  1.00 20.00     0.046 C 
BRANCH   5   7
HETATM    7  C5  UNL     1     -33.673  15.929  -2.765  1.00 20.00     0.019 A 
HETATM    8  C3  UNL     1     -34.491  17.181  -2.916  1.00 20.00     0.008 A 
HETATM    9  C4  UNL     1     -35.103  15.952  -2.303  1.00 20.00     0.008 A 
ENDBRANCH   5   7
BRANCH   5  10
HETATM   10  O10 UNL     1     -31.847  15.118  -4.088  1.00 20.00    -0.390 OA
HETATM   11  H24 UNL     1     -31.590  14.241  -4.409  1.00 20.00     0.210 HD
ENDBRANCH   5  10
ENDBRANCH   4   5
ENDBRANCH   3   4
TORSDOF 4
ENDMDL
MODEL 9
REMARK VINA RESULT:      -4.2     11.167     12.682
REMARK  4 active torsions:
REMARK  status: ('A' for Active; 'I' for Inactive)
REMARK    1  A    between atoms: C5_5  and  C9_9 
REMARK    2  A    between atoms: C7_7  and  C8_8 
REMARK    3  A    between atoms: C8_8  and  C9_9 
REMARK    4  A    between atoms: C9_9  and  O10_10 
ROOT
HETATM    1  C1  UNL     1     -34.482  15.101  -7.591  1.00 20.00     0.012 C 
HETATM    2  C2  UNL     1     -34.161  15.892  -6.747  1.00 20.00    -0.117 C 
HETATM    3  C7  UNL     1     -33.770  16.865  -5.715  1.00 20.00     0.096 C 
ENDROOT
BRANCH   3   4
HETATM    4  C8  UNL     1     -33.236  16.153  -4.465  1.00 20.00     0.050 C 
BRANCH   4   5
HETATM    5  C9  UNL     1     -34.279  15.953  -3.346  1.00 20.00     0.059 C 
HETATM    6  C6  UNL     1     -33.849  16.596  -2.049  1.00 20.00     0.046 C 
BRANCH   5   7
HETATM    7  C5  UNL     1     -34.516  14.451  -3.133  1.00 20.00     0.019 A 
HETATM    8  C3  UNL     1     -35.258  13.647  -4.164  1.00 20.00     0.008 A 
HETATM    9  C4  UNL     1     -33.781  13.444  -3.972  1.00 20.00     0.008 A 
ENDBRANCH   5   7
BRANCH   5  10
HETATM   10  O10 UNL     1     -35.514  16.535  -3.767  1.00 20.00    -0.390 OA
HETATM   11  H24 UNL     1     -35.368  16.860  -4.668  1.00 20.00     0.210 HD
ENDBRANCH   5  10
ENDBRANCH   4   5
ENDBRANCH   3   4
TORSDOF 4
ENDMDL
