MODEL 1
REMARK VINA RESULT:      -6.2      0.000      0.000
REMARK  2 active torsions:
REMARK  status: ('A' for Active; 'I' for Inactive)
REMARK    1  A    between atoms: C7_7  and  C9_9 
REMARK    2  A    between atoms: C8_8  and  C9_9 
ROOT
HETATM    1  C1  UNL     1     -32.119   8.685   1.658  1.00 20.00     0.012 C 
HETATM    2  C2  UNL     1     -32.156   7.690   2.330  1.00 20.00    -0.117 C 
HETATM    3  C8  UNL     1     -32.196   6.474   3.153  1.00 20.00     0.093 C 
ENDROOT
BRANCH   3   4
HETATM    4  C9  UNL     1     -33.545   5.784   3.021  1.00 20.00     0.024 C 
BRANCH   4   5
HETATM    5  C7  UNL     1     -34.391   5.993   4.261  1.00 20.00     0.056 C 
HETATM    6  C3  UNL     1     -34.830   4.693   4.905  1.00 20.00     0.131 C 
HETATM    7  C4  UNL     1     -34.662   4.721   6.404  1.00 20.00     0.079 C 
HETATM    8  O10 UNL     1     -35.267   3.729   4.290  1.00 20.00    -0.298 OA
HETATM    9  C5  UNL     1     -34.354   6.190   6.661  1.00 20.00     0.008 C 
HETATM   10  C6  UNL     1     -33.619   6.649   5.408  1.00 20.00     0.013 C 
ENDBRANCH   4   5
ENDBRANCH   3   4
TORSDOF 2
ENDMDL
MODEL 2
REMARK VINA RESULT:      -6.1      1.587      2.004
REMARK  2 active torsions:
REMARK  status: ('A' for Active; 'I' for Inactive)
REMARK    1  A    between atoms: C7_7  and  C9_9 
REMARK    2  A    between atoms: C8_8  and  C9_9 
ROOT
HETATM    1  C1  UNL     1     -32.160   9.138   1.134  1.00 20.00     0.012 C 
HETATM    2  C2  UNL     1     -32.163   8.264   1.957  1.00 20.00    -0.117 C 
HETATM    3  C8  UNL     1     -32.160   7.193   2.962  1.00 20.00     0.093 C 
ENDROOT
BRANCH   3   4
HETATM    4  C9  UNL     1     -33.516   7.100   3.647  1.00 20.00     0.024 C 
BRANCH   4   5
HETATM    5  C7  UNL     1     -33.638   5.819   4.447  1.00 20.00     0.056 C 
HETATM    6  C3  UNL     1     -34.013   6.060   5.896  1.00 20.00     0.131 C 
HETATM    7  C4  UNL     1     -35.088   5.112   6.365  1.00 20.00     0.079 C 
HETATM    8  O10 UNL     1     -33.512   6.921   6.607  1.00 20.00    -0.298 OA
HETATM    9  C5  UNL     1     -35.154   4.114   5.217  1.00 20.00     0.008 C 
HETATM   10  C6  UNL     1     -34.794   4.931   3.983  1.00 20.00     0.013 C 
ENDBRANCH   4   5
ENDBRANCH   3   4
TORSDOF 2
ENDMDL
MODEL 3
REMARK VINA RESULT:      -5.1     11.668     12.844
REMARK  2 active torsions:
REMARK  status: ('A' for Active; 'I' for Inactive)
REMARK    1  A    between atoms: C7_7  and  C9_9 
REMARK    2  A    between atoms: C8_8  and  C9_9 
ROOT
HETATM    1  C1  UNL     1     -34.810  17.050  -0.096  1.00 20.00     0.012 C 
HETATM    2  C2  UNL     1     -34.333  16.754  -1.158  1.00 20.00    -0.117 C 
HETATM    3  C8  UNL     1     -33.746  16.395  -2.456  1.00 20.00     0.093 C 
ENDROOT
BRANCH   3   4
HETATM    4  C9  UNL     1     -34.379  15.121  -2.995  1.00 20.00     0.024 C 
BRANCH   4   5
HETATM    5  C7  UNL     1     -33.906  14.829  -4.404  1.00 20.00     0.056 C 
HETATM    6  C3  UNL     1     -34.700  13.728  -5.079  1.00 20.00     0.131 C 
HETATM    7  C4  UNL     1     -35.067  14.086  -6.498  1.00 20.00     0.079 C 
HETATM    8  O10 UNL     1     -35.014  12.673  -4.544  1.00 20.00    -0.298 OA
HETATM    9  C5  UNL     1     -34.229  15.336  -6.736  1.00 20.00     0.008 C 
HETATM   10  C6  UNL     1     -34.135  15.996  -5.367  1.00 20.00     0.013 C 
ENDBRANCH   4   5
ENDBRANCH   3   4
TORSDOF 2
ENDMDL
MODEL 4
REMARK VINA RESULT:      -4.9     11.529     12.446
REMARK  2 active torsions:
REMARK  status: ('A' for Active; 'I' for Inactive)
REMARK    1  A    between atoms: C7_7  and  C9_9 
REMARK    2  A    between atoms: C8_8  and  C9_9 
ROOT
HETATM    1  C1  UNL     1     -34.704  17.332   0.049  1.00 20.00     0.012 C 
HETATM    2  C2  UNL     1     -34.740  16.653  -0.941  1.00 20.00    -0.117 C 
HETATM    3  C8  UNL     1     -34.789  15.820  -2.150  1.00 20.00     0.093 C 
ENDROOT
BRANCH   3   4
HETATM    4  C9  UNL     1     -33.497  15.951  -2.941  1.00 20.00     0.024 C 
BRANCH   4   5
HETATM    5  C7  UNL     1     -33.617  15.289  -4.299  1.00 20.00     0.056 C 
HETATM    6  C3  UNL     1     -33.739  13.781  -4.214  1.00 20.00     0.131 C 
HETATM    7  C4  UNL     1     -34.815  13.250  -5.128  1.00 20.00     0.079 C 
HETATM    8  O10 UNL     1     -33.053  13.070  -3.491  1.00 20.00    -0.298 OA
HETATM    9  C5  UNL     1     -35.154  14.476  -5.965  1.00 20.00     0.008 C 
HETATM   10  C6  UNL     1     -34.911  15.653  -5.030  1.00 20.00     0.013 C 
ENDBRANCH   4   5
ENDBRANCH   3   4
TORSDOF 2
ENDMDL
MODEL 5
REMARK VINA RESULT:      -4.6     11.746     12.670
REMARK  2 active torsions:
REMARK  status: ('A' for Active; 'I' for Inactive)
REMARK    1  A    between atoms: C7_7  and  C9_9 
REMARK    2  A    between atoms: C8_8  and  C9_9 
ROOT
HETATM    1  C1  UNL     1     -34.996  17.374   0.427  1.00 20.00     0.012 C 
HETATM    2  C2  UNL     1     -34.715  16.811  -0.596  1.00 20.00    -0.117 C 
HETATM    3  C8  UNL     1     -34.367  16.121  -1.846  1.00 20.00     0.093 C 
ENDROOT
BRANCH   3   4
HETATM    4  C9  UNL     1     -35.527  16.177  -2.828  1.00 20.00     0.024 C 
BRANCH   4   5
HETATM    5  C7  UNL     1     -35.674  14.869  -3.578  1.00 20.00     0.056 C 
HETATM    6  C3  UNL     1     -35.906  15.060  -5.064  1.00 20.00     0.131 C 
HETATM    7  C4  UNL     1     -35.061  14.124  -5.891  1.00 20.00     0.079 C 
HETATM    8  O10 UNL     1     -36.682  15.876  -5.543  1.00 20.00    -0.298 OA
HETATM    9  C5  UNL     1     -34.508  13.176  -4.834  1.00 20.00     0.008 C 
HETATM   10  C6  UNL     1     -34.392  14.034  -3.581  1.00 20.00     0.013 C 
ENDBRANCH   4   5
ENDBRANCH   3   4
TORSDOF 2
ENDMDL
MODEL 6
REMARK VINA RESULT:      -4.4     11.845     12.957
REMARK  2 active torsions:
REMARK  status: ('A' for Active; 'I' for Inactive)
REMARK    1  A    between atoms: C7_7  and  C9_9 
REMARK    2  A    between atoms: C8_8  and  C9_9 
ROOT
HETATM    1  C1  UNL     1     -35.258  14.274  -6.792  1.00 20.00     0.012 C 
HETATM    2  C2  UNL     1     -35.074  13.936  -5.654  1.00 20.00    -0.117 C 
HETATM    3  C8  UNL     1     -34.854  13.521  -4.263  1.00 20.00     0.093 C 
ENDROOT
BRANCH   3   4
HETATM    4  C9  UNL     1     -33.473  13.947  -3.789  1.00 20.00     0.024 C 
BRANCH   4   5
HETATM    5  C7  UNL     1     -33.518  15.307  -3.123  1.00 20.00     0.056 C 
HETATM    6  C3  UNL     1     -33.507  16.453  -4.115  1.00 20.00     0.131 C 
HETATM    7  C4  UNL     1     -34.521  17.513  -3.763  1.00 20.00     0.079 C 
HETATM    8  O10 UNL     1     -32.769  16.518  -5.089  1.00 20.00    -0.298 OA
HETATM    9  C5  UNL     1     -34.956  17.085  -2.368  1.00 20.00     0.008 C 
HETATM   10  C6  UNL     1     -34.830  15.567  -2.381  1.00 20.00     0.013 C 
ENDBRANCH   4   5
ENDBRANCH   3   4
TORSDOF 2
ENDMDL
MODEL 7
REMARK VINA RESULT:      -4.4     11.686     12.817
REMARK  2 active torsions:
REMARK  status: ('A' for Active; 'I' for Inactive)
REMARK    1  A    between atoms: C7_7  and  C9_9 
REMARK    2  A    between atoms: C8_8  and  C9_9 
ROOT
HETATM    1  C1  UNL     1     -35.348  17.497   1.487  1.00 20.00     0.012 C 
HETATM    2  C2  UNL     1     -34.766  17.442   0.438  1.00 20.00    -0.117 C 
HETATM    3  C8  UNL     1     -34.051  17.378  -0.843  1.00 20.00     0.093 C 
ENDROOT
BRANCH   3   4
HETATM    4  C9  UNL     1     -34.506  16.172  -1.650  1.00 20.00     0.024 C 
BRANCH   4   5
HETATM    5  C7  UNL     1     -33.644  15.980  -2.882  1.00 20.00     0.056 C 
HETATM    6  C3  UNL     1     -34.117  14.841  -3.764  1.00 20.00     0.131 C 
HETATM    7  C4  UNL     1     -34.119  15.222  -5.223  1.00 20.00     0.079 C 
HETATM    8  O10 UNL     1     -34.460  13.742  -3.349  1.00 20.00    -0.298 OA
HETATM    9  C5  UNL     1     -33.374  16.550  -5.206  1.00 20.00     0.008 C 
HETATM   10  C6  UNL     1     -33.716  17.160  -3.853  1.00 20.00     0.013 C 
ENDBRANCH   4   5
ENDBRANCH   3   4
TORSDOF 2
ENDMDL
MODEL 8
REMARK VINA RESULT:      -4.3     11.514     12.610
REMARK  2 active torsions:
REMARK  status: ('A' for Active; 'I' for Inactive)
REMARK    1  A    between atoms: C7_7  and  C9_9 
REMARK    2  A    between atoms: C8_8  and  C9_9 
ROOT
HETATM    1  C1  UNL     1     -34.309  15.945  -7.279  1.00 20.00     0.012 C 
HETATM    2  C2  UNL     1     -34.827  15.097  -6.606  1.00 20.00    -0.117 C 
HETATM    3  C8  UNL     1     -35.466  14.060  -5.784  1.00 20.00     0.093 C 
ENDROOT
BRANCH   3   4
HETATM    4  C9  UNL     1     -34.447  13.404  -4.864  1.00 20.00     0.024 C 
BRANCH   4   5
HETATM    5  C7  UNL     1     -34.430  14.070  -3.503  1.00 20.00     0.056 C 
HETATM    6  C3  UNL     1     -33.269  15.028  -3.327  1.00 20.00     0.131 C 
HETATM    7  C4  UNL     1     -33.701  16.326  -2.691  1.00 20.00     0.079 C 
HETATM    8  O10 UNL     1     -32.116  14.787  -3.660  1.00 20.00    -0.298 OA
HETATM    9  C5  UNL     1     -35.122  16.005  -2.247  1.00 20.00     0.008 C 
HETATM   10  C6  UNL     1     -35.623  15.001  -3.277  1.00 20.00     0.013 C 
ENDBRANCH   4   5
ENDBRANCH   3   4
TORSDOF 2
ENDMDL
MODEL 9
REMARK VINA RESULT:      -4.3      9.987     10.944
REMARK  2 active torsions:
REMARK  status: ('A' for Active; 'I' for Inactive)
REMARK    1  A    between atoms: C7_7  and  C9_9 
REMARK    2  A    between atoms: C8_8  and  C9_9 
ROOT
HETATM    1  C1  UNL     1     -41.429   1.570  -4.035  1.00 20.00     0.012 C 
HETATM    2  C2  UNL     1     -42.081   2.193  -3.242  1.00 20.00    -0.117 C 
HETATM    3  C8  UNL     1     -42.880   2.950  -2.270  1.00 20.00     0.093 C 
ENDROOT
BRANCH   3   4
HETATM    4  C9  UNL     1     -42.861   4.434  -2.603  1.00 20.00     0.024 C 
BRANCH   4   5
HETATM    5  C7  UNL     1     -41.625   5.106  -2.040  1.00 20.00     0.056 C 
HETATM    6  C3  UNL     1     -41.694   6.619  -2.100  1.00 20.00     0.131 C 
HETATM    7  C4  UNL     1     -41.234   7.256  -0.812  1.00 20.00     0.079 C 
HETATM    8  O10 UNL     1     -42.079   7.257  -3.072  1.00 20.00    -0.298 OA
HETATM    9  C5  UNL     1     -40.631   6.071  -0.070  1.00 20.00     0.008 C 
HETATM   10  C6  UNL     1     -41.449   4.875  -0.538  1.00 20.00     0.013 C 
ENDBRANCH   4   5
ENDBRANCH   3   4
TORSDOF 2
ENDMDL
