MODEL 1
REMARK VINA RESULT:      -5.2      0.000      0.000
REMARK  4 active torsions:
REMARK  status: ('A' for Active; 'I' for Inactive)
REMARK    1  A    between atoms: C3_3  and  C9_9 
REMARK    2  A    between atoms: C6_6  and  C8_8 
REMARK    3  A    between atoms: C7_7  and  C9_9 
REMARK    4  A    between atoms: C8_8  and  C9_9 
ROOT
HETATM    1  C1  UNL     1     -32.206   9.053   1.104  1.00 20.00     0.012 C 
HETATM    2  C2  UNL     1     -32.075   8.259   1.995  1.00 20.00    -0.117 C 
HETATM    3  C6  UNL     1     -31.913   7.288   3.086  1.00 20.00     0.093 C 
ENDROOT
BRANCH   3   4
HETATM    4  C8  UNL     1     -32.967   6.179   2.997  1.00 20.00     0.024 C 
BRANCH   4   5
HETATM    5  C9  UNL     1     -33.531   5.798   4.378  1.00 20.00     0.055 C 
BRANCH   5   6
HETATM    6  C3  UNL     1     -34.903   5.129   4.271  1.00 20.00     0.127 C 
HETATM    7  C4  UNL     1     -35.127   3.896   5.110  1.00 20.00     0.091 C 
HETATM    8  O10 UNL     1     -35.803   5.578   3.561  1.00 20.00    -0.298 OA
ENDBRANCH   5   6
BRANCH   5   9
HETATM    9  C7  UNL     1     -33.600   6.999   5.338  1.00 20.00     0.007 C 
HETATM   10  C5  UNL     1     -34.003   6.658   6.766  1.00 20.00     0.006 C 
ENDBRANCH   5   9
ENDBRANCH   4   5
ENDBRANCH   3   4
TORSDOF 4
ENDMDL
MODEL 2
REMARK VINA RESULT:      -5.2      1.592      2.332
REMARK  4 active torsions:
REMARK  status: ('A' for Active; 'I' for Inactive)
REMARK    1  A    between atoms: C3_3  and  C9_9 
REMARK    2  A    between atoms: C6_6  and  C8_8 
REMARK    3  A    between atoms: C7_7  and  C9_9 
REMARK    4  A    between atoms: C8_8  and  C9_9 
ROOT
HETATM    1  C1  UNL     1     -32.165   8.718   1.149  1.00 20.00     0.012 C 
HETATM    2  C2  UNL     1     -31.988   8.216   2.225  1.00 20.00    -0.117 C 
HETATM    3  C6  UNL     1     -31.769   7.604   3.543  1.00 20.00     0.093 C 
ENDROOT
BRANCH   3   4
HETATM    4  C8  UNL     1     -32.514   6.270   3.661  1.00 20.00     0.024 C 
BRANCH   4   5
HETATM    5  C9  UNL     1     -33.950   6.448   4.188  1.00 20.00     0.055 C 
BRANCH   5   6
HETATM    6  C3  UNL     1     -34.064   6.091   5.671  1.00 20.00     0.127 C 
HETATM    7  C4  UNL     1     -34.671   4.752   6.005  1.00 20.00     0.091 C 
HETATM    8  O10 UNL     1     -33.660   6.838   6.563  1.00 20.00    -0.298 OA
ENDBRANCH   5   6
BRANCH   5   9
HETATM    9  C7  UNL     1     -34.980   5.649   3.369  1.00 20.00     0.007 C 
HETATM   10  C5  UNL     1     -34.415   4.933   2.149  1.00 20.00     0.006 C 
ENDBRANCH   5   9
ENDBRANCH   4   5
ENDBRANCH   3   4
TORSDOF 4
ENDMDL
MODEL 3
REMARK VINA RESULT:      -4.7     10.974     11.907
REMARK  4 active torsions:
REMARK  status: ('A' for Active; 'I' for Inactive)
REMARK    1  A    between atoms: C3_3  and  C9_9 
REMARK    2  A    between atoms: C6_6  and  C8_8 
REMARK    3  A    between atoms: C7_7  and  C9_9 
REMARK    4  A    between atoms: C8_8  and  C9_9 
ROOT
HETATM    1  C1  UNL     1     -34.394  15.596  -7.199  1.00 20.00     0.012 C 
HETATM    2  C2  UNL     1     -33.938  15.936  -6.142  1.00 20.00    -0.117 C 
HETATM    3  C6  UNL     1     -33.380  16.356  -4.849  1.00 20.00     0.093 C 
ENDROOT
BRANCH   3   4
HETATM    4  C8  UNL     1     -33.099  15.145  -3.952  1.00 20.00     0.024 C 
BRANCH   4   5
HETATM    5  C9  UNL     1     -34.325  14.746  -3.110  1.00 20.00     0.055 C 
BRANCH   5   6
HETATM    6  C3  UNL     1     -35.285  13.845  -3.888  1.00 20.00     0.127 C 
HETATM    7  C4  UNL     1     -36.673  14.381  -4.135  1.00 20.00     0.091 C 
HETATM    8  O10 UNL     1     -34.951  12.743  -4.323  1.00 20.00    -0.298 OA
ENDBRANCH   5   6
BRANCH   5   9
HETATM    9  C7  UNL     1     -35.077  15.967  -2.550  1.00 20.00     0.007 C 
HETATM   10  C5  UNL     1     -34.568  16.476  -1.208  1.00 20.00     0.006 C 
ENDBRANCH   5   9
ENDBRANCH   4   5
ENDBRANCH   3   4
TORSDOF 4
ENDMDL
MODEL 4
REMARK VINA RESULT:      -4.6      1.980      4.741
REMARK  4 active torsions:
REMARK  status: ('A' for Active; 'I' for Inactive)
REMARK    1  A    between atoms: C3_3  and  C9_9 
REMARK    2  A    between atoms: C6_6  and  C8_8 
REMARK    3  A    between atoms: C7_7  and  C9_9 
REMARK    4  A    between atoms: C8_8  and  C9_9 
ROOT
HETATM    1  C1  UNL     1     -35.141   3.918   5.994  1.00 20.00     0.012 C 
HETATM    2  C2  UNL     1     -34.616   4.998   6.040  1.00 20.00    -0.117 C 
HETATM    3  C6  UNL     1     -33.975   6.318   6.099  1.00 20.00     0.093 C 
ENDROOT
BRANCH   3   4
HETATM    4  C8  UNL     1     -33.898   6.955   4.707  1.00 20.00     0.024 C 
BRANCH   4   5
HETATM    5  C9  UNL     1     -32.710   6.423   3.886  1.00 20.00     0.055 C 
BRANCH   5   6
HETATM    6  C3  UNL     1     -31.783   7.548   3.424  1.00 20.00     0.127 C 
HETATM    7  C4  UNL     1     -32.056   8.142   2.064  1.00 20.00     0.091 C 
HETATM    8  O10 UNL     1     -30.869   7.981   4.126  1.00 20.00    -0.298 OA
ENDBRANCH   5   6
BRANCH   5   9
HETATM    9  C7  UNL     1     -33.160   5.578   2.680  1.00 20.00     0.007 C 
HETATM   10  C5  UNL     1     -34.664   5.355   2.577  1.00 20.00     0.006 C 
ENDBRANCH   5   9
ENDBRANCH   4   5
ENDBRANCH   3   4
TORSDOF 4
ENDMDL
MODEL 5
REMARK VINA RESULT:      -4.5     11.311     11.987
REMARK  4 active torsions:
REMARK  status: ('A' for Active; 'I' for Inactive)
REMARK    1  A    between atoms: C3_3  and  C9_9 
REMARK    2  A    between atoms: C6_6  and  C8_8 
REMARK    3  A    between atoms: C7_7  and  C9_9 
REMARK    4  A    between atoms: C8_8  and  C9_9 
ROOT
HETATM    1  C1  UNL     1     -34.779  16.987  -0.292  1.00 20.00     0.012 C 
HETATM    2  C2  UNL     1     -34.313  16.602  -1.330  1.00 20.00    -0.117 C 
HETATM    3  C6  UNL     1     -33.740  16.132  -2.598  1.00 20.00     0.093 C 
ENDROOT
BRANCH   3   4
HETATM    4  C8  UNL     1     -34.811  16.057  -3.692  1.00 20.00     0.024 C 
BRANCH   4   5
HETATM    5  C9  UNL     1     -35.620  14.748  -3.628  1.00 20.00     0.055 C 
BRANCH   5   6
HETATM    6  C3  UNL     1     -35.162  13.740  -4.684  1.00 20.00     0.127 C 
HETATM    7  C4  UNL     1     -34.894  14.276  -6.067  1.00 20.00     0.091 C 
HETATM    8  O10 UNL     1     -34.988  12.548  -4.427  1.00 20.00    -0.298 OA
ENDBRANCH   5   6
BRANCH   5   9
HETATM    9  C7  UNL     1     -37.136  14.987  -3.746  1.00 20.00     0.007 C 
HETATM   10  C5  UNL     1     -37.585  16.413  -3.454  1.00 20.00     0.006 C 
ENDBRANCH   5   9
ENDBRANCH   4   5
ENDBRANCH   3   4
TORSDOF 4
ENDMDL
MODEL 6
REMARK VINA RESULT:      -4.5     11.068     12.101
REMARK  4 active torsions:
REMARK  status: ('A' for Active; 'I' for Inactive)
REMARK    1  A    between atoms: C3_3  and  C9_9 
REMARK    2  A    between atoms: C6_6  and  C8_8 
REMARK    3  A    between atoms: C7_7  and  C9_9 
REMARK    4  A    between atoms: C8_8  and  C9_9 
ROOT
HETATM    1  C1  UNL     1     -35.122  17.430   0.737  1.00 20.00     0.012 C 
HETATM    2  C2  UNL     1     -34.623  17.115  -0.309  1.00 20.00    -0.117 C 
HETATM    3  C6  UNL     1     -34.012  16.732  -1.590  1.00 20.00     0.093 C 
ENDROOT
BRANCH   3   4
HETATM    4  C8  UNL     1     -34.748  15.544  -2.217  1.00 20.00     0.024 C 
BRANCH   4   5
HETATM    5  C9  UNL     1     -34.471  15.416  -3.727  1.00 20.00     0.055 C 
BRANCH   5   6
HETATM    6  C3  UNL     1     -34.112  13.983  -4.124  1.00 20.00     0.127 C 
HETATM    7  C4  UNL     1     -34.923  13.359  -5.232  1.00 20.00     0.091 C 
HETATM    8  O10 UNL     1     -33.189  13.363  -3.595  1.00 20.00    -0.298 OA
ENDBRANCH   5   6
BRANCH   5   9
HETATM    9  C7  UNL     1     -33.381  16.390  -4.209  1.00 20.00     0.007 C 
HETATM   10  C5  UNL     1     -33.543  16.875  -5.644  1.00 20.00     0.006 C 
ENDBRANCH   5   9
ENDBRANCH   4   5
ENDBRANCH   3   4
TORSDOF 4
ENDMDL
MODEL 7
REMARK VINA RESULT:      -4.5     11.291     12.623
REMARK  4 active torsions:
REMARK  status: ('A' for Active; 'I' for Inactive)
REMARK    1  A    between atoms: C3_3  and  C9_9 
REMARK    2  A    between atoms: C6_6  and  C8_8 
REMARK    3  A    between atoms: C7_7  and  C9_9 
REMARK    4  A    between atoms: C8_8  and  C9_9 
ROOT
HETATM    1  C1  UNL     1     -32.882  18.533  -0.443  1.00 20.00     0.012 C 
HETATM    2  C2  UNL     1     -33.699  17.661  -0.567  1.00 20.00    -0.117 C 
HETATM    3  C6  UNL     1     -34.697  16.594  -0.715  1.00 20.00     0.093 C 
ENDROOT
BRANCH   3   4
HETATM    4  C8  UNL     1     -34.973  16.300  -2.194  1.00 20.00     0.024 C 
BRANCH   4   5
HETATM    5  C9  UNL     1     -33.691  15.941  -2.967  1.00 20.00     0.055 C 
BRANCH   5   6
HETATM    6  C3  UNL     1     -33.492  16.835  -4.193  1.00 20.00     0.127 C 
HETATM    7  C4  UNL     1     -34.121  18.205  -4.147  1.00 20.00     0.091 C 
HETATM    8  O10 UNL     1     -32.831  16.479  -5.169  1.00 20.00    -0.298 OA
ENDBRANCH   5   6
BRANCH   5   9
HETATM    9  C7  UNL     1     -33.648  14.459  -3.379  1.00 20.00     0.007 C 
HETATM   10  C5  UNL     1     -34.972  13.890  -3.872  1.00 20.00     0.006 C 
ENDBRANCH   5   9
ENDBRANCH   4   5
ENDBRANCH   3   4
TORSDOF 4
ENDMDL
MODEL 8
REMARK VINA RESULT:      -4.4     10.632     12.173
REMARK  4 active torsions:
REMARK  status: ('A' for Active; 'I' for Inactive)
REMARK    1  A    between atoms: C3_3  and  C9_9 
REMARK    2  A    between atoms: C6_6  and  C8_8 
REMARK    3  A    between atoms: C7_7  and  C9_9 
REMARK    4  A    between atoms: C8_8  and  C9_9 
ROOT
HETATM    1  C1  UNL     1     -34.798  17.027  -0.036  1.00 20.00     0.012 C 
HETATM    2  C2  UNL     1     -34.732  16.886  -1.227  1.00 20.00    -0.117 C 
HETATM    3  C6  UNL     1     -34.649  16.716  -2.684  1.00 20.00     0.093 C 
ENDROOT
BRANCH   3   4
HETATM    4  C8  UNL     1     -35.650  15.663  -3.173  1.00 20.00     0.024 C 
BRANCH   4   5
HETATM    5  C9  UNL     1     -35.192  14.982  -4.476  1.00 20.00     0.055 C 
BRANCH   5   6
HETATM    6  C3  UNL     1     -34.535  13.626  -4.213  1.00 20.00     0.127 C 
HETATM    7  C4  UNL     1     -33.122  13.643  -3.688  1.00 20.00     0.091 C 
HETATM    8  O10 UNL     1     -35.127  12.561  -4.390  1.00 20.00    -0.298 OA
ENDBRANCH   5   6
BRANCH   5   9
HETATM    9  C7  UNL     1     -34.252  15.875  -5.307  1.00 20.00     0.007 C 
HETATM   10  C5  UNL     1     -34.175  15.523  -6.787  1.00 20.00     0.006 C 
ENDBRANCH   5   9
ENDBRANCH   4   5
ENDBRANCH   3   4
TORSDOF 4
ENDMDL
MODEL 9
REMARK VINA RESULT:      -4.2     11.061     11.865
REMARK  4 active torsions:
REMARK  status: ('A' for Active; 'I' for Inactive)
REMARK    1  A    between atoms: C3_3  and  C9_9 
REMARK    2  A    between atoms: C6_6  and  C8_8 
REMARK    3  A    between atoms: C7_7  and  C9_9 
REMARK    4  A    between atoms: C8_8  and  C9_9 
ROOT
HETATM    1  C1  UNL     1     -32.970  18.477  -0.348  1.00 20.00     0.012 C 
HETATM    2  C2  UNL     1     -33.662  17.576  -0.735  1.00 20.00    -0.117 C 
HETATM    3  C6  UNL     1     -34.511  16.472  -1.205  1.00 20.00     0.093 C 
ENDROOT
BRANCH   3   4
HETATM    4  C8  UNL     1     -34.112  16.036  -2.619  1.00 20.00     0.024 C 
BRANCH   4   5
HETATM    5  C9  UNL     1     -35.067  14.974  -3.194  1.00 20.00     0.055 C 
BRANCH   5   6
HETATM    6  C3  UNL     1     -34.332  13.954  -4.066  1.00 20.00     0.127 C 
HETATM    7  C4  UNL     1     -34.660  13.954  -5.538  1.00 20.00     0.091 C 
HETATM    8  O10 UNL     1     -33.489  13.182  -3.610  1.00 20.00    -0.298 OA
ENDBRANCH   5   6
BRANCH   5   9
HETATM    9  C7  UNL     1     -36.236  15.597  -3.978  1.00 20.00     0.007 C 
HETATM   10  C5  UNL     1     -37.613  15.052  -3.619  1.00 20.00     0.006 C 
ENDBRANCH   5   9
ENDBRANCH   4   5
ENDBRANCH   3   4
TORSDOF 4
ENDMDL
