MODEL 1
REMARK VINA RESULT:      -4.1      0.000      0.000
REMARK  2 active torsions:
REMARK  status: ('A' for Active; 'I' for Inactive)
REMARK    1  A    between atoms: C5_5  and  N8_8 
REMARK    2  A    between atoms: C6_6  and  N8_8 
ROOT
HETATM    1  N8  UNL     1     -34.751  15.347  -2.718  1.00 20.00     0.097 N 
HETATM    2  H22 UNL     1     -35.674  15.740  -2.552  1.00 20.00     0.317 HD
ENDROOT
BRANCH   1   3
HETATM    3  C5  UNL     1     -33.747  16.384  -2.462  1.00 20.00     0.225 A 
HETATM    4  C1  UNL     1     -34.119  17.842  -2.539  1.00 20.00     0.042 A 
HETATM    5  C4  UNL     1     -33.760  17.230  -1.213  1.00 20.00     0.016 A 
HETATM    6  C7  UNL     1     -34.798  17.075  -0.154  1.00 20.00     0.012 C 
ENDBRANCH   1   3
BRANCH   1   7
HETATM    7  C6  UNL     1     -34.661  14.874  -4.089  1.00 20.00     0.268 C 
HETATM    8  C2  UNL     1     -35.821  13.915  -4.354  1.00 20.00     0.205 C 
HETATM    9  O9  UNL     1     -34.969  12.762  -4.138  1.00 20.00    -0.387 OA
HETATM   10  C3  UNL     1     -33.795  13.614  -4.117  1.00 20.00     0.205 C 
ENDBRANCH   1   7
TORSDOF 2
ENDMDL
MODEL 2
REMARK VINA RESULT:      -3.8      2.012      2.240
REMARK  2 active torsions:
REMARK  status: ('A' for Active; 'I' for Inactive)
REMARK    1  A    between atoms: C5_5  and  N8_8 
REMARK    2  A    between atoms: C6_6  and  N8_8 
ROOT
HETATM    1  N8  UNL     1     -36.538  16.323  -2.396  1.00 20.00     0.097 N 
HETATM    2  H22 UNL     1     -36.753  17.293  -2.181  1.00 20.00     0.317 HD
ENDROOT
BRANCH   1   3
HETATM    3  C5  UNL     1     -35.089  16.128  -2.284  1.00 20.00     0.225 A 
HETATM    4  C1  UNL     1     -34.149  17.300  -2.403  1.00 20.00     0.042 A 
HETATM    5  C4  UNL     1     -34.301  16.594  -1.084  1.00 20.00     0.016 A 
HETATM    6  C7  UNL     1     -34.940  17.290   0.069  1.00 20.00     0.012 C 
ENDBRANCH   1   3
BRANCH   1   7
HETATM    7  C6  UNL     1     -36.995  16.007  -3.739  1.00 20.00     0.268 C 
HETATM    8  C2  UNL     1     -38.452  15.551  -3.666  1.00 20.00     0.205 C 
HETATM    9  O9  UNL     1     -38.059  14.156  -3.714  1.00 20.00    -0.387 OA
HETATM   10  C3  UNL     1     -36.694  14.535  -4.025  1.00 20.00     0.205 C 
ENDBRANCH   1   7
TORSDOF 2
ENDMDL
MODEL 3
REMARK VINA RESULT:      -3.6     11.462     12.213
REMARK  2 active torsions:
REMARK  status: ('A' for Active; 'I' for Inactive)
REMARK    1  A    between atoms: C5_5  and  N8_8 
REMARK    2  A    between atoms: C6_6  and  N8_8 
ROOT
HETATM    1  N8  UNL     1     -34.166   6.506   3.926  1.00 20.00     0.097 N 
HETATM    2  H22 UNL     1     -34.454   7.475   4.029  1.00 20.00     0.317 HD
ENDROOT
BRANCH   1   3
HETATM    3  C5  UNL     1     -33.594   6.049   5.197  1.00 20.00     0.225 A 
HETATM    4  C1  UNL     1     -34.350   6.239   6.486  1.00 20.00     0.042 A 
HETATM    5  C4  UNL     1     -34.134   4.854   5.942  1.00 20.00     0.016 A 
HETATM    6  C7  UNL     1     -35.291   4.057   5.443  1.00 20.00     0.012 C 
ENDBRANCH   1   3
BRANCH   1   7
HETATM    7  C6  UNL     1     -33.188   6.397   2.857  1.00 20.00     0.268 C 
HETATM    8  C2  UNL     1     -31.805   6.196   3.476  1.00 20.00     0.205 C 
HETATM    9  O9  UNL     1     -31.487   7.602   3.319  1.00 20.00    -0.387 OA
HETATM   10  C3  UNL     1     -32.678   7.797   2.514  1.00 20.00     0.205 C 
ENDBRANCH   1   7
TORSDOF 2
ENDMDL
MODEL 4
REMARK VINA RESULT:      -3.6      2.934      4.109
REMARK  2 active torsions:
REMARK  status: ('A' for Active; 'I' for Inactive)
REMARK    1  A    between atoms: C5_5  and  N8_8 
REMARK    2  A    between atoms: C6_6  and  N8_8 
ROOT
HETATM    1  N8  UNL     1     -33.044  15.987  -5.026  1.00 20.00     0.097 N 
HETATM    2  H22 UNL     1     -33.169  15.348  -5.806  1.00 20.00     0.317 HD
ENDROOT
BRANCH   1   3
HETATM    3  C5  UNL     1     -33.084  15.219  -3.778  1.00 20.00     0.225 A 
HETATM    4  C1  UNL     1     -34.368  15.091  -3.001  1.00 20.00     0.042 A 
HETATM    5  C4  UNL     1     -33.778  13.883  -3.674  1.00 20.00     0.016 A 
HETATM    6  C7  UNL     1     -34.476  13.253  -4.831  1.00 20.00     0.012 C 
ENDBRANCH   1   3
BRANCH   1   7
HETATM    7  C6  UNL     1     -34.095  16.990  -5.043  1.00 20.00     0.268 C 
HETATM    8  C2  UNL     1     -34.911  16.823  -6.325  1.00 20.00     0.205 C 
HETATM    9  O9  UNL     1     -34.185  17.897  -6.974  1.00 20.00    -0.387 OA
HETATM   10  C3  UNL     1     -33.556  18.253  -5.716  1.00 20.00     0.205 C 
ENDBRANCH   1   7
TORSDOF 2
ENDMDL
MODEL 5
REMARK VINA RESULT:      -3.6      2.676      3.666
REMARK  2 active torsions:
REMARK  status: ('A' for Active; 'I' for Inactive)
REMARK    1  A    between atoms: C5_5  and  N8_8 
REMARK    2  A    between atoms: C6_6  and  N8_8 
ROOT
HETATM    1  N8  UNL     1     -33.722  15.237  -5.766  1.00 20.00     0.097 N 
HETATM    2  H22 UNL     1     -32.724  15.057  -5.844  1.00 20.00     0.317 HD
ENDROOT
BRANCH   1   3
HETATM    3  C5  UNL     1     -34.289  14.313  -4.779  1.00 20.00     0.225 A 
HETATM    4  C1  UNL     1     -33.402  13.643  -3.762  1.00 20.00     0.042 A 
HETATM    5  C4  UNL     1     -34.409  14.667  -3.317  1.00 20.00     0.016 A 
HETATM    6  C7  UNL     1     -33.954  15.978  -2.773  1.00 20.00     0.012 C 
ENDBRANCH   1   3
BRANCH   1   7
HETATM    7  C6  UNL     1     -34.354  15.052  -7.062  1.00 20.00     0.268 C 
HETATM    8  C2  UNL     1     -34.858  16.407  -7.558  1.00 20.00     0.205 C 
HETATM    9  O9  UNL     1     -36.205  16.114  -7.111  1.00 20.00    -0.387 OA
HETATM   10  C3  UNL     1     -35.834  14.738  -6.844  1.00 20.00     0.205 C 
ENDBRANCH   1   7
TORSDOF 2
ENDMDL
MODEL 6
REMARK VINA RESULT:      -3.6     12.184     14.237
REMARK  2 active torsions:
REMARK  status: ('A' for Active; 'I' for Inactive)
REMARK    1  A    between atoms: C5_5  and  N8_8 
REMARK    2  A    between atoms: C6_6  and  N8_8 
ROOT
HETATM    1  N8  UNL     1     -41.511   3.782  -1.947  1.00 20.00     0.097 N 
HETATM    2  H22 UNL     1     -41.018   4.094  -2.780  1.00 20.00     0.317 HD
ENDROOT
BRANCH   1   3
HETATM    3  C5  UNL     1     -42.638   2.939  -2.356  1.00 20.00     0.225 A 
HETATM    4  C1  UNL     1     -43.252   3.095  -3.722  1.00 20.00     0.042 A 
HETATM    5  C4  UNL     1     -42.496   1.841  -3.380  1.00 20.00     0.016 A 
HETATM    6  C7  UNL     1     -41.200   1.540  -4.054  1.00 20.00     0.012 C 
ENDBRANCH   1   3
BRANCH   1   7
HETATM    7  C6  UNL     1     -41.979   4.935  -1.197  1.00 20.00     0.268 C 
HETATM    8  C2  UNL     1     -42.031   6.142  -2.133  1.00 20.00     0.205 C 
HETATM    9  O9  UNL     1     -40.754   6.625  -1.645  1.00 20.00    -0.387 OA
HETATM   10  C3  UNL     1     -40.772   5.642  -0.579  1.00 20.00     0.205 C 
ENDBRANCH   1   7
TORSDOF 2
ENDMDL
MODEL 7
REMARK VINA RESULT:      -3.5      2.394      4.021
REMARK  2 active torsions:
REMARK  status: ('A' for Active; 'I' for Inactive)
REMARK    1  A    between atoms: C5_5  and  N8_8 
REMARK    2  A    between atoms: C6_6  and  N8_8 
ROOT
HETATM    1  N8  UNL     1     -33.253  15.603  -5.076  1.00 20.00     0.097 N 
HETATM    2  H22 UNL     1     -32.432  16.195  -5.173  1.00 20.00     0.317 HD
ENDROOT
BRANCH   1   3
HETATM    3  C5  UNL     1     -34.429  16.354  -5.525  1.00 20.00     0.225 A 
HETATM    4  C1  UNL     1     -34.350  17.242  -6.740  1.00 20.00     0.042 A 
HETATM    5  C4  UNL     1     -35.188  15.994  -6.778  1.00 20.00     0.016 A 
HETATM    6  C7  UNL     1     -34.792  14.852  -7.651  1.00 20.00     0.012 C 
ENDBRANCH   1   3
BRANCH   1   7
HETATM    7  C6  UNL     1     -33.402  15.198  -3.688  1.00 20.00     0.268 C 
HETATM    8  C2  UNL     1     -32.999  13.730  -3.559  1.00 20.00     0.205 C 
HETATM    9  O9  UNL     1     -34.385  13.305  -3.598  1.00 20.00    -0.387 OA
HETATM   10  C3  UNL     1     -34.826  14.682  -3.479  1.00 20.00     0.205 C 
ENDBRANCH   1   7
TORSDOF 2
ENDMDL
MODEL 8
REMARK VINA RESULT:      -3.5     11.506     12.274
REMARK  2 active torsions:
REMARK  status: ('A' for Active; 'I' for Inactive)
REMARK    1  A    between atoms: C5_5  and  N8_8 
REMARK    2  A    between atoms: C6_6  and  N8_8 
ROOT
HETATM    1  N8  UNL     1     -34.366   5.983   3.550  1.00 20.00     0.097 N 
HETATM    2  H22 UNL     1     -34.358   5.213   2.886  1.00 20.00     0.317 HD
ENDROOT
BRANCH   1   3
HETATM    3  C5  UNL     1     -32.992   6.235   3.993  1.00 20.00     0.225 A 
HETATM    4  C1  UNL     1     -31.824   5.782   3.155  1.00 20.00     0.042 A 
HETATM    5  C4  UNL     1     -32.100   7.251   3.323  1.00 20.00     0.016 A 
HETATM    6  C7  UNL     1     -32.552   8.066   2.159  1.00 20.00     0.012 C 
ENDBRANCH   1   3
BRANCH   1   7
HETATM    7  C6  UNL     1     -35.215   5.645   4.680  1.00 20.00     0.268 C 
HETATM    8  C2  UNL     1     -34.369   5.672   5.953  1.00 20.00     0.205 C 
HETATM    9  O9  UNL     1     -34.214   4.230   5.926  1.00 20.00    -0.387 OA
HETATM   10  C3  UNL     1     -35.200   4.128   4.867  1.00 20.00     0.205 C 
ENDBRANCH   1   7
TORSDOF 2
ENDMDL
MODEL 9
REMARK VINA RESULT:      -3.5      2.063      2.731
REMARK  2 active torsions:
REMARK  status: ('A' for Active; 'I' for Inactive)
REMARK    1  A    between atoms: C5_5  and  N8_8 
REMARK    2  A    between atoms: C6_6  and  N8_8 
ROOT
HETATM    1  N8  UNL     1     -36.214  15.890  -2.460  1.00 20.00     0.097 N 
HETATM    2  H22 UNL     1     -36.809  16.077  -1.657  1.00 20.00     0.317 HD
ENDROOT
BRANCH   1   3
HETATM    3  C5  UNL     1     -35.151  16.898  -2.501  1.00 20.00     0.225 A 
HETATM    4  C1  UNL     1     -34.028  16.866  -1.497  1.00 20.00     0.042 A 
HETATM    5  C4  UNL     1     -33.746  16.574  -2.945  1.00 20.00     0.016 A 
HETATM    6  C7  UNL     1     -33.338  15.203  -3.367  1.00 20.00     0.012 C 
ENDBRANCH   1   3
BRANCH   1   7
HETATM    7  C6  UNL     1     -37.007  15.933  -3.677  1.00 20.00     0.268 C 
HETATM    8  C2  UNL     1     -38.445  15.542  -3.338  1.00 20.00     0.205 C 
HETATM    9  O9  UNL     1     -38.226  14.184  -3.797  1.00 20.00    -0.387 OA
HETATM   10  C3  UNL     1     -36.941  14.564  -4.353  1.00 20.00     0.205 C 
ENDBRANCH   1   7
TORSDOF 2
ENDMDL
