MODEL 1
REMARK VINA RESULT:      -3.7      0.000      0.000
REMARK  2 active torsions:
REMARK  status: ('A' for Active; 'I' for Inactive)
REMARK    1  A    between atoms: C4_4  and  C5_5 
REMARK    2  A    between atoms: C5_5  and  C6_6 
ROOT
HETATM    1  C1  UNL     1     -34.359  15.751  -5.182  1.00 20.00     0.034 A 
HETATM    2  C2  UNL     1     -34.726  13.460  -5.308  1.00 20.00     0.069 A 
HETATM    3  C3  UNL     1     -34.725  14.647  -6.005  1.00 20.00     0.018 A 
HETATM    4  C4  UNL     1     -34.095  15.365  -3.886  1.00 20.00    -0.015 A 
HETATM    5  S7  UNL     1     -34.287  13.678  -3.666  1.00 20.00    -0.105 SA
HETATM    6 BR9  UNL     1     -35.148  14.840  -7.829  1.00 20.00    -0.051 Br
ENDROOT
BRANCH   4   7
HETATM    7  C5  UNL     1     -33.688  16.206  -2.740  1.00 20.00     0.061 C 
BRANCH   7   8
HETATM    8  C6  UNL     1     -34.708  16.263  -1.593  1.00 20.00     0.119 C 
HETATM    9 CL8  UNL     1     -34.175  17.358  -0.293  1.00 20.00    -0.130 Cl
ENDBRANCH   7   8
ENDBRANCH   4   7
TORSDOF 2
ENDMDL
MODEL 2
REMARK VINA RESULT:      -3.6      3.644      4.680
REMARK  2 active torsions:
REMARK  status: ('A' for Active; 'I' for Inactive)
REMARK    1  A    between atoms: C4_4  and  C5_5 
REMARK    2  A    between atoms: C5_5  and  C6_6 
ROOT
HETATM    1  C1  UNL     1     -34.630  15.194  -2.989  1.00 20.00     0.034 A 
HETATM    2  C2  UNL     1     -33.697  17.288  -3.373  1.00 20.00     0.069 A 
HETATM    3  C3  UNL     1     -34.284  16.463  -2.440  1.00 20.00     0.018 A 
HETATM    4  C4  UNL     1     -34.294  15.098  -4.321  1.00 20.00    -0.015 A 
HETATM    5  S7  UNL     1     -33.564  16.533  -4.906  1.00 20.00    -0.105 SA
HETATM    6 BR9  UNL     1     -34.611  16.912  -0.642  1.00 20.00    -0.051 Br
ENDROOT
BRANCH   4   7
HETATM    7  C5  UNL     1     -34.488  13.955  -5.240  1.00 20.00     0.061 C 
BRANCH   7   8
HETATM    8  C6  UNL     1     -35.124  14.318  -6.589  1.00 20.00     0.119 C 
HETATM    9 CL8  UNL     1     -36.716  15.088  -6.379  1.00 20.00    -0.130 Cl
ENDBRANCH   7   8
ENDBRANCH   4   7
TORSDOF 2
ENDMDL
MODEL 3
REMARK VINA RESULT:      -3.6      3.676      4.655
REMARK  2 active torsions:
REMARK  status: ('A' for Active; 'I' for Inactive)
REMARK    1  A    between atoms: C4_4  and  C5_5 
REMARK    2  A    between atoms: C5_5  and  C6_6 
ROOT
HETATM    1  C1  UNL     1     -34.728  16.087  -1.935  1.00 20.00     0.034 A 
HETATM    2  C2  UNL     1     -33.841  17.876  -3.124  1.00 20.00     0.069 A 
HETATM    3  C3  UNL     1     -34.054  17.341  -1.873  1.00 20.00     0.018 A 
HETATM    4  C4  UNL     1     -35.003  15.711  -3.232  1.00 20.00    -0.015 A 
HETATM    5  S7  UNL     1     -34.450  16.867  -4.368  1.00 20.00    -0.105 SA
HETATM    6 BR9  UNL     1     -33.538  18.134  -0.247  1.00 20.00    -0.051 Br
ENDROOT
BRANCH   4   7
HETATM    7  C5  UNL     1     -35.684  14.489  -3.711  1.00 20.00     0.061 C 
BRANCH   7   8
HETATM    8  C6  UNL     1     -34.767  13.478  -4.415  1.00 20.00     0.119 C 
HETATM    9 CL8  UNL     1     -33.125  13.490  -3.724  1.00 20.00    -0.130 Cl
ENDBRANCH   7   8
ENDBRANCH   4   7
TORSDOF 2
ENDMDL
MODEL 4
REMARK VINA RESULT:      -3.6      2.084      2.450
REMARK  2 active torsions:
REMARK  status: ('A' for Active; 'I' for Inactive)
REMARK    1  A    between atoms: C4_4  and  C5_5 
REMARK    2  A    between atoms: C5_5  and  C6_6 
ROOT
HETATM    1  C1  UNL     1     -34.225  15.340  -2.885  1.00 20.00     0.034 A 
HETATM    2  C2  UNL     1     -34.042  16.085  -5.079  1.00 20.00     0.069 A 
HETATM    3  C3  UNL     1     -34.294  15.002  -4.267  1.00 20.00     0.018 A 
HETATM    4  C4  UNL     1     -33.922  16.670  -2.693  1.00 20.00    -0.015 A 
HETATM    5  S7  UNL     1     -33.723  17.505  -4.175  1.00 20.00    -0.105 SA
HETATM    6 BR9  UNL     1     -34.688  13.261  -4.866  1.00 20.00    -0.051 Br
ENDROOT
BRANCH   4   7
HETATM    7  C5  UNL     1     -33.761  17.403  -1.418  1.00 20.00     0.061 C 
BRANCH   7   8
HETATM    8  C6  UNL     1     -34.724  16.969  -0.304  1.00 20.00     0.119 C 
HETATM    9 CL8  UNL     1     -34.523  17.961   1.161  1.00 20.00    -0.130 Cl
ENDBRANCH   7   8
ENDBRANCH   4   7
TORSDOF 2
ENDMDL
MODEL 5
REMARK VINA RESULT:      -3.6      3.975      4.974
REMARK  2 active torsions:
REMARK  status: ('A' for Active; 'I' for Inactive)
REMARK    1  A    between atoms: C4_4  and  C5_5 
REMARK    2  A    between atoms: C5_5  and  C6_6 
ROOT
HETATM    1  C1  UNL     1     -34.192  16.217  -1.924  1.00 20.00     0.034 A 
HETATM    2  C2  UNL     1     -34.412  18.522  -2.125  1.00 20.00     0.069 A 
HETATM    3  C3  UNL     1     -34.523  17.443  -1.277  1.00 20.00     0.018 A 
HETATM    4  C4  UNL     1     -33.841  16.407  -3.243  1.00 20.00    -0.015 A 
HETATM    5  S7  UNL     1     -33.910  18.057  -3.696  1.00 20.00    -0.105 SA
HETATM    6 BR9  UNL     1     -35.046  17.526   0.529  1.00 20.00    -0.051 Br
ENDROOT
BRANCH   4   7
HETATM    7  C5  UNL     1     -33.436  15.395  -4.243  1.00 20.00     0.061 C 
BRANCH   7   8
HETATM    8  C6  UNL     1     -33.569  13.940  -3.771  1.00 20.00     0.119 C 
HETATM    9 CL8  UNL     1     -35.141  13.241  -4.233  1.00 20.00    -0.130 Cl
ENDBRANCH   7   8
ENDBRANCH   4   7
TORSDOF 2
ENDMDL
MODEL 6
REMARK VINA RESULT:      -3.6      3.548      4.529
REMARK  2 active torsions:
REMARK  status: ('A' for Active; 'I' for Inactive)
REMARK    1  A    between atoms: C4_4  and  C5_5 
REMARK    2  A    between atoms: C5_5  and  C6_6 
ROOT
HETATM    1  C1  UNL     1     -34.256  15.966  -4.744  1.00 20.00     0.034 A 
HETATM    2  C2  UNL     1     -34.551  14.094  -3.399  1.00 20.00     0.069 A 
HETATM    3  C3  UNL     1     -34.334  15.454  -3.417  1.00 20.00     0.018 A 
HETATM    4  C4  UNL     1     -34.416  14.978  -5.690  1.00 20.00    -0.015 A 
HETATM    5  S7  UNL     1     -34.660  13.439  -4.978  1.00 20.00    -0.105 SA
HETATM    6 BR9  UNL     1     -34.155  16.548  -1.896  1.00 20.00    -0.051 Br
ENDROOT
BRANCH   4   7
HETATM    7  C5  UNL     1     -34.399  15.103  -7.164  1.00 20.00     0.061 C 
BRANCH   7   8
HETATM    8  C6  UNL     1     -35.581  14.429  -7.877  1.00 20.00     0.119 C 
HETATM    9 CL8  UNL     1     -37.142  15.076  -7.316  1.00 20.00    -0.130 Cl
ENDBRANCH   7   8
ENDBRANCH   4   7
TORSDOF 2
ENDMDL
MODEL 7
REMARK VINA RESULT:      -3.5      2.199      2.312
REMARK  2 active torsions:
REMARK  status: ('A' for Active; 'I' for Inactive)
REMARK    1  A    between atoms: C4_4  and  C5_5 
REMARK    2  A    between atoms: C5_5  and  C6_6 
ROOT
HETATM    1  C1  UNL     1     -36.053  15.803  -3.087  1.00 20.00     0.034 A 
HETATM    2  C2  UNL     1     -35.849  13.785  -4.221  1.00 20.00     0.069 A 
HETATM    3  C3  UNL     1     -36.717  14.774  -3.815  1.00 20.00     0.018 A 
HETATM    4  C4  UNL     1     -34.702  15.561  -2.964  1.00 20.00    -0.015 A 
HETATM    5  S7  UNL     1     -34.239  14.099  -3.725  1.00 20.00    -0.105 SA
HETATM    6 BR9  UNL     1     -38.567  14.807  -4.157  1.00 20.00    -0.051 Br
ENDROOT
BRANCH   4   7
HETATM    7  C5  UNL     1     -33.678  16.384  -2.285  1.00 20.00     0.061 C 
BRANCH   7   8
HETATM    8  C6  UNL     1     -34.235  17.573  -1.489  1.00 20.00     0.119 C 
HETATM    9 CL8  UNL     1     -34.843  17.068   0.107  1.00 20.00    -0.130 Cl
ENDBRANCH   7   8
ENDBRANCH   4   7
TORSDOF 2
ENDMDL
MODEL 8
REMARK VINA RESULT:      -3.5     11.752     12.268
REMARK  2 active torsions:
REMARK  status: ('A' for Active; 'I' for Inactive)
REMARK    1  A    between atoms: C4_4  and  C5_5 
REMARK    2  A    between atoms: C5_5  and  C6_6 
ROOT
HETATM    1  C1  UNL     1     -33.309   6.335   4.937  1.00 20.00     0.034 A 
HETATM    2  C2  UNL     1     -34.763   5.032   3.677  1.00 20.00     0.069 A 
HETATM    3  C3  UNL     1     -34.378   5.394   4.948  1.00 20.00     0.018 A 
HETATM    4  C4  UNL     1     -32.918   6.658   3.656  1.00 20.00    -0.015 A 
HETATM    5  S7  UNL     1     -33.838   5.827   2.474  1.00 20.00    -0.105 SA
HETATM    6 BR9  UNL     1     -35.142   4.748   6.543  1.00 20.00    -0.051 Br
ENDROOT
BRANCH   4   7
HETATM    7  C5  UNL     1     -31.852   7.588   3.225  1.00 20.00     0.061 C 
BRANCH   7   8
HETATM    8  C6  UNL     1     -31.988   8.095   1.782  1.00 20.00     0.119 C 
HETATM    9 CL8  UNL     1     -32.576   9.776   1.729  1.00 20.00    -0.130 Cl
ENDBRANCH   7   8
ENDBRANCH   4   7
TORSDOF 2
ENDMDL
MODEL 9
REMARK VINA RESULT:      -3.5     12.661     13.479
REMARK  2 active torsions:
REMARK  status: ('A' for Active; 'I' for Inactive)
REMARK    1  A    between atoms: C4_4  and  C5_5 
REMARK    2  A    between atoms: C5_5  and  C6_6 
ROOT
HETATM    1  C1  UNL     1     -41.018   3.777  -2.280  1.00 20.00     0.034 A 
HETATM    2  C2  UNL     1     -43.189   2.992  -2.009  1.00 20.00     0.069 A 
HETATM    3  C3  UNL     1     -42.005   2.836  -2.695  1.00 20.00     0.018 A 
HETATM    4  C4  UNL     1     -41.486   4.616  -1.293  1.00 20.00    -0.015 A 
HETATM    5  S7  UNL     1     -43.109   4.269  -0.869  1.00 20.00    -0.105 SA
HETATM    6 BR9  UNL     1     -41.680   1.550  -4.029  1.00 20.00    -0.051 Br
ENDROOT
BRANCH   4   7
HETATM    7  C5  UNL     1     -40.775   5.716  -0.606  1.00 20.00     0.061 C 
BRANCH   7   8
HETATM    8  C6  UNL     1     -41.303   7.121  -0.930  1.00 20.00     0.119 C 
HETATM    9 CL8  UNL     1     -41.839   7.247  -2.624  1.00 20.00    -0.130 Cl
ENDBRANCH   7   8
ENDBRANCH   4   7
TORSDOF 2
ENDMDL
