MODEL 1
REMARK VINA RESULT:      -3.7      0.000      0.000
REMARK  2 active torsions:
REMARK  status: ('A' for Active; 'I' for Inactive)
REMARK    1  A    between atoms: C1_1  and  C7_7 
REMARK    2  A    between atoms: C7_7  and  S10_10 
ROOT
HETATM    1  C1  UNL     1     -34.073  16.072  -3.614  1.00 20.00     0.061 A 
HETATM    2  C2  UNL     1     -33.853  17.397  -3.931  1.00 20.00     0.006 A 
HETATM    3  C3  UNL     1     -34.408  16.945  -1.630  1.00 20.00     0.072 A 
HETATM    4  C4  UNL     1     -33.497  18.019  -5.221  1.00 20.00     0.058 C 
HETATM    5  C5  UNL     1     -34.708  17.066  -0.187  1.00 20.00     0.078 C 
HETATM    6  N8  UNL     1     -34.391  15.812  -2.295  1.00 20.00    -0.249 NA
HETATM    7  S9  UNL     1     -34.051  18.364  -2.528  1.00 20.00    -0.078 SA
ENDROOT
BRANCH   1   8
HETATM    8  C7  UNL     1     -33.992  14.901  -4.573  1.00 20.00     0.093 C 
HETATM    9  C6  UNL     1     -33.592  13.600  -3.880  1.00 20.00     0.028 C 
BRANCH   8  10
HETATM   10  S10 UNL     1     -35.570  14.680  -5.471  1.00 20.00    -0.172 SA
HETATM   11  H21 UNL     1     -35.635  13.355  -5.294  1.00 20.00     0.102 HD
ENDBRANCH   8  10
ENDBRANCH   1   8
TORSDOF 2
ENDMDL
MODEL 2
REMARK VINA RESULT:      -3.7      2.059      4.066
REMARK  2 active torsions:
REMARK  status: ('A' for Active; 'I' for Inactive)
REMARK    1  A    between atoms: C1_1  and  C7_7 
REMARK    2  A    between atoms: C7_7  and  S10_10 
ROOT
HETATM    1  C1  UNL     1     -34.741  15.654  -2.863  1.00 20.00     0.061 A 
HETATM    2  C2  UNL     1     -34.236  14.530  -3.483  1.00 20.00     0.006 A 
HETATM    3  C3  UNL     1     -36.612  14.869  -3.695  1.00 20.00     0.072 A 
HETATM    4  C4  UNL     1     -32.851  14.025  -3.555  1.00 20.00     0.058 C 
HETATM    5  C5  UNL     1     -38.045  14.738  -4.038  1.00 20.00     0.078 C 
HETATM    6  N8  UNL     1     -36.103  15.850  -2.985  1.00 20.00    -0.249 NA
HETATM    7  S9  UNL     1     -35.510  13.675  -4.250  1.00 20.00    -0.078 SA
ENDROOT
BRANCH   1   8
HETATM    8  C7  UNL     1     -33.941  16.675  -2.079  1.00 20.00     0.093 C 
HETATM    9  C6  UNL     1     -33.758  17.989  -2.837  1.00 20.00     0.028 C 
BRANCH   8  10
HETATM   10  S10 UNL     1     -34.700  16.987  -0.445  1.00 20.00    -0.172 SA
HETATM   11  H21 UNL     1     -33.902  16.150   0.230  1.00 20.00     0.102 HD
ENDBRANCH   8  10
ENDBRANCH   1   8
TORSDOF 2
ENDMDL
MODEL 3
REMARK VINA RESULT:      -3.5      1.665      3.125
REMARK  2 active torsions:
REMARK  status: ('A' for Active; 'I' for Inactive)
REMARK    1  A    between atoms: C1_1  and  C7_7 
REMARK    2  A    between atoms: C7_7  and  S10_10 
ROOT
HETATM    1  C1  UNL     1     -34.874  15.935  -3.738  1.00 20.00     0.061 A 
HETATM    2  C2  UNL     1     -34.522  16.723  -2.661  1.00 20.00     0.006 A 
HETATM    3  C3  UNL     1     -34.055  17.648  -4.836  1.00 20.00     0.072 A 
HETATM    4  C4  UNL     1     -34.664  16.472  -1.214  1.00 20.00     0.058 C 
HETATM    5  C5  UNL     1     -33.630  18.521  -5.952  1.00 20.00     0.078 C 
HETATM    6  N8  UNL     1     -34.607  16.465  -4.986  1.00 20.00    -0.249 NA
HETATM    7  S9  UNL     1     -33.826  18.186  -3.223  1.00 20.00    -0.078 SA
ENDROOT
BRANCH   1   8
HETATM    8  C7  UNL     1     -35.521  14.566  -3.668  1.00 20.00     0.093 C 
HETATM    9  C6  UNL     1     -37.019  14.607  -3.964  1.00 20.00     0.028 C 
BRANCH   8  10
HETATM   10  S10 UNL     1     -34.685  13.389  -4.790  1.00 20.00    -0.172 SA
HETATM   11  H21 UNL     1     -33.538  13.346  -4.101  1.00 20.00     0.102 HD
ENDBRANCH   8  10
ENDBRANCH   1   8
TORSDOF 2
ENDMDL
MODEL 4
REMARK VINA RESULT:      -3.5      1.396      3.802
REMARK  2 active torsions:
REMARK  status: ('A' for Active; 'I' for Inactive)
REMARK    1  A    between atoms: C1_1  and  C7_7 
REMARK    2  A    between atoms: C7_7  and  S10_10 
ROOT
HETATM    1  C1  UNL     1     -33.970  17.254  -2.531  1.00 20.00     0.061 A 
HETATM    2  C2  UNL     1     -33.710  17.758  -3.789  1.00 20.00     0.006 A 
HETATM    3  C3  UNL     1     -33.593  15.361  -3.572  1.00 20.00     0.072 A 
HETATM    4  C4  UNL     1     -33.696  19.153  -4.270  1.00 20.00     0.058 C 
HETATM    5  C5  UNL     1     -33.434  13.913  -3.829  1.00 20.00     0.078 C 
HETATM    6  N8  UNL     1     -33.904  15.880  -2.405  1.00 20.00    -0.249 NA
HETATM    7  S9  UNL     1     -33.365  16.467  -4.864  1.00 20.00    -0.078 SA
ENDROOT
BRANCH   1   8
HETATM    8  C7  UNL     1     -34.319  18.067  -1.300  1.00 20.00     0.093 C 
HETATM    9  C6  UNL     1     -34.854  17.204  -0.158  1.00 20.00     0.028 C 
BRANCH   8  10
HETATM   10  S10 UNL     1     -32.884  19.049  -0.734  1.00 20.00    -0.172 SA
HETATM   11  H21 UNL     1     -32.561  18.234   0.277  1.00 20.00     0.102 HD
ENDBRANCH   8  10
ENDBRANCH   1   8
TORSDOF 2
ENDMDL
MODEL 5
REMARK VINA RESULT:      -3.5      1.642      4.103
REMARK  2 active torsions:
REMARK  status: ('A' for Active; 'I' for Inactive)
REMARK    1  A    between atoms: C1_1  and  C7_7 
REMARK    2  A    between atoms: C7_7  and  S10_10 
ROOT
HETATM    1  C1  UNL     1     -35.308  16.196  -2.646  1.00 20.00     0.061 A 
HETATM    2  C2  UNL     1     -36.445  15.855  -3.349  1.00 20.00     0.006 A 
HETATM    3  C3  UNL     1     -34.565  14.371  -3.609  1.00 20.00     0.072 A 
HETATM    4  C4  UNL     1     -37.757  16.527  -3.418  1.00 20.00     0.058 C 
HETATM    5  C5  UNL     1     -33.667  13.265  -4.007  1.00 20.00     0.078 C 
HETATM    6  N8  UNL     1     -34.229  15.346  -2.794  1.00 20.00    -0.249 NA
HETATM    7  S9  UNL     1     -36.162  14.414  -4.236  1.00 20.00    -0.078 SA
ENDROOT
BRANCH   1   8
HETATM    8  C7  UNL     1     -35.148  17.400  -1.740  1.00 20.00     0.093 C 
HETATM    9  C6  UNL     1     -34.793  17.013  -0.305  1.00 20.00     0.028 C 
BRANCH   8  10
HETATM   10  S10 UNL     1     -33.905  18.563  -2.408  1.00 20.00    -0.172 SA
HETATM   11  H21 UNL     1     -34.062  18.198  -3.687  1.00 20.00     0.102 HD
ENDBRANCH   8  10
ENDBRANCH   1   8
TORSDOF 2
ENDMDL
MODEL 6
REMARK VINA RESULT:      -3.5      1.565      1.599
REMARK  2 active torsions:
REMARK  status: ('A' for Active; 'I' for Inactive)
REMARK    1  A    between atoms: C1_1  and  C7_7 
REMARK    2  A    between atoms: C7_7  and  S10_10 
ROOT
HETATM    1  C1  UNL     1     -34.730  15.985  -3.206  1.00 20.00     0.061 A 
HETATM    2  C2  UNL     1     -35.743  16.853  -3.557  1.00 20.00     0.006 A 
HETATM    3  C3  UNL     1     -35.034  16.941  -1.256  1.00 20.00     0.072 A 
HETATM    4  C4  UNL     1     -36.408  17.062  -4.858  1.00 20.00     0.058 C 
HETATM    5  C5  UNL     1     -34.880  17.279   0.175  1.00 20.00     0.078 C 
HETATM    6  N8  UNL     1     -34.322  16.035  -1.888  1.00 20.00    -0.249 NA
HETATM    7  S9  UNL     1     -36.213  17.772  -2.187  1.00 20.00    -0.078 SA
ENDROOT
BRANCH   1   8
HETATM    8  C7  UNL     1     -34.038  15.003  -4.130  1.00 20.00     0.093 C 
HETATM    9  C6  UNL     1     -32.625  14.654  -3.666  1.00 20.00     0.028 C 
BRANCH   8  10
HETATM   10  S10 UNL     1     -35.032  13.481  -4.333  1.00 20.00    -0.172 SA
HETATM   11  H21 UNL     1     -34.039  12.746  -4.849  1.00 20.00     0.102 HD
ENDBRANCH   8  10
ENDBRANCH   1   8
TORSDOF 2
ENDMDL
MODEL 7
REMARK VINA RESULT:      -3.4      2.549      3.267
REMARK  2 active torsions:
REMARK  status: ('A' for Active; 'I' for Inactive)
REMARK    1  A    between atoms: C1_1  and  C7_7 
REMARK    2  A    between atoms: C7_7  and  S10_10 
ROOT
HETATM    1  C1  UNL     1     -36.190  14.954  -3.815  1.00 20.00     0.061 A 
HETATM    2  C2  UNL     1     -35.025  14.323  -4.197  1.00 20.00     0.006 A 
HETATM    3  C3  UNL     1     -34.821  15.896  -2.383  1.00 20.00     0.072 A 
HETATM    4  C4  UNL     1     -34.789  13.318  -5.252  1.00 20.00     0.058 C 
HETATM    5  C5  UNL     1     -34.312  16.748  -1.286  1.00 20.00     0.078 C 
HETATM    6  N8  UNL     1     -36.075  15.856  -2.775  1.00 20.00    -0.249 NA
HETATM    7  S9  UNL     1     -33.726  14.875  -3.222  1.00 20.00    -0.078 SA
ENDROOT
BRANCH   1   8
HETATM    8  C7  UNL     1     -37.561  14.743  -4.426  1.00 20.00     0.093 C 
HETATM    9  C6  UNL     1     -38.695  15.100  -3.467  1.00 20.00     0.028 C 
BRANCH   8  10
HETATM   10  S10 UNL     1     -37.733  15.678  -5.988  1.00 20.00    -0.172 SA
HETATM   11  H21 UNL     1     -38.944  15.198  -6.293  1.00 20.00     0.102 HD
ENDBRANCH   8  10
ENDBRANCH   1   8
TORSDOF 2
ENDMDL
MODEL 8
REMARK VINA RESULT:      -3.4      2.015      4.317
REMARK  2 active torsions:
REMARK  status: ('A' for Active; 'I' for Inactive)
REMARK    1  A    between atoms: C1_1  and  C7_7 
REMARK    2  A    between atoms: C7_7  and  S10_10 
ROOT
HETATM    1  C1  UNL     1     -35.286  15.875  -4.302  1.00 20.00     0.061 A 
HETATM    2  C2  UNL     1     -35.007  14.663  -4.898  1.00 20.00     0.006 A 
HETATM    3  C3  UNL     1     -34.787  16.604  -6.309  1.00 20.00     0.072 A 
HETATM    4  C4  UNL     1     -35.038  13.298  -4.338  1.00 20.00     0.058 C 
HETATM    5  C5  UNL     1     -34.548  17.519  -7.446  1.00 20.00     0.078 C 
HETATM    6  N8  UNL     1     -35.160  16.989  -5.110  1.00 20.00    -0.249 NA
HETATM    7  S9  UNL     1     -34.569  14.916  -6.537  1.00 20.00    -0.078 SA
ENDROOT
BRANCH   1   8
HETATM    8  C7  UNL     1     -35.708  16.084  -2.861  1.00 20.00     0.093 C 
HETATM    9  C6  UNL     1     -34.520  16.140  -1.902  1.00 20.00     0.028 C 
BRANCH   8  10
HETATM   10  S10 UNL     1     -36.732  17.589  -2.689  1.00 20.00    -0.172 SA
HETATM   11  H21 UNL     1     -35.729  18.451  -2.897  1.00 20.00     0.102 HD
ENDBRANCH   8  10
ENDBRANCH   1   8
TORSDOF 2
ENDMDL
MODEL 9
REMARK VINA RESULT:      -3.3      2.416      3.212
REMARK  2 active torsions:
REMARK  status: ('A' for Active; 'I' for Inactive)
REMARK    1  A    between atoms: C1_1  and  C7_7 
REMARK    2  A    between atoms: C7_7  and  S10_10 
ROOT
HETATM    1  C1  UNL     1     -35.348  15.642  -3.267  1.00 20.00     0.061 A 
HETATM    2  C2  UNL     1     -35.366  16.559  -2.237  1.00 20.00     0.006 A 
HETATM    3  C3  UNL     1     -36.839  17.026  -4.085  1.00 20.00     0.072 A 
HETATM    4  C4  UNL     1     -34.605  16.584  -0.973  1.00 20.00     0.058 C 
HETATM    5  C5  UNL     1     -37.835  17.632  -4.996  1.00 20.00     0.078 C 
HETATM    6  N8  UNL     1     -36.193  15.909  -4.327  1.00 20.00    -0.249 NA
HETATM    7  S9  UNL     1     -36.480  17.811  -2.602  1.00 20.00    -0.078 SA
ENDROOT
BRANCH   1   8
HETATM    8  C7  UNL     1     -34.498  14.388  -3.330  1.00 20.00     0.093 C 
HETATM    9  C6  UNL     1     -35.048  13.354  -4.311  1.00 20.00     0.028 C 
BRANCH   8  10
HETATM   10  S10 UNL     1     -32.763  14.793  -3.742  1.00 20.00    -0.172 SA
HETATM   11  H21 UNL     1     -32.684  13.967  -4.792  1.00 20.00     0.102 HD
ENDBRANCH   8  10
ENDBRANCH   1   8
TORSDOF 2
ENDMDL
