MODEL 1
REMARK VINA RESULT:      -5.4      0.000      0.000
REMARK  2 active torsions:
REMARK  status: ('A' for Active; 'I' for Inactive)
REMARK    1  A    between atoms: C4_4  and  C5_5 
REMARK    2  A    between atoms: C5_5  and  C7_7 
ROOT
HETATM    1  C1  UNL     1     -34.119   6.050   5.824  1.00 20.00     0.033 A 
HETATM    2  C2  UNL     1     -34.845   5.269   6.695  1.00 20.00     0.088 A 
HETATM    3  C3  UNL     1     -35.059   4.370   4.655  1.00 20.00     0.102 A 
HETATM    4  C4  UNL     1     -34.254   5.482   4.532  1.00 20.00     0.027 A 
HETATM    5  N10 UNL     1     -35.412   4.251   5.975  1.00 20.00    -0.374 N 
HETATM    6  H22 UNL     1     -36.001   3.524   6.356  1.00 20.00     0.164 HD
ENDROOT
BRANCH   4   7
HETATM    7  C5  UNL     1     -33.668   5.950   3.274  1.00 20.00     0.165 C 
HETATM    8  O11 UNL     1     -33.653   5.306   2.232  1.00 20.00    -0.292 OA
BRANCH   7   9
HETATM    9  C7  UNL     1     -33.067   7.289   3.274  1.00 20.00     0.065 A 
HETATM   10  C6  UNL     1     -31.586   7.431   3.519  1.00 20.00     0.018 A 
HETATM   11  C8  UNL     1     -32.144   7.679   2.146  1.00 20.00    -0.006 A 
HETATM   12  C9  UNL     1     -32.183   9.062   1.592  1.00 20.00     0.011 C 
ENDBRANCH   7   9
ENDBRANCH   4   7
TORSDOF 2
ENDMDL
MODEL 2
REMARK VINA RESULT:      -5.2      0.624      1.139
REMARK  2 active torsions:
REMARK  status: ('A' for Active; 'I' for Inactive)
REMARK    1  A    between atoms: C4_4  and  C5_5 
REMARK    2  A    between atoms: C5_5  and  C7_7 
ROOT
HETATM    1  C1  UNL     1     -34.900   4.413   4.869  1.00 20.00     0.033 A 
HETATM    2  C2  UNL     1     -35.184   4.453   6.216  1.00 20.00     0.088 A 
HETATM    3  C3  UNL     1     -34.039   6.313   5.718  1.00 20.00     0.102 A 
HETATM    4  C4  UNL     1     -34.175   5.589   4.553  1.00 20.00     0.027 A 
HETATM    5  N10 UNL     1     -34.657   5.612   6.722  1.00 20.00    -0.374 N 
HETATM    6  H22 UNL     1     -34.713   5.906   7.686  1.00 20.00     0.164 HD
ENDROOT
BRANCH   4   7
HETATM    7  C5  UNL     1     -33.649   6.002   3.250  1.00 20.00     0.165 C 
HETATM    8  O11 UNL     1     -33.706   5.324   2.231  1.00 20.00    -0.292 OA
BRANCH   7   9
HETATM    9  C7  UNL     1     -33.020   7.325   3.171  1.00 20.00     0.065 A 
HETATM   10  C6  UNL     1     -31.537   7.451   3.412  1.00 20.00     0.018 A 
HETATM   11  C8  UNL     1     -32.087   7.628   2.025  1.00 20.00    -0.006 A 
HETATM   12  C9  UNL     1     -32.095   8.976   1.389  1.00 20.00     0.011 C 
ENDBRANCH   7   9
ENDBRANCH   4   7
TORSDOF 2
ENDMDL
MODEL 3
REMARK VINA RESULT:      -4.8     11.639     12.478
REMARK  2 active torsions:
REMARK  status: ('A' for Active; 'I' for Inactive)
REMARK    1  A    between atoms: C4_4  and  C5_5 
REMARK    2  A    between atoms: C5_5  and  C7_7 
ROOT
HETATM    1  C1  UNL     1     -35.087  14.639  -4.406  1.00 20.00     0.033 A 
HETATM    2  C2  UNL     1     -34.691  13.322  -4.475  1.00 20.00     0.088 A 
HETATM    3  C3  UNL     1     -32.953  14.505  -3.701  1.00 20.00     0.102 A 
HETATM    4  C4  UNL     1     -33.988  15.388  -3.916  1.00 20.00     0.027 A 
HETATM    5  N10 UNL     1     -33.392  13.252  -4.044  1.00 20.00    -0.374 N 
HETATM    6  H22 UNL     1     -32.841  12.407  -3.988  1.00 20.00     0.164 HD
ENDROOT
BRANCH   4   7
HETATM    7  C5  UNL     1     -33.918  16.830  -3.669  1.00 20.00     0.165 C 
HETATM    8  O11 UNL     1     -33.433  17.646  -4.445  1.00 20.00    -0.292 OA
BRANCH   7   9
HETATM    9  C7  UNL     1     -34.476  17.320  -2.403  1.00 20.00     0.065 A 
HETATM   10  C6  UNL     1     -34.711  16.346  -1.276  1.00 20.00     0.018 A 
HETATM   11  C8  UNL     1     -33.598  17.350  -1.176  1.00 20.00    -0.006 A 
HETATM   12  C9  UNL     1     -33.696  18.484  -0.214  1.00 20.00     0.011 C 
ENDBRANCH   7   9
ENDBRANCH   4   7
TORSDOF 2
ENDMDL
MODEL 4
REMARK VINA RESULT:      -4.8     11.939     13.030
REMARK  2 active torsions:
REMARK  status: ('A' for Active; 'I' for Inactive)
REMARK    1  A    between atoms: C4_4  and  C5_5 
REMARK    2  A    between atoms: C5_5  and  C7_7 
ROOT
HETATM    1  C1  UNL     1     -34.023  15.858  -6.333  1.00 20.00     0.033 A 
HETATM    2  C2  UNL     1     -34.802  15.205  -7.261  1.00 20.00     0.088 A 
HETATM    3  C3  UNL     1     -34.779  13.951  -5.405  1.00 20.00     0.102 A 
HETATM    4  C4  UNL     1     -34.007  15.065  -5.158  1.00 20.00     0.027 A 
HETATM    5  N10 UNL     1     -35.256  14.046  -6.687  1.00 20.00    -0.374 N 
HETATM    6  H22 UNL     1     -35.852  13.367  -7.138  1.00 20.00     0.164 HD
ENDROOT
BRANCH   4   7
HETATM    7  C5  UNL     1     -33.317  15.337  -3.895  1.00 20.00     0.165 C 
HETATM    8  O11 UNL     1     -32.329  14.730  -3.498  1.00 20.00    -0.292 OA
BRANCH   7   9
HETATM    9  C7  UNL     1     -33.852  16.418  -3.059  1.00 20.00     0.065 A 
HETATM   10  C6  UNL     1     -35.333  16.702  -3.081  1.00 20.00     0.018 A 
HETATM   11  C8  UNL     1     -34.711  16.069  -1.868  1.00 20.00    -0.006 A 
HETATM   12  C9  UNL     1     -34.584  16.844  -0.602  1.00 20.00     0.011 C 
ENDBRANCH   7   9
ENDBRANCH   4   7
TORSDOF 2
ENDMDL
MODEL 5
REMARK VINA RESULT:      -4.8     11.771     12.673
REMARK  2 active torsions:
REMARK  status: ('A' for Active; 'I' for Inactive)
REMARK    1  A    between atoms: C4_4  and  C5_5 
REMARK    2  A    between atoms: C5_5  and  C7_7 
ROOT
HETATM    1  C1  UNL     1     -33.706  15.567  -3.037  1.00 20.00     0.033 A 
HETATM    2  C2  UNL     1     -34.232  16.352  -2.036  1.00 20.00     0.088 A 
HETATM    3  C3  UNL     1     -35.945  15.319  -3.044  1.00 20.00     0.102 A 
HETATM    4  C4  UNL     1     -34.789  14.913  -3.676  1.00 20.00     0.027 A 
HETATM    5  N10 UNL     1     -35.593  16.194  -2.049  1.00 20.00    -0.374 N 
HETATM    6  H22 UNL     1     -36.239  16.652  -1.422  1.00 20.00     0.164 HD
ENDROOT
BRANCH   4   7
HETATM    7  C5  UNL     1     -34.740  13.974  -4.799  1.00 20.00     0.165 C 
HETATM    8  O11 UNL     1     -34.943  12.768  -4.706  1.00 20.00    -0.292 OA
BRANCH   7   9
HETATM    9  C7  UNL     1     -34.433  14.528  -6.122  1.00 20.00     0.065 A 
HETATM   10  C6  UNL     1     -35.391  14.291  -7.262  1.00 20.00     0.018 A 
HETATM   11  C8  UNL     1     -35.273  15.661  -6.657  1.00 20.00    -0.006 A 
HETATM   12  C9  UNL     1     -34.636  16.767  -7.427  1.00 20.00     0.011 C 
ENDBRANCH   7   9
ENDBRANCH   4   7
TORSDOF 2
ENDMDL
MODEL 6
REMARK VINA RESULT:      -4.7     12.196     12.942
REMARK  2 active torsions:
REMARK  status: ('A' for Active; 'I' for Inactive)
REMARK    1  A    between atoms: C4_4  and  C5_5 
REMARK    2  A    between atoms: C5_5  and  C7_7 
ROOT
HETATM    1  C1  UNL     1     -33.772  18.466   2.732  1.00 20.00     0.033 A 
HETATM    2  C2  UNL     1     -33.443  18.449   4.069  1.00 20.00     0.088 A 
HETATM    3  C3  UNL     1     -31.581  18.946   2.927  1.00 20.00     0.102 A 
HETATM    4  C4  UNL     1     -32.595  18.779   2.009  1.00 20.00     0.027 A 
HETATM    5  N10 UNL     1     -32.108  18.742   4.176  1.00 20.00    -0.374 N 
HETATM    6  H22 UNL     1     -31.591  18.800   5.042  1.00 20.00     0.164 HD
ENDROOT
BRANCH   4   7
HETATM    7  C5  UNL     1     -32.436  18.914   0.559  1.00 20.00     0.165 C 
HETATM    8  O11 UNL     1     -31.400  19.262   0.003  1.00 20.00    -0.292 OA
BRANCH   7   9
HETATM    9  C7  UNL     1     -33.602  18.600  -0.274  1.00 20.00     0.065 A 
HETATM   10  C6  UNL     1     -33.484  18.697  -1.774  1.00 20.00     0.018 A 
HETATM   11  C8  UNL     1     -33.588  17.350  -1.118  1.00 20.00    -0.006 A 
HETATM   12  C9  UNL     1     -34.826  16.536  -1.270  1.00 20.00     0.011 C 
ENDBRANCH   7   9
ENDBRANCH   4   7
TORSDOF 2
ENDMDL
MODEL 7
REMARK VINA RESULT:      -4.6     11.355     12.553
REMARK  2 active torsions:
REMARK  status: ('A' for Active; 'I' for Inactive)
REMARK    1  A    between atoms: C4_4  and  C5_5 
REMARK    2  A    between atoms: C5_5  and  C7_7 
ROOT
HETATM    1  C1  UNL     1     -34.518  14.606  -5.460  1.00 20.00     0.033 A 
HETATM    2  C2  UNL     1     -34.859  13.288  -5.258  1.00 20.00     0.088 A 
HETATM    3  C3  UNL     1     -34.224  14.125  -3.280  1.00 20.00     0.102 A 
HETATM    4  C4  UNL     1     -34.115  15.137  -4.209  1.00 20.00     0.027 A 
HETATM    5  N10 UNL     1     -34.677  13.006  -3.929  1.00 20.00    -0.374 N 
HETATM    6  H22 UNL     1     -34.849  12.111  -3.494  1.00 20.00     0.164 HD
ENDROOT
BRANCH   4   7
HETATM    7  C5  UNL     1     -33.662  16.497  -3.909  1.00 20.00     0.165 C 
HETATM    8  O11 UNL     1     -33.429  17.354  -4.755  1.00 20.00    -0.292 OA
BRANCH   7   9
HETATM    9  C7  UNL     1     -33.484  16.847  -2.496  1.00 20.00     0.065 A 
HETATM   10  C6  UNL     1     -33.578  18.293  -2.077  1.00 20.00     0.018 A 
HETATM   11  C8  UNL     1     -34.673  17.334  -1.705  1.00 20.00    -0.006 A 
HETATM   12  C9  UNL     1     -34.851  16.915  -0.286  1.00 20.00     0.011 C 
ENDBRANCH   7   9
ENDBRANCH   4   7
TORSDOF 2
ENDMDL
MODEL 8
REMARK VINA RESULT:      -4.6     11.949     13.204
REMARK  2 active torsions:
REMARK  status: ('A' for Active; 'I' for Inactive)
REMARK    1  A    between atoms: C4_4  and  C5_5 
REMARK    2  A    between atoms: C5_5  and  C7_7 
ROOT
HETATM    1  C1  UNL     1     -34.416  14.760  -6.967  1.00 20.00     0.033 A 
HETATM    2  C2  UNL     1     -35.228  15.337  -7.917  1.00 20.00     0.088 A 
HETATM    3  C3  UNL     1     -36.474  15.004  -6.086  1.00 20.00     0.102 A 
HETATM    4  C4  UNL     1     -35.204  14.548  -5.808  1.00 20.00     0.027 A 
HETATM    5  N10 UNL     1     -36.477  15.481  -7.371  1.00 20.00    -0.374 N 
HETATM    6  H22 UNL     1     -37.278  15.877  -7.843  1.00 20.00     0.164 HD
ENDROOT
BRANCH   4   7
HETATM    7  C5  UNL     1     -34.791  13.961  -4.531  1.00 20.00     0.165 C 
HETATM    8  O11 UNL     1     -34.983  12.794  -4.208  1.00 20.00    -0.292 OA
BRANCH   7   9
HETATM    9  C7  UNL     1     -34.094  14.840  -3.585  1.00 20.00     0.065 A 
HETATM   10  C6  UNL     1     -33.878  16.288  -3.946  1.00 20.00     0.018 A 
HETATM   11  C8  UNL     1     -34.871  15.923  -2.879  1.00 20.00    -0.006 A 
HETATM   12  C9  UNL     1     -34.586  16.239  -1.451  1.00 20.00     0.011 C 
ENDBRANCH   7   9
ENDBRANCH   4   7
TORSDOF 2
ENDMDL
MODEL 9
REMARK VINA RESULT:      -4.6     11.874     12.932
REMARK  2 active torsions:
REMARK  status: ('A' for Active; 'I' for Inactive)
REMARK    1  A    between atoms: C4_4  and  C5_5 
REMARK    2  A    between atoms: C5_5  and  C7_7 
ROOT
HETATM    1  C1  UNL     1     -34.577  16.273  -1.662  1.00 20.00     0.033 A 
HETATM    2  C2  UNL     1     -34.520  16.969  -0.476  1.00 20.00     0.088 A 
HETATM    3  C3  UNL     1     -33.639  18.281  -2.064  1.00 20.00     0.102 A 
HETATM    4  C4  UNL     1     -34.020  17.102  -2.668  1.00 20.00     0.027 A 
HETATM    5  N10 UNL     1     -33.948  18.188  -0.731  1.00 20.00    -0.374 N 
HETATM    6  H22 UNL     1     -33.779  18.909  -0.044  1.00 20.00     0.164 HD
ENDROOT
BRANCH   4   7
HETATM    7  C5  UNL     1     -33.858  16.806  -4.094  1.00 20.00     0.165 C 
HETATM    8  O11 UNL     1     -33.066  17.376  -4.836  1.00 20.00    -0.292 OA
BRANCH   7   9
HETATM    9  C7  UNL     1     -34.704  15.749  -4.658  1.00 20.00     0.065 A 
HETATM   10  C6  UNL     1     -34.351  15.160  -6.001  1.00 20.00     0.018 A 
HETATM   11  C8  UNL     1     -34.159  14.345  -4.753  1.00 20.00    -0.006 A 
HETATM   12  C9  UNL     1     -35.044  13.178  -4.478  1.00 20.00     0.011 C 
ENDBRANCH   7   9
ENDBRANCH   4   7
TORSDOF 2
ENDMDL
