MODEL 1
REMARK VINA RESULT:      -4.9      0.000      0.000
REMARK  2 active torsions:
REMARK  status: ('A' for Active; 'I' for Inactive)
REMARK    1  A    between atoms: C6_6  and  C7_7 
REMARK    2  A    between atoms: C7_7  and  N9_9 
ROOT
HETATM    1  C1  UNL     1     -32.134   8.924   1.439  1.00 20.00     0.012 C 
HETATM    2  C2  UNL     1     -32.142   8.015   2.225  1.00 20.00    -0.116 C 
HETATM    3  C6  UNL     1     -32.148   6.904   3.187  1.00 20.00     0.113 C 
ENDROOT
BRANCH   3   4
HETATM    4  C7  UNL     1     -33.400   6.034   3.062  1.00 20.00     0.141 C 
BRANCH   4   5
HETATM    5  N9  UNL     1     -34.007   5.697   4.347  1.00 20.00    -0.349 N 
HETATM    6  C4  UNL     1     -34.872   4.667   4.588  1.00 20.00     0.111 A 
HETATM    7  C3  UNL     1     -35.161   4.757   5.929  1.00 20.00     0.135 A 
HETATM    8  N8  UNL     1     -34.499   5.810   6.509  1.00 20.00    -0.255 NA
HETATM    9  C5  UNL     1     -33.812   6.355   5.530  1.00 20.00     0.209 A 
ENDBRANCH   4   5
ENDBRANCH   3   4
TORSDOF 2
ENDMDL
MODEL 2
REMARK VINA RESULT:      -4.2     10.942     12.121
REMARK  2 active torsions:
REMARK  status: ('A' for Active; 'I' for Inactive)
REMARK    1  A    between atoms: C6_6  and  C7_7 
REMARK    2  A    between atoms: C7_7  and  N9_9 
ROOT
HETATM    1  C1  UNL     1     -33.583  18.078  -0.196  1.00 20.00     0.012 C 
HETATM    2  C2  UNL     1     -34.012  17.222  -0.921  1.00 20.00    -0.116 C 
HETATM    3  C6  UNL     1     -34.540  16.173  -1.804  1.00 20.00     0.113 C 
ENDROOT
BRANCH   3   4
HETATM    4  C7  UNL     1     -33.686  15.987  -3.059  1.00 20.00     0.141 C 
BRANCH   4   5
HETATM    5  N9  UNL     1     -34.160  14.916  -3.933  1.00 20.00    -0.349 N 
HETATM    6  C4  UNL     1     -34.518  15.041  -5.245  1.00 20.00     0.111 A 
HETATM    7  C3  UNL     1     -34.888  13.775  -5.631  1.00 20.00     0.135 A 
HETATM    8  N8  UNL     1     -34.765  12.884  -4.594  1.00 20.00    -0.255 NA
HETATM    9  C5  UNL     1     -34.324  13.603  -3.586  1.00 20.00     0.209 A 
ENDBRANCH   4   5
ENDBRANCH   3   4
TORSDOF 2
ENDMDL
MODEL 3
REMARK VINA RESULT:      -4.2     11.144     11.744
REMARK  2 active torsions:
REMARK  status: ('A' for Active; 'I' for Inactive)
REMARK    1  A    between atoms: C6_6  and  C7_7 
REMARK    2  A    between atoms: C7_7  and  N9_9 
ROOT
HETATM    1  C1  UNL     1     -35.134  17.419   0.700  1.00 20.00     0.012 C 
HETATM    2  C2  UNL     1     -34.684  17.044  -0.349  1.00 20.00    -0.116 C 
HETATM    3  C6  UNL     1     -34.129  16.587  -1.631  1.00 20.00     0.113 C 
ENDROOT
BRANCH   3   4
HETATM    4  C7  UNL     1     -35.219  16.187  -2.626  1.00 20.00     0.141 C 
BRANCH   4   5
HETATM    5  N9  UNL     1     -34.926  14.950  -3.346  1.00 20.00    -0.349 N 
HETATM    6  C4  UNL     1     -35.812  14.211  -4.078  1.00 20.00     0.111 A 
HETATM    7  C3  UNL     1     -35.077  13.152  -4.556  1.00 20.00     0.135 A 
HETATM    8  N8  UNL     1     -33.772  13.226  -4.136  1.00 20.00    -0.255 NA
HETATM    9  C5  UNL     1     -33.715  14.320  -3.411  1.00 20.00     0.209 A 
ENDBRANCH   4   5
ENDBRANCH   3   4
TORSDOF 2
ENDMDL
MODEL 4
REMARK VINA RESULT:      -4.1     11.297     11.876
REMARK  2 active torsions:
REMARK  status: ('A' for Active; 'I' for Inactive)
REMARK    1  A    between atoms: C6_6  and  C7_7 
REMARK    2  A    between atoms: C7_7  and  N9_9 
ROOT
HETATM    1  C1  UNL     1     -35.064  17.357   0.501  1.00 20.00     0.012 C 
HETATM    2  C2  UNL     1     -34.619  16.974  -0.547  1.00 20.00    -0.116 C 
HETATM    3  C6  UNL     1     -34.068  16.506  -1.827  1.00 20.00     0.113 C 
ENDROOT
BRANCH   3   4
HETATM    4  C7  UNL     1     -35.158  16.253  -2.870  1.00 20.00     0.141 C 
BRANCH   4   5
HETATM    5  N9  UNL     1     -35.019  14.973  -3.559  1.00 20.00    -0.349 N 
HETATM    6  C4  UNL     1     -33.848  14.393  -3.958  1.00 20.00     0.111 A 
HETATM    7  C3  UNL     1     -34.226  13.213  -4.554  1.00 20.00     0.135 A 
HETATM    8  N8  UNL     1     -35.589  13.059  -4.529  1.00 20.00    -0.255 NA
HETATM    9  C5  UNL     1     -36.037  14.136  -3.923  1.00 20.00     0.209 A 
ENDBRANCH   4   5
ENDBRANCH   3   4
TORSDOF 2
ENDMDL
MODEL 5
REMARK VINA RESULT:      -3.8     11.796     12.927
REMARK  2 active torsions:
REMARK  status: ('A' for Active; 'I' for Inactive)
REMARK    1  A    between atoms: C6_6  and  C7_7 
REMARK    2  A    between atoms: C7_7  and  N9_9 
ROOT
HETATM    1  C1  UNL     1     -34.796  16.975  -0.276  1.00 20.00     0.012 C 
HETATM    2  C2  UNL     1     -34.334  16.649  -1.335  1.00 20.00    -0.116 C 
HETATM    3  C6  UNL     1     -33.766  16.256  -2.633  1.00 20.00     0.113 C 
ENDROOT
BRANCH   3   4
HETATM    4  C7  UNL     1     -34.398  14.974  -3.178  1.00 20.00     0.141 C 
BRANCH   4   5
HETATM    5  N9  UNL     1     -34.487  14.942  -4.636  1.00 20.00    -0.349 N 
HETATM    6  C4  UNL     1     -33.942  15.851  -5.499  1.00 20.00     0.111 A 
HETATM    7  C3  UNL     1     -34.292  15.400  -6.750  1.00 20.00     0.135 A 
HETATM    8  N8  UNL     1     -35.031  14.247  -6.673  1.00 20.00    -0.255 NA
HETATM    9  C5  UNL     1     -35.130  13.998  -5.386  1.00 20.00     0.209 A 
ENDBRANCH   4   5
ENDBRANCH   3   4
TORSDOF 2
ENDMDL
MODEL 6
REMARK VINA RESULT:      -3.6     11.683     12.798
REMARK  2 active torsions:
REMARK  status: ('A' for Active; 'I' for Inactive)
REMARK    1  A    between atoms: C6_6  and  C7_7 
REMARK    2  A    between atoms: C7_7  and  N9_9 
ROOT
HETATM    1  C1  UNL     1     -34.704  16.855  -0.450  1.00 20.00     0.012 C 
HETATM    2  C2  UNL     1     -34.381  16.437  -1.529  1.00 20.00    -0.116 C 
HETATM    3  C6  UNL     1     -33.983  15.930  -2.850  1.00 20.00     0.113 C 
ENDROOT
BRANCH   3   4
HETATM    4  C7  UNL     1     -34.772  14.683  -3.255  1.00 20.00     0.141 C 
BRANCH   4   5
HETATM    5  N9  UNL     1     -35.241  14.714  -4.638  1.00 20.00    -0.349 N 
HETATM    6  C4  UNL     1     -36.385  15.310  -5.090  1.00 20.00     0.111 A 
HETATM    7  C3  UNL     1     -36.392  15.073  -6.444  1.00 20.00     0.135 A 
HETATM    8  N8  UNL     1     -35.289  14.352  -6.828  1.00 20.00    -0.255 NA
HETATM    9  C5  UNL     1     -34.616  14.153  -5.717  1.00 20.00     0.209 A 
ENDBRANCH   4   5
ENDBRANCH   3   4
TORSDOF 2
ENDMDL
MODEL 7
REMARK VINA RESULT:      -3.6     10.250     11.417
REMARK  2 active torsions:
REMARK  status: ('A' for Active; 'I' for Inactive)
REMARK    1  A    between atoms: C6_6  and  C7_7 
REMARK    2  A    between atoms: C7_7  and  N9_9 
ROOT
HETATM    1  C1  UNL     1     -42.261  -0.153  -3.707  1.00 20.00     0.012 C 
HETATM    2  C2  UNL     1     -41.907   0.986  -3.564  1.00 20.00    -0.116 C 
HETATM    3  C6  UNL     1     -41.468   2.379  -3.392  1.00 20.00     0.113 C 
ENDROOT
BRANCH   3   4
HETATM    4  C7  UNL     1     -42.461   3.202  -2.571  1.00 20.00     0.141 C 
BRANCH   4   5
HETATM    5  N9  UNL     1     -41.923   4.483  -2.119  1.00 20.00    -0.349 N 
HETATM    6  C4  UNL     1     -42.327   5.721  -2.534  1.00 20.00     0.111 A 
HETATM    7  C3  UNL     1     -41.535   6.602  -1.835  1.00 20.00     0.135 A 
HETATM    8  N8  UNL     1     -40.665   5.937  -1.008  1.00 20.00    -0.255 NA
HETATM    9  C5  UNL     1     -40.925   4.663  -1.203  1.00 20.00     0.209 A 
ENDBRANCH   4   5
ENDBRANCH   3   4
TORSDOF 2
ENDMDL
MODEL 8
REMARK VINA RESULT:      -3.5     10.320     10.794
REMARK  2 active torsions:
REMARK  status: ('A' for Active; 'I' for Inactive)
REMARK    1  A    between atoms: C6_6  and  C7_7 
REMARK    2  A    between atoms: C7_7  and  N9_9 
ROOT
HETATM    1  C1  UNL     1     -41.946   9.148  -5.566  1.00 20.00     0.012 C 
HETATM    2  C2  UNL     1     -42.335   8.672  -4.534  1.00 20.00    -0.116 C 
HETATM    3  C6  UNL     1     -42.810   8.093  -3.269  1.00 20.00     0.113 C 
ENDROOT
BRANCH   3   4
HETATM    4  C7  UNL     1     -42.802   6.563  -3.292  1.00 20.00     0.141 C 
BRANCH   4   5
HETATM    5  N9  UNL     1     -41.963   5.970  -2.253  1.00 20.00    -0.349 N 
HETATM    6  C4  UNL     1     -41.752   4.635  -2.049  1.00 20.00     0.111 A 
HETATM    7  C3  UNL     1     -40.902   4.575  -0.971  1.00 20.00     0.135 A 
HETATM    8  N8  UNL     1     -40.589   5.831  -0.515  1.00 20.00    -0.255 NA
HETATM    9  C5  UNL     1     -41.244   6.648  -1.309  1.00 20.00     0.209 A 
ENDBRANCH   4   5
ENDBRANCH   3   4
TORSDOF 2
ENDMDL
MODEL 9
REMARK VINA RESULT:      -3.4     11.402     12.560
REMARK  2 active torsions:
REMARK  status: ('A' for Active; 'I' for Inactive)
REMARK    1  A    between atoms: C6_6  and  C7_7 
REMARK    2  A    between atoms: C7_7  and  N9_9 
ROOT
HETATM    1  C1  UNL     1     -35.277  14.400  -6.953  1.00 20.00     0.012 C 
HETATM    2  C2  UNL     1     -35.071  13.905  -5.878  1.00 20.00    -0.116 C 
HETATM    3  C6  UNL     1     -34.823  13.296  -4.564  1.00 20.00     0.113 C 
ENDROOT
BRANCH   3   4
HETATM    4  C7  UNL     1     -33.635  13.934  -3.843  1.00 20.00     0.141 C 
BRANCH   4   5
HETATM    5  N9  UNL     1     -33.864  15.325  -3.461  1.00 20.00    -0.349 N 
HETATM    6  C4  UNL     1     -34.642  15.762  -2.426  1.00 20.00     0.111 A 
HETATM    7  C3  UNL     1     -34.545  17.133  -2.467  1.00 20.00     0.135 A 
HETATM    8  N8  UNL     1     -33.731  17.542  -3.495  1.00 20.00    -0.255 NA
HETATM    9  C5  UNL     1     -33.337  16.429  -4.072  1.00 20.00     0.209 A 
ENDBRANCH   4   5
ENDBRANCH   3   4
TORSDOF 2
ENDMDL
