MODEL 1
REMARK VINA RESULT:      -4.0      0.000      0.000
REMARK  2 active torsions:
REMARK  status: ('A' for Active; 'I' for Inactive)
REMARK    1  A    between atoms: C1_1  and  C7_7 
REMARK    2  A    between atoms: C7_7  and  S10_10 
ROOT
HETATM    1  C1  UNL     1     -34.799  15.619  -2.817  1.00 20.00     0.061 A 
HETATM    2  C2  UNL     1     -34.273  14.538  -3.492  1.00 20.00     0.006 A 
HETATM    3  C3  UNL     1     -36.649  14.862  -3.720  1.00 20.00     0.072 A 
HETATM    4  C4  UNL     1     -32.881  14.053  -3.574  1.00 20.00     0.058 C 
HETATM    5  C5  UNL     1     -38.076  14.736  -4.090  1.00 20.00     0.078 C 
HETATM    6  N8  UNL     1     -36.162  15.807  -2.947  1.00 20.00    -0.249 NA
HETATM    7  S9  UNL     1     -35.526  13.714  -4.325  1.00 20.00    -0.078 SA
ENDROOT
BRANCH   1   8
HETATM    8  C7  UNL     1     -34.022  16.602  -1.965  1.00 20.00     0.093 C 
HETATM    9  C6  UNL     1     -34.628  16.788  -0.575  1.00 20.00     0.028 C 
BRANCH   8  10
HETATM   10  S10 UNL     1     -33.871  18.222  -2.797  1.00 20.00    -0.172 SA
HETATM   11  H21 UNL     1     -33.637  18.921  -1.679  1.00 20.00     0.102 HD
ENDBRANCH   8  10
ENDBRANCH   1   8
TORSDOF 2
ENDMDL
MODEL 2
REMARK VINA RESULT:      -3.7      1.921      4.113
REMARK  2 active torsions:
REMARK  status: ('A' for Active; 'I' for Inactive)
REMARK    1  A    between atoms: C1_1  and  C7_7 
REMARK    2  A    between atoms: C7_7  and  S10_10 
ROOT
HETATM    1  C1  UNL     1     -34.212  16.058  -3.375  1.00 20.00     0.061 A 
HETATM    2  C2  UNL     1     -34.217  16.949  -2.324  1.00 20.00     0.006 A 
HETATM    3  C3  UNL     1     -33.804  17.897  -4.500  1.00 20.00     0.072 A 
HETATM    4  C4  UNL     1     -34.436  16.718  -0.882  1.00 20.00     0.058 C 
HETATM    5  C5  UNL     1     -33.531  18.817  -5.626  1.00 20.00     0.078 C 
HETATM    6  N8  UNL     1     -33.975  16.599  -4.625  1.00 20.00    -0.249 NA
HETATM    7  S9  UNL     1     -33.913  18.533  -2.910  1.00 20.00    -0.078 SA
ENDROOT
BRANCH   1   8
HETATM    8  C7  UNL     1     -34.442  14.563  -3.279  1.00 20.00     0.093 C 
HETATM    9  C6  UNL     1     -33.231  13.747  -3.725  1.00 20.00     0.028 C 
BRANCH   8  10
HETATM   10  S10 UNL     1     -35.916  14.060  -4.237  1.00 20.00    -0.172 SA
HETATM   11  H21 UNL     1     -36.534  15.245  -4.156  1.00 20.00     0.102 HD
ENDBRANCH   8  10
ENDBRANCH   1   8
TORSDOF 2
ENDMDL
MODEL 3
REMARK VINA RESULT:      -3.6      1.951      4.166
REMARK  2 active torsions:
REMARK  status: ('A' for Active; 'I' for Inactive)
REMARK    1  A    between atoms: C1_1  and  C7_7 
REMARK    2  A    between atoms: C7_7  and  S10_10 
ROOT
HETATM    1  C1  UNL     1     -34.425  16.048  -4.265  1.00 20.00     0.061 A 
HETATM    2  C2  UNL     1     -33.973  17.339  -4.442  1.00 20.00     0.006 A 
HETATM    3  C3  UNL     1     -34.449  16.697  -2.169  1.00 20.00     0.072 A 
HETATM    4  C4  UNL     1     -33.590  18.051  -5.677  1.00 20.00     0.058 C 
HETATM    5  C5  UNL     1     -34.622  16.676  -0.700  1.00 20.00     0.078 C 
HETATM    6  N8  UNL     1     -34.698  15.678  -2.962  1.00 20.00    -0.249 NA
HETATM    7  S9  UNL     1     -33.884  18.131  -2.923  1.00 20.00    -0.078 SA
ENDROOT
BRANCH   1   8
HETATM    8  C7  UNL     1     -34.640  15.021  -5.358  1.00 20.00     0.093 C 
HETATM    9  C6  UNL     1     -35.959  15.216  -6.103  1.00 20.00     0.028 C 
BRANCH   8  10
HETATM   10  S10 UNL     1     -34.550  13.321  -4.691  1.00 20.00    -0.172 SA
HETATM   11  H21 UNL     1     -33.264  13.394  -4.323  1.00 20.00     0.102 HD
ENDBRANCH   8  10
ENDBRANCH   1   8
TORSDOF 2
ENDMDL
MODEL 4
REMARK VINA RESULT:      -3.6      2.346      3.050
REMARK  2 active torsions:
REMARK  status: ('A' for Active; 'I' for Inactive)
REMARK    1  A    between atoms: C1_1  and  C7_7 
REMARK    2  A    between atoms: C7_7  and  S10_10 
ROOT
HETATM    1  C1  UNL     1     -34.325  17.036  -2.651  1.00 20.00     0.061 A 
HETATM    2  C2  UNL     1     -33.809  17.556  -3.819  1.00 20.00     0.006 A 
HETATM    3  C3  UNL     1     -33.793  15.153  -3.642  1.00 20.00     0.072 A 
HETATM    4  C4  UNL     1     -33.668  18.959  -4.255  1.00 20.00     0.058 C 
HETATM    5  C5  UNL     1     -33.619  13.706  -3.896  1.00 20.00     0.078 C 
HETATM    6  N8  UNL     1     -34.317  15.658  -2.547  1.00 20.00    -0.249 NA
HETATM    7  S9  UNL     1     -33.287  16.277  -4.836  1.00 20.00    -0.078 SA
ENDROOT
BRANCH   1   8
HETATM    8  C7  UNL     1     -34.893  17.834  -1.494  1.00 20.00     0.093 C 
HETATM    9  C6  UNL     1     -34.757  17.113  -0.154  1.00 20.00     0.028 C 
BRANCH   8  10
HETATM   10  S10 UNL     1     -36.644  18.268  -1.789  1.00 20.00    -0.172 SA
HETATM   11  H21 UNL     1     -36.742  17.625  -2.959  1.00 20.00     0.102 HD
ENDBRANCH   8  10
ENDBRANCH   1   8
TORSDOF 2
ENDMDL
MODEL 5
REMARK VINA RESULT:      -3.5      1.616      4.039
REMARK  2 active torsions:
REMARK  status: ('A' for Active; 'I' for Inactive)
REMARK    1  A    between atoms: C1_1  and  C7_7 
REMARK    2  A    between atoms: C7_7  and  S10_10 
ROOT
HETATM    1  C1  UNL     1     -34.389  15.960  -2.606  1.00 20.00     0.061 A 
HETATM    2  C2  UNL     1     -33.901  17.040  -3.311  1.00 20.00     0.006 A 
HETATM    3  C3  UNL     1     -34.289  17.407  -0.961  1.00 20.00     0.072 A 
HETATM    4  C4  UNL     1     -33.554  17.165  -4.740  1.00 20.00     0.058 C 
HETATM    5  C5  UNL     1     -34.391  17.998   0.391  1.00 20.00     0.078 C 
HETATM    6  N8  UNL     1     -34.612  16.168  -1.259  1.00 20.00    -0.249 NA
HETATM    7  S9  UNL     1     -33.712  18.378  -2.254  1.00 20.00    -0.078 SA
ENDROOT
BRANCH   1   8
HETATM    8  C7  UNL     1     -34.692  14.588  -3.174  1.00 20.00     0.093 C 
HETATM    9  C6  UNL     1     -33.482  13.947  -3.852  1.00 20.00     0.028 C 
BRANCH   8  10
HETATM   10  S10 UNL     1     -36.095  14.654  -4.345  1.00 20.00    -0.172 SA
HETATM   11  H21 UNL     1     -35.340  14.774  -5.445  1.00 20.00     0.102 HD
ENDBRANCH   8  10
ENDBRANCH   1   8
TORSDOF 2
ENDMDL
MODEL 6
REMARK VINA RESULT:      -3.5      1.808      1.837
REMARK  2 active torsions:
REMARK  status: ('A' for Active; 'I' for Inactive)
REMARK    1  A    between atoms: C1_1  and  C7_7 
REMARK    2  A    between atoms: C7_7  and  S10_10 
ROOT
HETATM    1  C1  UNL     1     -34.431  15.989  -4.050  1.00 20.00     0.061 A 
HETATM    2  C2  UNL     1     -34.178  14.683  -4.411  1.00 20.00     0.006 A 
HETATM    3  C3  UNL     1     -35.630  15.916  -5.886  1.00 20.00     0.072 A 
HETATM    4  C4  UNL     1     -33.346  13.658  -3.750  1.00 20.00     0.058 C 
HETATM    5  C5  UNL     1     -36.521  16.328  -6.992  1.00 20.00     0.078 C 
HETATM    6  N8  UNL     1     -35.263  16.698  -4.895  1.00 20.00    -0.249 NA
HETATM    7  S9  UNL     1     -35.012  14.315  -5.864  1.00 20.00    -0.078 SA
ENDROOT
BRANCH   1   8
HETATM    8  C7  UNL     1     -33.881  16.700  -2.830  1.00 20.00     0.093 C 
HETATM    9  C6  UNL     1     -34.615  16.324  -1.544  1.00 20.00     0.028 C 
BRANCH   8  10
HETATM   10  S10 UNL     1     -33.912  18.514  -3.053  1.00 20.00    -0.172 SA
HETATM   11  H21 UNL     1     -34.361  18.789  -1.821  1.00 20.00     0.102 HD
ENDBRANCH   8  10
ENDBRANCH   1   8
TORSDOF 2
ENDMDL
MODEL 7
REMARK VINA RESULT:      -3.4      1.684      3.364
REMARK  2 active torsions:
REMARK  status: ('A' for Active; 'I' for Inactive)
REMARK    1  A    between atoms: C1_1  and  C7_7 
REMARK    2  A    between atoms: C7_7  and  S10_10 
ROOT
HETATM    1  C1  UNL     1     -35.164  15.757  -3.322  1.00 20.00     0.061 A 
HETATM    2  C2  UNL     1     -35.302  16.601  -2.240  1.00 20.00     0.006 A 
HETATM    3  C3  UNL     1     -36.660  17.125  -4.160  1.00 20.00     0.072 A 
HETATM    4  C4  UNL     1     -34.638  16.574  -0.922  1.00 20.00     0.058 C 
HETATM    5  C5  UNL     1     -37.617  17.745  -5.103  1.00 20.00     0.078 C 
HETATM    6  N8  UNL     1     -35.942  16.056  -4.424  1.00 20.00    -0.249 NA
HETATM    7  S9  UNL     1     -36.449  17.823  -2.606  1.00 20.00    -0.078 SA
ENDROOT
BRANCH   1   8
HETATM    8  C7  UNL     1     -34.251  14.550  -3.401  1.00 20.00     0.093 C 
HETATM    9  C6  UNL     1     -32.797  14.925  -3.681  1.00 20.00     0.028 C 
BRANCH   8  10
HETATM   10  S10 UNL     1     -34.837  13.360  -4.658  1.00 20.00    -0.172 SA
HETATM   11  H21 UNL     1     -35.464  12.554  -3.792  1.00 20.00     0.102 HD
ENDBRANCH   8  10
ENDBRANCH   1   8
TORSDOF 2
ENDMDL
MODEL 8
REMARK VINA RESULT:      -3.4      1.926      4.096
REMARK  2 active torsions:
REMARK  status: ('A' for Active; 'I' for Inactive)
REMARK    1  A    between atoms: C1_1  and  C7_7 
REMARK    2  A    between atoms: C7_7  and  S10_10 
ROOT
HETATM    1  C1  UNL     1     -35.620  15.453  -4.158  1.00 20.00     0.061 A 
HETATM    2  C2  UNL     1     -36.565  16.457  -4.187  1.00 20.00     0.006 A 
HETATM    3  C3  UNL     1     -35.193  16.366  -2.209  1.00 20.00     0.072 A 
HETATM    4  C4  UNL     1     -37.555  16.801  -5.227  1.00 20.00     0.058 C 
HETATM    5  C5  UNL     1     -34.572  16.626  -0.892  1.00 20.00     0.078 C 
HETATM    6  N8  UNL     1     -34.832  15.400  -3.024  1.00 20.00    -0.249 NA
HETATM    7  S9  UNL     1     -36.474  17.376  -2.742  1.00 20.00    -0.078 SA
ENDROOT
BRANCH   1   8
HETATM    8  C7  UNL     1     -35.375  14.426  -5.245  1.00 20.00     0.093 C 
HETATM    9  C6  UNL     1     -34.618  13.199  -4.741  1.00 20.00     0.028 C 
BRANCH   8  10
HETATM   10  S10 UNL     1     -34.486  15.164  -6.662  1.00 20.00    -0.172 SA
HETATM   11  H21 UNL     1     -34.817  16.430  -6.377  1.00 20.00     0.102 HD
ENDBRANCH   8  10
ENDBRANCH   1   8
TORSDOF 2
ENDMDL
MODEL 9
REMARK VINA RESULT:      -3.4      1.600      2.499
REMARK  2 active torsions:
REMARK  status: ('A' for Active; 'I' for Inactive)
REMARK    1  A    between atoms: C1_1  and  C7_7 
REMARK    2  A    between atoms: C7_7  and  S10_10 
ROOT
HETATM    1  C1  UNL     1     -34.851  16.116  -2.505  1.00 20.00     0.061 A 
HETATM    2  C2  UNL     1     -36.131  16.382  -2.942  1.00 20.00     0.006 A 
HETATM    3  C3  UNL     1     -35.099  14.408  -3.860  1.00 20.00     0.072 A 
HETATM    4  C4  UNL     1     -37.046  17.487  -2.590  1.00 20.00     0.058 C 
HETATM    5  C5  UNL     1     -34.815  13.167  -4.613  1.00 20.00     0.078 C 
HETATM    6  N8  UNL     1     -34.257  14.984  -3.030  1.00 20.00    -0.249 NA
HETATM    7  S9  UNL     1     -36.622  15.175  -4.057  1.00 20.00    -0.078 SA
ENDROOT
BRANCH   1   8
HETATM    8  C7  UNL     1     -34.057  16.943  -1.514  1.00 20.00     0.093 C 
HETATM    9  C6  UNL     1     -34.748  17.067  -0.158  1.00 20.00     0.028 C 
BRANCH   8  10
HETATM   10  S10 UNL     1     -33.698  18.607  -2.181  1.00 20.00    -0.172 SA
HETATM   11  H21 UNL     1     -32.390  18.390  -2.372  1.00 20.00     0.102 HD
ENDBRANCH   8  10
ENDBRANCH   1   8
TORSDOF 2
ENDMDL
