MODEL 1
REMARK VINA RESULT:      -6.2      0.000      0.000
REMARK  4 active torsions:
REMARK  status: ('A' for Active; 'I' for Inactive)
REMARK    1  A    between atoms: C8_8  and  C11_11 
REMARK    2  A    between atoms: C9_9  and  C10_10 
REMARK    3  A    between atoms: C10_10  and  C11_11 
REMARK    4  A    between atoms: C11_11  and  O12_12 
ROOT
HETATM    1  C1  UNL     1     -32.582  10.130   1.488  1.00 20.00     0.012 C 
HETATM    2  C2  UNL     1     -32.265   8.989   1.686  1.00 20.00    -0.117 C 
HETATM    3  C9  UNL     1     -31.876   7.592   1.924  1.00 20.00     0.095 C 
ENDROOT
BRANCH   3   4
HETATM    4  C10 UNL     1     -32.018   7.192   3.397  1.00 20.00     0.044 C 
BRANCH   4   5
HETATM    5  C11 UNL     1     -32.971   6.013   3.626  1.00 20.00     0.123 C 
BRANCH   5   6
HETATM    6  C8  UNL     1     -34.256   6.475   4.323  1.00 20.00     0.018 C 
HETATM    7  C6  UNL     1     -34.078   6.531   5.852  1.00 20.00     0.034 C 
HETATM    8  C4  UNL     1     -34.250   5.204   6.532  1.00 20.00    -0.030 C 
HETATM    9  C3  UNL     1     -34.800   4.138   5.934  1.00 20.00    -0.031 C 
HETATM   10  C5  UNL     1     -35.326   4.164   4.531  1.00 20.00     0.027 C 
HETATM   11  C7  UNL     1     -35.449   5.580   3.958  1.00 20.00     0.011 C 
ENDBRANCH   5   6
BRANCH   5  12
HETATM   12  O12 UNL     1     -33.316   5.437   2.370  1.00 20.00    -0.395 OA
HETATM   13  H28 UNL     1     -32.861   4.582   2.324  1.00 20.00     0.210 HD
ENDBRANCH   5  12
ENDBRANCH   4   5
ENDBRANCH   3   4
TORSDOF 4
ENDMDL
MODEL 2
REMARK VINA RESULT:      -5.3     10.904     12.597
REMARK  4 active torsions:
REMARK  status: ('A' for Active; 'I' for Inactive)
REMARK    1  A    between atoms: C8_8  and  C11_11 
REMARK    2  A    between atoms: C9_9  and  C10_10 
REMARK    3  A    between atoms: C10_10  and  C11_11 
REMARK    4  A    between atoms: C11_11  and  O12_12 
ROOT
HETATM    1  C1  UNL     1     -34.867  14.799  -6.896  1.00 20.00     0.012 C 
HETATM    2  C2  UNL     1     -34.821  14.090  -5.928  1.00 20.00    -0.117 C 
HETATM    3  C9  UNL     1     -34.768  13.218  -4.746  1.00 20.00     0.095 C 
ENDROOT
BRANCH   3   4
HETATM    4  C10 UNL     1     -33.813  13.753  -3.673  1.00 20.00     0.044 C 
BRANCH   4   5
HETATM    5  C11 UNL     1     -33.244  15.141  -3.991  1.00 20.00     0.123 C 
BRANCH   5   6
HETATM    6  C8  UNL     1     -33.652  16.158  -2.918  1.00 20.00     0.018 C 
HETATM    7  C6  UNL     1     -35.007  15.793  -2.283  1.00 20.00     0.034 C 
HETATM    8  C4  UNL     1     -36.195  16.242  -3.084  1.00 20.00    -0.030 C 
HETATM    9  C3  UNL     1     -36.112  17.131  -4.084  1.00 20.00    -0.031 C 
HETATM   10  C5  UNL     1     -34.829  17.791  -4.492  1.00 20.00     0.027 C 
HETATM   11  C7  UNL     1     -33.696  17.586  -3.482  1.00 20.00     0.011 C 
ENDBRANCH   5   6
BRANCH   5  12
HETATM   12  O12 UNL     1     -31.823  15.069  -4.033  1.00 20.00    -0.395 OA
HETATM   13  H28 UNL     1     -31.501  15.467  -3.209  1.00 20.00     0.210 HD
ENDBRANCH   5  12
ENDBRANCH   4   5
ENDBRANCH   3   4
TORSDOF 4
ENDMDL
MODEL 3
REMARK VINA RESULT:      -5.1     10.895     13.165
REMARK  4 active torsions:
REMARK  status: ('A' for Active; 'I' for Inactive)
REMARK    1  A    between atoms: C8_8  and  C11_11 
REMARK    2  A    between atoms: C9_9  and  C10_10 
REMARK    3  A    between atoms: C10_10  and  C11_11 
REMARK    4  A    between atoms: C11_11  and  O12_12 
ROOT
HETATM    1  C1  UNL     1     -33.689  16.103  -2.749  1.00 20.00     0.012 C 
HETATM    2  C2  UNL     1     -33.702  15.000  -3.223  1.00 20.00    -0.117 C 
HETATM    3  C9  UNL     1     -33.712  13.650  -3.801  1.00 20.00     0.095 C 
ENDROOT
BRANCH   3   4
HETATM    4  C10 UNL     1     -35.062  13.302  -4.439  1.00 20.00     0.044 C 
BRANCH   4   5
HETATM    5  C11 UNL     1     -36.047  14.477  -4.476  1.00 20.00     0.123 C 
BRANCH   5   6
HETATM    6  C8  UNL     1     -36.406  14.845  -5.920  1.00 20.00     0.018 C 
HETATM    7  C6  UNL     1     -35.251  14.523  -6.887  1.00 20.00     0.034 C 
HETATM    8  C4  UNL     1     -34.189  15.582  -6.938  1.00 20.00    -0.030 C 
HETATM    9  C3  UNL     1     -34.357  16.816  -6.442  1.00 20.00    -0.031 C 
HETATM   10  C5  UNL     1     -35.634  17.278  -5.807  1.00 20.00     0.027 C 
HETATM   11  C7  UNL     1     -36.807  16.322  -6.044  1.00 20.00     0.011 C 
ENDBRANCH   5   6
BRANCH   5  12
HETATM   12  O12 UNL     1     -37.239  14.113  -3.789  1.00 20.00    -0.395 OA
HETATM   13  H28 UNL     1     -37.431  14.831  -3.166  1.00 20.00     0.210 HD
ENDBRANCH   5  12
ENDBRANCH   4   5
ENDBRANCH   3   4
TORSDOF 4
ENDMDL
MODEL 4
REMARK VINA RESULT:      -5.1     11.107     12.934
REMARK  4 active torsions:
REMARK  status: ('A' for Active; 'I' for Inactive)
REMARK    1  A    between atoms: C8_8  and  C11_11 
REMARK    2  A    between atoms: C9_9  and  C10_10 
REMARK    3  A    between atoms: C10_10  and  C11_11 
REMARK    4  A    between atoms: C11_11  and  O12_12 
ROOT
HETATM    1  C1  UNL     1     -33.663  17.472  -1.014  1.00 20.00     0.012 C 
HETATM    2  C2  UNL     1     -34.336  16.673  -1.607  1.00 20.00    -0.117 C 
HETATM    3  C9  UNL     1     -35.164  15.698  -2.328  1.00 20.00     0.095 C 
ENDROOT
BRANCH   3   4
HETATM    4  C10 UNL     1     -34.323  14.735  -3.175  1.00 20.00     0.044 C 
BRANCH   4   5
HETATM    5  C11 UNL     1     -35.094  14.106  -4.342  1.00 20.00     0.123 C 
BRANCH   5   6
HETATM    6  C8  UNL     1     -34.449  14.470  -5.683  1.00 20.00     0.018 C 
HETATM    7  C6  UNL     1     -33.859  15.893  -5.658  1.00 20.00     0.034 C 
HETATM    8  C4  UNL     1     -34.869  16.974  -5.911  1.00 20.00    -0.030 C 
HETATM    9  C3  UNL     1     -36.090  16.736  -6.412  1.00 20.00    -0.031 C 
HETATM   10  C5  UNL     1     -36.567  15.368  -6.796  1.00 20.00     0.027 C 
HETATM   11  C7  UNL     1     -35.444  14.328  -6.845  1.00 20.00     0.011 C 
ENDBRANCH   5   6
BRANCH   5  12
HETATM   12  O12 UNL     1     -35.086  12.690  -4.201  1.00 20.00    -0.395 OA
HETATM   13  H28 UNL     1     -34.845  12.327  -5.067  1.00 20.00     0.210 HD
ENDBRANCH   5  12
ENDBRANCH   4   5
ENDBRANCH   3   4
TORSDOF 4
ENDMDL
MODEL 5
REMARK VINA RESULT:      -5.1     11.035     12.651
REMARK  4 active torsions:
REMARK  status: ('A' for Active; 'I' for Inactive)
REMARK    1  A    between atoms: C8_8  and  C11_11 
REMARK    2  A    between atoms: C9_9  and  C10_10 
REMARK    3  A    between atoms: C10_10  and  C11_11 
REMARK    4  A    between atoms: C11_11  and  O12_12 
ROOT
HETATM    1  C1  UNL     1     -35.470  15.089  -7.408  1.00 20.00     0.012 C 
HETATM    2  C2  UNL     1     -36.257  15.120  -6.501  1.00 20.00    -0.117 C 
HETATM    3  C9  UNL     1     -37.222  15.162  -5.395  1.00 20.00     0.095 C 
ENDROOT
BRANCH   3   4
HETATM    4  C10 UNL     1     -36.684  14.485  -4.129  1.00 20.00     0.044 C 
BRANCH   4   5
HETATM    5  C11 UNL     1     -35.230  14.014  -4.253  1.00 20.00     0.123 C 
BRANCH   5   6
HETATM    6  C8  UNL     1     -34.355  14.646  -3.165  1.00 20.00     0.018 C 
HETATM    7  C6  UNL     1     -35.040  15.872  -2.532  1.00 20.00     0.034 C 
HETATM    8  C4  UNL     1     -34.876  17.136  -3.324  1.00 20.00    -0.030 C 
HETATM    9  C3  UNL     1     -33.979  17.273  -4.311  1.00 20.00    -0.031 C 
HETATM   10  C5  UNL     1     -33.027  16.187  -4.712  1.00 20.00     0.027 C 
HETATM   11  C7  UNL     1     -32.970  15.032  -3.707  1.00 20.00     0.011 C 
ENDBRANCH   5   6
BRANCH   5  12
HETATM   12  O12 UNL     1     -35.181  12.598  -4.112  1.00 20.00    -0.395 OA
HETATM   13  H28 UNL     1     -36.053  12.263  -4.373  1.00 20.00     0.210 HD
ENDBRANCH   5  12
ENDBRANCH   4   5
ENDBRANCH   3   4
TORSDOF 4
ENDMDL
MODEL 6
REMARK VINA RESULT:      -5.0     11.380     12.785
REMARK  4 active torsions:
REMARK  status: ('A' for Active; 'I' for Inactive)
REMARK    1  A    between atoms: C8_8  and  C11_11 
REMARK    2  A    between atoms: C9_9  and  C10_10 
REMARK    3  A    between atoms: C10_10  and  C11_11 
REMARK    4  A    between atoms: C11_11  and  O12_12 
ROOT
HETATM    1  C1  UNL     1     -34.720  16.372  -1.197  1.00 20.00     0.012 C 
HETATM    2  C2  UNL     1     -34.269  17.173  -1.969  1.00 20.00    -0.117 C 
HETATM    3  C9  UNL     1     -33.716  18.156  -2.911  1.00 20.00     0.095 C 
ENDROOT
BRANCH   3   4
HETATM    4  C10 UNL     1     -33.782  17.670  -4.363  1.00 20.00     0.044 C 
BRANCH   4   5
HETATM    5  C11 UNL     1     -33.624  16.152  -4.512  1.00 20.00     0.123 C 
BRANCH   5   6
HETATM    6  C8  UNL     1     -34.566  15.606  -5.591  1.00 20.00     0.018 C 
HETATM    7  C6  UNL     1     -35.952  16.274  -5.519  1.00 20.00     0.034 C 
HETATM    8  C4  UNL     1     -36.865  15.668  -4.491  1.00 20.00    -0.030 C 
HETATM    9  C3  UNL     1     -36.631  14.484  -3.909  1.00 20.00    -0.031 C 
HETATM   10  C5  UNL     1     -35.448  13.625  -4.240  1.00 20.00     0.027 C 
HETATM   11  C7  UNL     1     -34.705  14.079  -5.500  1.00 20.00     0.011 C 
ENDBRANCH   5   6
BRANCH   5  12
HETATM   12  O12 UNL     1     -32.282  15.854  -4.886  1.00 20.00    -0.395 OA
HETATM   13  H28 UNL     1     -32.193  16.103  -5.819  1.00 20.00     0.210 HD
ENDBRANCH   5  12
ENDBRANCH   4   5
ENDBRANCH   3   4
TORSDOF 4
ENDMDL
MODEL 7
REMARK VINA RESULT:      -5.0     11.568     13.210
REMARK  4 active torsions:
REMARK  status: ('A' for Active; 'I' for Inactive)
REMARK    1  A    between atoms: C8_8  and  C11_11 
REMARK    2  A    between atoms: C9_9  and  C10_10 
REMARK    3  A    between atoms: C10_10  and  C11_11 
REMARK    4  A    between atoms: C11_11  and  O12_12 
ROOT
HETATM    1  C1  UNL     1     -34.770  17.347   0.231  1.00 20.00     0.012 C 
HETATM    2  C2  UNL     1     -34.737  16.725  -0.795  1.00 20.00    -0.117 C 
HETATM    3  C9  UNL     1     -34.699  15.960  -2.049  1.00 20.00     0.095 C 
ENDROOT
BRANCH   3   4
HETATM    4  C10 UNL     1     -33.809  16.622  -3.107  1.00 20.00     0.044 C 
BRANCH   4   5
HETATM    5  C11 UNL     1     -33.555  15.742  -4.336  1.00 20.00     0.123 C 
BRANCH   5   6
HETATM    6  C8  UNL     1     -34.001  16.452  -5.619  1.00 20.00     0.018 C 
HETATM    7  C6  UNL     1     -35.338  17.191  -5.419  1.00 20.00     0.034 C 
HETATM    8  C4  UNL     1     -36.546  16.309  -5.551  1.00 20.00    -0.030 C 
HETATM    9  C3  UNL     1     -36.503  15.081  -6.087  1.00 20.00    -0.031 C 
HETATM   10  C5  UNL     1     -35.250  14.468  -6.636  1.00 20.00     0.027 C 
HETATM   11  C7  UNL     1     -34.106  15.474  -6.799  1.00 20.00     0.011 C 
ENDBRANCH   5   6
BRANCH   5  12
HETATM   12  O12 UNL     1     -32.163  15.459  -4.433  1.00 20.00    -0.395 OA
HETATM   13  H28 UNL     1     -32.032  14.997  -5.275  1.00 20.00     0.210 HD
ENDBRANCH   5  12
ENDBRANCH   4   5
ENDBRANCH   3   4
TORSDOF 4
ENDMDL
MODEL 8
REMARK VINA RESULT:      -5.0     11.140     12.428
REMARK  4 active torsions:
REMARK  status: ('A' for Active; 'I' for Inactive)
REMARK    1  A    between atoms: C8_8  and  C11_11 
REMARK    2  A    between atoms: C9_9  and  C10_10 
REMARK    3  A    between atoms: C10_10  and  C11_11 
REMARK    4  A    between atoms: C11_11  and  O12_12 
ROOT
HETATM    1  C1  UNL     1     -32.912  18.568  -0.116  1.00 20.00     0.012 C 
HETATM    2  C2  UNL     1     -33.700  17.715  -0.424  1.00 20.00    -0.117 C 
HETATM    3  C9  UNL     1     -34.662  16.669  -0.797  1.00 20.00     0.095 C 
ENDROOT
BRANCH   3   4
HETATM    4  C10 UNL     1     -35.574  17.104  -1.950  1.00 20.00     0.044 C 
BRANCH   4   5
HETATM    5  C11 UNL     1     -35.702  16.057  -3.063  1.00 20.00     0.123 C 
BRANCH   5   6
HETATM    6  C8  UNL     1     -34.398  15.268  -3.225  1.00 20.00     0.018 C 
HETATM    7  C6  UNL     1     -33.356  16.062  -4.035  1.00 20.00     0.034 C 
HETATM    8  C4  UNL     1     -33.539  15.963  -5.522  1.00 20.00    -0.030 C 
HETATM    9  C3  UNL     1     -34.322  15.046  -6.106  1.00 20.00    -0.031 C 
HETATM   10  C5  UNL     1     -35.079  14.004  -5.339  1.00 20.00     0.027 C 
HETATM   11  C7  UNL     1     -34.644  13.898  -3.874  1.00 20.00     0.011 C 
ENDBRANCH   5   6
BRANCH   5  12
HETATM   12  O12 UNL     1     -36.747  15.148  -2.734  1.00 20.00    -0.395 OA
HETATM   13  H28 UNL     1     -36.335  14.414  -2.253  1.00 20.00     0.210 HD
ENDBRANCH   5  12
ENDBRANCH   4   5
ENDBRANCH   3   4
TORSDOF 4
ENDMDL
MODEL 9
REMARK VINA RESULT:      -4.8     11.351     12.508
REMARK  4 active torsions:
REMARK  status: ('A' for Active; 'I' for Inactive)
REMARK    1  A    between atoms: C8_8  and  C11_11 
REMARK    2  A    between atoms: C9_9  and  C10_10 
REMARK    3  A    between atoms: C10_10  and  C11_11 
REMARK    4  A    between atoms: C11_11  and  O12_12 
ROOT
HETATM    1  C1  UNL     1     -34.474  16.412  -1.671  1.00 20.00     0.012 C 
HETATM    2  C2  UNL     1     -33.873  15.852  -2.548  1.00 20.00    -0.117 C 
HETATM    3  C9  UNL     1     -33.134  15.169  -3.618  1.00 20.00     0.095 C 
ENDROOT
BRANCH   3   4
HETATM    4  C10 UNL     1     -34.065  14.606  -4.698  1.00 20.00     0.044 C 
BRANCH   4   5
HETATM    5  C11 UNL     1     -35.414  14.120  -4.156  1.00 20.00     0.123 C 
BRANCH   5   6
HETATM    6  C8  UNL     1     -36.561  14.545  -5.080  1.00 20.00     0.018 C 
HETATM    7  C6  UNL     1     -36.190  15.798  -5.897  1.00 20.00     0.034 C 
HETATM    8  C4  UNL     1     -36.383  17.087  -5.153  1.00 20.00    -0.030 C 
HETATM    9  C3  UNL     1     -37.087  17.181  -4.017  1.00 20.00    -0.031 C 
HETATM   10  C5  UNL     1     -37.780  16.014  -3.382  1.00 20.00     0.027 C 
HETATM   11  C7  UNL     1     -37.859  14.787  -4.296  1.00 20.00     0.011 C 
ENDBRANCH   5   6
BRANCH   5  12
HETATM   12  O12 UNL     1     -35.402  12.699  -4.071  1.00 20.00    -0.395 OA
HETATM   13  H28 UNL     1     -36.185  12.445  -3.558  1.00 20.00     0.210 HD
ENDBRANCH   5  12
ENDBRANCH   4   5
ENDBRANCH   3   4
TORSDOF 4
ENDMDL
