MODEL 1
REMARK VINA RESULT:      -5.1      0.000      0.000
REMARK  2 active torsions:
REMARK  status: ('A' for Active; 'I' for Inactive)
REMARK    1  A    between atoms: C6_6  and  C8_8 
REMARK    2  A    between atoms: C8_8  and  N9_9 
ROOT
HETATM    1  C1  UNL     1     -32.242   7.603   2.552  1.00 20.00     0.157 C 
HETATM    2  N9  UNL     1     -32.434   6.791   3.385  1.00 20.00    -0.275 NA
HETATM    3  S10 UNL     1     -31.973   8.708   1.438  1.00 20.00    -0.055 SA
ENDROOT
BRANCH   2   4
HETATM    4  C8  UNL     1     -33.319   5.703   2.999  1.00 20.00     0.159 C 
BRANCH   4   5
HETATM    5  C6  UNL     1     -34.358   5.516   4.105  1.00 20.00    -0.026 C 
HETATM    6  C4  UNL     1     -33.977   6.288   5.376  1.00 20.00     0.011 C 
HETATM    7  C2  UNL     1     -34.719   5.581   6.507  1.00 20.00     0.001 C 
HETATM    8  C3  UNL     1     -34.981   4.155   6.021  1.00 20.00     0.001 C 
HETATM    9  C5  UNL     1     -34.385   4.069   4.618  1.00 20.00     0.011 C 
HETATM   10  C7  UNL     1     -35.738   5.948   3.582  1.00 20.00     0.017 C 
ENDBRANCH   4   5
ENDBRANCH   2   4
TORSDOF 2
ENDMDL
MODEL 2
REMARK VINA RESULT:      -4.2     11.640     12.332
REMARK  2 active torsions:
REMARK  status: ('A' for Active; 'I' for Inactive)
REMARK    1  A    between atoms: C6_6  and  C8_8 
REMARK    2  A    between atoms: C8_8  and  N9_9 
ROOT
HETATM    1  C1  UNL     1     -34.690  16.985  -0.377  1.00 20.00     0.157 C 
HETATM    2  N9  UNL     1     -34.699  16.229  -1.283  1.00 20.00    -0.275 NA
HETATM    3  S10 UNL     1     -34.687  17.996   0.852  1.00 20.00    -0.055 SA
ENDROOT
BRANCH   2   4
HETATM    4  C8  UNL     1     -33.826  16.578  -2.393  1.00 20.00     0.159 C 
BRANCH   4   5
HETATM    5  C6  UNL     1     -34.174  15.674  -3.577  1.00 20.00    -0.026 C 
HETATM    6  C4  UNL     1     -35.569  15.052  -3.423  1.00 20.00     0.011 C 
HETATM    7  C2  UNL     1     -35.543  13.799  -4.295  1.00 20.00     0.001 C 
HETATM    8  C3  UNL     1     -34.073  13.395  -4.417  1.00 20.00     0.001 C 
HETATM    9  C5  UNL     1     -33.281  14.426  -3.616  1.00 20.00     0.011 C 
HETATM   10  C7  UNL     1     -34.063  16.481  -4.880  1.00 20.00     0.017 C 
ENDBRANCH   4   5
ENDBRANCH   2   4
TORSDOF 2
ENDMDL
MODEL 3
REMARK VINA RESULT:      -4.2     11.379     12.425
REMARK  2 active torsions:
REMARK  status: ('A' for Active; 'I' for Inactive)
REMARK    1  A    between atoms: C6_6  and  C8_8 
REMARK    2  A    between atoms: C8_8  and  N9_9 
ROOT
HETATM    1  C1  UNL     1     -34.464  17.041  -0.574  1.00 20.00     0.157 C 
HETATM    2  N9  UNL     1     -34.736  16.184  -1.336  1.00 20.00    -0.275 NA
HETATM    3  S10 UNL     1     -34.108  18.193   0.467  1.00 20.00    -0.055 SA
ENDROOT
BRANCH   2   4
HETATM    4  C8  UNL     1     -33.978  16.193  -2.578  1.00 20.00     0.159 C 
BRANCH   4   5
HETATM    5  C6  UNL     1     -34.685  15.275  -3.577  1.00 20.00    -0.026 C 
HETATM    6  C4  UNL     1     -34.139  13.843  -3.512  1.00 20.00     0.011 C 
HETATM    7  C2  UNL     1     -34.474  13.229  -4.870  1.00 20.00     0.001 C 
HETATM    8  C3  UNL     1     -34.618  14.399  -5.843  1.00 20.00     0.001 C 
HETATM    9  C5  UNL     1     -34.365  15.664  -5.027  1.00 20.00     0.011 C 
HETATM   10  C7  UNL     1     -36.199  15.309  -3.311  1.00 20.00     0.017 C 
ENDBRANCH   4   5
ENDBRANCH   2   4
TORSDOF 2
ENDMDL
MODEL 4
REMARK VINA RESULT:      -4.1     11.436     12.552
REMARK  2 active torsions:
REMARK  status: ('A' for Active; 'I' for Inactive)
REMARK    1  A    between atoms: C6_6  and  C8_8 
REMARK    2  A    between atoms: C8_8  and  N9_9 
ROOT
HETATM    1  C1  UNL     1     -34.667  16.793  -0.672  1.00 20.00     0.157 C 
HETATM    2  N9  UNL     1     -34.375  16.110  -1.587  1.00 20.00    -0.275 NA
HETATM    3  S10 UNL     1     -35.049  17.709   0.573  1.00 20.00    -0.055 SA
ENDROOT
BRANCH   2   4
HETATM    4  C8  UNL     1     -35.154  16.326  -2.797  1.00 20.00     0.159 C 
BRANCH   4   5
HETATM    5  C6  UNL     1     -34.558  15.463  -3.911  1.00 20.00    -0.026 C 
HETATM    6  C4  UNL     1     -35.488  15.391  -5.129  1.00 20.00     0.011 C 
HETATM    7  C2  UNL     1     -35.087  14.111  -5.859  1.00 20.00     0.001 C 
HETATM    8  C3  UNL     1     -34.436  13.208  -4.810  1.00 20.00     0.001 C 
HETATM    9  C5  UNL     1     -34.472  13.987  -3.498  1.00 20.00     0.011 C 
HETATM   10  C7  UNL     1     -33.175  16.016  -4.295  1.00 20.00     0.017 C 
ENDBRANCH   4   5
ENDBRANCH   2   4
TORSDOF 2
ENDMDL
MODEL 5
REMARK VINA RESULT:      -4.1      1.011      1.852
REMARK  2 active torsions:
REMARK  status: ('A' for Active; 'I' for Inactive)
REMARK    1  A    between atoms: C6_6  and  C8_8 
REMARK    2  A    between atoms: C8_8  and  N9_9 
ROOT
HETATM    1  C1  UNL     1     -32.251   8.392   1.888  1.00 20.00     0.157 C 
HETATM    2  N9  UNL     1     -32.338   7.587   2.745  1.00 20.00    -0.275 NA
HETATM    3  S10 UNL     1     -32.117   9.476   0.730  1.00 20.00    -0.055 SA
ENDROOT
BRANCH   2   4
HETATM    4  C8  UNL     1     -33.645   7.492   3.378  1.00 20.00     0.159 C 
BRANCH   4   5
HETATM    5  C6  UNL     1     -33.742   6.134   4.075  1.00 20.00    -0.026 C 
HETATM    6  C4  UNL     1     -35.049   5.410   3.725  1.00 20.00     0.011 C 
HETATM    7  C2  UNL     1     -35.278   4.427   4.871  1.00 20.00     0.001 C 
HETATM    8  C3  UNL     1     -34.522   4.991   6.074  1.00 20.00     0.001 C 
HETATM    9  C5  UNL     1     -33.870   6.287   5.597  1.00 20.00     0.011 C 
HETATM   10  C7  UNL     1     -32.516   5.284   3.701  1.00 20.00     0.017 C 
ENDBRANCH   4   5
ENDBRANCH   2   4
TORSDOF 2
ENDMDL
MODEL 6
REMARK VINA RESULT:      -4.0     11.896     12.741
REMARK  2 active torsions:
REMARK  status: ('A' for Active; 'I' for Inactive)
REMARK    1  A    between atoms: C6_6  and  C8_8 
REMARK    2  A    between atoms: C8_8  and  N9_9 
ROOT
HETATM    1  C1  UNL     1     -38.915  14.666  -4.118  1.00 20.00     0.157 C 
HETATM    2  N9  UNL     1     -37.854  14.296  -3.762  1.00 20.00    -0.275 NA
HETATM    3  S10 UNL     1     -40.352  15.151  -4.603  1.00 20.00    -0.055 SA
ENDROOT
BRANCH   2   4
HETATM    4  C8  UNL     1     -36.926  15.347  -3.376  1.00 20.00     0.159 C 
BRANCH   4   5
HETATM    5  C6  UNL     1     -35.572  15.053  -4.025  1.00 20.00    -0.026 C 
HETATM    6  C4  UNL     1     -35.364  13.548  -4.240  1.00 20.00     0.011 C 
HETATM    7  C2  UNL     1     -33.850  13.366  -4.323  1.00 20.00     0.001 C 
HETATM    8  C3  UNL     1     -33.236  14.552  -3.580  1.00 20.00     0.001 C 
HETATM    9  C5  UNL     1     -34.408  15.397  -3.086  1.00 20.00     0.011 C 
HETATM   10  C7  UNL     1     -35.468  15.827  -5.350  1.00 20.00     0.017 C 
ENDBRANCH   4   5
ENDBRANCH   2   4
TORSDOF 2
ENDMDL
MODEL 7
REMARK VINA RESULT:      -4.0     12.105     13.315
REMARK  2 active torsions:
REMARK  status: ('A' for Active; 'I' for Inactive)
REMARK    1  A    between atoms: C6_6  and  C8_8 
REMARK    2  A    between atoms: C8_8  and  N9_9 
ROOT
HETATM    1  C1  UNL     1     -33.626  18.162  -5.968  1.00 20.00     0.157 C 
HETATM    2  N9  UNL     1     -33.269  17.397  -5.146  1.00 20.00    -0.275 NA
HETATM    3  S10 UNL     1     -34.097  19.190  -7.089  1.00 20.00    -0.055 SA
ENDROOT
BRANCH   2   4
HETATM    4  C8  UNL     1     -34.004  17.444  -3.891  1.00 20.00     0.159 C 
BRANCH   4   5
HETATM    5  C6  UNL     1     -34.169  16.012  -3.379  1.00 20.00    -0.026 C 
HETATM    6  C4  UNL     1     -32.936  15.154  -3.694  1.00 20.00     0.011 C 
HETATM    7  C2  UNL     1     -33.441  13.713  -3.675  1.00 20.00     0.001 C 
HETATM    8  C3  UNL     1     -34.941  13.782  -3.963  1.00 20.00     0.001 C 
HETATM    9  C5  UNL     1     -35.271  15.262  -4.140  1.00 20.00     0.011 C 
HETATM   10  C7  UNL     1     -34.455  16.044  -1.869  1.00 20.00     0.017 C 
ENDBRANCH   4   5
ENDBRANCH   2   4
TORSDOF 2
ENDMDL
MODEL 8
REMARK VINA RESULT:      -4.0      9.362     10.708
REMARK  2 active torsions:
REMARK  status: ('A' for Active; 'I' for Inactive)
REMARK    1  A    between atoms: C6_6  and  C8_8 
REMARK    2  A    between atoms: C8_8  and  N9_9 
ROOT
HETATM    1  C1  UNL     1     -41.839   2.229  -3.409  1.00 20.00     0.157 C 
HETATM    2  N9  UNL     1     -41.586   3.131  -2.693  1.00 20.00    -0.275 NA
HETATM    3  S10 UNL     1     -42.170   1.002  -4.368  1.00 20.00    -0.055 SA
ENDROOT
BRANCH   2   4
HETATM    4  C8  UNL     1     -42.417   4.313  -2.864  1.00 20.00     0.159 C 
BRANCH   4   5
HETATM    5  C6  UNL     1     -42.205   5.226  -1.655  1.00 20.00    -0.026 C 
HETATM    6  C4  UNL     1     -41.963   6.680  -2.081  1.00 20.00     0.011 C 
HETATM    7  C2  UNL     1     -41.220   7.318  -0.909  1.00 20.00     0.001 C 
HETATM    8  C3  UNL     1     -40.534   6.172  -0.164  1.00 20.00     0.001 C 
HETATM    9  C5  UNL     1     -40.898   4.897  -0.920  1.00 20.00     0.011 C 
HETATM   10  C7  UNL     1     -43.417   5.113  -0.716  1.00 20.00     0.017 C 
ENDBRANCH   4   5
ENDBRANCH   2   4
TORSDOF 2
ENDMDL
MODEL 9
REMARK VINA RESULT:      -4.0     11.753     12.803
REMARK  2 active torsions:
REMARK  status: ('A' for Active; 'I' for Inactive)
REMARK    1  A    between atoms: C6_6  and  C8_8 
REMARK    2  A    between atoms: C8_8  and  N9_9 
ROOT
HETATM    1  C1  UNL     1     -38.198  14.749  -3.958  1.00 20.00     0.157 C 
HETATM    2  N9  UNL     1     -37.142  14.766  -3.435  1.00 20.00    -0.275 NA
HETATM    3  S10 UNL     1     -39.631  14.733  -4.653  1.00 20.00    -0.055 SA
ENDROOT
BRANCH   2   4
HETATM    4  C8  UNL     1     -36.072  14.114  -4.173  1.00 20.00     0.159 C 
BRANCH   4   5
HETATM    5  C6  UNL     1     -34.755  14.807  -3.819  1.00 20.00    -0.026 C 
HETATM    6  C4  UNL     1     -34.843  15.534  -2.471  1.00 20.00     0.011 C 
HETATM    7  C2  UNL     1     -33.754  16.603  -2.524  1.00 20.00     0.001 C 
HETATM    8  C3  UNL     1     -33.504  16.883  -4.006  1.00 20.00     0.001 C 
HETATM    9  C5  UNL     1     -34.452  15.967  -4.777  1.00 20.00     0.011 C 
HETATM   10  C7  UNL     1     -33.620  13.770  -3.822  1.00 20.00     0.017 C 
ENDBRANCH   4   5
ENDBRANCH   2   4
TORSDOF 2
ENDMDL
