MODEL 1
REMARK VINA RESULT:      -5.5      0.000      0.000
REMARK  4 active torsions:
REMARK  status: ('A' for Active; 'I' for Inactive)
REMARK    1  A    between atoms: C2_2  and  C10_10 
REMARK    2  A    between atoms: C7_7  and  C11_11 
REMARK    3  A    between atoms: C10_10  and  N12_12 
REMARK    4  A    between atoms: C11_11  and  N12_12 
ROOT
HETATM    1  C1  UNL     1     -32.156   8.694   1.444  1.00 20.00    -0.109 C 
HETATM    2  C2  UNL     1     -31.967   7.996   2.403  1.00 20.00    -0.077 C 
HETATM    3  C8  UNL     1     -32.386   9.543   0.277  1.00 20.00     0.112 C 
ENDROOT
BRANCH   2   4
HETATM    4  C10 UNL     1     -31.735   7.151   3.578  1.00 20.00     0.362 C 
BRANCH   4   5
HETATM    5  N12 UNL     1     -32.259   5.795   3.360  1.00 20.00     0.095 N 
HETATM    6  H31 UNL     1     -31.634   5.324   2.688  1.00 20.00     0.317 HD
BRANCH   5   7
HETATM    7  C11 UNL     1     -33.600   5.804   2.892  1.00 20.00     0.279 C 
BRANCH   7   8
HETATM    8  C7  UNL     1     -34.549   5.535   4.060  1.00 20.00    -0.018 C 
HETATM    9  C5  UNL     1     -34.100   6.267   5.333  1.00 20.00     0.011 C 
HETATM   10  C3  UNL     1     -34.733   5.488   6.484  1.00 20.00     0.001 C 
HETATM   11  C4  UNL     1     -34.982   4.075   5.956  1.00 20.00     0.001 C 
HETATM   12  C6  UNL     1     -34.489   4.068   4.510  1.00 20.00     0.011 C 
HETATM   13  C9  UNL     1     -35.976   5.937   3.658  1.00 20.00     0.017 C 
ENDBRANCH   7   8
ENDBRANCH   5   7
ENDBRANCH   4   5
ENDBRANCH   2   4
TORSDOF 4
ENDMDL
MODEL 2
REMARK VINA RESULT:      -4.9     11.131     12.158
REMARK  4 active torsions:
REMARK  status: ('A' for Active; 'I' for Inactive)
REMARK    1  A    between atoms: C2_2  and  C10_10 
REMARK    2  A    between atoms: C7_7  and  C11_11 
REMARK    3  A    between atoms: C10_10  and  N12_12 
REMARK    4  A    between atoms: C11_11  and  N12_12 
ROOT
HETATM    1  C1  UNL     1     -32.901  18.621   0.320  1.00 20.00    -0.109 C 
HETATM    2  C2  UNL     1     -33.901  18.093  -0.084  1.00 20.00    -0.077 C 
HETATM    3  C8  UNL     1     -31.683  19.263   0.812  1.00 20.00     0.112 C 
ENDROOT
BRANCH   2   4
HETATM    4  C10 UNL     1     -35.125  17.448  -0.569  1.00 20.00     0.362 C 
BRANCH   4   5
HETATM    5  N12 UNL     1     -34.814  16.196  -1.273  1.00 20.00     0.095 N 
HETATM    6  H31 UNL     1     -34.464  15.524  -0.573  1.00 20.00     0.317 HD
BRANCH   5   7
HETATM    7  C11 UNL     1     -33.869  16.385  -2.317  1.00 20.00     0.279 C 
BRANCH   7   8
HETATM    8  C7  UNL     1     -34.298  15.579  -3.544  1.00 20.00    -0.018 C 
HETATM    9  C5  UNL     1     -35.719  15.020  -3.383  1.00 20.00     0.011 C 
HETATM   10  C3  UNL     1     -35.786  13.825  -4.333  1.00 20.00     0.001 C 
HETATM   11  C4  UNL     1     -34.343  13.357  -4.529  1.00 20.00     0.001 C 
HETATM   12  C6  UNL     1     -33.474  14.292  -3.692  1.00 20.00     0.011 C 
HETATM   13  C9  UNL     1     -34.184  16.462  -4.797  1.00 20.00     0.017 C 
ENDBRANCH   7   8
ENDBRANCH   5   7
ENDBRANCH   4   5
ENDBRANCH   2   4
TORSDOF 4
ENDMDL
MODEL 3
REMARK VINA RESULT:      -4.9     11.073     13.016
REMARK  4 active torsions:
REMARK  status: ('A' for Active; 'I' for Inactive)
REMARK    1  A    between atoms: C2_2  and  C10_10 
REMARK    2  A    between atoms: C7_7  and  C11_11 
REMARK    3  A    between atoms: C10_10  and  N12_12 
REMARK    4  A    between atoms: C11_11  and  N12_12 
ROOT
HETATM    1  C1  UNL     1     -34.861  15.810  -7.289  1.00 20.00    -0.109 C 
HETATM    2  C2  UNL     1     -34.437  16.807  -6.771  1.00 20.00    -0.077 C 
HETATM    3  C8  UNL     1     -35.378  14.595  -7.918  1.00 20.00     0.112 C 
ENDROOT
BRANCH   2   4
HETATM    4  C10 UNL     1     -33.922  18.022  -6.133  1.00 20.00     0.362 C 
BRANCH   4   5
HETATM    5  N12 UNL     1     -33.479  17.745  -4.759  1.00 20.00     0.095 N 
HETATM    6  H31 UNL     1     -32.803  16.967  -4.801  1.00 20.00     0.317 HD
BRANCH   5   7
HETATM    7  C11 UNL     1     -34.565  17.433  -3.897  1.00 20.00     0.279 C 
BRANCH   7   8
HETATM    8  C7  UNL     1     -34.365  16.033  -3.314  1.00 20.00    -0.018 C 
HETATM    9  C5  UNL     1     -33.047  15.405  -3.791  1.00 20.00     0.011 C 
HETATM   10  C3  UNL     1     -33.248  13.899  -3.641  1.00 20.00     0.001 C 
HETATM   11  C4  UNL     1     -34.757  13.663  -3.690  1.00 20.00     0.001 C 
HETATM   12  C6  UNL     1     -35.398  15.039  -3.864  1.00 20.00     0.011 C 
HETATM   13  C9  UNL     1     -34.424  16.109  -1.780  1.00 20.00     0.017 C 
ENDBRANCH   7   8
ENDBRANCH   5   7
ENDBRANCH   4   5
ENDBRANCH   2   4
TORSDOF 4
ENDMDL
MODEL 4
REMARK VINA RESULT:      -4.9     11.288     12.907
REMARK  4 active torsions:
REMARK  status: ('A' for Active; 'I' for Inactive)
REMARK    1  A    between atoms: C2_2  and  C10_10 
REMARK    2  A    between atoms: C7_7  and  C11_11 
REMARK    3  A    between atoms: C10_10  and  N12_12 
REMARK    4  A    between atoms: C11_11  and  N12_12 
ROOT
HETATM    1  C1  UNL     1     -34.187  17.135  -2.038  1.00 20.00    -0.109 C 
HETATM    2  C2  UNL     1     -33.864  17.471  -3.145  1.00 20.00    -0.077 C 
HETATM    3  C8  UNL     1     -34.580  16.726  -0.691  1.00 20.00     0.112 C 
ENDROOT
BRANCH   2   4
HETATM    4  C10 UNL     1     -33.474  17.874  -4.500  1.00 20.00     0.362 C 
BRANCH   4   5
HETATM    5  N12 UNL     1     -33.213  16.698  -5.342  1.00 20.00     0.095 N 
HETATM    6  H31 UNL     1     -32.320  16.858  -5.832  1.00 20.00     0.317 HD
BRANCH   5   7
HETATM    7  C11 UNL     1     -34.265  16.453  -6.265  1.00 20.00     0.279 C 
BRANCH   7   8
HETATM    8  C7  UNL     1     -35.006  15.177  -5.863  1.00 20.00    -0.018 C 
HETATM    9  C5  UNL     1     -36.231  15.486  -4.990  1.00 20.00     0.011 C 
HETATM   10  C3  UNL     1     -36.502  14.197  -4.216  1.00 20.00     0.001 C 
HETATM   11  C4  UNL     1     -35.174  13.441  -4.169  1.00 20.00     0.001 C 
HETATM   12  C6  UNL     1     -34.164  14.307  -4.919  1.00 20.00     0.011 C 
HETATM   13  C9  UNL     1     -35.405  14.402  -7.129  1.00 20.00     0.017 C 
ENDBRANCH   7   8
ENDBRANCH   5   7
ENDBRANCH   4   5
ENDBRANCH   2   4
TORSDOF 4
ENDMDL
MODEL 5
REMARK VINA RESULT:      -4.9     11.196     12.740
REMARK  4 active torsions:
REMARK  status: ('A' for Active; 'I' for Inactive)
REMARK    1  A    between atoms: C2_2  and  C10_10 
REMARK    2  A    between atoms: C7_7  and  C11_11 
REMARK    3  A    between atoms: C10_10  and  N12_12 
REMARK    4  A    between atoms: C11_11  and  N12_12 
ROOT
HETATM    1  C1  UNL     1     -34.833  17.196   0.182  1.00 20.00    -0.109 C 
HETATM    2  C2  UNL     1     -34.391  16.902  -0.895  1.00 20.00    -0.077 C 
HETATM    3  C8  UNL     1     -35.370  17.553   1.494  1.00 20.00     0.112 C 
ENDROOT
BRANCH   2   4
HETATM    4  C10 UNL     1     -33.848  16.551  -2.211  1.00 20.00     0.362 C 
BRANCH   4   5
HETATM    5  N12 UNL     1     -34.459  15.314  -2.717  1.00 20.00     0.095 N 
HETATM    6  H31 UNL     1     -33.715  14.762  -3.169  1.00 20.00     0.317 HD
BRANCH   5   7
HETATM    7  C11 UNL     1     -35.526  15.570  -3.619  1.00 20.00     0.279 C 
BRANCH   7   8
HETATM    8  C7  UNL     1     -35.278  14.817  -4.927  1.00 20.00    -0.018 C 
HETATM    9  C5  UNL     1     -34.146  15.460  -5.742  1.00 20.00     0.011 C 
HETATM   10  C3  UNL     1     -34.393  15.017  -7.183  1.00 20.00     0.001 C 
HETATM   11  C4  UNL     1     -35.884  14.691  -7.278  1.00 20.00     0.001 C 
HETATM   12  C6  UNL     1     -36.466  14.950  -5.890  1.00 20.00     0.011 C 
HETATM   13  C9  UNL     1     -34.973  13.344  -4.615  1.00 20.00     0.017 C 
ENDBRANCH   7   8
ENDBRANCH   5   7
ENDBRANCH   4   5
ENDBRANCH   2   4
TORSDOF 4
ENDMDL
MODEL 6
REMARK VINA RESULT:      -4.8     10.790     12.146
REMARK  4 active torsions:
REMARK  status: ('A' for Active; 'I' for Inactive)
REMARK    1  A    between atoms: C2_2  and  C10_10 
REMARK    2  A    between atoms: C7_7  and  C11_11 
REMARK    3  A    between atoms: C10_10  and  N12_12 
REMARK    4  A    between atoms: C11_11  and  N12_12 
ROOT
HETATM    1  C1  UNL     1     -35.196  17.695   1.587  1.00 20.00    -0.109 C 
HETATM    2  C2  UNL     1     -34.686  17.610   0.503  1.00 20.00    -0.077 C 
HETATM    3  C8  UNL     1     -35.817  17.798   2.907  1.00 20.00     0.112 C 
ENDROOT
BRANCH   2   4
HETATM    4  C10 UNL     1     -34.065  17.499  -0.820  1.00 20.00     0.362 C 
BRANCH   4   5
HETATM    5  N12 UNL     1     -34.489  16.264  -1.496  1.00 20.00     0.095 N 
HETATM    6  H31 UNL     1     -34.370  15.487  -0.828  1.00 20.00     0.317 HD
BRANCH   5   7
HETATM    7  C11 UNL     1     -33.759  16.027  -2.692  1.00 20.00     0.279 C 
BRANCH   7   8
HETATM    8  C7  UNL     1     -34.604  15.178  -3.643  1.00 20.00    -0.018 C 
HETATM    9  C5  UNL     1     -34.165  13.707  -3.628  1.00 20.00     0.011 C 
HETATM   10  C3  UNL     1     -34.642  13.136  -4.961  1.00 20.00     0.001 C 
HETATM   11  C4  UNL     1     -34.765  14.326  -5.914  1.00 20.00     0.001 C 
HETATM   12  C6  UNL     1     -34.359  15.559  -5.110  1.00 20.00     0.011 C 
HETATM   13  C9  UNL     1     -36.088  15.322  -3.270  1.00 20.00     0.017 C 
ENDBRANCH   7   8
ENDBRANCH   5   7
ENDBRANCH   4   5
ENDBRANCH   2   4
TORSDOF 4
ENDMDL
MODEL 7
REMARK VINA RESULT:      -4.7     11.652     12.629
REMARK  4 active torsions:
REMARK  status: ('A' for Active; 'I' for Inactive)
REMARK    1  A    between atoms: C2_2  and  C10_10 
REMARK    2  A    between atoms: C7_7  and  C11_11 
REMARK    3  A    between atoms: C10_10  and  N12_12 
REMARK    4  A    between atoms: C11_11  and  N12_12 
ROOT
HETATM    1  C1  UNL     1     -34.154  16.459  -1.728  1.00 20.00    -0.109 C 
HETATM    2  C2  UNL     1     -33.590  16.068  -2.713  1.00 20.00    -0.077 C 
HETATM    3  C8  UNL     1     -34.840  16.935  -0.528  1.00 20.00     0.112 C 
ENDROOT
BRANCH   2   4
HETATM    4  C10 UNL     1     -32.897  15.586  -3.912  1.00 20.00     0.362 C 
BRANCH   4   5
HETATM    5  N12 UNL     1     -33.747  14.656  -4.670  1.00 20.00     0.095 N 
HETATM    6  H31 UNL     1     -33.146  13.886  -5.001  1.00 20.00     0.317 HD
BRANCH   5   7
HETATM    7  C11 UNL     1     -34.408  15.293  -5.754  1.00 20.00     0.279 C 
BRANCH   7   8
HETATM    8  C7  UNL     1     -35.914  15.320  -5.486  1.00 20.00    -0.018 C 
HETATM    9  C5  UNL     1     -36.355  16.660  -4.881  1.00 20.00     0.011 C 
HETATM   10  C3  UNL     1     -37.664  16.355  -4.154  1.00 20.00     0.001 C 
HETATM   11  C4  UNL     1     -37.633  14.861  -3.830  1.00 20.00     0.001 C 
HETATM   12  C6  UNL     1     -36.308  14.334  -4.378  1.00 20.00     0.011 C 
HETATM   13  C9  UNL     1     -36.667  15.022  -6.793  1.00 20.00     0.017 C 
ENDBRANCH   7   8
ENDBRANCH   5   7
ENDBRANCH   4   5
ENDBRANCH   2   4
TORSDOF 4
ENDMDL
MODEL 8
REMARK VINA RESULT:      -4.7     11.680     13.657
REMARK  4 active torsions:
REMARK  status: ('A' for Active; 'I' for Inactive)
REMARK    1  A    between atoms: C2_2  and  C10_10 
REMARK    2  A    between atoms: C7_7  and  C11_11 
REMARK    3  A    between atoms: C10_10  and  N12_12 
REMARK    4  A    between atoms: C11_11  and  N12_12 
ROOT
HETATM    1  C1  UNL     1     -34.264  16.334  -1.762  1.00 20.00    -0.109 C 
HETATM    2  C2  UNL     1     -33.819  15.691  -2.674  1.00 20.00    -0.077 C 
HETATM    3  C8  UNL     1     -34.805  17.117  -0.652  1.00 20.00     0.112 C 
ENDROOT
BRANCH   2   4
HETATM    4  C10 UNL     1     -33.282  14.902  -3.786  1.00 20.00     0.362 C 
BRANCH   4   5
HETATM    5  N12 UNL     1     -32.889  15.771  -4.905  1.00 20.00     0.095 N 
HETATM    6  H31 UNL     1     -31.965  16.169  -4.679  1.00 20.00     0.317 HD
BRANCH   5   7
HETATM    7  C11 UNL     1     -33.842  16.796  -5.150  1.00 20.00     0.279 C 
BRANCH   7   8
HETATM    8  C7  UNL     1     -34.711  16.407  -6.347  1.00 20.00    -0.018 C 
HETATM    9  C5  UNL     1     -36.122  15.990  -5.908  1.00 20.00     0.011 C 
HETATM   10  C3  UNL     1     -36.648  15.114  -7.043  1.00 20.00     0.001 C 
HETATM   11  C4  UNL     1     -35.416  14.555  -7.756  1.00 20.00     0.001 C 
HETATM   12  C6  UNL     1     -34.204  15.123  -7.020  1.00 20.00     0.011 C 
HETATM   13  C9  UNL     1     -34.758  17.578  -7.341  1.00 20.00     0.017 C 
ENDBRANCH   7   8
ENDBRANCH   5   7
ENDBRANCH   4   5
ENDBRANCH   2   4
TORSDOF 4
ENDMDL
MODEL 9
REMARK VINA RESULT:      -4.7     11.156     12.718
REMARK  4 active torsions:
REMARK  status: ('A' for Active; 'I' for Inactive)
REMARK    1  A    between atoms: C2_2  and  C10_10 
REMARK    2  A    between atoms: C7_7  and  C11_11 
REMARK    3  A    between atoms: C10_10  and  N12_12 
REMARK    4  A    between atoms: C11_11  and  N12_12 
ROOT
HETATM    1  C1  UNL     1     -36.328  15.002  -6.715  1.00 20.00    -0.109 C 
HETATM    2  C2  UNL     1     -37.069  15.138  -5.780  1.00 20.00    -0.077 C 
HETATM    3  C8  UNL     1     -35.426  14.836  -7.854  1.00 20.00     0.112 C 
ENDROOT
BRANCH   2   4
HETATM    4  C10 UNL     1     -37.968  15.300  -4.633  1.00 20.00     0.362 C 
BRANCH   4   5
HETATM    5  N12 UNL     1     -37.237  15.144  -3.367  1.00 20.00     0.095 N 
HETATM    6  H31 UNL     1     -37.927  14.919  -2.635  1.00 20.00     0.317 HD
BRANCH   5   7
HETATM    7  C11 UNL     1     -36.492  16.305  -3.029  1.00 20.00     0.279 C 
BRANCH   7   8
HETATM    8  C7  UNL     1     -35.007  15.951  -2.949  1.00 20.00    -0.018 C 
HETATM    9  C5  UNL     1     -34.202  16.633  -4.065  1.00 20.00     0.011 C 
HETATM   10  C3  UNL     1     -32.946  15.780  -4.227  1.00 20.00     0.001 C 
HETATM   11  C4  UNL     1     -33.305  14.388  -3.707  1.00 20.00     0.001 C 
HETATM   12  C6  UNL     1     -34.762  14.466  -3.253  1.00 20.00     0.011 C 
HETATM   13  C9  UNL     1     -34.468  16.332  -1.560  1.00 20.00     0.017 C 
ENDBRANCH   7   8
ENDBRANCH   5   7
ENDBRANCH   4   5
ENDBRANCH   2   4
TORSDOF 4
ENDMDL
