MODEL 1
REMARK VINA RESULT:      -5.3      0.000      0.000
REMARK  2 active torsions:
REMARK  status: ('A' for Active; 'I' for Inactive)
REMARK    1  A    between atoms: C6_6  and  C8_8 
REMARK    2  A    between atoms: C8_8  and  N9_9 
ROOT
HETATM    1  C1  UNL     1     -32.196   7.533   2.584  1.00 20.00     0.332 C 
HETATM    2  N9  UNL     1     -32.431   6.716   3.399  1.00 20.00    -0.247 NA
HETATM    3  O10 UNL     1     -31.958   8.350   1.773  1.00 20.00    -0.260 OA
ENDROOT
BRANCH   2   4
HETATM    4  C8  UNL     1     -33.391   5.702   2.986  1.00 20.00     0.162 C 
BRANCH   4   5
HETATM    5  C6  UNL     1     -34.408   5.519   4.115  1.00 20.00    -0.026 C 
HETATM    6  C4  UNL     1     -33.993   6.282   5.379  1.00 20.00     0.011 C 
HETATM    7  C2  UNL     1     -34.716   5.576   6.524  1.00 20.00     0.001 C 
HETATM    8  C3  UNL     1     -34.999   4.156   6.038  1.00 20.00     0.001 C 
HETATM    9  C5  UNL     1     -34.435   4.070   4.621  1.00 20.00     0.011 C 
HETATM   10  C7  UNL     1     -35.796   5.964   3.623  1.00 20.00     0.017 C 
ENDBRANCH   4   5
ENDBRANCH   2   4
TORSDOF 2
ENDMDL
MODEL 2
REMARK VINA RESULT:      -4.4      1.075      1.943
REMARK  2 active torsions:
REMARK  status: ('A' for Active; 'I' for Inactive)
REMARK    1  A    between atoms: C6_6  and  C8_8 
REMARK    2  A    between atoms: C8_8  and  N9_9 
ROOT
HETATM    1  C1  UNL     1     -32.170   8.535   1.829  1.00 20.00     0.332 C 
HETATM    2  N9  UNL     1     -32.296   7.632   2.573  1.00 20.00    -0.247 NA
HETATM    3  O10 UNL     1     -32.040   9.436   1.084  1.00 20.00    -0.260 OA
ENDROOT
BRANCH   2   4
HETATM    4  C8  UNL     1     -33.603   7.544   3.209  1.00 20.00     0.162 C 
BRANCH   4   5
HETATM    5  C6  UNL     1     -33.681   6.216   3.965  1.00 20.00    -0.026 C 
HETATM    6  C4  UNL     1     -34.978   5.460   3.645  1.00 20.00     0.011 C 
HETATM    7  C2  UNL     1     -35.193   4.524   4.833  1.00 20.00     0.001 C 
HETATM    8  C3  UNL     1     -34.445   5.149   6.009  1.00 20.00     0.001 C 
HETATM    9  C5  UNL     1     -33.812   6.433   5.478  1.00 20.00     0.011 C 
HETATM   10  C7  UNL     1     -32.443   5.369   3.627  1.00 20.00     0.017 C 
ENDBRANCH   4   5
ENDBRANCH   2   4
TORSDOF 2
ENDMDL
MODEL 3
REMARK VINA RESULT:      -4.2     11.394     12.625
REMARK  2 active torsions:
REMARK  status: ('A' for Active; 'I' for Inactive)
REMARK    1  A    between atoms: C6_6  and  C8_8 
REMARK    2  A    between atoms: C8_8  and  N9_9 
ROOT
HETATM    1  C1  UNL     1     -34.714  13.647  -3.945  1.00 20.00     0.332 C 
HETATM    2  N9  UNL     1     -34.584  14.569  -3.225  1.00 20.00    -0.247 NA
HETATM    3  O10 UNL     1     -34.839  12.724  -4.664  1.00 20.00    -0.260 OA
ENDROOT
BRANCH   2   4
HETATM    4  C8  UNL     1     -35.744  15.446  -3.143  1.00 20.00     0.162 C 
BRANCH   4   5
HETATM    5  C6  UNL     1     -35.323  16.731  -2.427  1.00 20.00    -0.026 C 
HETATM    6  C4  UNL     1     -34.158  17.423  -3.146  1.00 20.00     0.011 C 
HETATM    7  C2  UNL     1     -33.492  18.289  -2.079  1.00 20.00     0.001 C 
HETATM    8  C3  UNL     1     -33.844  17.655  -0.735  1.00 20.00     0.001 C 
HETATM    9  C5  UNL     1     -34.709  16.436  -1.051  1.00 20.00     0.011 C 
HETATM   10  C7  UNL     1     -36.540  17.664  -2.306  1.00 20.00     0.017 C 
ENDBRANCH   4   5
ENDBRANCH   2   4
TORSDOF 2
ENDMDL
MODEL 4
REMARK VINA RESULT:      -4.2     11.668     12.358
REMARK  2 active torsions:
REMARK  status: ('A' for Active; 'I' for Inactive)
REMARK    1  A    between atoms: C6_6  and  C8_8 
REMARK    2  A    between atoms: C8_8  and  N9_9 
ROOT
HETATM    1  C1  UNL     1     -34.602  16.932  -0.419  1.00 20.00     0.332 C 
HETATM    2  N9  UNL     1     -34.699  16.219  -1.351  1.00 20.00    -0.247 NA
HETATM    3  O10 UNL     1     -34.508  17.641   0.514  1.00 20.00    -0.260 OA
ENDROOT
BRANCH   2   4
HETATM    4  C8  UNL     1     -33.803  16.534  -2.455  1.00 20.00     0.162 C 
BRANCH   4   5
HETATM    5  C6  UNL     1     -34.165  15.633  -3.638  1.00 20.00    -0.026 C 
HETATM    6  C4  UNL     1     -35.570  15.035  -3.483  1.00 20.00     0.011 C 
HETATM    7  C2  UNL     1     -35.563  13.779  -4.352  1.00 20.00     0.001 C 
HETATM    8  C3  UNL     1     -34.102  13.352  -4.474  1.00 20.00     0.001 C 
HETATM    9  C5  UNL     1     -33.292  14.371  -3.674  1.00 20.00     0.011 C 
HETATM   10  C7  UNL     1     -34.039  16.436  -4.943  1.00 20.00     0.017 C 
ENDBRANCH   4   5
ENDBRANCH   2   4
TORSDOF 2
ENDMDL
MODEL 5
REMARK VINA RESULT:      -4.2     11.578     12.715
REMARK  2 active torsions:
REMARK  status: ('A' for Active; 'I' for Inactive)
REMARK    1  A    between atoms: C6_6  and  C8_8 
REMARK    2  A    between atoms: C8_8  and  N9_9 
ROOT
HETATM    1  C1  UNL     1     -35.303  13.443  -4.304  1.00 20.00     0.332 C 
HETATM    2  N9  UNL     1     -35.745  14.387  -3.756  1.00 20.00    -0.247 NA
HETATM    3  O10 UNL     1     -34.864  12.497  -4.848  1.00 20.00    -0.260 OA
ENDROOT
BRANCH   2   4
HETATM    4  C8  UNL     1     -35.276  15.665  -4.271  1.00 20.00     0.162 C 
BRANCH   4   5
HETATM    5  C6  UNL     1     -34.273  16.246  -3.272  1.00 20.00    -0.026 C 
HETATM    6  C4  UNL     1     -34.755  16.078  -1.826  1.00 20.00     0.011 C 
HETATM    7  C2  UNL     1     -34.016  17.155  -1.034  1.00 20.00     0.001 C 
HETATM    8  C3  UNL     1     -33.645  18.243  -2.040  1.00 20.00     0.001 C 
HETATM    9  C5  UNL     1     -34.174  17.773  -3.393  1.00 20.00     0.011 C 
HETATM   10  C7  UNL     1     -32.903  15.580  -3.486  1.00 20.00     0.017 C 
ENDBRANCH   4   5
ENDBRANCH   2   4
TORSDOF 2
ENDMDL
MODEL 6
REMARK VINA RESULT:      -4.2     11.398     12.441
REMARK  2 active torsions:
REMARK  status: ('A' for Active; 'I' for Inactive)
REMARK    1  A    between atoms: C6_6  and  C8_8 
REMARK    2  A    between atoms: C8_8  and  N9_9 
ROOT
HETATM    1  C1  UNL     1     -34.399  16.977  -0.580  1.00 20.00     0.332 C 
HETATM    2  N9  UNL     1     -34.758  16.184  -1.373  1.00 20.00    -0.247 NA
HETATM    3  O10 UNL     1     -34.044  17.768   0.214  1.00 20.00    -0.260 OA
ENDROOT
BRANCH   2   4
HETATM    4  C8  UNL     1     -33.975  16.151  -2.600  1.00 20.00     0.162 C 
BRANCH   4   5
HETATM    5  C6  UNL     1     -34.695  15.250  -3.605  1.00 20.00    -0.026 C 
HETATM    6  C4  UNL     1     -34.172  13.808  -3.546  1.00 20.00     0.011 C 
HETATM    7  C2  UNL     1     -34.515  13.207  -4.907  1.00 20.00     0.001 C 
HETATM    8  C3  UNL     1     -34.640  14.383  -5.874  1.00 20.00     0.001 C 
HETATM    9  C5  UNL     1     -34.367  15.641  -5.052  1.00 20.00     0.011 C 
HETATM   10  C7  UNL     1     -36.209  15.306  -3.340  1.00 20.00     0.017 C 
ENDBRANCH   4   5
ENDBRANCH   2   4
TORSDOF 2
ENDMDL
MODEL 7
REMARK VINA RESULT:      -4.2     11.476     12.505
REMARK  2 active torsions:
REMARK  status: ('A' for Active; 'I' for Inactive)
REMARK    1  A    between atoms: C6_6  and  C8_8 
REMARK    2  A    between atoms: C8_8  and  N9_9 
ROOT
HETATM    1  C1  UNL     1     -34.581  16.763  -0.620  1.00 20.00     0.332 C 
HETATM    2  N9  UNL     1     -34.177  16.384  -1.659  1.00 20.00    -0.247 NA
HETATM    3  O10 UNL     1     -34.981  17.142   0.419  1.00 20.00    -0.260 OA
ENDROOT
BRANCH   2   4
HETATM    4  C8  UNL     1     -35.204  15.914  -2.577  1.00 20.00     0.162 C 
BRANCH   4   5
HETATM    5  C6  UNL     1     -34.517  15.176  -3.728  1.00 20.00    -0.026 C 
HETATM    6  C4  UNL     1     -34.996  15.688  -5.093  1.00 20.00     0.011 C 
HETATM    7  C2  UNL     1     -34.713  14.544  -6.066  1.00 20.00     0.001 C 
HETATM    8  C3  UNL     1     -34.675  13.269  -5.226  1.00 20.00     0.001 C 
HETATM    9  C5  UNL     1     -34.935  13.701  -3.784  1.00 20.00     0.011 C 
HETATM   10  C7  UNL     1     -32.992  15.319  -3.582  1.00 20.00     0.017 C 
ENDBRANCH   4   5
ENDBRANCH   2   4
TORSDOF 2
ENDMDL
MODEL 8
REMARK VINA RESULT:      -4.1     11.674     12.868
REMARK  2 active torsions:
REMARK  status: ('A' for Active; 'I' for Inactive)
REMARK    1  A    between atoms: C6_6  and  C8_8 
REMARK    2  A    between atoms: C8_8  and  N9_9 
ROOT
HETATM    1  C1  UNL     1     -38.438  14.816  -3.666  1.00 20.00     0.332 C 
HETATM    2  N9  UNL     1     -37.385  14.358  -3.929  1.00 20.00    -0.247 NA
HETATM    3  O10 UNL     1     -39.489  15.271  -3.400  1.00 20.00    -0.260 OA
ENDROOT
BRANCH   2   4
HETATM    4  C8  UNL     1     -36.771  14.894  -5.135  1.00 20.00     0.162 C 
BRANCH   4   5
HETATM    5  C6  UNL     1     -35.256  14.714  -5.022  1.00 20.00    -0.026 C 
HETATM    6  C4  UNL     1     -34.895  13.393  -4.330  1.00 20.00     0.011 C 
HETATM    7  C2  UNL     1     -33.486  13.607  -3.778  1.00 20.00     0.001 C 
HETATM    8  C3  UNL     1     -33.319  15.116  -3.611  1.00 20.00     0.001 C 
HETATM    9  C5  UNL     1     -34.633  15.745  -4.070  1.00 20.00     0.011 C 
HETATM   10  C7  UNL     1     -34.630  14.800  -6.424  1.00 20.00     0.017 C 
ENDBRANCH   4   5
ENDBRANCH   2   4
TORSDOF 2
ENDMDL
MODEL 9
REMARK VINA RESULT:      -4.1      9.199     10.551
REMARK  2 active torsions:
REMARK  status: ('A' for Active; 'I' for Inactive)
REMARK    1  A    between atoms: C6_6  and  C8_8 
REMARK    2  A    between atoms: C8_8  and  N9_9 
ROOT
HETATM    1  C1  UNL     1     -41.542   2.315  -3.475  1.00 20.00     0.332 C 
HETATM    2  N9  UNL     1     -41.455   3.147  -2.646  1.00 20.00    -0.247 NA
HETATM    3  O10 UNL     1     -41.625   1.482  -4.300  1.00 20.00    -0.260 OA
ENDROOT
BRANCH   2   4
HETATM    4  C8  UNL     1     -42.409   4.240  -2.778  1.00 20.00     0.162 C 
BRANCH   4   5
HETATM    5  C6  UNL     1     -42.206   5.197  -1.602  1.00 20.00    -0.026 C 
HETATM    6  C4  UNL     1     -41.978   6.637  -2.080  1.00 20.00     0.011 C 
HETATM    7  C2  UNL     1     -41.240   7.324  -0.931  1.00 20.00     0.001 C 
HETATM    8  C3  UNL     1     -40.546   6.212  -0.146  1.00 20.00     0.001 C 
HETATM    9  C5  UNL     1     -40.896   4.906  -0.856  1.00 20.00     0.011 C 
HETATM   10  C7  UNL     1     -43.417   5.106  -0.660  1.00 20.00     0.017 C 
ENDBRANCH   4   5
ENDBRANCH   2   4
TORSDOF 2
ENDMDL
