MODEL 1
REMARK VINA RESULT:      -4.1      0.000      0.000
REMARK  3 active torsions:
REMARK  status: ('A' for Active; 'I' for Inactive)
REMARK    1  A    between atoms: C5_5  and  C6_6 
REMARK    2  A    between atoms: C5_5  and  C7_7 
REMARK    3  A    between atoms: C7_7  and  C8_8 
ROOT
HETATM    1  C1  UNL     1     -33.683   5.248   2.376  1.00 20.00     0.011 C 
HETATM    2  C7  UNL     1     -33.249   5.602   3.810  1.00 20.00    -0.010 C 
ENDROOT
BRANCH   2   3
HETATM    3  C5  UNL     1     -32.635   7.030   3.845  1.00 20.00     0.020 C 
BRANCH   3   4
HETATM    4  C6  UNL     1     -31.807   7.443   2.626  1.00 20.00     0.115 C 
HETATM    5 CL9  UNL     1     -32.395   8.952   1.893  1.00 20.00    -0.130 Cl
ENDBRANCH   3   4
ENDBRANCH   2   3
BRANCH   2   6
HETATM    6  C8  UNL     1     -34.404   5.397   4.868  1.00 20.00    -0.048 C 
HETATM    7  C2  UNL     1     -35.785   5.593   4.202  1.00 20.00     0.015 C 
HETATM    8  C3  UNL     1     -34.299   6.376   6.052  1.00 20.00     0.015 C 
HETATM    9  C4  UNL     1     -34.378   3.957   5.429  1.00 20.00     0.015 C 
ENDBRANCH   2   6
TORSDOF 3
ENDMDL
MODEL 2
REMARK VINA RESULT:      -4.1      0.067      1.448
REMARK  3 active torsions:
REMARK  status: ('A' for Active; 'I' for Inactive)
REMARK    1  A    between atoms: C5_5  and  C6_6 
REMARK    2  A    between atoms: C5_5  and  C7_7 
REMARK    3  A    between atoms: C7_7  and  C8_8 
ROOT
HETATM    1  C1  UNL     1     -33.695   5.233   2.346  1.00 20.00     0.011 C 
HETATM    2  C7  UNL     1     -33.283   5.559   3.793  1.00 20.00    -0.010 C 
ENDROOT
BRANCH   2   3
HETATM    3  C5  UNL     1     -32.657   6.980   3.863  1.00 20.00     0.020 C 
BRANCH   3   4
HETATM    4  C6  UNL     1     -31.798   7.404   2.669  1.00 20.00     0.115 C 
HETATM    5 CL9  UNL     1     -32.386   8.901   1.913  1.00 20.00    -0.130 Cl
ENDBRANCH   3   4
ENDBRANCH   2   3
BRANCH   2   6
HETATM    6  C8  UNL     1     -34.457   5.346   4.828  1.00 20.00    -0.048 C 
HETATM    7  C2  UNL     1     -34.326   6.345   6.001  1.00 20.00     0.015 C 
HETATM    8  C3  UNL     1     -34.477   3.922   5.412  1.00 20.00     0.015 C 
HETATM    9  C4  UNL     1     -35.825   5.615   4.162  1.00 20.00     0.015 C 
ENDBRANCH   2   6
TORSDOF 3
ENDMDL
MODEL 3
REMARK VINA RESULT:      -3.8     11.625     12.886
REMARK  3 active torsions:
REMARK  status: ('A' for Active; 'I' for Inactive)
REMARK    1  A    between atoms: C5_5  and  C6_6 
REMARK    2  A    between atoms: C5_5  and  C7_7 
REMARK    3  A    between atoms: C7_7  and  C8_8 
ROOT
HETATM    1  C1  UNL     1     -33.435  17.073  -5.044  1.00 20.00     0.011 C 
HETATM    2  C7  UNL     1     -33.529  15.598  -4.614  1.00 20.00    -0.010 C 
ENDROOT
BRANCH   2   3
HETATM    3  C5  UNL     1     -33.663  15.499  -3.069  1.00 20.00     0.020 C 
BRANCH   3   4
HETATM    4  C6  UNL     1     -33.876  16.817  -2.319  1.00 20.00     0.115 C 
HETATM    5 CL9  UNL     1     -34.627  16.573  -0.727  1.00 20.00    -0.130 Cl
ENDBRANCH   3   4
ENDBRANCH   2   3
BRANCH   2   6
HETATM    6  C8  UNL     1     -34.656  14.805  -5.386  1.00 20.00    -0.048 C 
HETATM    7  C2  UNL     1     -34.651  13.318  -4.965  1.00 20.00     0.015 C 
HETATM    8  C3  UNL     1     -34.482  14.870  -6.915  1.00 20.00     0.015 C 
HETATM    9  C4  UNL     1     -36.054  15.365  -5.035  1.00 20.00     0.015 C 
ENDBRANCH   2   6
TORSDOF 3
ENDMDL
MODEL 4
REMARK VINA RESULT:      -3.8     11.661     12.912
REMARK  3 active torsions:
REMARK  status: ('A' for Active; 'I' for Inactive)
REMARK    1  A    between atoms: C5_5  and  C6_6 
REMARK    2  A    between atoms: C5_5  and  C7_7 
REMARK    3  A    between atoms: C7_7  and  C8_8 
ROOT
HETATM    1  C1  UNL     1     -33.491  17.183  -5.048  1.00 20.00     0.011 C 
HETATM    2  C7  UNL     1     -33.499  15.700  -4.637  1.00 20.00    -0.010 C 
ENDROOT
BRANCH   2   3
HETATM    3  C5  UNL     1     -33.556  15.573  -3.089  1.00 20.00     0.020 C 
BRANCH   3   4
HETATM    4  C6  UNL     1     -33.835  16.862  -2.313  1.00 20.00     0.115 C 
HETATM    5 CL9  UNL     1     -34.634  16.552  -0.756  1.00 20.00    -0.130 Cl
ENDBRANCH   3   4
ENDBRANCH   2   3
BRANCH   2   6
HETATM    6  C8  UNL     1     -34.623  14.866  -5.370  1.00 20.00    -0.048 C 
HETATM    7  C2  UNL     1     -36.018  15.457  -5.061  1.00 20.00     0.015 C 
HETATM    8  C3  UNL     1     -34.626  13.384  -4.951  1.00 20.00     0.015 C 
HETATM    9  C4  UNL     1     -34.439  14.934  -6.904  1.00 20.00     0.015 C 
ENDBRANCH   2   6
TORSDOF 3
ENDMDL
MODEL 5
REMARK VINA RESULT:      -3.8     11.786     12.548
REMARK  3 active torsions:
REMARK  status: ('A' for Active; 'I' for Inactive)
REMARK    1  A    between atoms: C5_5  and  C6_6 
REMARK    2  A    between atoms: C5_5  and  C7_7 
REMARK    3  A    between atoms: C7_7  and  C8_8 
ROOT
HETATM    1  C1  UNL     1     -36.827  14.652  -3.912  1.00 20.00     0.011 C 
HETATM    2  C7  UNL     1     -35.323  14.458  -3.651  1.00 20.00    -0.010 C 
ENDROOT
BRANCH   2   3
HETATM    3  C5  UNL     1     -34.668  13.692  -4.835  1.00 20.00     0.020 C 
BRANCH   3   4
HETATM    4  C6  UNL     1     -35.214  14.004  -6.230  1.00 20.00     0.115 C 
HETATM    5 CL9  UNL     1     -34.190  15.158  -7.112  1.00 20.00    -0.130 Cl
ENDBRANCH   3   4
ENDBRANCH   2   3
BRANCH   2   6
HETATM    6  C8  UNL     1     -34.582  15.810  -3.302  1.00 20.00    -0.048 C 
HETATM    7  C2  UNL     1     -34.685  16.102  -1.787  1.00 20.00     0.015 C 
HETATM    8  C3  UNL     1     -35.164  17.015  -4.063  1.00 20.00     0.015 C 
HETATM    9  C4  UNL     1     -33.077  15.707  -3.636  1.00 20.00     0.015 C 
ENDBRANCH   2   6
TORSDOF 3
ENDMDL
MODEL 6
REMARK VINA RESULT:      -3.6     11.414     13.056
REMARK  3 active torsions:
REMARK  status: ('A' for Active; 'I' for Inactive)
REMARK    1  A    between atoms: C5_5  and  C6_6 
REMARK    2  A    between atoms: C5_5  and  C7_7 
REMARK    3  A    between atoms: C7_7  and  C8_8 
ROOT
HETATM    1  C1  UNL     1     -33.531  16.850  -5.493  1.00 20.00     0.011 C 
HETATM    2  C7  UNL     1     -34.490  15.657  -5.339  1.00 20.00    -0.010 C 
ENDROOT
BRANCH   2   3
HETATM    3  C5  UNL     1     -34.448  14.768  -6.614  1.00 20.00     0.020 C 
BRANCH   3   4
HETATM    4  C6  UNL     1     -35.757  14.642  -7.397  1.00 20.00     0.115 C 
HETATM    5 CL9  UNL     1     -37.155  15.235  -6.475  1.00 20.00    -0.130 Cl
ENDBRANCH   3   4
ENDBRANCH   2   3
BRANCH   2   6
HETATM    6  C8  UNL     1     -34.249  14.842  -4.007  1.00 20.00    -0.048 C 
HETATM    7  C2  UNL     1     -32.741  14.798  -3.671  1.00 20.00     0.015 C 
HETATM    8  C3  UNL     1     -34.762  13.394  -4.100  1.00 20.00     0.015 C 
HETATM    9  C4  UNL     1     -34.953  15.529  -2.814  1.00 20.00     0.015 C 
ENDBRANCH   2   6
TORSDOF 3
ENDMDL
MODEL 7
REMARK VINA RESULT:      -3.6     11.419     12.310
REMARK  3 active torsions:
REMARK  status: ('A' for Active; 'I' for Inactive)
REMARK    1  A    between atoms: C5_5  and  C6_6 
REMARK    2  A    between atoms: C5_5  and  C7_7 
REMARK    3  A    between atoms: C7_7  and  C8_8 
ROOT
HETATM    1  C1  UNL     1     -36.752  14.886  -3.570  1.00 20.00     0.011 C 
HETATM    2  C7  UNL     1     -35.386  14.968  -2.865  1.00 20.00    -0.010 C 
ENDROOT
BRANCH   2   3
HETATM    3  C5  UNL     1     -34.331  14.133  -3.641  1.00 20.00     0.020 C 
BRANCH   3   4
HETATM    4  C6  UNL     1     -34.801  13.493  -4.950  1.00 20.00     0.115 C 
HETATM    5 CL9  UNL     1     -34.481  14.529  -6.359  1.00 20.00    -0.130 Cl
ENDBRANCH   3   4
ENDBRANCH   2   3
BRANCH   2   6
HETATM    6  C8  UNL     1     -34.924  16.455  -2.595  1.00 20.00    -0.048 C 
HETATM    7  C2  UNL     1     -36.093  17.435  -2.847  1.00 20.00     0.015 C 
HETATM    8  C3  UNL     1     -33.744  16.877  -3.489  1.00 20.00     0.015 C 
HETATM    9  C4  UNL     1     -34.500  16.634  -1.119  1.00 20.00     0.015 C 
ENDBRANCH   2   6
TORSDOF 3
ENDMDL
MODEL 8
REMARK VINA RESULT:      -3.6     11.253     12.399
REMARK  3 active torsions:
REMARK  status: ('A' for Active; 'I' for Inactive)
REMARK    1  A    between atoms: C5_5  and  C6_6 
REMARK    2  A    between atoms: C5_5  and  C7_7 
REMARK    3  A    between atoms: C7_7  and  C8_8 
ROOT
HETATM    1  C1  UNL     1     -36.594  15.007  -3.571  1.00 20.00     0.011 C 
HETATM    2  C7  UNL     1     -35.230  15.713  -3.477  1.00 20.00    -0.010 C 
ENDROOT
BRANCH   2   3
HETATM    3  C5  UNL     1     -34.745  15.746  -2.000  1.00 20.00     0.020 C 
BRANCH   3   4
HETATM    4  C6  UNL     1     -34.479  17.130  -1.404  1.00 20.00     0.115 C 
HETATM    5 CL9  UNL     1     -34.939  17.226   0.310  1.00 20.00    -0.130 Cl
ENDBRANCH   3   4
ENDBRANCH   2   3
BRANCH   2   6
HETATM    6  C8  UNL     1     -34.157  15.111  -4.468  1.00 20.00    -0.048 C 
HETATM    7  C2  UNL     1     -33.110  16.185  -4.843  1.00 20.00     0.015 C 
HETATM    8  C3  UNL     1     -34.788  14.582  -5.769  1.00 20.00     0.015 C 
HETATM    9  C4  UNL     1     -33.387  13.951  -3.798  1.00 20.00     0.015 C 
ENDBRANCH   2   6
TORSDOF 3
ENDMDL
MODEL 9
REMARK VINA RESULT:      -3.6      2.595      4.059
REMARK  3 active torsions:
REMARK  status: ('A' for Active; 'I' for Inactive)
REMARK    1  A    between atoms: C5_5  and  C6_6 
REMARK    2  A    between atoms: C5_5  and  C7_7 
REMARK    3  A    between atoms: C7_7  and  C8_8 
ROOT
HETATM    1  C1  UNL     1     -34.792   5.699   3.427  1.00 20.00     0.011 C 
HETATM    2  C7  UNL     1     -33.894   6.763   4.082  1.00 20.00    -0.010 C 
ENDROOT
BRANCH   2   3
HETATM    3  C5  UNL     1     -33.725   6.463   5.597  1.00 20.00     0.020 C 
BRANCH   3   4
HETATM    4  C6  UNL     1     -34.768   5.535   6.226  1.00 20.00     0.115 C 
HETATM    5 CL9  UNL     1     -34.340   3.820   6.047  1.00 20.00    -0.130 Cl
ENDBRANCH   3   4
ENDBRANCH   2   3
BRANCH   2   6
HETATM    6  C8  UNL     1     -32.517   6.952   3.329  1.00 20.00    -0.048 C 
HETATM    7  C2  UNL     1     -31.461   7.551   4.285  1.00 20.00     0.015 C 
HETATM    8  C3  UNL     1     -32.637   7.878   2.105  1.00 20.00     0.015 C 
HETATM    9  C4  UNL     1     -31.967   5.589   2.852  1.00 20.00     0.015 C 
ENDBRANCH   2   6
TORSDOF 3
ENDMDL
