MODEL 1
REMARK VINA RESULT:      -4.4      0.000      0.000
REMARK  3 active torsions:
REMARK  status: ('A' for Active; 'I' for Inactive)
REMARK    1  A    between atoms: C4_4  and  C8_8 
REMARK    2  A    between atoms: C7_7  and  N10_10 
REMARK    3  A    between atoms: C8_8  and  N10_10 
ROOT
HETATM    1  C1  UNL     1     -34.007  13.668  -4.059  1.00 20.00     0.089 C 
HETATM    2  C7  UNL     1     -32.959  14.628  -3.714  1.00 20.00     0.394 C 
HETATM    3  N9  UNL     1     -34.836  12.902  -4.331  1.00 20.00    -0.195 NA
ENDROOT
BRANCH   2   4
HETATM    4  N10 UNL     1     -33.334  15.986  -4.138  1.00 20.00     0.097 N 
HETATM    5  C6  UNL     1     -33.837  15.948  -5.520  1.00 20.00     0.311 C 
BRANCH   4   6
HETATM    6  C8  UNL     1     -34.300  16.564  -3.245  1.00 20.00     0.278 C 
BRANCH   6   7
HETATM    7  C4  UNL     1     -33.752  16.690  -1.865  1.00 20.00     0.018 A 
HETATM    8  C2  UNL     1     -34.679  16.697  -0.679  1.00 20.00     0.011 A 
HETATM    9  C3  UNL     1     -33.960  17.959  -1.081  1.00 20.00    -0.012 A 
HETATM   10  C5  UNL     1     -32.865  18.499  -0.229  1.00 20.00     0.010 C 
ENDBRANCH   6   7
ENDBRANCH   4   6
ENDBRANCH   2   4
TORSDOF 3
ENDMDL
MODEL 2
REMARK VINA RESULT:      -4.4      0.949      1.331
REMARK  3 active torsions:
REMARK  status: ('A' for Active; 'I' for Inactive)
REMARK    1  A    between atoms: C4_4  and  C8_8 
REMARK    2  A    between atoms: C7_7  and  N10_10 
REMARK    3  A    between atoms: C8_8  and  N10_10 
ROOT
HETATM    1  C1  UNL     1     -34.023  13.595  -4.153  1.00 20.00     0.089 C 
HETATM    2  C7  UNL     1     -33.037  14.587  -3.728  1.00 20.00     0.394 C 
HETATM    3  N9  UNL     1     -34.803  12.805  -4.492  1.00 20.00    -0.195 NA
ENDROOT
BRANCH   2   4
HETATM    4  N10 UNL     1     -33.682  15.879  -3.446  1.00 20.00     0.097 N 
HETATM    5  C6  UNL     1     -34.263  16.419  -4.685  1.00 20.00     0.311 C 
BRANCH   4   6
HETATM    6  C8  UNL     1     -34.674  15.754  -2.413  1.00 20.00     0.278 C 
BRANCH   6   7
HETATM    7  C4  UNL     1     -34.806  17.019  -1.636  1.00 20.00     0.018 A 
HETATM    8  C2  UNL     1     -33.604  17.619  -0.956  1.00 20.00     0.011 A 
HETATM    9  C3  UNL     1     -34.702  16.997  -0.133  1.00 20.00    -0.012 A 
HETATM   10  C5  UNL     1     -35.597  17.856   0.690  1.00 20.00     0.010 C 
ENDBRANCH   6   7
ENDBRANCH   4   6
ENDBRANCH   2   4
TORSDOF 3
ENDMDL
MODEL 3
REMARK VINA RESULT:      -4.3      1.499      2.152
REMARK  3 active torsions:
REMARK  status: ('A' for Active; 'I' for Inactive)
REMARK    1  A    between atoms: C4_4  and  C8_8 
REMARK    2  A    between atoms: C7_7  and  N10_10 
REMARK    3  A    between atoms: C8_8  and  N10_10 
ROOT
HETATM    1  C1  UNL     1     -34.901  13.568  -5.289  1.00 20.00     0.089 C 
HETATM    2  C7  UNL     1     -34.859  14.615  -6.310  1.00 20.00     0.394 C 
HETATM    3  N9  UNL     1     -34.936  12.735  -4.482  1.00 20.00    -0.195 NA
ENDROOT
BRANCH   2   4
HETATM    4  N10 UNL     1     -34.443  15.899  -5.726  1.00 20.00     0.097 N 
HETATM    5  C6  UNL     1     -34.387  16.923  -6.780  1.00 20.00     0.311 C 
BRANCH   4   6
HETATM    6  C8  UNL     1     -35.318  16.295  -4.656  1.00 20.00     0.278 C 
BRANCH   6   7
HETATM    7  C4  UNL     1     -34.544  16.719  -3.456  1.00 20.00     0.018 A 
HETATM    8  C2  UNL     1     -33.362  15.909  -2.991  1.00 20.00     0.011 A 
HETATM    9  C3  UNL     1     -34.632  15.923  -2.180  1.00 20.00    -0.012 A 
HETATM   10  C5  UNL     1     -34.671  16.620  -0.864  1.00 20.00     0.010 C 
ENDBRANCH   6   7
ENDBRANCH   4   6
ENDBRANCH   2   4
TORSDOF 3
ENDMDL
MODEL 4
REMARK VINA RESULT:      -4.1     11.532     12.875
REMARK  3 active torsions:
REMARK  status: ('A' for Active; 'I' for Inactive)
REMARK    1  A    between atoms: C4_4  and  C8_8 
REMARK    2  A    between atoms: C7_7  and  N10_10 
REMARK    3  A    between atoms: C8_8  and  N10_10 
ROOT
HETATM    1  C1  UNL     1     -33.816   6.697   6.616  1.00 20.00     0.089 C 
HETATM    2  C7  UNL     1     -34.667   5.560   6.270  1.00 20.00     0.394 C 
HETATM    3  N9  UNL     1     -33.143   7.601   6.895  1.00 20.00    -0.195 NA
ENDROOT
BRANCH   2   4
HETATM    4  N10 UNL     1     -34.300   5.013   4.954  1.00 20.00     0.097 N 
HETATM    5  C6  UNL     1     -34.903   3.682   4.790  1.00 20.00     0.311 C 
BRANCH   4   6
HETATM    6  C8  UNL     1     -34.690   5.900   3.892  1.00 20.00     0.278 C 
BRANCH   6   7
HETATM    7  C4  UNL     1     -33.568   6.124   2.938  1.00 20.00     0.018 A 
HETATM    8  C2  UNL     1     -32.155   5.791   3.338  1.00 20.00     0.011 A 
HETATM    9  C3  UNL     1     -32.575   7.230   3.185  1.00 20.00    -0.012 A 
HETATM   10  C5  UNL     1     -32.061   8.041   2.046  1.00 20.00     0.010 C 
ENDBRANCH   6   7
ENDBRANCH   4   6
ENDBRANCH   2   4
TORSDOF 3
ENDMDL
MODEL 5
REMARK VINA RESULT:      -4.1      1.879      2.162
REMARK  3 active torsions:
REMARK  status: ('A' for Active; 'I' for Inactive)
REMARK    1  A    between atoms: C4_4  and  C8_8 
REMARK    2  A    between atoms: C7_7  and  N10_10 
REMARK    3  A    between atoms: C8_8  and  N10_10 
ROOT
HETATM    1  C1  UNL     1     -37.223  14.747  -4.038  1.00 20.00     0.089 C 
HETATM    2  C7  UNL     1     -35.941  15.324  -4.441  1.00 20.00     0.394 C 
HETATM    3  N9  UNL     1     -38.243  14.291  -3.722  1.00 20.00    -0.195 NA
ENDROOT
BRANCH   2   4
HETATM    4  N10 UNL     1     -34.946  15.192  -3.364  1.00 20.00     0.097 N 
HETATM    5  C6  UNL     1     -34.112  14.006  -3.609  1.00 20.00     0.311 C 
BRANCH   4   6
HETATM    6  C8  UNL     1     -34.147  16.379  -3.243  1.00 20.00     0.278 C 
BRANCH   6   7
HETATM    7  C4  UNL     1     -33.699  16.586  -1.837  1.00 20.00     0.018 A 
HETATM    8  C2  UNL     1     -34.711  16.679  -0.725  1.00 20.00     0.011 A 
HETATM    9  C3  UNL     1     -33.946  17.905  -1.151  1.00 20.00    -0.012 A 
HETATM   10  C5  UNL     1     -32.908  18.488  -0.255  1.00 20.00     0.010 C 
ENDBRANCH   6   7
ENDBRANCH   4   6
ENDBRANCH   2   4
TORSDOF 3
ENDMDL
MODEL 6
REMARK VINA RESULT:      -4.0     10.882     12.044
REMARK  3 active torsions:
REMARK  status: ('A' for Active; 'I' for Inactive)
REMARK    1  A    between atoms: C4_4  and  C8_8 
REMARK    2  A    between atoms: C7_7  and  N10_10 
REMARK    3  A    between atoms: C8_8  and  N10_10 
ROOT
HETATM    1  C1  UNL     1     -32.120   8.736   1.722  1.00 20.00     0.089 C 
HETATM    2  C7  UNL     1     -31.788   7.580   2.554  1.00 20.00     0.394 C 
HETATM    3  N9  UNL     1     -32.379   9.655   1.062  1.00 20.00    -0.195 NA
ENDROOT
BRANCH   2   4
HETATM    4  N10 UNL     1     -33.005   6.974   3.118  1.00 20.00     0.097 N 
HETATM    5  C6  UNL     1     -33.269   5.690   2.450  1.00 20.00     0.311 C 
BRANCH   4   6
HETATM    6  C8  UNL     1     -32.897   6.812   4.541  1.00 20.00     0.278 C 
BRANCH   6   7
HETATM    7  C4  UNL     1     -34.144   6.231   5.114  1.00 20.00     0.018 A 
HETATM    8  C2  UNL     1     -34.346   6.195   6.606  1.00 20.00     0.011 A 
HETATM    9  C3  UNL     1     -34.097   4.917   5.848  1.00 20.00    -0.012 A 
HETATM   10  C5  UNL     1     -35.195   3.925   5.674  1.00 20.00     0.010 C 
ENDBRANCH   6   7
ENDBRANCH   4   6
ENDBRANCH   2   4
TORSDOF 3
ENDMDL
MODEL 7
REMARK VINA RESULT:      -4.0     10.553     11.809
REMARK  3 active torsions:
REMARK  status: ('A' for Active; 'I' for Inactive)
REMARK    1  A    between atoms: C4_4  and  C8_8 
REMARK    2  A    between atoms: C7_7  and  N10_10 
REMARK    3  A    between atoms: C8_8  and  N10_10 
ROOT
HETATM    1  C1  UNL     1     -32.287   8.806   1.763  1.00 20.00     0.089 C 
HETATM    2  C7  UNL     1     -31.976   7.384   1.901  1.00 20.00     0.394 C 
HETATM    3  N9  UNL     1     -32.533   9.935   1.649  1.00 20.00    -0.195 NA
ENDROOT
BRANCH   2   4
HETATM    4  N10 UNL     1     -32.124   6.950   3.299  1.00 20.00     0.097 N 
HETATM    5  C6  UNL     1     -31.264   7.772   4.163  1.00 20.00     0.311 C 
BRANCH   4   6
HETATM    6  C8  UNL     1     -33.497   7.005   3.721  1.00 20.00     0.278 C 
BRANCH   6   7
HETATM    7  C4  UNL     1     -34.048   5.638   3.944  1.00 20.00     0.018 A 
HETATM    8  C2  UNL     1     -35.526   5.386   3.805  1.00 20.00     0.011 A 
HETATM    9  C3  UNL     1     -34.881   5.350   5.166  1.00 20.00    -0.012 A 
HETATM   10  C5  UNL     1     -34.727   4.055   5.886  1.00 20.00     0.010 C 
ENDBRANCH   6   7
ENDBRANCH   4   6
ENDBRANCH   2   4
TORSDOF 3
ENDMDL
MODEL 8
REMARK VINA RESULT:      -3.9      2.147      2.724
REMARK  3 active torsions:
REMARK  status: ('A' for Active; 'I' for Inactive)
REMARK    1  A    between atoms: C4_4  and  C8_8 
REMARK    2  A    between atoms: C7_7  and  N10_10 
REMARK    3  A    between atoms: C8_8  and  N10_10 
ROOT
HETATM    1  C1  UNL     1     -37.387  14.902  -4.554  1.00 20.00     0.089 C 
HETATM    2  C7  UNL     1     -36.629  15.677  -5.536  1.00 20.00     0.394 C 
HETATM    3  N9  UNL     1     -37.992  14.289  -3.777  1.00 20.00    -0.195 NA
ENDROOT
BRANCH   2   4
HETATM    4  N10 UNL     1     -35.184  15.575  -5.280  1.00 20.00     0.097 N 
HETATM    5  C6  UNL     1     -34.485  15.258  -6.535  1.00 20.00     0.311 C 
BRANCH   4   6
HETATM    6  C8  UNL     1     -34.671  16.778  -4.685  1.00 20.00     0.278 C 
BRANCH   6   7
HETATM    7  C4  UNL     1     -34.036  16.499  -3.366  1.00 20.00     0.018 A 
HETATM    8  C2  UNL     1     -34.012  15.096  -2.819  1.00 20.00     0.011 A 
HETATM    9  C3  UNL     1     -34.889  16.140  -2.177  1.00 20.00    -0.012 A 
HETATM   10  C5  UNL     1     -34.552  16.673  -0.828  1.00 20.00     0.010 C 
ENDBRANCH   6   7
ENDBRANCH   4   6
ENDBRANCH   2   4
TORSDOF 3
ENDMDL
MODEL 9
REMARK VINA RESULT:      -3.9     10.805     12.034
REMARK  3 active torsions:
REMARK  status: ('A' for Active; 'I' for Inactive)
REMARK    1  A    between atoms: C4_4  and  C8_8 
REMARK    2  A    between atoms: C7_7  and  N10_10 
REMARK    3  A    between atoms: C8_8  and  N10_10 
ROOT
HETATM    1  C1  UNL     1     -35.169   4.508   4.643  1.00 20.00     0.089 C 
HETATM    2  C7  UNL     1     -35.115   5.722   3.829  1.00 20.00     0.394 C 
HETATM    3  N9  UNL     1     -35.216   3.544   5.288  1.00 20.00    -0.195 NA
ENDROOT
BRANCH   2   4
HETATM    4  N10 UNL     1     -33.881   6.476   4.095  1.00 20.00     0.097 N 
HETATM    5  C6  UNL     1     -33.721   6.661   5.545  1.00 20.00     0.311 C 
BRANCH   4   6
HETATM    6  C8  UNL     1     -32.736   5.825   3.520  1.00 20.00     0.278 C 
BRANCH   6   7
HETATM    7  C4  UNL     1     -31.854   6.802   2.821  1.00 20.00     0.018 A 
HETATM    8  C2  UNL     1     -31.372   8.035   3.539  1.00 20.00     0.011 A 
HETATM    9  C3  UNL     1     -32.387   8.156   2.432  1.00 20.00    -0.012 A 
HETATM   10  C5  UNL     1     -32.001   8.764   1.127  1.00 20.00     0.010 C 
ENDBRANCH   6   7
ENDBRANCH   4   6
ENDBRANCH   2   4
TORSDOF 3
ENDMDL
