MODEL 1
REMARK VINA RESULT:      -4.3      0.000      0.000
REMARK  3 active torsions:
REMARK  status: ('A' for Active; 'I' for Inactive)
REMARK    1  A    between atoms: C1_1  and  C6_6 
REMARK    2  A    between atoms: C6_6  and  C7_7 
REMARK    3  A    between atoms: C7_7  and  C8_8 
ROOT
HETATM    1  C2  UNL     1     -34.646  16.355  -1.440  1.00 20.00     0.011 C 
HETATM    2  C7  UNL     1     -34.301  15.965  -2.891  1.00 20.00    -0.003 C 
ENDROOT
BRANCH   2   3
HETATM    3  C6  UNL     1     -35.258  14.837  -3.345  1.00 20.00     0.101 C 
BRANCH   3   4
HETATM    4  C1  UNL     1     -34.535  13.590  -3.835  1.00 20.00     0.219 C 
HETATM    5  O9  UNL     1     -35.111  12.662  -4.395  1.00 20.00    -0.280 OA
HETATM    6 CL10 UNL     1     -32.818  13.687  -3.556  1.00 20.00    -0.044 Cl
ENDBRANCH   3   4
ENDBRANCH   2   3
BRANCH   2   7
HETATM    7  C8  UNL     1     -34.284  17.192  -3.879  1.00 20.00    -0.048 C 
HETATM    8  C3  UNL     1     -35.687  17.425  -4.482  1.00 20.00     0.015 C 
HETATM    9  C4  UNL     1     -33.326  16.914  -5.059  1.00 20.00     0.015 C 
HETATM   10  C5  UNL     1     -33.835  18.495  -3.189  1.00 20.00     0.015 C 
ENDBRANCH   2   7
TORSDOF 3
ENDMDL
MODEL 2
REMARK VINA RESULT:      -4.0      1.601      2.480
REMARK  3 active torsions:
REMARK  status: ('A' for Active; 'I' for Inactive)
REMARK    1  A    between atoms: C1_1  and  C6_6 
REMARK    2  A    between atoms: C6_6  and  C7_7 
REMARK    3  A    between atoms: C7_7  and  C8_8 
ROOT
HETATM    1  C2  UNL     1     -33.355  16.652  -4.793  1.00 20.00     0.011 C 
HETATM    2  C7  UNL     1     -34.503  16.204  -3.867  1.00 20.00    -0.003 C 
ENDROOT
BRANCH   2   3
HETATM    3  C6  UNL     1     -34.255  14.737  -3.440  1.00 20.00     0.101 C 
BRANCH   3   4
HETATM    4  C1  UNL     1     -35.263  13.757  -4.027  1.00 20.00     0.219 C 
HETATM    5  O9  UNL     1     -34.950  12.642  -4.433  1.00 20.00    -0.280 OA
HETATM    6 CL10 UNL     1     -36.884  14.395  -3.984  1.00 20.00    -0.044 Cl
ENDBRANCH   3   4
ENDBRANCH   2   3
BRANCH   2   7
HETATM    7  C8  UNL     1     -34.731  17.170  -2.644  1.00 20.00    -0.048 C 
HETATM    8  C3  UNL     1     -34.640  16.393  -1.311  1.00 20.00     0.015 C 
HETATM    9  C4  UNL     1     -36.145  17.790  -2.708  1.00 20.00     0.015 C 
HETATM   10  C5  UNL     1     -33.702  18.316  -2.602  1.00 20.00     0.015 C 
ENDBRANCH   2   7
TORSDOF 3
ENDMDL
MODEL 3
REMARK VINA RESULT:      -4.0      2.483      3.269
REMARK  3 active torsions:
REMARK  status: ('A' for Active; 'I' for Inactive)
REMARK    1  A    between atoms: C1_1  and  C6_6 
REMARK    2  A    between atoms: C6_6  and  C7_7 
REMARK    3  A    between atoms: C7_7  and  C8_8 
ROOT
HETATM    1  C2  UNL     1     -34.717  13.241  -4.469  1.00 20.00     0.011 C 
HETATM    2  C7  UNL     1     -34.951  14.758  -4.324  1.00 20.00    -0.003 C 
ENDROOT
BRANCH   2   3
HETATM    3  C6  UNL     1     -36.211  14.987  -3.455  1.00 20.00     0.101 C 
BRANCH   3   4
HETATM    4  C1  UNL     1     -37.516  14.770  -4.210  1.00 20.00     0.219 C 
HETATM    5  O9  UNL     1     -38.507  14.260  -3.696  1.00 20.00    -0.280 OA
HETATM    6 CL10 UNL     1     -37.429  15.385  -5.838  1.00 20.00    -0.044 Cl
ENDBRANCH   3   4
ENDBRANCH   2   3
BRANCH   2   7
HETATM    7  C8  UNL     1     -33.688  15.536  -3.793  1.00 20.00    -0.048 C 
HETATM    8  C3  UNL     1     -34.001  16.230  -2.449  1.00 20.00     0.015 C 
HETATM    9  C4  UNL     1     -33.287  16.647  -4.790  1.00 20.00     0.015 C 
HETATM   10  C5  UNL     1     -32.474  14.611  -3.586  1.00 20.00     0.015 C 
ENDBRANCH   2   7
TORSDOF 3
ENDMDL
MODEL 4
REMARK VINA RESULT:      -4.0      2.485      3.367
REMARK  3 active torsions:
REMARK  status: ('A' for Active; 'I' for Inactive)
REMARK    1  A    between atoms: C1_1  and  C6_6 
REMARK    2  A    between atoms: C6_6  and  C7_7 
REMARK    3  A    between atoms: C7_7  and  C8_8 
ROOT
HETATM    1  C2  UNL     1     -34.758  13.233  -4.247  1.00 20.00     0.011 C 
HETATM    2  C7  UNL     1     -34.976  14.759  -4.254  1.00 20.00    -0.003 C 
ENDROOT
BRANCH   2   3
HETATM    3  C6  UNL     1     -36.248  15.085  -3.434  1.00 20.00     0.101 C 
BRANCH   3   4
HETATM    4  C1  UNL     1     -37.542  14.812  -4.189  1.00 20.00     0.219 C 
HETATM    5  O9  UNL     1     -38.510  14.261  -3.676  1.00 20.00    -0.280 OA
HETATM    6 CL10 UNL     1     -37.481  15.429  -5.818  1.00 20.00    -0.044 Cl
ENDBRANCH   3   4
ENDBRANCH   2   3
BRANCH   2   7
HETATM    7  C8  UNL     1     -33.712  15.571  -3.777  1.00 20.00    -0.048 C 
HETATM    8  C3  UNL     1     -32.501  14.631  -3.587  1.00 20.00     0.015 C 
HETATM    9  C4  UNL     1     -33.988  16.233  -2.408  1.00 20.00     0.015 C 
HETATM   10  C5  UNL     1     -33.313  16.674  -4.775  1.00 20.00     0.015 C 
ENDBRANCH   2   7
TORSDOF 3
ENDMDL
MODEL 5
REMARK VINA RESULT:      -4.0      1.568      2.162
REMARK  3 active torsions:
REMARK  status: ('A' for Active; 'I' for Inactive)
REMARK    1  A    between atoms: C1_1  and  C6_6 
REMARK    2  A    between atoms: C6_6  and  C7_7 
REMARK    3  A    between atoms: C7_7  and  C8_8 
ROOT
HETATM    1  C2  UNL     1     -36.501  14.981  -3.694  1.00 20.00     0.011 C 
HETATM    2  C7  UNL     1     -35.227  15.106  -2.834  1.00 20.00    -0.003 C 
ENDROOT
BRANCH   2   3
HETATM    3  C6  UNL     1     -34.036  14.504  -3.618  1.00 20.00     0.101 C 
BRANCH   3   4
HETATM    4  C1  UNL     1     -34.460  13.699  -4.840  1.00 20.00     0.219 C 
HETATM    5  O9  UNL     1     -34.815  12.527  -4.776  1.00 20.00    -0.280 OA
HETATM    6 CL10 UNL     1     -34.432  14.666  -6.290  1.00 20.00    -0.044 Cl
ENDBRANCH   3   4
ENDBRANCH   2   3
BRANCH   2   7
HETATM    7  C8  UNL     1     -34.954  16.575  -2.334  1.00 20.00    -0.048 C 
HETATM    8  C3  UNL     1     -36.199  17.465  -2.552  1.00 20.00     0.015 C 
HETATM    9  C4  UNL     1     -33.801  17.209  -3.144  1.00 20.00     0.015 C 
HETATM   10  C5  UNL     1     -34.581  16.627  -0.841  1.00 20.00     0.015 C 
ENDBRANCH   2   7
TORSDOF 3
ENDMDL
MODEL 6
REMARK VINA RESULT:      -4.0      2.544      3.232
REMARK  3 active torsions:
REMARK  status: ('A' for Active; 'I' for Inactive)
REMARK    1  A    between atoms: C1_1  and  C6_6 
REMARK    2  A    between atoms: C6_6  and  C7_7 
REMARK    3  A    between atoms: C7_7  and  C8_8 
ROOT
HETATM    1  C2  UNL     1     -34.584  16.018  -2.004  1.00 20.00     0.011 C 
HETATM    2  C7  UNL     1     -35.171  15.173  -3.153  1.00 20.00    -0.003 C 
ENDROOT
BRANCH   2   3
HETATM    3  C6  UNL     1     -36.370  15.934  -3.768  1.00 20.00     0.101 C 
BRANCH   3   4
HETATM    4  C1  UNL     1     -37.446  15.014  -4.330  1.00 20.00     0.219 C 
HETATM    5  O9  UNL     1     -38.086  14.233  -3.634  1.00 20.00    -0.280 OA
HETATM    6 CL10 UNL     1     -37.680  15.263  -6.039  1.00 20.00    -0.044 Cl
ENDBRANCH   3   4
ENDBRANCH   2   3
BRANCH   2   7
HETATM    7  C8  UNL     1     -34.097  14.747  -4.224  1.00 20.00    -0.048 C 
HETATM    8  C3  UNL     1     -34.382  13.321  -4.744  1.00 20.00     0.015 C 
HETATM    9  C4  UNL     1     -32.689  14.722  -3.587  1.00 20.00     0.015 C 
HETATM   10  C5  UNL     1     -34.063  15.702  -5.432  1.00 20.00     0.015 C 
ENDBRANCH   2   7
TORSDOF 3
ENDMDL
MODEL 7
REMARK VINA RESULT:      -4.0      1.612      2.464
REMARK  3 active torsions:
REMARK  status: ('A' for Active; 'I' for Inactive)
REMARK    1  A    between atoms: C1_1  and  C6_6 
REMARK    2  A    between atoms: C6_6  and  C7_7 
REMARK    3  A    between atoms: C7_7  and  C8_8 
ROOT
HETATM    1  C2  UNL     1     -36.515  15.066  -3.558  1.00 20.00     0.011 C 
HETATM    2  C7  UNL     1     -35.194  15.209  -2.775  1.00 20.00    -0.003 C 
ENDROOT
BRANCH   2   3
HETATM    3  C6  UNL     1     -34.038  14.660  -3.646  1.00 20.00     0.101 C 
BRANCH   3   4
HETATM    4  C1  UNL     1     -34.506  13.739  -4.765  1.00 20.00     0.219 C 
HETATM    5  O9  UNL     1     -34.874  12.585  -4.569  1.00 20.00    -0.280 OA
HETATM    6 CL10 UNL     1     -34.505  14.549  -6.309  1.00 20.00    -0.044 Cl
ENDBRANCH   3   4
ENDBRANCH   2   3
BRANCH   2   7
HETATM    7  C8  UNL     1     -34.933  16.673  -2.256  1.00 20.00    -0.048 C 
HETATM    8  C3  UNL     1     -34.601  16.664  -0.747  1.00 20.00     0.015 C 
HETATM    9  C4  UNL     1     -36.202  17.537  -2.433  1.00 20.00     0.015 C 
HETATM   10  C5  UNL     1     -33.773  17.361  -3.000  1.00 20.00     0.015 C 
ENDBRANCH   2   7
TORSDOF 3
ENDMDL
MODEL 8
REMARK VINA RESULT:      -3.9     11.236     12.480
REMARK  3 active torsions:
REMARK  status: ('A' for Active; 'I' for Inactive)
REMARK    1  A    between atoms: C1_1  and  C6_6 
REMARK    2  A    between atoms: C6_6  and  C7_7 
REMARK    3  A    between atoms: C7_7  and  C8_8 
ROOT
HETATM    1  C2  UNL     1     -33.727   6.482   5.807  1.00 20.00     0.011 C 
HETATM    2  C7  UNL     1     -33.849   6.466   4.270  1.00 20.00    -0.003 C 
ENDROOT
BRANCH   2   3
HETATM    3  C6  UNL     1     -32.439   6.271   3.661  1.00 20.00     0.101 C 
BRANCH   3   4
HETATM    4  C1  UNL     1     -31.700   7.580   3.414  1.00 20.00     0.219 C 
HETATM    5  O9  UNL     1     -30.917   8.067   4.225  1.00 20.00    -0.280 OA
HETATM    6 CL10 UNL     1     -32.059   8.239   1.842  1.00 20.00    -0.044 Cl
ENDBRANCH   3   4
ENDBRANCH   2   3
BRANCH   2   7
HETATM    7  C8  UNL     1     -34.899   5.418   3.739  1.00 20.00    -0.048 C 
HETATM    8  C3  UNL     1     -35.091   4.274   4.760  1.00 20.00     0.015 C 
HETATM    9  C4  UNL     1     -34.393   4.773   2.429  1.00 20.00     0.015 C 
HETATM   10  C5  UNL     1     -36.274   6.054   3.464  1.00 20.00     0.015 C 
ENDBRANCH   2   7
TORSDOF 3
ENDMDL
MODEL 9
REMARK VINA RESULT:      -3.9      2.853      3.899
REMARK  3 active torsions:
REMARK  status: ('A' for Active; 'I' for Inactive)
REMARK    1  A    between atoms: C1_1  and  C6_6 
REMARK    2  A    between atoms: C6_6  and  C7_7 
REMARK    3  A    between atoms: C7_7  and  C8_8 
ROOT
HETATM    1  C2  UNL     1     -32.647  14.608  -3.556  1.00 20.00     0.011 C 
HETATM    2  C7  UNL     1     -33.986  15.297  -3.225  1.00 20.00    -0.003 C 
ENDROOT
BRANCH   2   3
HETATM    3  C6  UNL     1     -33.789  16.830  -3.303  1.00 20.00     0.101 C 
BRANCH   3   4
HETATM    4  C1  UNL     1     -33.815  17.514  -1.942  1.00 20.00     0.219 C 
HETATM    5  O9  UNL     1     -33.359  18.637  -1.751  1.00 20.00    -0.280 OA
HETATM    6 CL10 UNL     1     -34.614  16.534  -0.743  1.00 20.00    -0.044 Cl
ENDBRANCH   3   4
ENDBRANCH   2   3
BRANCH   2   7
HETATM    7  C8  UNL     1     -35.185  14.786  -4.109  1.00 20.00    -0.048 C 
HETATM    8  C3  UNL     1     -35.076  13.263  -4.348  1.00 20.00     0.015 C 
HETATM    9  C4  UNL     1     -35.152  15.463  -5.498  1.00 20.00     0.015 C 
HETATM   10  C5  UNL     1     -36.554  15.074  -3.464  1.00 20.00     0.015 C 
ENDBRANCH   2   7
TORSDOF 3
ENDMDL
