MODEL 1
REMARK VINA RESULT:      -4.1      0.000      0.000
REMARK  3 active torsions:
REMARK  status: ('A' for Active; 'I' for Inactive)
REMARK    1  A    between atoms: C4_4  and  C8_8 
REMARK    2  A    between atoms: C7_7  and  N10_10 
REMARK    3  A    between atoms: C8_8  and  N10_10 
ROOT
HETATM    1  C1  UNL     1     -34.698  13.608  -5.097  1.00 20.00     0.089 C 
HETATM    2  C7  UNL     1     -34.406  14.652  -6.078  1.00 20.00     0.394 C 
HETATM    3  N9  UNL     1     -34.931  12.777  -4.321  1.00 20.00    -0.195 NA
ENDROOT
BRANCH   2   4
HETATM    4  N10 UNL     1     -34.548  15.988  -5.478  1.00 20.00     0.097 N 
HETATM    5  C6  UNL     1     -34.282  17.014  -6.498  1.00 20.00     0.311 C 
BRANCH   4   6
HETATM    6  C8  UNL     1     -33.683  16.145  -4.340  1.00 20.00     0.278 C 
BRANCH   6   7
HETATM    7  C4  UNL     1     -34.390  16.818  -3.215  1.00 20.00     0.018 A 
HETATM    8  C2  UNL     1     -35.778  16.383  -2.824  1.00 20.00     0.011 A 
HETATM    9  C3  UNL     1     -34.613  16.086  -1.917  1.00 20.00    -0.012 A 
HETATM   10  C5  UNL     1     -34.472  16.804  -0.620  1.00 20.00     0.010 C 
ENDBRANCH   6   7
ENDBRANCH   4   6
ENDBRANCH   2   4
TORSDOF 3
ENDMDL
MODEL 2
REMARK VINA RESULT:      -4.0     10.943     12.089
REMARK  3 active torsions:
REMARK  status: ('A' for Active; 'I' for Inactive)
REMARK    1  A    between atoms: C4_4  and  C8_8 
REMARK    2  A    between atoms: C7_7  and  N10_10 
REMARK    3  A    between atoms: C8_8  and  N10_10 
ROOT
HETATM    1  C1  UNL     1     -32.194   8.998   1.407  1.00 20.00     0.089 C 
HETATM    2  C7  UNL     1     -32.047   7.590   1.775  1.00 20.00     0.394 C 
HETATM    3  N9  UNL     1     -32.308  10.114   1.112  1.00 20.00    -0.195 NA
ENDROOT
BRANCH   2   4
HETATM    4  N10 UNL     1     -32.421   7.375   3.182  1.00 20.00     0.097 N 
HETATM    5  C6  UNL     1     -31.274   7.692   4.047  1.00 20.00     0.311 C 
BRANCH   4   6
HETATM    6  C8  UNL     1     -32.887   6.033   3.400  1.00 20.00     0.278 C 
BRANCH   6   7
HETATM    7  C4  UNL     1     -34.077   6.015   4.295  1.00 20.00     0.018 A 
HETATM    8  C2  UNL     1     -35.389   5.464   3.801  1.00 20.00     0.011 A 
HETATM    9  C3  UNL     1     -34.597   4.708   4.836  1.00 20.00    -0.012 A 
HETATM   10  C5  UNL     1     -35.088   4.621   6.239  1.00 20.00     0.010 C 
ENDBRANCH   6   7
ENDBRANCH   4   6
ENDBRANCH   2   4
TORSDOF 3
ENDMDL
MODEL 3
REMARK VINA RESULT:      -4.0      1.398      2.150
REMARK  3 active torsions:
REMARK  status: ('A' for Active; 'I' for Inactive)
REMARK    1  A    between atoms: C4_4  and  C8_8 
REMARK    2  A    between atoms: C7_7  and  N10_10 
REMARK    3  A    between atoms: C8_8  and  N10_10 
ROOT
HETATM    1  C1  UNL     1     -34.666  13.689  -3.891  1.00 20.00     0.089 C 
HETATM    2  C7  UNL     1     -34.458  14.853  -3.031  1.00 20.00     0.394 C 
HETATM    3  N9  UNL     1     -34.830  12.762  -4.570  1.00 20.00    -0.195 NA
ENDROOT
BRANCH   2   4
HETATM    4  N10 UNL     1     -34.524  16.099  -3.812  1.00 20.00     0.097 N 
HETATM    5  C6  UNL     1     -33.284  16.259  -4.586  1.00 20.00     0.311 C 
BRANCH   4   6
HETATM    6  C8  UNL     1     -34.764  17.236  -2.965  1.00 20.00     0.278 C 
BRANCH   6   7
HETATM    7  C4  UNL     1     -34.381  16.948  -1.555  1.00 20.00     0.018 A 
HETATM    8  C2  UNL     1     -33.321  17.773  -0.874  1.00 20.00     0.011 A 
HETATM    9  C3  UNL     1     -34.762  17.907  -0.457  1.00 20.00    -0.012 A 
HETATM   10  C5  UNL     1     -35.211  17.390   0.866  1.00 20.00     0.010 C 
ENDBRANCH   6   7
ENDBRANCH   4   6
ENDBRANCH   2   4
TORSDOF 3
ENDMDL
MODEL 4
REMARK VINA RESULT:      -4.0      1.597      3.016
REMARK  3 active torsions:
REMARK  status: ('A' for Active; 'I' for Inactive)
REMARK    1  A    between atoms: C4_4  and  C8_8 
REMARK    2  A    between atoms: C7_7  and  N10_10 
REMARK    3  A    between atoms: C8_8  and  N10_10 
ROOT
HETATM    1  C1  UNL     1     -33.307  16.211  -4.639  1.00 20.00     0.089 C 
HETATM    2  C7  UNL     1     -33.196  15.164  -3.623  1.00 20.00     0.394 C 
HETATM    3  N9  UNL     1     -33.391  17.041  -5.444  1.00 20.00    -0.195 NA
ENDROOT
BRANCH   2   4
HETATM    4  N10 UNL     1     -34.493  14.932  -2.967  1.00 20.00     0.097 N 
HETATM    5  C6  UNL     1     -35.414  14.288  -3.916  1.00 20.00     0.311 C 
BRANCH   4   6
HETATM    6  C8  UNL     1     -35.044  16.154  -2.449  1.00 20.00     0.278 C 
BRANCH   6   7
HETATM    7  C4  UNL     1     -34.525  16.444  -1.084  1.00 20.00     0.018 A 
HETATM    8  C2  UNL     1     -33.649  17.645  -0.844  1.00 20.00     0.011 A 
HETATM    9  C3  UNL     1     -35.056  17.621  -0.307  1.00 20.00    -0.012 A 
HETATM   10  C5  UNL     1     -35.296  17.503   1.158  1.00 20.00     0.010 C 
ENDBRANCH   6   7
ENDBRANCH   4   6
ENDBRANCH   2   4
TORSDOF 3
ENDMDL
MODEL 5
REMARK VINA RESULT:      -4.0      1.300      1.866
REMARK  3 active torsions:
REMARK  status: ('A' for Active; 'I' for Inactive)
REMARK    1  A    between atoms: C4_4  and  C8_8 
REMARK    2  A    between atoms: C7_7  and  N10_10 
REMARK    3  A    between atoms: C8_8  and  N10_10 
ROOT
HETATM    1  C1  UNL     1     -35.009  13.875  -4.520  1.00 20.00     0.089 C 
HETATM    2  C7  UNL     1     -35.475  15.260  -4.582  1.00 20.00     0.394 C 
HETATM    3  N9  UNL     1     -34.644  12.775  -4.472  1.00 20.00    -0.195 NA
ENDROOT
BRANCH   2   4
HETATM    4  N10 UNL     1     -34.453  16.179  -4.057  1.00 20.00     0.097 N 
HETATM    5  C6  UNL     1     -33.238  16.082  -4.880  1.00 20.00     0.311 C 
BRANCH   4   6
HETATM    6  C8  UNL     1     -34.171  15.914  -2.673  1.00 20.00     0.278 C 
BRANCH   6   7
HETATM    7  C4  UNL     1     -34.472  17.099  -1.824  1.00 20.00     0.018 A 
HETATM    8  C2  UNL     1     -34.745  16.929  -0.353  1.00 20.00     0.011 A 
HETATM    9  C3  UNL     1     -33.466  17.579  -0.810  1.00 20.00    -0.012 A 
HETATM   10  C5  UNL     1     -33.251  19.038  -0.602  1.00 20.00     0.010 C 
ENDBRANCH   6   7
ENDBRANCH   4   6
ENDBRANCH   2   4
TORSDOF 3
ENDMDL
MODEL 6
REMARK VINA RESULT:      -3.9      3.017      5.098
REMARK  3 active torsions:
REMARK  status: ('A' for Active; 'I' for Inactive)
REMARK    1  A    between atoms: C4_4  and  C8_8 
REMARK    2  A    between atoms: C7_7  and  N10_10 
REMARK    3  A    between atoms: C8_8  and  N10_10 
ROOT
HETATM    1  C1  UNL     1     -32.443  18.727  -0.049  1.00 20.00     0.089 C 
HETATM    2  C7  UNL     1     -33.708  18.074  -0.382  1.00 20.00     0.394 C 
HETATM    3  N9  UNL     1     -31.441  19.248   0.218  1.00 20.00    -0.195 NA
ENDROOT
BRANCH   2   4
HETATM    4  N10 UNL     1     -33.657  17.491  -1.732  1.00 20.00     0.097 N 
HETATM    5  C6  UNL     1     -34.224  18.443  -2.699  1.00 20.00     0.311 C 
BRANCH   4   6
HETATM    6  C8  UNL     1     -34.338  16.226  -1.781  1.00 20.00     0.278 C 
BRANCH   6   7
HETATM    7  C4  UNL     1     -34.286  15.639  -3.149  1.00 20.00     0.018 A 
HETATM    8  C2  UNL     1     -33.000  15.060  -3.677  1.00 20.00     0.011 A 
HETATM    9  C3  UNL     1     -34.147  14.149  -3.328  1.00 20.00    -0.012 A 
HETATM   10  C5  UNL     1     -34.904  13.451  -4.404  1.00 20.00     0.010 C 
ENDBRANCH   6   7
ENDBRANCH   4   6
ENDBRANCH   2   4
TORSDOF 3
ENDMDL
MODEL 7
REMARK VINA RESULT:      -3.8      1.575      3.797
REMARK  3 active torsions:
REMARK  status: ('A' for Active; 'I' for Inactive)
REMARK    1  A    between atoms: C4_4  and  C8_8 
REMARK    2  A    between atoms: C7_7  and  N10_10 
REMARK    3  A    between atoms: C8_8  and  N10_10 
ROOT
HETATM    1  C1  UNL     1     -34.038  13.677  -4.011  1.00 20.00     0.089 C 
HETATM    2  C7  UNL     1     -33.120  14.731  -3.581  1.00 20.00     0.394 C 
HETATM    3  N9  UNL     1     -34.763  12.837  -4.352  1.00 20.00    -0.195 NA
ENDROOT
BRANCH   2   4
HETATM    4  N10 UNL     1     -33.653  16.060  -3.922  1.00 20.00     0.097 N 
HETATM    5  C6  UNL     1     -35.100  16.089  -3.658  1.00 20.00     0.311 C 
BRANCH   4   6
HETATM    6  C8  UNL     1     -33.362  16.407  -5.286  1.00 20.00     0.278 C 
BRANCH   6   7
HETATM    7  C4  UNL     1     -34.553  16.213  -6.158  1.00 20.00     0.018 A 
HETATM    8  C2  UNL     1     -34.590  16.819  -7.536  1.00 20.00     0.011 A 
HETATM    9  C3  UNL     1     -34.466  15.327  -7.373  1.00 20.00    -0.012 A 
HETATM   10  C5  UNL     1     -35.604  14.437  -7.733  1.00 20.00     0.010 C 
ENDBRANCH   6   7
ENDBRANCH   4   6
ENDBRANCH   2   4
TORSDOF 3
ENDMDL
MODEL 8
REMARK VINA RESULT:      -3.7      1.921      2.614
REMARK  3 active torsions:
REMARK  status: ('A' for Active; 'I' for Inactive)
REMARK    1  A    between atoms: C4_4  and  C8_8 
REMARK    2  A    between atoms: C7_7  and  N10_10 
REMARK    3  A    between atoms: C8_8  and  N10_10 
ROOT
HETATM    1  C1  UNL     1     -37.231  14.714  -4.223  1.00 20.00     0.089 C 
HETATM    2  C7  UNL     1     -36.056  15.259  -4.901  1.00 20.00     0.394 C 
HETATM    3  N9  UNL     1     -38.166  14.282  -3.688  1.00 20.00    -0.195 NA
ENDROOT
BRANCH   2   4
HETATM    4  N10 UNL     1     -35.026  15.655  -3.926  1.00 20.00     0.097 N 
HETATM    5  C6  UNL     1     -34.506  14.457  -3.249  1.00 20.00     0.311 C 
BRANCH   4   6
HETATM    6  C8  UNL     1     -35.539  16.610  -2.982  1.00 20.00     0.278 C 
BRANCH   6   7
HETATM    7  C4  UNL     1     -34.832  16.509  -1.675  1.00 20.00     0.018 A 
HETATM    8  C2  UNL     1     -33.636  17.379  -1.391  1.00 20.00     0.011 A 
HETATM    9  C3  UNL     1     -34.936  17.627  -0.671  1.00 20.00    -0.012 A 
HETATM   10  C5  UNL     1     -35.058  17.320   0.781  1.00 20.00     0.010 C 
ENDBRANCH   6   7
ENDBRANCH   4   6
ENDBRANCH   2   4
TORSDOF 3
ENDMDL
MODEL 9
REMARK VINA RESULT:      -3.7      2.043      4.493
REMARK  3 active torsions:
REMARK  status: ('A' for Active; 'I' for Inactive)
REMARK    1  A    between atoms: C4_4  and  C8_8 
REMARK    2  A    between atoms: C7_7  and  N10_10 
REMARK    3  A    between atoms: C8_8  and  N10_10 
ROOT
HETATM    1  C1  UNL     1     -34.777  16.063  -1.960  1.00 20.00     0.089 C 
HETATM    2  C7  UNL     1     -35.089  15.482  -3.265  1.00 20.00     0.394 C 
HETATM    3  N9  UNL     1     -34.532  16.527  -0.925  1.00 20.00    -0.195 NA
ENDROOT
BRANCH   2   4
HETATM    4  N10 UNL     1     -34.112  14.441  -3.622  1.00 20.00     0.097 N 
HETATM    5  C6  UNL     1     -32.762  15.024  -3.652  1.00 20.00     0.311 C 
BRANCH   4   6
HETATM    6  C8  UNL     1     -34.443  13.821  -4.876  1.00 20.00     0.278 C 
BRANCH   6   7
HETATM    7  C4  UNL     1     -35.027  14.806  -5.827  1.00 20.00     0.018 A 
HETATM    8  C2  UNL     1     -34.247  15.246  -7.037  1.00 20.00     0.011 A 
HETATM    9  C3  UNL     1     -35.457  14.366  -7.203  1.00 20.00    -0.012 A 
HETATM   10  C5  UNL     1     -36.704  14.912  -7.807  1.00 20.00     0.010 C 
ENDBRANCH   6   7
ENDBRANCH   4   6
ENDBRANCH   2   4
TORSDOF 3
ENDMDL
