MODEL 1
REMARK VINA RESULT:      -4.6      0.000      0.000
REMARK  3 active torsions:
REMARK  status: ('A' for Active; 'I' for Inactive)
REMARK    1  A    between atoms: C4_4  and  C8_8 
REMARK    2  A    between atoms: C8_8  and  N11_11 
REMARK    3  A    between atoms: C9_9  and  N11_11 
ROOT
HETATM    1  C1  UNL     1     -34.990  13.532  -4.217  1.00 20.00     0.095 C 
HETATM    2  C6  UNL     1     -36.711  15.152  -3.516  1.00 20.00     0.059 C 
HETATM    3  C9  UNL     1     -35.256  14.721  -3.398  1.00 20.00     0.324 C 
HETATM    4  N10 UNL     1     -34.781  12.590  -4.861  1.00 20.00    -0.195 NA
ENDROOT
BRANCH   3   5
HETATM    5  N11 UNL     1     -34.356  15.816  -3.798  1.00 20.00     0.102 N 
HETATM    6  C7  UNL     1     -32.959  15.370  -3.677  1.00 20.00     0.311 C 
BRANCH   5   7
HETATM    7  C8  UNL     1     -34.596  17.001  -3.021  1.00 20.00     0.278 C 
BRANCH   7   8
HETATM    8  C4  UNL     1     -33.879  16.946  -1.717  1.00 20.00     0.018 A 
HETATM    9  C2  UNL     1     -34.656  16.908  -0.427  1.00 20.00     0.011 A 
HETATM   10  C3  UNL     1     -33.880  18.142  -0.802  1.00 20.00    -0.012 A 
HETATM   11  C5  UNL     1     -32.648  18.510  -0.050  1.00 20.00     0.010 C 
ENDBRANCH   7   8
ENDBRANCH   5   7
ENDBRANCH   3   5
TORSDOF 3
ENDMDL
MODEL 2
REMARK VINA RESULT:      -4.5      1.450      2.016
REMARK  3 active torsions:
REMARK  status: ('A' for Active; 'I' for Inactive)
REMARK    1  A    between atoms: C4_4  and  C8_8 
REMARK    2  A    between atoms: C8_8  and  N11_11 
REMARK    3  A    between atoms: C9_9  and  N11_11 
ROOT
HETATM    1  C1  UNL     1     -36.536  14.470  -4.042  1.00 20.00     0.095 C 
HETATM    2  C6  UNL     1     -34.228  13.603  -3.996  1.00 20.00     0.059 C 
HETATM    3  C9  UNL     1     -35.141  14.751  -4.405  1.00 20.00     0.324 C 
HETATM    4  N10 UNL     1     -37.639  14.246  -3.760  1.00 20.00    -0.195 NA
ENDROOT
BRANCH   3   5
HETATM    5  N11 UNL     1     -34.705  16.010  -3.780  1.00 20.00     0.102 N 
HETATM    6  C7  UNL     1     -33.538  16.538  -4.503  1.00 20.00     0.311 C 
BRANCH   5   7
HETATM    7  C8  UNL     1     -34.418  15.830  -2.383  1.00 20.00     0.278 C 
BRANCH   7   8
HETATM    8  C4  UNL     1     -34.653  17.086  -1.618  1.00 20.00     0.018 A 
HETATM    9  C2  UNL     1     -33.538  17.701  -0.812  1.00 20.00     0.011 A 
HETATM   10  C3  UNL     1     -34.705  17.056  -0.113  1.00 20.00    -0.012 A 
HETATM   11  C5  UNL     1     -35.698  17.894   0.618  1.00 20.00     0.010 C 
ENDBRANCH   7   8
ENDBRANCH   5   7
ENDBRANCH   3   5
TORSDOF 3
ENDMDL
MODEL 3
REMARK VINA RESULT:      -4.4      1.256      2.064
REMARK  3 active torsions:
REMARK  status: ('A' for Active; 'I' for Inactive)
REMARK    1  A    between atoms: C4_4  and  C8_8 
REMARK    2  A    between atoms: C8_8  and  N11_11 
REMARK    3  A    between atoms: C9_9  and  N11_11 
ROOT
HETATM    1  C1  UNL     1     -34.844  13.874  -4.692  1.00 20.00     0.095 C 
HETATM    2  C6  UNL     1     -33.494  15.926  -4.897  1.00 20.00     0.059 C 
HETATM    3  C9  UNL     1     -34.894  15.338  -4.783  1.00 20.00     0.324 C 
HETATM    4  N10 UNL     1     -34.806  12.716  -4.624  1.00 20.00    -0.195 NA
ENDROOT
BRANCH   3   5
HETATM    5  N11 UNL     1     -35.596  15.890  -3.612  1.00 20.00     0.102 N 
HETATM    6  C7  UNL     1     -35.978  17.284  -3.882  1.00 20.00     0.311 C 
BRANCH   5   7
HETATM    7  C8  UNL     1     -34.794  15.787  -2.424  1.00 20.00     0.278 C 
BRANCH   7   8
HETATM    8  C4  UNL     1     -34.866  17.036  -1.616  1.00 20.00     0.018 A 
HETATM    9  C2  UNL     1     -33.625  17.588  -0.964  1.00 20.00     0.011 A 
HETATM   10  C3  UNL     1     -34.710  16.977  -0.118  1.00 20.00    -0.012 A 
HETATM   11  C5  UNL     1     -35.555  17.839   0.756  1.00 20.00     0.010 C 
ENDBRANCH   7   8
ENDBRANCH   5   7
ENDBRANCH   3   5
TORSDOF 3
ENDMDL
MODEL 4
REMARK VINA RESULT:      -4.3      1.379      2.345
REMARK  3 active torsions:
REMARK  status: ('A' for Active; 'I' for Inactive)
REMARK    1  A    between atoms: C4_4  and  C8_8 
REMARK    2  A    between atoms: C8_8  and  N11_11 
REMARK    3  A    between atoms: C9_9  and  N11_11 
ROOT
HETATM    1  C1  UNL     1     -33.361  16.157  -4.366  1.00 20.00     0.095 C 
HETATM    2  C6  UNL     1     -33.409  13.756  -3.811  1.00 20.00     0.059 C 
HETATM    3  C9  UNL     1     -33.615  15.177  -3.304  1.00 20.00     0.324 C 
HETATM    4  N10 UNL     1     -33.157  16.933  -5.205  1.00 20.00    -0.195 NA
ENDROOT
BRANCH   3   5
HETATM    5  N11 UNL     1     -34.979  15.349  -2.778  1.00 20.00     0.102 N 
HETATM    6  C7  UNL     1     -35.953  15.097  -3.850  1.00 20.00     0.311 C 
BRANCH   5   7
HETATM    7  C8  UNL     1     -35.158  16.655  -2.204  1.00 20.00     0.278 C 
BRANCH   7   8
HETATM    8  C4  UNL     1     -34.316  16.829  -0.988  1.00 20.00     0.018 A 
HETATM    9  C2  UNL     1     -34.937  17.304   0.300  1.00 20.00     0.011 A 
HETATM   10  C3  UNL     1     -34.013  18.210  -0.469  1.00 20.00    -0.012 A 
HETATM   11  C5  UNL     1     -32.659  18.528   0.065  1.00 20.00     0.010 C 
ENDBRANCH   7   8
ENDBRANCH   5   7
ENDBRANCH   3   5
TORSDOF 3
ENDMDL
MODEL 5
REMARK VINA RESULT:      -4.3      1.567      2.464
REMARK  3 active torsions:
REMARK  status: ('A' for Active; 'I' for Inactive)
REMARK    1  A    between atoms: C4_4  and  C8_8 
REMARK    2  A    between atoms: C8_8  and  N11_11 
REMARK    3  A    between atoms: C9_9  and  N11_11 
ROOT
HETATM    1  C1  UNL     1     -34.333  13.520  -4.107  1.00 20.00     0.095 C 
HETATM    2  C6  UNL     1     -35.523  14.488  -6.037  1.00 20.00     0.059 C 
HETATM    3  C9  UNL     1     -35.639  13.960  -4.613  1.00 20.00     0.324 C 
HETATM    4  N10 UNL     1     -33.302  13.168  -3.707  1.00 20.00    -0.195 NA
ENDROOT
BRANCH   3   5
HETATM    5  N11 UNL     1     -36.203  14.986  -3.722  1.00 20.00     0.102 N 
HETATM    6  C7  UNL     1     -37.667  14.858  -3.691  1.00 20.00     0.311 C 
BRANCH   5   7
HETATM    7  C8  UNL     1     -35.801  16.307  -4.124  1.00 20.00     0.278 C 
BRANCH   7   8
HETATM    8  C4  UNL     1     -35.173  17.046  -2.994  1.00 20.00     0.018 A 
HETATM    9  C2  UNL     1     -33.678  17.011  -2.806  1.00 20.00     0.011 A 
HETATM   10  C3  UNL     1     -34.576  16.291  -1.835  1.00 20.00    -0.012 A 
HETATM   11  C5  UNL     1     -34.741  16.802  -0.445  1.00 20.00     0.010 C 
ENDBRANCH   7   8
ENDBRANCH   5   7
ENDBRANCH   3   5
TORSDOF 3
ENDMDL
MODEL 6
REMARK VINA RESULT:      -4.3      1.764      2.800
REMARK  3 active torsions:
REMARK  status: ('A' for Active; 'I' for Inactive)
REMARK    1  A    between atoms: C4_4  and  C8_8 
REMARK    2  A    between atoms: C8_8  and  N11_11 
REMARK    3  A    between atoms: C9_9  and  N11_11 
ROOT
HETATM    1  C1  UNL     1     -35.083  13.601  -5.257  1.00 20.00     0.095 C 
HETATM    2  C6  UNL     1     -34.393  15.151  -7.046  1.00 20.00     0.059 C 
HETATM    3  C9  UNL     1     -35.454  14.805  -6.010  1.00 20.00     0.324 C 
HETATM    4  N10 UNL     1     -34.791  12.647  -4.665  1.00 20.00    -0.195 NA
ENDROOT
BRANCH   3   5
HETATM    5  N11 UNL     1     -35.664  15.930  -5.084  1.00 20.00     0.102 N 
HETATM    6  C7  UNL     1     -36.869  16.674  -5.482  1.00 20.00     0.311 C 
BRANCH   5   7
HETATM    7  C8  UNL     1     -34.512  16.788  -5.033  1.00 20.00     0.278 C 
BRANCH   7   8
HETATM    8  C4  UNL     1     -33.952  16.855  -3.654  1.00 20.00     0.018 A 
HETATM    9  C2  UNL     1     -33.108  15.724  -3.125  1.00 20.00     0.011 A 
HETATM   10  C3  UNL     1     -34.491  15.953  -2.575  1.00 20.00    -0.012 A 
HETATM   11  C5  UNL     1     -34.670  16.470  -1.189  1.00 20.00     0.010 C 
ENDBRANCH   7   8
ENDBRANCH   5   7
ENDBRANCH   3   5
TORSDOF 3
ENDMDL
MODEL 7
REMARK VINA RESULT:      -4.1      1.559      1.863
REMARK  3 active torsions:
REMARK  status: ('A' for Active; 'I' for Inactive)
REMARK    1  A    between atoms: C4_4  and  C8_8 
REMARK    2  A    between atoms: C8_8  and  N11_11 
REMARK    3  A    between atoms: C9_9  and  N11_11 
ROOT
HETATM    1  C1  UNL     1     -37.076  14.723  -4.205  1.00 20.00     0.095 C 
HETATM    2  C6  UNL     1     -35.292  14.387  -5.873  1.00 20.00     0.059 C 
HETATM    3  C9  UNL     1     -35.848  15.288  -4.778  1.00 20.00     0.324 C 
HETATM    4  N10 UNL     1     -38.049  14.279  -3.754  1.00 20.00    -0.195 NA
ENDROOT
BRANCH   3   5
HETATM    5  N11 UNL     1     -34.849  15.495  -3.717  1.00 20.00     0.102 N 
HETATM    6  C7  UNL     1     -34.216  14.211  -3.382  1.00 20.00     0.311 C 
BRANCH   5   7
HETATM    7  C8  UNL     1     -35.437  16.108  -2.557  1.00 20.00     0.278 C 
BRANCH   7   8
HETATM    8  C4  UNL     1     -34.391  16.540  -1.588  1.00 20.00     0.018 A 
HETATM    9  C2  UNL     1     -34.776  16.940  -0.188  1.00 20.00     0.011 A 
HETATM   10  C3  UNL     1     -34.303  17.983  -1.165  1.00 20.00    -0.012 A 
HETATM   11  C5  UNL     1     -32.973  18.630  -0.985  1.00 20.00     0.010 C 
ENDBRANCH   7   8
ENDBRANCH   5   7
ENDBRANCH   3   5
TORSDOF 3
ENDMDL
MODEL 8
REMARK VINA RESULT:      -4.1      1.823      2.600
REMARK  3 active torsions:
REMARK  status: ('A' for Active; 'I' for Inactive)
REMARK    1  A    between atoms: C4_4  and  C8_8 
REMARK    2  A    between atoms: C8_8  and  N11_11 
REMARK    3  A    between atoms: C9_9  and  N11_11 
ROOT
HETATM    1  C1  UNL     1     -35.272  14.509  -6.800  1.00 20.00     0.095 C 
HETATM    2  C6  UNL     1     -34.556  13.310  -4.768  1.00 20.00     0.059 C 
HETATM    3  C9  UNL     1     -34.905  14.657  -5.386  1.00 20.00     0.324 C 
HETATM    4  N10 UNL     1     -35.559  14.394  -7.918  1.00 20.00    -0.195 NA
ENDROOT
BRANCH   3   5
HETATM    5  N11 UNL     1     -36.005  15.299  -4.647  1.00 20.00     0.102 N 
HETATM    6  C7  UNL     1     -36.107  16.710  -5.047  1.00 20.00     0.311 C 
BRANCH   5   7
HETATM    7  C8  UNL     1     -35.827  15.169  -3.226  1.00 20.00     0.278 C 
BRANCH   7   8
HETATM    8  C4  UNL     1     -35.161  16.372  -2.655  1.00 20.00     0.018 A 
HETATM    9  C2  UNL     1     -33.687  16.344  -2.344  1.00 20.00     0.011 A 
HETATM   10  C3  UNL     1     -34.692  16.368  -1.223  1.00 20.00    -0.012 A 
HETATM   11  C5  UNL     1     -34.848  17.588  -0.382  1.00 20.00     0.010 C 
ENDBRANCH   7   8
ENDBRANCH   5   7
ENDBRANCH   3   5
TORSDOF 3
ENDMDL
MODEL 9
REMARK VINA RESULT:      -4.0     11.326     12.281
REMARK  3 active torsions:
REMARK  status: ('A' for Active; 'I' for Inactive)
REMARK    1  A    between atoms: C4_4  and  C8_8 
REMARK    2  A    between atoms: C8_8  and  N11_11 
REMARK    3  A    between atoms: C9_9  and  N11_11 
ROOT
HETATM    1  C1  UNL     1     -33.831   6.771   6.371  1.00 20.00     0.095 C 
HETATM    2  C6  UNL     1     -34.496   4.447   5.889  1.00 20.00     0.059 C 
HETATM    3  C9  UNL     1     -34.647   5.912   5.505  1.00 20.00     0.324 C 
HETATM    4  N10 UNL     1     -33.189   7.451   7.058  1.00 20.00    -0.195 NA
ENDROOT
BRANCH   3   5
HETATM    5  N11 UNL     1     -34.275   6.122   4.096  1.00 20.00     0.102 N 
HETATM    6  C7  UNL     1     -35.357   5.637   3.226  1.00 20.00     0.311 C 
BRANCH   5   7
HETATM    7  C8  UNL     1     -33.026   5.483   3.784  1.00 20.00     0.278 C 
BRANCH   7   8
HETATM    8  C4  UNL     1     -32.122   6.403   3.039  1.00 20.00     0.018 A 
HETATM    9  C2  UNL     1     -31.360   7.475   3.775  1.00 20.00     0.011 A 
HETATM   10  C3  UNL     1     -32.497   7.851   2.862  1.00 20.00    -0.012 A 
HETATM   11  C5  UNL     1     -32.223   8.542   1.570  1.00 20.00     0.010 C 
ENDBRANCH   7   8
ENDBRANCH   5   7
ENDBRANCH   3   5
TORSDOF 3
ENDMDL
