MODEL 1
REMARK VINA RESULT:      -5.6      0.000      0.000
REMARK  4 active torsions:
REMARK  status: ('A' for Active; 'I' for Inactive)
REMARK    1  A    between atoms: C6_6  and  C10_10 
REMARK    2  A    between atoms: C8_8  and  C9_9 
REMARK    3  A    between atoms: C9_9  and  C10_10 
REMARK    4  A    between atoms: C10_10  and  O11_11 
ROOT
HETATM    1  C1  UNL     1     -35.181   4.669   5.490  1.00 20.00    -0.031 C 
HETATM    2  C2  UNL     1     -35.170   4.776   4.156  1.00 20.00    -0.030 C 
HETATM    3  C3  UNL     1     -34.322   5.508   6.388  1.00 20.00     0.027 C 
HETATM    4  C4  UNL     1     -34.273   5.724   3.416  1.00 20.00     0.034 C 
HETATM    5  C5  UNL     1     -33.676   6.696   5.668  1.00 20.00     0.011 C 
HETATM    6  C6  UNL     1     -33.139   6.288   4.291  1.00 20.00     0.018 C 
ENDROOT
BRANCH   6   7
HETATM    7  C10 UNL     1     -32.454   7.464   3.596  1.00 20.00     0.122 C 
BRANCH   7   8
HETATM    8  C9  UNL     1     -32.348   7.234   2.086  1.00 20.00     0.032 C 
BRANCH   8   9
HETATM    9  C8  UNL     1     -31.792   8.460   1.359  1.00 20.00    -0.002 C 
HETATM   10  C7  UNL     1     -32.617   9.703   1.654  1.00 20.00     0.005 C 
ENDBRANCH   8   9
ENDBRANCH   7   8
BRANCH   7  11
HETATM   11  O11 UNL     1     -31.158   7.630   4.161  1.00 20.00    -0.395 OA
HETATM   12  H29 UNL     1     -31.078   8.567   4.400  1.00 20.00     0.210 HD
ENDBRANCH   7  11
ENDBRANCH   6   7
TORSDOF 4
ENDMDL
MODEL 2
REMARK VINA RESULT:      -5.0      0.979      1.775
REMARK  4 active torsions:
REMARK  status: ('A' for Active; 'I' for Inactive)
REMARK    1  A    between atoms: C6_6  and  C10_10 
REMARK    2  A    between atoms: C8_8  and  C9_9 
REMARK    3  A    between atoms: C9_9  and  C10_10 
REMARK    4  A    between atoms: C10_10  and  O11_11 
ROOT
HETATM    1  C1  UNL     1     -35.283   4.829   6.142  1.00 20.00    -0.031 C 
HETATM    2  C2  UNL     1     -34.481   5.781   6.635  1.00 20.00    -0.030 C 
HETATM    3  C3  UNL     1     -35.259   4.398   4.707  1.00 20.00     0.027 C 
HETATM    4  C4  UNL     1     -33.496   6.540   5.795  1.00 20.00     0.034 C 
HETATM    5  C5  UNL     1     -34.036   4.914   3.941  1.00 20.00     0.011 C 
HETATM    6  C6  UNL     1     -33.742   6.379   4.284  1.00 20.00     0.018 C 
ENDROOT
BRANCH   6   7
HETATM    7  C10 UNL     1     -32.551   6.904   3.485  1.00 20.00     0.122 C 
BRANCH   7   8
HETATM    8  C9  UNL     1     -32.993   7.920   2.428  1.00 20.00     0.032 C 
BRANCH   8   9
HETATM    9  C8  UNL     1     -31.815   8.427   1.593  1.00 20.00    -0.002 C 
HETATM   10  C7  UNL     1     -32.222   9.594   0.708  1.00 20.00     0.005 C 
ENDBRANCH   8   9
ENDBRANCH   7   8
BRANCH   7  11
HETATM   11  O11 UNL     1     -31.901   5.799   2.864  1.00 20.00    -0.395 OA
HETATM   12  H29 UNL     1     -32.584   5.315   2.375  1.00 20.00     0.210 HD
ENDBRANCH   7  11
ENDBRANCH   6   7
TORSDOF 4
ENDMDL
MODEL 3
REMARK VINA RESULT:      -4.8     10.998     12.116
REMARK  4 active torsions:
REMARK  status: ('A' for Active; 'I' for Inactive)
REMARK    1  A    between atoms: C6_6  and  C10_10 
REMARK    2  A    between atoms: C8_8  and  C9_9 
REMARK    3  A    between atoms: C9_9  and  C10_10 
REMARK    4  A    between atoms: C10_10  and  O11_11 
ROOT
HETATM    1  C1  UNL     1     -34.275  18.118  -0.565  1.00 20.00    -0.031 C 
HETATM    2  C2  UNL     1     -34.745  16.864  -0.559  1.00 20.00    -0.030 C 
HETATM    3  C3  UNL     1     -33.581  18.729  -1.745  1.00 20.00     0.027 C 
HETATM    4  C4  UNL     1     -34.597  15.927  -1.722  1.00 20.00     0.034 C 
HETATM    5  C5  UNL     1     -33.737  17.908  -3.029  1.00 20.00     0.011 C 
HETATM    6  C6  UNL     1     -33.565  16.409  -2.757  1.00 20.00     0.018 C 
ENDROOT
BRANCH   6   7
HETATM    7  C10 UNL     1     -33.675  15.598  -4.047  1.00 20.00     0.122 C 
BRANCH   7   8
HETATM    8  C9  UNL     1     -33.614  14.095  -3.767  1.00 20.00     0.032 C 
BRANCH   8   9
HETATM    9  C8  UNL     1     -34.759  13.339  -4.445  1.00 20.00    -0.002 C 
HETATM   10  C7  UNL     1     -35.934  14.258  -4.739  1.00 20.00     0.005 C 
ENDBRANCH   8   9
ENDBRANCH   7   8
BRANCH   7  11
HETATM   11  O11 UNL     1     -32.612  15.982  -4.914  1.00 20.00    -0.395 OA
HETATM   12  H29 UNL     1     -32.827  16.870  -5.238  1.00 20.00     0.210 HD
ENDBRANCH   7  11
ENDBRANCH   6   7
TORSDOF 4
ENDMDL
MODEL 4
REMARK VINA RESULT:      -4.7     11.165     12.141
REMARK  4 active torsions:
REMARK  status: ('A' for Active; 'I' for Inactive)
REMARK    1  A    between atoms: C6_6  and  C10_10 
REMARK    2  A    between atoms: C8_8  and  C9_9 
REMARK    3  A    between atoms: C9_9  and  C10_10 
REMARK    4  A    between atoms: C10_10  and  O11_11 
ROOT
HETATM    1  C1  UNL     1     -35.132  17.213  -1.900  1.00 20.00    -0.031 C 
HETATM    2  C2  UNL     1     -36.175  16.786  -2.623  1.00 20.00    -0.030 C 
HETATM    3  C3  UNL     1     -33.765  16.608  -1.996  1.00 20.00     0.027 C 
HETATM    4  C4  UNL     1     -36.093  15.634  -3.582  1.00 20.00     0.034 C 
HETATM    5  C5  UNL     1     -33.597  15.682  -3.206  1.00 20.00     0.011 C 
HETATM    6  C6  UNL     1     -34.824  14.783  -3.393  1.00 20.00     0.018 C 
ENDROOT
BRANCH   6   7
HETATM    7  C10 UNL     1     -34.634  13.829  -4.571  1.00 20.00     0.122 C 
BRANCH   7   8
HETATM    8  C9  UNL     1     -35.347  14.343  -5.825  1.00 20.00     0.032 C 
BRANCH   8   9
HETATM    9  C8  UNL     1     -34.367  14.944  -6.835  1.00 20.00    -0.002 C 
HETATM   10  C7  UNL     1     -34.397  16.463  -6.804  1.00 20.00     0.005 C 
ENDBRANCH   8   9
ENDBRANCH   7   8
BRANCH   7  11
HETATM   11  O11 UNL     1     -35.142  12.551  -4.205  1.00 20.00    -0.395 OA
HETATM   12  H29 UNL     1     -35.962  12.424  -4.707  1.00 20.00     0.210 HD
ENDBRANCH   7  11
ENDBRANCH   6   7
TORSDOF 4
ENDMDL
MODEL 5
REMARK VINA RESULT:      -4.6     11.238     12.966
REMARK  4 active torsions:
REMARK  status: ('A' for Active; 'I' for Inactive)
REMARK    1  A    between atoms: C6_6  and  C10_10 
REMARK    2  A    between atoms: C8_8  and  C9_9 
REMARK    3  A    between atoms: C9_9  and  C10_10 
REMARK    4  A    between atoms: C10_10  and  O11_11 
ROOT
HETATM    1  C1  UNL     1     -34.888  15.972  -7.548  1.00 20.00    -0.031 C 
HETATM    2  C2  UNL     1     -34.943  14.713  -7.095  1.00 20.00    -0.030 C 
HETATM    3  C3  UNL     1     -34.367  17.115  -6.731  1.00 20.00     0.027 C 
HETATM    4  C4  UNL     1     -34.518  14.319  -5.710  1.00 20.00     0.034 C 
HETATM    5  C5  UNL     1     -33.621  16.667  -5.469  1.00 20.00     0.011 C 
HETATM    6  C6  UNL     1     -34.359  15.522  -4.764  1.00 20.00     0.018 C 
ENDROOT
BRANCH   6   7
HETATM    7  C10 UNL     1     -33.637  15.110  -3.482  1.00 20.00     0.122 C 
BRANCH   7   8
HETATM    8  C9  UNL     1     -33.585  16.262  -2.476  1.00 20.00     0.032 C 
BRANCH   8   9
HETATM    9  C8  UNL     1     -34.791  16.256  -1.534  1.00 20.00    -0.002 C 
HETATM   10  C7  UNL     1     -34.559  17.149  -0.327  1.00 20.00     0.005 C 
ENDBRANCH   8   9
ENDBRANCH   7   8
BRANCH   7  11
HETATM   11  O11 UNL     1     -32.320  14.690  -3.820  1.00 20.00    -0.395 OA
HETATM   12  H29 UNL     1     -32.065  14.023  -3.164  1.00 20.00     0.210 HD
ENDBRANCH   7  11
ENDBRANCH   6   7
TORSDOF 4
ENDMDL
MODEL 6
REMARK VINA RESULT:      -4.6     10.189     11.668
REMARK  4 active torsions:
REMARK  status: ('A' for Active; 'I' for Inactive)
REMARK    1  A    between atoms: C6_6  and  C10_10 
REMARK    2  A    between atoms: C8_8  and  C9_9 
REMARK    3  A    between atoms: C9_9  and  C10_10 
REMARK    4  A    between atoms: C10_10  and  O11_11 
ROOT
HETATM    1  C1  UNL     1     -41.107   7.117  -0.981  1.00 20.00    -0.031 C 
HETATM    2  C2  UNL     1     -41.892   7.191  -2.063  1.00 20.00    -0.030 C 
HETATM    3  C3  UNL     1     -40.699   5.819  -0.351  1.00 20.00     0.027 C 
HETATM    4  C4  UNL     1     -42.472   5.985  -2.741  1.00 20.00     0.034 C 
HETATM    5  C5  UNL     1     -40.996   4.601  -1.231  1.00 20.00     0.011 C 
HETATM    6  C6  UNL     1     -42.379   4.709  -1.885  1.00 20.00     0.018 C 
ENDROOT
BRANCH   6   7
HETATM    7  C10 UNL     1     -42.691   3.471  -2.724  1.00 20.00     0.122 C 
BRANCH   7   8
HETATM    8  C9  UNL     1     -41.413   2.718  -3.101  1.00 20.00     0.032 C 
BRANCH   8   9
HETATM    9  C8  UNL     1     -41.693   1.564  -4.067  1.00 20.00    -0.002 C 
HETATM   10  C7  UNL     1     -42.480   0.452  -3.392  1.00 20.00     0.005 C 
ENDBRANCH   8   9
ENDBRANCH   7   8
BRANCH   7  11
HETATM   11  O11 UNL     1     -43.385   3.884  -3.897  1.00 20.00    -0.395 OA
HETATM   12  H29 UNL     1     -43.136   3.262  -4.599  1.00 20.00     0.210 HD
ENDBRANCH   7  11
ENDBRANCH   6   7
TORSDOF 4
ENDMDL
MODEL 7
REMARK VINA RESULT:      -4.6     11.182     13.306
REMARK  4 active torsions:
REMARK  status: ('A' for Active; 'I' for Inactive)
REMARK    1  A    between atoms: C6_6  and  C10_10 
REMARK    2  A    between atoms: C8_8  and  C9_9 
REMARK    3  A    between atoms: C9_9  and  C10_10 
REMARK    4  A    between atoms: C10_10  and  O11_11 
ROOT
HETATM    1  C1  UNL     1     -34.727  16.745  -7.631  1.00 20.00    -0.031 C 
HETATM    2  C2  UNL     1     -34.356  17.598  -6.668  1.00 20.00    -0.030 C 
HETATM    3  C3  UNL     1     -34.729  15.256  -7.452  1.00 20.00     0.027 C 
HETATM    4  C4  UNL     1     -33.871  17.153  -5.319  1.00 20.00     0.034 C 
HETATM    5  C5  UNL     1     -34.573  14.823  -5.991  1.00 20.00     0.011 C 
HETATM    6  C6  UNL     1     -33.507  15.658  -5.272  1.00 20.00     0.018 C 
ENDROOT
BRANCH   6   7
HETATM    7  C10 UNL     1     -33.322  15.192  -3.830  1.00 20.00     0.122 C 
BRANCH   7   8
HETATM    8  C9  UNL     1     -33.595  16.326  -2.838  1.00 20.00     0.032 C 
BRANCH   8   9
HETATM    9  C8  UNL     1     -34.701  15.963  -1.844  1.00 20.00    -0.002 C 
HETATM   10  C7  UNL     1     -34.627  16.822  -0.592  1.00 20.00     0.005 C 
ENDBRANCH   8   9
ENDBRANCH   7   8
BRANCH   7  11
HETATM   11  O11 UNL     1     -31.989  14.714  -3.677  1.00 20.00    -0.395 OA
HETATM   12  H29 UNL     1     -32.000  13.778  -3.930  1.00 20.00     0.210 HD
ENDBRANCH   7  11
ENDBRANCH   6   7
TORSDOF 4
ENDMDL
MODEL 8
REMARK VINA RESULT:      -4.5     10.997     11.894
REMARK  4 active torsions:
REMARK  status: ('A' for Active; 'I' for Inactive)
REMARK    1  A    between atoms: C6_6  and  C10_10 
REMARK    2  A    between atoms: C8_8  and  C9_9 
REMARK    3  A    between atoms: C9_9  and  C10_10 
REMARK    4  A    between atoms: C10_10  and  O11_11 
ROOT
HETATM    1  C1  UNL     1     -34.783  13.303  -4.237  1.00 20.00    -0.031 C 
HETATM    2  C2  UNL     1     -33.516  13.657  -3.984  1.00 20.00    -0.030 C 
HETATM    3  C3  UNL     1     -35.942  14.240  -4.082  1.00 20.00     0.027 C 
HETATM    4  C4  UNL     1     -33.127  15.019  -3.489  1.00 20.00     0.034 C 
HETATM    5  C5  UNL     1     -35.519  15.704  -3.917  1.00 20.00     0.011 C 
HETATM    6  C6  UNL     1     -34.324  15.834  -2.967  1.00 20.00     0.018 C 
ENDROOT
BRANCH   6   7
HETATM    7  C10 UNL     1     -33.934  17.298  -2.769  1.00 20.00     0.122 C 
BRANCH   7   8
HETATM    8  C9  UNL     1     -33.730  17.626  -1.288  1.00 20.00     0.032 C 
BRANCH   8   9
HETATM    9  C8  UNL     1     -34.710  16.863  -0.393  1.00 20.00    -0.002 C 
HETATM   10  C7  UNL     1     -35.076  17.669   0.843  1.00 20.00     0.005 C 
ENDBRANCH   8   9
ENDBRANCH   7   8
BRANCH   7  11
HETATM   11  O11 UNL     1     -34.962  18.117  -3.318  1.00 20.00    -0.395 OA
HETATM   12  H29 UNL     1     -35.553  17.527  -3.811  1.00 20.00     0.210 HD
ENDBRANCH   7  11
ENDBRANCH   6   7
TORSDOF 4
ENDMDL
MODEL 9
REMARK VINA RESULT:      -4.4     11.132     11.755
REMARK  4 active torsions:
REMARK  status: ('A' for Active; 'I' for Inactive)
REMARK    1  A    between atoms: C6_6  and  C10_10 
REMARK    2  A    between atoms: C8_8  and  C9_9 
REMARK    3  A    between atoms: C9_9  and  C10_10 
REMARK    4  A    between atoms: C10_10  and  O11_11 
ROOT
HETATM    1  C1  UNL     1     -34.499  13.491  -4.490  1.00 20.00    -0.031 C 
HETATM    2  C2  UNL     1     -35.768  13.838  -4.241  1.00 20.00    -0.030 C 
HETATM    3  C3  UNL     1     -33.321  14.240  -3.944  1.00 20.00     0.027 C 
HETATM    4  C4  UNL     1     -36.145  15.034  -3.416  1.00 20.00     0.034 C 
HETATM    5  C5  UNL     1     -33.695  15.232  -2.837  1.00 20.00     0.011 C 
HETATM    6  C6  UNL     1     -34.972  16.005  -3.190  1.00 20.00     0.018 C 
ENDROOT
BRANCH   6   7
HETATM    7  C10 UNL     1     -35.316  17.025  -2.106  1.00 20.00     0.122 C 
BRANCH   7   8
HETATM    8  C9  UNL     1     -34.719  16.624  -0.755  1.00 20.00     0.032 C 
BRANCH   8   9
HETATM    9  C8  UNL     1     -34.299  17.844   0.070  1.00 20.00    -0.002 C 
HETATM   10  C7  UNL     1     -32.967  18.403  -0.404  1.00 20.00     0.005 C 
ENDBRANCH   8   9
ENDBRANCH   7   8
BRANCH   7  11
HETATM   11  O11 UNL     1     -36.733  17.121  -2.010  1.00 20.00    -0.395 OA
HETATM   12  H29 UNL     1     -37.094  16.328  -2.436  1.00 20.00     0.210 HD
ENDBRANCH   7  11
ENDBRANCH   6   7
TORSDOF 4
ENDMDL
