MODEL 1
REMARK VINA RESULT:      -4.5      0.000      0.000
REMARK  3 active torsions:
REMARK  status: ('A' for Active; 'I' for Inactive)
REMARK    1  A    between atoms: C5_5  and  C9_9 
REMARK    2  A    between atoms: C8_8  and  N10_10 
REMARK    3  A    between atoms: C9_9  and  N10_10 
ROOT
HETATM    1  C1  UNL     1     -32.404   9.554   0.918  1.00 20.00     0.013 C 
HETATM    2  C2  UNL     1     -32.117   8.667   1.675  1.00 20.00    -0.087 C 
HETATM    3  C8  UNL     1     -31.761   7.586   2.598  1.00 20.00     0.364 C 
ENDROOT
BRANCH   3   4
HETATM    4  N10 UNL     1     -32.970   6.955   3.150  1.00 20.00     0.095 N 
HETATM    5  C7  UNL     1     -33.205   5.669   2.471  1.00 20.00     0.310 C 
BRANCH   4   6
HETATM    6  C9  UNL     1     -32.871   6.786   4.573  1.00 20.00     0.278 C 
BRANCH   6   7
HETATM    7  C5  UNL     1     -34.134   6.237   5.140  1.00 20.00     0.018 A 
HETATM    8  C3  UNL     1     -34.335   6.188   6.632  1.00 20.00     0.011 A 
HETATM    9  C4  UNL     1     -34.128   4.913   5.858  1.00 20.00    -0.012 A 
HETATM   10  C6  UNL     1     -35.256   3.958   5.674  1.00 20.00     0.010 C 
ENDBRANCH   6   7
ENDBRANCH   4   6
ENDBRANCH   3   4
TORSDOF 3
ENDMDL
MODEL 2
REMARK VINA RESULT:      -4.3     11.181     12.126
REMARK  3 active torsions:
REMARK  status: ('A' for Active; 'I' for Inactive)
REMARK    1  A    between atoms: C5_5  and  C9_9 
REMARK    2  A    between atoms: C8_8  and  N10_10 
REMARK    3  A    between atoms: C9_9  and  N10_10 
ROOT
HETATM    1  C1  UNL     1     -34.981  13.272  -4.434  1.00 20.00     0.013 C 
HETATM    2  C2  UNL     1     -34.049  13.964  -4.126  1.00 20.00    -0.087 C 
HETATM    3  C8  UNL     1     -32.909  14.803  -3.751  1.00 20.00     0.364 C 
ENDROOT
BRANCH   3   4
HETATM    4  N10 UNL     1     -33.249  16.229  -3.876  1.00 20.00     0.095 N 
HETATM    5  C7  UNL     1     -33.611  16.526  -5.272  1.00 20.00     0.310 C 
BRANCH   4   6
HETATM    6  C9  UNL     1     -34.303  16.598  -2.971  1.00 20.00     0.278 C 
BRANCH   6   7
HETATM    7  C5  UNL     1     -33.792  16.747  -1.580  1.00 20.00     0.018 A 
HETATM    8  C3  UNL     1     -34.750  16.991  -0.444  1.00 20.00     0.011 A 
HETATM    9  C4  UNL     1     -33.828  18.091  -0.901  1.00 20.00    -0.012 A 
HETATM   10  C6  UNL     1     -32.694  18.523  -0.038  1.00 20.00     0.010 C 
ENDBRANCH   6   7
ENDBRANCH   4   6
ENDBRANCH   3   4
TORSDOF 3
ENDMDL
MODEL 3
REMARK VINA RESULT:      -4.2      1.347      4.642
REMARK  3 active torsions:
REMARK  status: ('A' for Active; 'I' for Inactive)
REMARK    1  A    between atoms: C5_5  and  C9_9 
REMARK    2  A    between atoms: C8_8  and  N10_10 
REMARK    3  A    between atoms: C9_9  and  N10_10 
ROOT
HETATM    1  C1  UNL     1     -33.608   7.383   7.028  1.00 20.00     0.013 C 
HETATM    2  C2  UNL     1     -33.909   6.410   6.392  1.00 20.00    -0.087 C 
HETATM    3  C8  UNL     1     -34.277   5.220   5.621  1.00 20.00     0.364 C 
ENDROOT
BRANCH   3   4
HETATM    4  N10 UNL     1     -34.324   5.527   4.182  1.00 20.00     0.095 N 
HETATM    5  C7  UNL     1     -35.685   5.286   3.675  1.00 20.00     0.310 C 
BRANCH   4   6
HETATM    6  C9  UNL     1     -33.897   6.873   3.919  1.00 20.00     0.278 C 
BRANCH   6   7
HETATM    7  C5  UNL     1     -32.745   6.898   2.975  1.00 20.00     0.018 A 
HETATM    8  C3  UNL     1     -31.403   7.409   3.431  1.00 20.00     0.011 A 
HETATM    9  C4  UNL     1     -32.222   8.211   2.455  1.00 20.00    -0.012 A 
HETATM   10  C6  UNL     1     -31.786   8.333   1.036  1.00 20.00     0.010 C 
ENDBRANCH   6   7
ENDBRANCH   4   6
ENDBRANCH   3   4
TORSDOF 3
ENDMDL
MODEL 4
REMARK VINA RESULT:      -4.1     10.942     12.015
REMARK  3 active torsions:
REMARK  status: ('A' for Active; 'I' for Inactive)
REMARK    1  A    between atoms: C5_5  and  C9_9 
REMARK    2  A    between atoms: C8_8  and  N10_10 
REMARK    3  A    between atoms: C9_9  and  N10_10 
ROOT
HETATM    1  C1  UNL     1     -34.644  15.017  -6.709  1.00 20.00     0.013 C 
HETATM    2  C2  UNL     1     -34.734  14.272  -5.772  1.00 20.00    -0.087 C 
HETATM    3  C8  UNL     1     -34.847  13.357  -4.633  1.00 20.00     0.364 C 
ENDROOT
BRANCH   3   4
HETATM    4  N10 UNL     1     -34.300  13.975  -3.414  1.00 20.00     0.095 N 
HETATM    5  C7  UNL     1     -32.869  14.263  -3.611  1.00 20.00     0.310 C 
BRANCH   4   6
HETATM    6  C9  UNL     1     -35.028  15.160  -3.055  1.00 20.00     0.278 C 
BRANCH   6   7
HETATM    7  C5  UNL     1     -34.168  16.114  -2.301  1.00 20.00     0.018 A 
HETATM    8  C3  UNL     1     -34.598  16.616  -0.948  1.00 20.00     0.011 A 
HETATM    9  C4  UNL     1     -34.597  17.547  -2.132  1.00 20.00    -0.012 A 
HETATM   10  C6  UNL     1     -33.593  18.644  -2.219  1.00 20.00     0.010 C 
ENDBRANCH   6   7
ENDBRANCH   4   6
ENDBRANCH   3   4
TORSDOF 3
ENDMDL
MODEL 5
REMARK VINA RESULT:      -4.0     11.347     12.989
REMARK  3 active torsions:
REMARK  status: ('A' for Active; 'I' for Inactive)
REMARK    1  A    between atoms: C5_5  and  C9_9 
REMARK    2  A    between atoms: C8_8  and  N10_10 
REMARK    3  A    between atoms: C9_9  and  N10_10 
ROOT
HETATM    1  C1  UNL     1     -34.752  16.740  -0.672  1.00 20.00     0.013 C 
HETATM    2  C2  UNL     1     -34.403  16.273  -1.721  1.00 20.00    -0.087 C 
HETATM    3  C8  UNL     1     -33.972  15.706  -3.002  1.00 20.00     0.364 C 
ENDROOT
BRANCH   3   4
HETATM    4  N10 UNL     1     -34.881  14.628  -3.424  1.00 20.00     0.095 N 
HETATM    5  C7  UNL     1     -36.263  15.134  -3.447  1.00 20.00     0.310 C 
BRANCH   4   6
HETATM    6  C9  UNL     1     -34.498  14.090  -4.700  1.00 20.00     0.278 C 
BRANCH   6   7
HETATM    7  C5  UNL     1     -35.060  14.900  -5.817  1.00 20.00     0.018 A 
HETATM    8  C3  UNL     1     -34.789  14.510  -7.246  1.00 20.00     0.011 A 
HETATM    9  C4  UNL     1     -34.151  15.746  -6.669  1.00 20.00    -0.012 A 
HETATM   10  C6  UNL     1     -34.591  17.095  -7.122  1.00 20.00     0.010 C 
ENDBRANCH   6   7
ENDBRANCH   4   6
ENDBRANCH   3   4
TORSDOF 3
ENDMDL
MODEL 6
REMARK VINA RESULT:      -4.0      0.949      5.102
REMARK  3 active torsions:
REMARK  status: ('A' for Active; 'I' for Inactive)
REMARK    1  A    between atoms: C5_5  and  C9_9 
REMARK    2  A    between atoms: C8_8  and  N10_10 
REMARK    3  A    between atoms: C9_9  and  N10_10 
ROOT
HETATM    1  C1  UNL     1     -35.176   4.289   5.974  1.00 20.00     0.013 C 
HETATM    2  C2  UNL     1     -34.527   5.193   5.523  1.00 20.00    -0.087 C 
HETATM    3  C8  UNL     1     -33.736   6.299   4.978  1.00 20.00     0.364 C 
ENDROOT
BRANCH   3   4
HETATM    4  N10 UNL     1     -33.024   5.878   3.761  1.00 20.00     0.095 N 
HETATM    5  C7  UNL     1     -33.998   5.629   2.685  1.00 20.00     0.310 C 
BRANCH   4   6
HETATM    6  C9  UNL     1     -32.043   6.849   3.365  1.00 20.00     0.278 C 
BRANCH   6   7
HETATM    7  C5  UNL     1     -32.571   7.746   2.299  1.00 20.00     0.018 A 
HETATM    8  C3  UNL     1     -31.742   8.037   1.075  1.00 20.00     0.011 A 
HETATM    9  C4  UNL     1     -31.977   9.116   2.100  1.00 20.00    -0.012 A 
HETATM   10  C6  UNL     1     -32.857  10.273   1.779  1.00 20.00     0.010 C 
ENDBRANCH   6   7
ENDBRANCH   4   6
ENDBRANCH   3   4
TORSDOF 3
ENDMDL
MODEL 7
REMARK VINA RESULT:      -4.0     11.111     12.147
REMARK  3 active torsions:
REMARK  status: ('A' for Active; 'I' for Inactive)
REMARK    1  A    between atoms: C5_5  and  C9_9 
REMARK    2  A    between atoms: C8_8  and  N10_10 
REMARK    3  A    between atoms: C9_9  and  N10_10 
ROOT
HETATM    1  C1  UNL     1     -35.201  17.467   0.894  1.00 20.00     0.013 C 
HETATM    2  C2  UNL     1     -34.705  17.173  -0.159  1.00 20.00    -0.087 C 
HETATM    3  C8  UNL     1     -34.095  16.818  -1.443  1.00 20.00     0.364 C 
ENDROOT
BRANCH   3   4
HETATM    4  N10 UNL     1     -34.952  15.878  -2.183  1.00 20.00     0.095 N 
HETATM    5  C7  UNL     1     -36.037  16.622  -2.844  1.00 20.00     0.310 C 
BRANCH   4   6
HETATM    6  C9  UNL     1     -34.192  15.108  -3.128  1.00 20.00     0.278 C 
BRANCH   6   7
HETATM    7  C5  UNL     1     -35.073  14.512  -4.171  1.00 20.00     0.018 A 
HETATM    8  C3  UNL     1     -34.818  13.114  -4.669  1.00 20.00     0.011 A 
HETATM    9  C4  UNL     1     -34.553  14.294  -5.567  1.00 20.00    -0.012 A 
HETATM   10  C6  UNL     1     -35.431  14.552  -6.742  1.00 20.00     0.010 C 
ENDBRANCH   6   7
ENDBRANCH   4   6
ENDBRANCH   3   4
TORSDOF 3
ENDMDL
MODEL 8
REMARK VINA RESULT:      -4.0     10.862     13.264
REMARK  3 active torsions:
REMARK  status: ('A' for Active; 'I' for Inactive)
REMARK    1  A    between atoms: C5_5  and  C9_9 
REMARK    2  A    between atoms: C8_8  and  N10_10 
REMARK    3  A    between atoms: C9_9  and  N10_10 
ROOT
HETATM    1  C1  UNL     1     -34.516  16.915  -0.578  1.00 20.00     0.013 C 
HETATM    2  C2  UNL     1     -34.643  16.284  -1.592  1.00 20.00    -0.087 C 
HETATM    3  C8  UNL     1     -34.806  15.515  -2.828  1.00 20.00     0.364 C 
ENDROOT
BRANCH   3   4
HETATM    4  N10 UNL     1     -33.495  15.195  -3.417  1.00 20.00     0.095 N 
HETATM    5  C7  UNL     1     -33.458  13.769  -3.783  1.00 20.00     0.310 C 
BRANCH   4   6
HETATM    6  C9  UNL     1     -33.209  16.034  -4.547  1.00 20.00     0.278 C 
BRANCH   6   7
HETATM    7  C5  UNL     1     -34.360  16.081  -5.490  1.00 20.00     0.018 A 
HETATM    8  C3  UNL     1     -34.201  15.586  -6.904  1.00 20.00     0.011 A 
HETATM    9  C4  UNL     1     -34.362  17.059  -6.634  1.00 20.00    -0.012 A 
HETATM   10  C6  UNL     1     -35.619  17.757  -7.020  1.00 20.00     0.010 C 
ENDBRANCH   6   7
ENDBRANCH   4   6
ENDBRANCH   3   4
TORSDOF 3
ENDMDL
MODEL 9
REMARK VINA RESULT:      -3.9     10.900     12.444
REMARK  3 active torsions:
REMARK  status: ('A' for Active; 'I' for Inactive)
REMARK    1  A    between atoms: C5_5  and  C9_9 
REMARK    2  A    between atoms: C8_8  and  N10_10 
REMARK    3  A    between atoms: C9_9  and  N10_10 
ROOT
HETATM    1  C1  UNL     1     -34.008  17.933  -6.189  1.00 20.00     0.013 C 
HETATM    2  C2  UNL     1     -33.616  17.093  -5.426  1.00 20.00    -0.087 C 
HETATM    3  C8  UNL     1     -33.132  16.071  -4.494  1.00 20.00     0.364 C 
ENDROOT
BRANCH   3   4
HETATM    4  N10 UNL     1     -34.231  15.182  -4.082  1.00 20.00     0.095 N 
HETATM    5  C7  UNL     1     -33.681  13.873  -3.693  1.00 20.00     0.310 C 
BRANCH   4   6
HETATM    6  C9  UNL     1     -35.005  15.762  -3.020  1.00 20.00     0.278 C 
BRANCH   6   7
HETATM    7  C5  UNL     1     -34.127  16.385  -1.990  1.00 20.00     0.018 A 
HETATM    8  C3  UNL     1     -34.660  16.665  -0.610  1.00 20.00     0.011 A 
HETATM    9  C4  UNL     1     -34.366  17.805  -1.550  1.00 20.00    -0.012 A 
HETATM   10  C6  UNL     1     -33.214  18.712  -1.289  1.00 20.00     0.010 C 
ENDBRANCH   6   7
ENDBRANCH   4   6
ENDBRANCH   3   4
TORSDOF 3
ENDMDL
