MODEL 1
REMARK VINA RESULT:      -4.6      0.000      0.000
REMARK  3 active torsions:
REMARK  status: ('A' for Active; 'I' for Inactive)
REMARK    1  A    between atoms: C5_5  and  C9_9 
REMARK    2  A    between atoms: C8_8  and  N10_10 
REMARK    3  A    between atoms: C9_9  and  N10_10 
ROOT
HETATM    1  C1  UNL     1     -32.147   9.162   0.826  1.00 20.00     0.013 C 
HETATM    2  C2  UNL     1     -32.145   8.511   1.835  1.00 20.00    -0.087 C 
HETATM    3  C8  UNL     1     -32.139   7.722   3.069  1.00 20.00     0.364 C 
ENDROOT
BRANCH   3   4
HETATM    4  N10 UNL     1     -33.007   6.541   2.934  1.00 20.00     0.095 N 
HETATM    5  C7  UNL     1     -32.186   5.320   2.988  1.00 20.00     0.310 C 
BRANCH   4   6
HETATM    6  C9  UNL     1     -34.034   6.528   3.939  1.00 20.00     0.278 C 
BRANCH   6   7
HETATM    7  C5  UNL     1     -33.474   6.191   5.277  1.00 20.00     0.018 A 
HETATM    8  C3  UNL     1     -34.234   6.542   6.530  1.00 20.00     0.011 A 
HETATM    9  C4  UNL     1     -34.049   5.097   6.146  1.00 20.00    -0.012 A 
HETATM   10  C6  UNL     1     -35.219   4.275   5.727  1.00 20.00     0.010 C 
ENDBRANCH   6   7
ENDBRANCH   4   6
ENDBRANCH   3   4
TORSDOF 3
ENDMDL
MODEL 2
REMARK VINA RESULT:      -4.3     10.832     11.831
REMARK  3 active torsions:
REMARK  status: ('A' for Active; 'I' for Inactive)
REMARK    1  A    between atoms: C5_5  and  C9_9 
REMARK    2  A    between atoms: C8_8  and  N10_10 
REMARK    3  A    between atoms: C9_9  and  N10_10 
ROOT
HETATM    1  C1  UNL     1     -34.662  14.802  -6.718  1.00 20.00     0.013 C 
HETATM    2  C2  UNL     1     -34.888  14.158  -5.730  1.00 20.00    -0.087 C 
HETATM    3  C8  UNL     1     -35.167  13.370  -4.527  1.00 20.00     0.364 C 
ENDROOT
BRANCH   3   4
HETATM    4  N10 UNL     1     -34.446  13.918  -3.368  1.00 20.00     0.095 N 
HETATM    5  C7  UNL     1     -33.002  13.931  -3.649  1.00 20.00     0.310 C 
BRANCH   4   6
HETATM    6  C9  UNL     1     -34.926  15.228  -3.024  1.00 20.00     0.278 C 
BRANCH   6   7
HETATM    7  C5  UNL     1     -33.798  16.153  -2.723  1.00 20.00     0.018 A 
HETATM    8  C3  UNL     1     -34.005  17.645  -2.769  1.00 20.00     0.011 A 
HETATM    9  C4  UNL     1     -33.733  16.967  -1.452  1.00 20.00    -0.012 A 
HETATM   10  C6  UNL     1     -34.793  16.903  -0.406  1.00 20.00     0.010 C 
ENDBRANCH   6   7
ENDBRANCH   4   6
ENDBRANCH   3   4
TORSDOF 3
ENDMDL
MODEL 3
REMARK VINA RESULT:      -4.1     10.945     13.134
REMARK  3 active torsions:
REMARK  status: ('A' for Active; 'I' for Inactive)
REMARK    1  A    between atoms: C5_5  and  C9_9 
REMARK    2  A    between atoms: C8_8  and  N10_10 
REMARK    3  A    between atoms: C9_9  and  N10_10 
ROOT
HETATM    1  C1  UNL     1     -34.557  16.885  -0.514  1.00 20.00     0.013 C 
HETATM    2  C2  UNL     1     -34.693  16.325  -1.567  1.00 20.00    -0.087 C 
HETATM    3  C8  UNL     1     -34.866  15.643  -2.852  1.00 20.00     0.364 C 
ENDROOT
BRANCH   3   4
HETATM    4  N10 UNL     1     -33.565  15.227  -3.399  1.00 20.00     0.095 N 
HETATM    5  C7  UNL     1     -33.628  13.810  -3.790  1.00 20.00     0.310 C 
BRANCH   4   6
HETATM    6  C9  UNL     1     -33.170  16.059  -4.502  1.00 20.00     0.278 C 
BRANCH   6   7
HETATM    7  C5  UNL     1     -34.350  16.703  -5.142  1.00 20.00     0.018 A 
HETATM    8  C3  UNL     1     -34.183  17.524  -6.394  1.00 20.00     0.011 A 
HETATM    9  C4  UNL     1     -34.930  16.218  -6.450  1.00 20.00    -0.012 A 
HETATM   10  C6  UNL     1     -34.363  15.058  -7.194  1.00 20.00     0.010 C 
ENDBRANCH   6   7
ENDBRANCH   4   6
ENDBRANCH   3   4
TORSDOF 3
ENDMDL
MODEL 4
REMARK VINA RESULT:      -4.1     11.119     12.312
REMARK  3 active torsions:
REMARK  status: ('A' for Active; 'I' for Inactive)
REMARK    1  A    between atoms: C5_5  and  C9_9 
REMARK    2  A    between atoms: C8_8  and  N10_10 
REMARK    3  A    between atoms: C9_9  and  N10_10 
ROOT
HETATM    1  C1  UNL     1     -35.008  17.353   0.704  1.00 20.00     0.013 C 
HETATM    2  C2  UNL     1     -34.763  16.910  -0.385  1.00 20.00    -0.087 C 
HETATM    3  C8  UNL     1     -34.459  16.368  -1.711  1.00 20.00     0.364 C 
ENDROOT
BRANCH   3   4
HETATM    4  N10 UNL     1     -35.556  16.647  -2.651  1.00 20.00     0.095 N 
HETATM    5  C7  UNL     1     -35.147  17.710  -3.581  1.00 20.00     0.310 C 
BRANCH   4   6
HETATM    6  C9  UNL     1     -35.959  15.460  -3.354  1.00 20.00     0.278 C 
BRANCH   6   7
HETATM    7  C5  UNL     1     -34.811  14.529  -3.542  1.00 20.00     0.018 A 
HETATM    8  C3  UNL     1     -35.001  13.224  -4.269  1.00 20.00     0.011 A 
HETATM    9  C4  UNL     1     -34.156  14.308  -4.885  1.00 20.00    -0.012 A 
HETATM   10  C6  UNL     1     -34.612  15.005  -6.121  1.00 20.00     0.010 C 
ENDBRANCH   6   7
ENDBRANCH   4   6
ENDBRANCH   3   4
TORSDOF 3
ENDMDL
MODEL 5
REMARK VINA RESULT:      -4.1     11.250     12.085
REMARK  3 active torsions:
REMARK  status: ('A' for Active; 'I' for Inactive)
REMARK    1  A    between atoms: C5_5  and  C9_9 
REMARK    2  A    between atoms: C8_8  and  N10_10 
REMARK    3  A    between atoms: C9_9  and  N10_10 
ROOT
HETATM    1  C1  UNL     1     -34.969  13.273  -4.487  1.00 20.00     0.013 C 
HETATM    2  C2  UNL     1     -34.079  13.974  -4.090  1.00 20.00    -0.087 C 
HETATM    3  C8  UNL     1     -32.988  14.824  -3.606  1.00 20.00     0.364 C 
ENDROOT
BRANCH   3   4
HETATM    4  N10 UNL     1     -33.442  16.215  -3.453  1.00 20.00     0.095 N 
HETATM    5  C7  UNL     1     -33.563  16.840  -4.780  1.00 20.00     0.310 C 
BRANCH   4   6
HETATM    6  C9  UNL     1     -34.679  16.285  -2.725  1.00 20.00     0.278 C 
BRANCH   6   7
HETATM    7  C5  UNL     1     -34.437  16.457  -1.266  1.00 20.00     0.018 A 
HETATM    8  C3  UNL     1     -33.657  17.641  -0.758  1.00 20.00     0.011 A 
HETATM    9  C4  UNL     1     -35.126  17.524  -0.448  1.00 20.00    -0.012 A 
HETATM   10  C6  UNL     1     -36.098  18.484  -1.044  1.00 20.00     0.010 C 
ENDBRANCH   6   7
ENDBRANCH   4   6
ENDBRANCH   3   4
TORSDOF 3
ENDMDL
MODEL 6
REMARK VINA RESULT:      -4.0     11.598     13.084
REMARK  3 active torsions:
REMARK  status: ('A' for Active; 'I' for Inactive)
REMARK    1  A    between atoms: C5_5  and  C9_9 
REMARK    2  A    between atoms: C8_8  and  N10_10 
REMARK    3  A    between atoms: C9_9  and  N10_10 
ROOT
HETATM    1  C1  UNL     1     -34.746  16.925  -0.522  1.00 20.00     0.013 C 
HETATM    2  C2  UNL     1     -34.217  16.559  -1.535  1.00 20.00    -0.087 C 
HETATM    3  C8  UNL     1     -33.568  16.108  -2.769  1.00 20.00     0.364 C 
ENDROOT
BRANCH   3   4
HETATM    4  N10 UNL     1     -34.100  16.836  -3.932  1.00 20.00     0.095 N 
HETATM    5  C7  UNL     1     -33.746  18.260  -3.823  1.00 20.00     0.310 C 
BRANCH   4   6
HETATM    6  C9  UNL     1     -33.627  16.270  -5.165  1.00 20.00     0.278 C 
BRANCH   6   7
HETATM    7  C5  UNL     1     -34.756  15.770  -5.997  1.00 20.00     0.018 A 
HETATM    8  C3  UNL     1     -34.497  14.839  -7.152  1.00 20.00     0.011 A 
HETATM    9  C4  UNL     1     -35.237  14.339  -5.940  1.00 20.00    -0.012 A 
HETATM   10  C6  UNL     1     -34.614  13.323  -5.045  1.00 20.00     0.010 C 
ENDBRANCH   6   7
ENDBRANCH   4   6
ENDBRANCH   3   4
TORSDOF 3
ENDMDL
MODEL 7
REMARK VINA RESULT:      -3.9     11.300     11.843
REMARK  3 active torsions:
REMARK  status: ('A' for Active; 'I' for Inactive)
REMARK    1  A    between atoms: C5_5  and  C9_9 
REMARK    2  A    between atoms: C8_8  and  N10_10 
REMARK    3  A    between atoms: C9_9  and  N10_10 
ROOT
HETATM    1  C1  UNL     1     -34.497  13.189  -4.916  1.00 20.00     0.013 C 
HETATM    2  C2  UNL     1     -34.531  14.010  -4.041  1.00 20.00    -0.087 C 
HETATM    3  C8  UNL     1     -34.569  15.008  -2.969  1.00 20.00     0.364 C 
ENDROOT
BRANCH   3   4
HETATM    4  N10 UNL     1     -35.571  16.045  -3.260  1.00 20.00     0.095 N 
HETATM    5  C7  UNL     1     -36.877  15.411  -3.502  1.00 20.00     0.310 C 
BRANCH   4   6
HETATM    6  C9  UNL     1     -35.646  17.013  -2.201  1.00 20.00     0.278 C 
BRANCH   6   7
HETATM    7  C5  UNL     1     -34.705  16.678  -1.097  1.00 20.00     0.018 A 
HETATM    8  C3  UNL     1     -33.722  17.705  -0.598  1.00 20.00     0.011 A 
HETATM    9  C4  UNL     1     -34.848  17.252   0.294  1.00 20.00    -0.012 A 
HETATM   10  C6  UNL     1     -35.942  18.194   0.661  1.00 20.00     0.010 C 
ENDBRANCH   6   7
ENDBRANCH   4   6
ENDBRANCH   3   4
TORSDOF 3
ENDMDL
MODEL 8
REMARK VINA RESULT:      -3.9     10.071     10.948
REMARK  3 active torsions:
REMARK  status: ('A' for Active; 'I' for Inactive)
REMARK    1  A    between atoms: C5_5  and  C9_9 
REMARK    2  A    between atoms: C8_8  and  N10_10 
REMARK    3  A    between atoms: C9_9  and  N10_10 
ROOT
HETATM    1  C1  UNL     1     -42.298   7.755  -1.491  1.00 20.00     0.013 C 
HETATM    2  C2  UNL     1     -41.574   6.999  -0.903  1.00 20.00    -0.087 C 
HETATM    3  C8  UNL     1     -40.686   6.082  -0.184  1.00 20.00     0.364 C 
ENDROOT
BRANCH   3   4
HETATM    4  N10 UNL     1     -41.151   4.693  -0.323  1.00 20.00     0.095 N 
HETATM    5  C7  UNL     1     -42.463   4.547   0.326  1.00 20.00     0.310 C 
BRANCH   4   6
HETATM    6  C9  UNL     1     -41.201   4.293  -1.703  1.00 20.00     0.278 C 
BRANCH   6   7
HETATM    7  C5  UNL     1     -42.475   3.586  -2.013  1.00 20.00     0.018 A 
HETATM    8  C3  UNL     1     -43.151   3.786  -3.345  1.00 20.00     0.011 A 
HETATM    9  C4  UNL     1     -42.551   2.448  -3.003  1.00 20.00    -0.012 A 
HETATM   10  C6  UNL     1     -41.356   1.949  -3.741  1.00 20.00     0.010 C 
ENDBRANCH   6   7
ENDBRANCH   4   6
ENDBRANCH   3   4
TORSDOF 3
ENDMDL
MODEL 9
REMARK VINA RESULT:      -3.8     11.710     12.649
REMARK  3 active torsions:
REMARK  status: ('A' for Active; 'I' for Inactive)
REMARK    1  A    between atoms: C5_5  and  C9_9 
REMARK    2  A    between atoms: C8_8  and  N10_10 
REMARK    3  A    between atoms: C9_9  and  N10_10 
ROOT
HETATM    1  C1  UNL     1     -34.628  14.879  -7.332  1.00 20.00     0.013 C 
HETATM    2  C2  UNL     1     -34.156  15.608  -6.503  1.00 20.00    -0.087 C 
HETATM    3  C8  UNL     1     -33.577  16.501  -5.496  1.00 20.00     0.364 C 
ENDROOT
BRANCH   3   4
HETATM    4  N10 UNL     1     -33.945  16.064  -4.140  1.00 20.00     0.095 N 
HETATM    5  C7  UNL     1     -32.959  15.086  -3.655  1.00 20.00     0.310 C 
BRANCH   4   6
HETATM    6  C9  UNL     1     -34.062  17.181  -3.243  1.00 20.00     0.278 C 
BRANCH   6   7
HETATM    7  C5  UNL     1     -33.908  16.751  -1.826  1.00 20.00     0.018 A 
HETATM    8  C3  UNL     1     -33.471  17.739  -0.775  1.00 20.00     0.011 A 
HETATM    9  C4  UNL     1     -34.868  17.177  -0.739  1.00 20.00    -0.012 A 
HETATM   10  C6  UNL     1     -36.040  18.057  -1.008  1.00 20.00     0.010 C 
ENDBRANCH   6   7
ENDBRANCH   4   6
ENDBRANCH   3   4
TORSDOF 3
ENDMDL
