MODEL 1
REMARK VINA RESULT:      -4.8      0.000      0.000
REMARK  2 active torsions:
REMARK  status: ('A' for Active; 'I' for Inactive)
REMARK    1  A    between atoms: C3_3  and  C8_8 
REMARK    2  A    between atoms: C10_10  and  N11_11 
ROOT
HETATM    1  C1  UNL     1     -34.131  18.031   0.402  1.00 20.00     0.013 C 
HETATM    2  C2  UNL     1     -34.396  17.217  -0.441  1.00 20.00    -0.087 C 
HETATM    3  C10 UNL     1     -34.724  16.223  -1.466  1.00 20.00     0.364 C 
ENDROOT
BRANCH   3   4
HETATM    4  N11 UNL     1     -33.737  16.247  -2.542  1.00 20.00     0.100 N 
HETATM    5  C6  UNL     1     -33.807  17.479  -3.336  1.00 20.00     0.273 C 
HETATM    6  C4  UNL     1     -35.017  17.553  -4.271  1.00 20.00     0.031 C 
HETATM    7  C5  UNL     1     -35.102  16.321  -5.166  1.00 20.00     0.015 C 
HETATM    8  C8  UNL     1     -35.031  15.038  -4.338  1.00 20.00     0.083 C 
HETATM    9  C7  UNL     1     -33.817  15.056  -3.398  1.00 20.00     0.285 C 
BRANCH   8  10
HETATM   10  C3  UNL     1     -34.952  13.848  -5.248  1.00 20.00     0.129 C 
HETATM   11  C9  UNL     1     -35.111  14.111  -6.722  1.00 20.00     0.091 C 
HETATM   12  O12 UNL     1     -34.763  12.714  -4.811  1.00 20.00    -0.298 OA
ENDBRANCH   8  10
ENDBRANCH   3   4
TORSDOF 2
ENDMDL
MODEL 2
REMARK VINA RESULT:      -4.6      1.420      1.690
REMARK  2 active torsions:
REMARK  status: ('A' for Active; 'I' for Inactive)
REMARK    1  A    between atoms: C3_3  and  C8_8 
REMARK    2  A    between atoms: C10_10  and  N11_11 
ROOT
HETATM    1  C1  UNL     1     -32.309  18.823   0.036  1.00 20.00     0.013 C 
HETATM    2  C2  UNL     1     -33.116  18.080  -0.457  1.00 20.00    -0.087 C 
HETATM    3  C10 UNL     1     -34.100  17.174  -1.051  1.00 20.00     0.364 C 
ENDROOT
BRANCH   3   4
HETATM    4  N11 UNL     1     -34.078  17.271  -2.508  1.00 20.00     0.100 N 
HETATM    5  C6  UNL     1     -35.376  17.674  -3.060  1.00 20.00     0.273 C 
HETATM    6  C4  UNL     1     -36.440  16.574  -3.023  1.00 20.00     0.031 C 
HETATM    7  C5  UNL     1     -35.938  15.294  -3.684  1.00 20.00     0.015 C 
HETATM    8  C8  UNL     1     -34.587  14.875  -3.107  1.00 20.00     0.083 C 
HETATM    9  C7  UNL     1     -33.587  16.040  -3.141  1.00 20.00     0.285 C 
BRANCH   8  10
HETATM   10  C3  UNL     1     -34.040  13.712  -3.882  1.00 20.00     0.129 C 
HETATM   11  C9  UNL     1     -34.857  13.235  -5.053  1.00 20.00     0.091 C 
HETATM   12  O12 UNL     1     -32.975  13.178  -3.577  1.00 20.00    -0.298 OA
ENDBRANCH   8  10
ENDBRANCH   3   4
TORSDOF 2
ENDMDL
MODEL 3
REMARK VINA RESULT:      -4.5      1.713      2.044
REMARK  2 active torsions:
REMARK  status: ('A' for Active; 'I' for Inactive)
REMARK    1  A    between atoms: C3_3  and  C8_8 
REMARK    2  A    between atoms: C10_10  and  N11_11 
ROOT
HETATM    1  C1  UNL     1     -34.802  17.042  -0.027  1.00 20.00     0.013 C 
HETATM    2  C2  UNL     1     -34.336  17.024  -1.135  1.00 20.00    -0.087 C 
HETATM    3  C10 UNL     1     -33.766  17.009  -2.483  1.00 20.00     0.364 C 
ENDROOT
BRANCH   3   4
HETATM    4  N11 UNL     1     -33.775  15.655  -3.032  1.00 20.00     0.100 N 
HETATM    5  C6  UNL     1     -33.016  15.556  -4.283  1.00 20.00     0.273 C 
HETATM    6  C4  UNL     1     -33.714  16.186  -5.491  1.00 20.00     0.031 C 
HETATM    7  C5  UNL     1     -35.127  15.638  -5.664  1.00 20.00     0.015 C 
HETATM    8  C8  UNL     1     -35.917  15.745  -4.361  1.00 20.00     0.083 C 
HETATM    9  C7  UNL     1     -35.137  15.127  -3.191  1.00 20.00     0.285 C 
BRANCH   8  10
HETATM   10  C3  UNL     1     -37.241  15.054  -4.510  1.00 20.00     0.129 C 
HETATM   11  C9  UNL     1     -38.166  15.586  -5.571  1.00 20.00     0.091 C 
HETATM   12  O12 UNL     1     -37.552  14.098  -3.802  1.00 20.00    -0.298 OA
ENDBRANCH   8  10
ENDBRANCH   3   4
TORSDOF 2
ENDMDL
MODEL 4
REMARK VINA RESULT:      -4.5      1.239      1.813
REMARK  2 active torsions:
REMARK  status: ('A' for Active; 'I' for Inactive)
REMARK    1  A    between atoms: C3_3  and  C8_8 
REMARK    2  A    between atoms: C10_10  and  N11_11 
ROOT
HETATM    1  C1  UNL     1     -34.729  16.979  -0.518  1.00 20.00     0.013 C 
HETATM    2  C2  UNL     1     -34.744  17.336  -1.665  1.00 20.00    -0.087 C 
HETATM    3  C10 UNL     1     -34.767  17.775  -3.062  1.00 20.00     0.364 C 
ENDROOT
BRANCH   3   4
HETATM    4  N11 UNL     1     -33.597  17.274  -3.779  1.00 20.00     0.100 N 
HETATM    5  C6  UNL     1     -33.596  17.672  -5.191  1.00 20.00     0.273 C 
HETATM    6  C4  UNL     1     -34.609  16.916  -6.055  1.00 20.00     0.031 C 
HETATM    7  C5  UNL     1     -34.442  15.407  -5.913  1.00 20.00     0.015 C 
HETATM    8  C8  UNL     1     -34.445  14.993  -4.442  1.00 20.00     0.083 C 
HETATM    9  C7  UNL     1     -33.435  15.821  -3.634  1.00 20.00     0.285 C 
BRANCH   8  10
HETATM   10  C3  UNL     1     -34.118  13.534  -4.323  1.00 20.00     0.129 C 
HETATM   11  C9  UNL     1     -32.894  13.178  -3.523  1.00 20.00     0.091 C 
HETATM   12  O12 UNL     1     -34.818  12.671  -4.850  1.00 20.00    -0.298 OA
ENDBRANCH   8  10
ENDBRANCH   3   4
TORSDOF 2
ENDMDL
MODEL 5
REMARK VINA RESULT:      -4.4      1.978      3.140
REMARK  2 active torsions:
REMARK  status: ('A' for Active; 'I' for Inactive)
REMARK    1  A    between atoms: C3_3  and  C8_8 
REMARK    2  A    between atoms: C10_10  and  N11_11 
ROOT
HETATM    1  C1  UNL     1     -34.775  17.005  -0.595  1.00 20.00     0.013 C 
HETATM    2  C2  UNL     1     -34.587  16.269  -1.526  1.00 20.00    -0.087 C 
HETATM    3  C10 UNL     1     -34.353  15.370  -2.658  1.00 20.00     0.364 C 
ENDROOT
BRANCH   3   4
HETATM    4  N11 UNL     1     -35.493  15.383  -3.571  1.00 20.00     0.100 N 
HETATM    5  C6  UNL     1     -35.758  14.060  -4.150  1.00 20.00     0.273 C 
HETATM    6  C4  UNL     1     -34.747  13.630  -5.215  1.00 20.00     0.031 C 
HETATM    7  C5  UNL     1     -34.607  14.685  -6.307  1.00 20.00     0.015 C 
HETATM    8  C8  UNL     1     -34.329  16.061  -5.703  1.00 20.00     0.083 C 
HETATM    9  C7  UNL     1     -35.358  16.406  -4.617  1.00 20.00     0.285 C 
BRANCH   8  10
HETATM   10  C3  UNL     1     -34.357  17.106  -6.780  1.00 20.00     0.129 C 
HETATM   11  C9  UNL     1     -33.882  18.483  -6.401  1.00 20.00     0.091 C 
HETATM   12  O12 UNL     1     -34.746  16.848  -7.918  1.00 20.00    -0.298 OA
ENDBRANCH   8  10
ENDBRANCH   3   4
TORSDOF 2
ENDMDL
MODEL 6
REMARK VINA RESULT:      -4.4      2.438      3.780
REMARK  2 active torsions:
REMARK  status: ('A' for Active; 'I' for Inactive)
REMARK    1  A    between atoms: C3_3  and  C8_8 
REMARK    2  A    between atoms: C10_10  and  N11_11 
ROOT
HETATM    1  C1  UNL     1     -33.985  19.033  -5.948  1.00 20.00     0.013 C 
HETATM    2  C2  UNL     1     -33.667  17.903  -5.694  1.00 20.00    -0.087 C 
HETATM    3  C10 UNL     1     -33.277  16.524  -5.390  1.00 20.00     0.364 C 
ENDROOT
BRANCH   3   4
HETATM    4  N11 UNL     1     -33.567  16.201  -3.996  1.00 20.00     0.100 N 
HETATM    5  C6  UNL     1     -32.985  14.918  -3.588  1.00 20.00     0.273 C 
HETATM    6  C4  UNL     1     -33.709  13.694  -4.155  1.00 20.00     0.031 C 
HETATM    7  C5  UNL     1     -35.202  13.740  -3.846  1.00 20.00     0.015 C 
HETATM    8  C8  UNL     1     -35.807  15.076  -4.273  1.00 20.00     0.083 C 
HETATM    9  C7  UNL     1     -35.005  16.253  -3.700  1.00 20.00     0.285 C 
BRANCH   8  10
HETATM   10  C3  UNL     1     -37.233  15.160  -3.813  1.00 20.00     0.129 C 
HETATM   11  C9  UNL     1     -37.744  16.525  -3.439  1.00 20.00     0.091 C 
HETATM   12  O12 UNL     1     -37.949  14.162  -3.749  1.00 20.00    -0.298 OA
ENDBRANCH   8  10
ENDBRANCH   3   4
TORSDOF 2
ENDMDL
MODEL 7
REMARK VINA RESULT:      -4.4      1.555      3.287
REMARK  2 active torsions:
REMARK  status: ('A' for Active; 'I' for Inactive)
REMARK    1  A    between atoms: C3_3  and  C8_8 
REMARK    2  A    between atoms: C10_10  and  N11_11 
ROOT
HETATM    1  C1  UNL     1     -33.675  19.196  -6.940  1.00 20.00     0.013 C 
HETATM    2  C2  UNL     1     -33.670  18.718  -5.838  1.00 20.00    -0.087 C 
HETATM    3  C10 UNL     1     -33.658  18.139  -4.493  1.00 20.00     0.364 C 
ENDROOT
BRANCH   3   4
HETATM    4  N11 UNL     1     -34.945  17.519  -4.188  1.00 20.00     0.100 N 
HETATM    5  C6  UNL     1     -35.110  17.256  -2.753  1.00 20.00     0.273 C 
HETATM    6  C4  UNL     1     -34.277  16.083  -2.232  1.00 20.00     0.031 C 
HETATM    7  C5  UNL     1     -34.523  14.820  -3.050  1.00 20.00     0.015 C 
HETATM    8  C8  UNL     1     -34.348  15.094  -4.543  1.00 20.00     0.083 C 
HETATM    9  C7  UNL     1     -35.182  16.306  -4.983  1.00 20.00     0.285 C 
BRANCH   8  10
HETATM   10  C3  UNL     1     -34.753  13.885  -5.334  1.00 20.00     0.129 C 
HETATM   11  C9  UNL     1     -35.198  14.121  -6.752  1.00 20.00     0.091 C 
HETATM   12  O12 UNL     1     -34.719  12.756  -4.848  1.00 20.00    -0.298 OA
ENDBRANCH   8  10
ENDBRANCH   3   4
TORSDOF 2
ENDMDL
MODEL 8
REMARK VINA RESULT:      -4.2      2.715      4.571
REMARK  2 active torsions:
REMARK  status: ('A' for Active; 'I' for Inactive)
REMARK    1  A    between atoms: C3_3  and  C8_8 
REMARK    2  A    between atoms: C10_10  and  N11_11 
ROOT
HETATM    1  C1  UNL     1     -39.249  15.158  -3.499  1.00 20.00     0.013 C 
HETATM    2  C2  UNL     1     -38.127  14.841  -3.791  1.00 20.00    -0.087 C 
HETATM    3  C10 UNL     1     -36.762  14.450  -4.147  1.00 20.00     0.364 C 
ENDROOT
BRANCH   3   4
HETATM    4  N11 UNL     1     -35.959  15.624  -4.481  1.00 20.00     0.100 N 
HETATM    5  C6  UNL     1     -34.704  15.269  -5.154  1.00 20.00     0.273 C 
HETATM    6  C4  UNL     1     -33.651  14.653  -4.229  1.00 20.00     0.031 C 
HETATM    7  C5  UNL     1     -33.388  15.542  -3.018  1.00 20.00     0.015 C 
HETATM    8  C8  UNL     1     -34.695  15.909  -2.317  1.00 20.00     0.083 C 
HETATM    9  C7  UNL     1     -35.714  16.481  -3.313  1.00 20.00     0.285 C 
BRANCH   8  10
HETATM   10  C3  UNL     1     -34.428  16.910  -1.232  1.00 20.00     0.129 C 
HETATM   11  C9  UNL     1     -33.679  18.155  -1.629  1.00 20.00     0.091 C 
HETATM   12  O12 UNL     1     -34.805  16.725  -0.076  1.00 20.00    -0.298 OA
ENDBRANCH   8  10
ENDBRANCH   3   4
TORSDOF 2
ENDMDL
MODEL 9
REMARK VINA RESULT:      -4.1      2.186      2.929
REMARK  2 active torsions:
REMARK  status: ('A' for Active; 'I' for Inactive)
REMARK    1  A    between atoms: C3_3  and  C8_8 
REMARK    2  A    between atoms: C10_10  and  N11_11 
ROOT
HETATM    1  C1  UNL     1     -36.858  18.259  -2.524  1.00 20.00     0.013 C 
HETATM    2  C2  UNL     1     -36.563  18.013  -3.663  1.00 20.00    -0.087 C 
HETATM    3  C10 UNL     1     -36.210  17.716  -5.052  1.00 20.00     0.364 C 
ENDROOT
BRANCH   3   4
HETATM    4  N11 UNL     1     -34.794  17.376  -5.163  1.00 20.00     0.100 N 
HETATM    5  C6  UNL     1     -34.336  17.343  -6.557  1.00 20.00     0.273 C 
HETATM    6  C4  UNL     1     -34.821  16.125  -7.347  1.00 20.00     0.031 C 
HETATM    7  C5  UNL     1     -34.477  14.825  -6.628  1.00 20.00     0.015 C 
HETATM    8  C8  UNL     1     -34.956  14.859  -5.178  1.00 20.00     0.083 C 
HETATM    9  C7  UNL     1     -34.464  16.126  -4.464  1.00 20.00     0.285 C 
BRANCH   8  10
HETATM   10  C3  UNL     1     -34.465  13.642  -4.450  1.00 20.00     0.129 C 
HETATM   11  C9  UNL     1     -33.171  13.781  -3.695  1.00 20.00     0.091 C 
HETATM   12  O12 UNL     1     -35.092  12.584  -4.467  1.00 20.00    -0.298 OA
ENDBRANCH   8  10
ENDBRANCH   3   4
TORSDOF 2
ENDMDL
