MODEL 1
REMARK VINA RESULT:      -4.4      0.000      0.000
REMARK  4 active torsions:
REMARK  status: ('A' for Active; 'I' for Inactive)
REMARK    1  A    between atoms: C4_4  and  C8_8 
REMARK    2  A    between atoms: C5_5  and  C9_9 
REMARK    3  A    between atoms: C8_8  and  N10_10 
REMARK    4  A    between atoms: C9_9  and  N10_10 
ROOT
HETATM    1  C7  UNL     1     -33.566  16.513  -5.488  1.00 20.00     0.310 C 
HETATM    2  N10 UNL     1     -33.277  16.235  -4.073  1.00 20.00     0.087 N 
ENDROOT
BRANCH   2   3
HETATM    3  C8  UNL     1     -34.162  16.963  -3.204  1.00 20.00     0.277 C 
BRANCH   3   4
HETATM    4  C4  UNL     1     -33.897  16.641  -1.773  1.00 20.00     0.018 A 
HETATM    5  C1  UNL     1     -34.842  17.117  -0.700  1.00 20.00     0.011 A 
HETATM    6  C3  UNL     1     -33.449  17.685  -0.777  1.00 20.00    -0.012 A 
HETATM    7  C6  UNL     1     -33.237  19.110  -1.152  1.00 20.00     0.010 C 
ENDBRANCH   3   4
ENDBRANCH   2   3
BRANCH   2   8
HETATM    8  C9  UNL     1     -33.357  14.787  -3.829  1.00 20.00     0.305 C 
BRANCH   8   9
HETATM    9  C5  UNL     1     -34.307  14.134  -4.774  1.00 20.00     0.173 A 
HETATM   10  C2  UNL     1     -35.614  13.567  -4.294  1.00 20.00     0.201 A 
HETATM   11  O11 UNL     1     -34.481  12.729  -4.566  1.00 20.00    -0.379 OA
ENDBRANCH   8   9
ENDBRANCH   2   8
TORSDOF 4
ENDMDL
MODEL 2
REMARK VINA RESULT:      -4.3      1.098      1.160
REMARK  4 active torsions:
REMARK  status: ('A' for Active; 'I' for Inactive)
REMARK    1  A    between atoms: C4_4  and  C8_8 
REMARK    2  A    between atoms: C5_5  and  C9_9 
REMARK    3  A    between atoms: C8_8  and  N10_10 
REMARK    4  A    between atoms: C9_9  and  N10_10 
ROOT
HETATM    1  C7  UNL     1     -33.266  16.545  -4.772  1.00 20.00     0.310 C 
HETATM    2  N10 UNL     1     -33.383  15.955  -3.429  1.00 20.00     0.087 N 
ENDROOT
BRANCH   2   3
HETATM    3  C8  UNL     1     -33.589  16.967  -2.429  1.00 20.00     0.277 C 
BRANCH   3   4
HETATM    4  C4  UNL     1     -34.658  16.568  -1.471  1.00 20.00     0.018 A 
HETATM    5  C1  UNL     1     -35.773  17.525  -1.135  1.00 20.00     0.011 A 
HETATM    6  C3  UNL     1     -34.762  17.153  -0.082  1.00 20.00    -0.012 A 
HETATM    7  C6  UNL     1     -33.803  18.169   0.432  1.00 20.00     0.010 C 
ENDBRANCH   3   4
ENDBRANCH   2   3
BRANCH   2   8
HETATM    8  C9  UNL     1     -34.469  14.963  -3.420  1.00 20.00     0.305 C 
BRANCH   8   9
HETATM    9  C5  UNL     1     -34.071  13.722  -4.143  1.00 20.00     0.173 A 
HETATM   10  C2  UNL     1     -34.744  13.320  -5.426  1.00 20.00     0.201 A 
HETATM   11  O11 UNL     1     -35.075  12.703  -4.172  1.00 20.00    -0.379 OA
ENDBRANCH   8   9
ENDBRANCH   2   8
TORSDOF 4
ENDMDL
MODEL 3
REMARK VINA RESULT:      -4.3     10.783     11.894
REMARK  4 active torsions:
REMARK  status: ('A' for Active; 'I' for Inactive)
REMARK    1  A    between atoms: C4_4  and  C8_8 
REMARK    2  A    between atoms: C5_5  and  C9_9 
REMARK    3  A    between atoms: C8_8  and  N10_10 
REMARK    4  A    between atoms: C9_9  and  N10_10 
ROOT
HETATM    1  C7  UNL     1     -31.220   7.659   4.107  1.00 20.00     0.310 C 
HETATM    2  N10 UNL     1     -32.161   6.707   3.497  1.00 20.00     0.087 N 
ENDROOT
BRANCH   2   3
HETATM    3  C8  UNL     1     -33.289   6.462   4.353  1.00 20.00     0.277 C 
BRANCH   3   4
HETATM    4  C4  UNL     1     -34.202   5.442   3.763  1.00 20.00     0.018 A 
HETATM    5  C1  UNL     1     -35.696   5.619   3.850  1.00 20.00     0.011 A 
HETATM    6  C3  UNL     1     -35.028   4.505   4.613  1.00 20.00    -0.012 A 
HETATM    7  C6  UNL     1     -34.989   4.531   6.101  1.00 20.00     0.010 C 
ENDBRANCH   3   4
ENDBRANCH   2   3
BRANCH   2   8
HETATM    8  C9  UNL     1     -32.584   7.209   2.180  1.00 20.00     0.305 C 
BRANCH   8   9
HETATM    9  C5  UNL     1     -31.860   8.462   1.824  1.00 20.00     0.173 A 
HETATM   10  C2  UNL     1     -32.603   9.741   1.557  1.00 20.00     0.201 A 
HETATM   11  O11 UNL     1     -32.095   8.925   0.490  1.00 20.00    -0.379 OA
ENDBRANCH   8   9
ENDBRANCH   2   8
TORSDOF 4
ENDMDL
MODEL 4
REMARK VINA RESULT:      -3.9      1.899      2.587
REMARK  4 active torsions:
REMARK  status: ('A' for Active; 'I' for Inactive)
REMARK    1  A    between atoms: C4_4  and  C8_8 
REMARK    2  A    between atoms: C5_5  and  C9_9 
REMARK    3  A    between atoms: C8_8  and  N10_10 
REMARK    4  A    between atoms: C9_9  and  N10_10 
ROOT
HETATM    1  C7  UNL     1     -34.121  13.754  -3.760  1.00 20.00     0.310 C 
HETATM    2  N10 UNL     1     -35.473  14.300  -3.954  1.00 20.00     0.087 N 
ENDROOT
BRANCH   2   3
HETATM    3  C8  UNL     1     -35.700  15.447  -3.118  1.00 20.00     0.277 C 
BRANCH   3   4
HETATM    4  C4  UNL     1     -34.502  15.753  -2.286  1.00 20.00     0.018 A 
HETATM    5  C1  UNL     1     -34.623  16.645  -1.078  1.00 20.00     0.011 A 
HETATM    6  C3  UNL     1     -33.845  17.113  -2.279  1.00 20.00    -0.012 A 
HETATM    7  C6  UNL     1     -34.346  18.247  -3.104  1.00 20.00     0.010 C 
ENDBRANCH   3   4
ENDBRANCH   2   3
BRANCH   2   8
HETATM    8  C9  UNL     1     -35.674  14.623  -5.375  1.00 20.00     0.305 C 
BRANCH   8   9
HETATM    9  C5  UNL     1     -34.410  15.105  -6.001  1.00 20.00     0.173 A 
HETATM   10  C2  UNL     1     -34.405  16.283  -6.936  1.00 20.00     0.201 A 
HETATM   11  O11 UNL     1     -34.347  14.932  -7.421  1.00 20.00    -0.379 OA
ENDBRANCH   8   9
ENDBRANCH   2   8
TORSDOF 4
ENDMDL
MODEL 5
REMARK VINA RESULT:      -3.7      2.040      2.381
REMARK  4 active torsions:
REMARK  status: ('A' for Active; 'I' for Inactive)
REMARK    1  A    between atoms: C4_4  and  C8_8 
REMARK    2  A    between atoms: C5_5  and  C9_9 
REMARK    3  A    between atoms: C8_8  and  N10_10 
REMARK    4  A    between atoms: C9_9  and  N10_10 
ROOT
HETATM    1  C7  UNL     1     -34.369  14.408  -3.454  1.00 20.00     0.310 C 
HETATM    2  N10 UNL     1     -35.274  15.468  -2.982  1.00 20.00     0.087 N 
ENDROOT
BRANCH   2   3
HETATM    3  C8  UNL     1     -34.541  16.587  -2.455  1.00 20.00     0.277 C 
BRANCH   3   4
HETATM    4  C4  UNL     1     -34.609  16.622  -0.966  1.00 20.00     0.018 A 
HETATM    5  C1  UNL     1     -35.384  17.708  -0.267  1.00 20.00     0.011 A 
HETATM    6  C3  UNL     1     -33.884  17.663  -0.146  1.00 20.00    -0.012 A 
HETATM    7  C6  UNL     1     -33.047  18.728  -0.764  1.00 20.00     0.010 C 
ENDBRANCH   3   4
ENDBRANCH   2   3
BRANCH   2   8
HETATM    8  C9  UNL     1     -36.164  15.879  -4.079  1.00 20.00     0.305 C 
BRANCH   8   9
HETATM    9  C5  UNL     1     -37.047  14.756  -4.506  1.00 20.00     0.173 A 
HETATM   10  C2  UNL     1     -38.525  14.956  -4.692  1.00 20.00     0.201 A 
HETATM   11  O11 UNL     1     -37.988  14.331  -3.516  1.00 20.00    -0.379 OA
ENDBRANCH   8   9
ENDBRANCH   2   8
TORSDOF 4
ENDMDL
MODEL 6
REMARK VINA RESULT:      -3.7      2.336      3.792
REMARK  4 active torsions:
REMARK  status: ('A' for Active; 'I' for Inactive)
REMARK    1  A    between atoms: C4_4  and  C8_8 
REMARK    2  A    between atoms: C5_5  and  C9_9 
REMARK    3  A    between atoms: C8_8  and  N10_10 
REMARK    4  A    between atoms: C9_9  and  N10_10 
ROOT
HETATM    1  C7  UNL     1     -35.945  18.139  -1.890  1.00 20.00     0.310 C 
HETATM    2  N10 UNL     1     -35.862  17.037  -2.861  1.00 20.00     0.087 N 
ENDROOT
BRANCH   2   3
HETATM    3  C8  UNL     1     -35.071  15.950  -2.353  1.00 20.00     0.277 C 
BRANCH   3   4
HETATM    4  C4  UNL     1     -33.660  16.045  -2.823  1.00 20.00     0.018 A 
HETATM    5  C1  UNL     1     -33.358  16.247  -4.286  1.00 20.00     0.011 A 
HETATM    6  C3  UNL     1     -32.994  14.947  -3.619  1.00 20.00    -0.012 A 
HETATM    7  C6  UNL     1     -33.698  13.688  -3.989  1.00 20.00     0.010 C 
ENDBRANCH   3   4
ENDBRANCH   2   3
BRANCH   2   8
HETATM    8  C9  UNL     1     -37.219  16.593  -3.218  1.00 20.00     0.305 C 
BRANCH   8   9
HETATM    9  C5  UNL     1     -37.180  15.349  -4.037  1.00 20.00     0.173 A 
HETATM   10  C2  UNL     1     -38.368  14.917  -4.852  1.00 20.00     0.201 A 
HETATM   11  O11 UNL     1     -38.058  14.313  -3.586  1.00 20.00    -0.379 OA
ENDBRANCH   8   9
ENDBRANCH   2   8
TORSDOF 4
ENDMDL
MODEL 7
REMARK VINA RESULT:      -3.7      2.208      4.435
REMARK  4 active torsions:
REMARK  status: ('A' for Active; 'I' for Inactive)
REMARK    1  A    between atoms: C4_4  and  C8_8 
REMARK    2  A    between atoms: C5_5  and  C9_9 
REMARK    3  A    between atoms: C8_8  and  N10_10 
REMARK    4  A    between atoms: C9_9  and  N10_10 
ROOT
HETATM    1  C7  UNL     1     -33.623  18.393  -5.752  1.00 20.00     0.310 C 
HETATM    2  N10 UNL     1     -34.187  17.383  -4.843  1.00 20.00     0.087 N 
ENDROOT
BRANCH   2   3
HETATM    3  C8  UNL     1     -33.523  16.116  -4.991  1.00 20.00     0.277 C 
BRANCH   3   4
HETATM    4  C4  UNL     1     -34.251  15.235  -5.947  1.00 20.00     0.018 A 
HETATM    5  C1  UNL     1     -35.751  15.112  -5.876  1.00 20.00     0.011 A 
HETATM    6  C3  UNL     1     -34.886  13.930  -5.525  1.00 20.00    -0.012 A 
HETATM    7  C6  UNL     1     -34.828  13.429  -4.124  1.00 20.00     0.010 C 
ENDBRANCH   3   4
ENDBRANCH   2   3
BRANCH   2   8
HETATM    8  C9  UNL     1     -34.110  17.870  -3.457  1.00 20.00     0.305 C 
BRANCH   8   9
HETATM    9  C5  UNL     1     -33.782  16.764  -2.514  1.00 20.00     0.173 A 
HETATM   10  C2  UNL     1     -34.705  16.407  -1.382  1.00 20.00     0.201 A 
HETATM   11  O11 UNL     1     -33.516  17.185  -1.172  1.00 20.00    -0.379 OA
ENDBRANCH   8   9
ENDBRANCH   2   8
TORSDOF 4
ENDMDL
MODEL 8
REMARK VINA RESULT:      -3.7      1.926      2.116
REMARK  4 active torsions:
REMARK  status: ('A' for Active; 'I' for Inactive)
REMARK    1  A    between atoms: C4_4  and  C8_8 
REMARK    2  A    between atoms: C5_5  and  C9_9 
REMARK    3  A    between atoms: C8_8  and  N10_10 
REMARK    4  A    between atoms: C9_9  and  N10_10 
ROOT
HETATM    1  C7  UNL     1     -34.301  15.392  -5.867  1.00 20.00     0.310 C 
HETATM    2  N10 UNL     1     -34.937  15.734  -4.585  1.00 20.00     0.087 N 
ENDROOT
BRANCH   2   3
HETATM    3  C8  UNL     1     -34.182  16.730  -3.875  1.00 20.00     0.277 C 
BRANCH   3   4
HETATM    4  C4  UNL     1     -33.819  16.257  -2.509  1.00 20.00     0.018 A 
HETATM    5  C1  UNL     1     -34.828  16.317  -1.391  1.00 20.00     0.011 A 
HETATM    6  C3  UNL     1     -33.612  17.205  -1.351  1.00 20.00    -0.012 A 
HETATM    7  C6  UNL     1     -33.752  18.681  -1.490  1.00 20.00     0.010 C 
ENDBRANCH   3   4
ENDBRANCH   2   3
BRANCH   2   8
HETATM    8  C9  UNL     1     -36.319  16.180  -4.826  1.00 20.00     0.305 C 
BRANCH   8   9
HETATM    9  C5  UNL     1     -37.259  15.024  -4.860  1.00 20.00     0.173 A 
HETATM   10  C2  UNL     1     -38.371  14.895  -3.856  1.00 20.00     0.201 A 
HETATM   11  O11 UNL     1     -37.155  14.139  -3.740  1.00 20.00    -0.379 OA
ENDBRANCH   8   9
ENDBRANCH   2   8
TORSDOF 4
ENDMDL
MODEL 9
REMARK VINA RESULT:      -3.6      2.298      4.740
REMARK  4 active torsions:
REMARK  status: ('A' for Active; 'I' for Inactive)
REMARK    1  A    between atoms: C4_4  and  C8_8 
REMARK    2  A    between atoms: C5_5  and  C9_9 
REMARK    3  A    between atoms: C8_8  and  N10_10 
REMARK    4  A    between atoms: C9_9  and  N10_10 
ROOT
HETATM    1  C7  UNL     1     -36.674  14.468  -4.084  1.00 20.00     0.310 C 
HETATM    2  N10 UNL     1     -35.383  13.763  -4.087  1.00 20.00     0.087 N 
ENDROOT
BRANCH   2   3
HETATM    3  C8  UNL     1     -34.847  13.658  -5.417  1.00 20.00     0.277 C 
BRANCH   3   4
HETATM    4  C4  UNL     1     -35.549  14.581  -6.355  1.00 20.00     0.018 A 
HETATM    5  C1  UNL     1     -35.011  14.806  -7.744  1.00 20.00     0.011 A 
HETATM    6  C3  UNL     1     -34.985  15.928  -6.740  1.00 20.00    -0.012 A 
HETATM    7  C6  UNL     1     -33.689  16.434  -6.210  1.00 20.00     0.010 C 
ENDBRANCH   3   4
ENDBRANCH   2   3
BRANCH   2   8
HETATM    8  C9  UNL     1     -34.446  14.447  -3.183  1.00 20.00     0.305 C 
BRANCH   8   9
HETATM    9  C5  UNL     1     -34.994  15.757  -2.730  1.00 20.00     0.173 A 
HETATM   10  C2  UNL     1     -34.086  16.911  -2.409  1.00 20.00     0.201 A 
HETATM   11  O11 UNL     1     -34.672  16.101  -1.379  1.00 20.00    -0.379 OA
ENDBRANCH   8   9
ENDBRANCH   2   8
TORSDOF 4
ENDMDL
