MODEL 1
REMARK VINA RESULT:      -4.7      0.000      0.000
REMARK  1 active torsions:
REMARK  status: ('A' for Active; 'I' for Inactive)
REMARK    1  A    between atoms: C6_6  and  N8_8 
ROOT
HETATM    1  C1  UNL     1     -32.943   6.345   2.852  1.00 20.00     0.158 C 
HETATM    2  N8  UNL     1     -33.583   5.373   2.985  1.00 20.00    -0.265 NA
HETATM    3  S9  UNL     1     -32.057   7.652   2.643  1.00 20.00    -0.055 SA
ENDROOT
BRANCH   2   4
HETATM    4  C6  UNL     1     -34.520   5.406   4.110  1.00 20.00     0.051 C 
HETATM    5  C4  UNL     1     -33.941   6.230   5.260  1.00 20.00     0.033 C 
HETATM    6  C2  UNL     1     -34.637   5.697   6.509  1.00 20.00     0.002 C 
HETATM    7  C3  UNL     1     -35.096   4.278   6.171  1.00 20.00     0.002 C 
HETATM    8  C5  UNL     1     -34.655   4.018   4.732  1.00 20.00     0.033 C 
HETATM    9  C7  UNL     1     -35.854   5.956   3.607  1.00 20.00     0.041 C 
ENDBRANCH   2   4
TORSDOF 1
ENDMDL
MODEL 2
REMARK VINA RESULT:      -4.1     12.098     12.841
REMARK  1 active torsions:
REMARK  status: ('A' for Active; 'I' for Inactive)
REMARK    1  A    between atoms: C6_6  and  N8_8 
ROOT
HETATM    1  C1  UNL     1     -38.119  14.926  -3.772  1.00 20.00     0.158 C 
HETATM    2  N8  UNL     1     -37.331  14.069  -3.906  1.00 20.00    -0.265 NA
HETATM    3  S9  UNL     1     -39.215  16.066  -3.585  1.00 20.00    -0.055 SA
ENDROOT
BRANCH   2   4
HETATM    4  C6  UNL     1     -35.969  14.529  -4.190  1.00 20.00     0.051 C 
HETATM    5  C4  UNL     1     -34.994  13.353  -4.165  1.00 20.00     0.033 C 
HETATM    6  C2  UNL     1     -33.640  13.978  -3.842  1.00 20.00     0.002 C 
HETATM    7  C3  UNL     1     -33.936  15.297  -3.128  1.00 20.00     0.002 C 
HETATM    8  C5  UNL     1     -35.457  15.409  -3.051  1.00 20.00     0.033 C 
HETATM    9  C7  UNL     1     -35.979  15.256  -5.533  1.00 20.00     0.041 C 
ENDBRANCH   2   4
TORSDOF 1
ENDMDL
MODEL 3
REMARK VINA RESULT:      -4.0     12.000     12.985
REMARK  1 active torsions:
REMARK  status: ('A' for Active; 'I' for Inactive)
REMARK    1  A    between atoms: C6_6  and  N8_8 
ROOT
HETATM    1  C1  UNL     1     -34.107  17.114  -2.223  1.00 20.00     0.158 C 
HETATM    2  N8  UNL     1     -33.839  17.175  -3.362  1.00 20.00    -0.265 NA
HETATM    3  S9  UNL     1     -34.464  17.065  -0.672  1.00 20.00    -0.055 SA
ENDROOT
BRANCH   2   4
HETATM    4  C6  UNL     1     -33.927  15.903  -4.081  1.00 20.00     0.051 C 
HETATM    5  C4  UNL     1     -35.246  15.200  -3.759  1.00 20.00     0.033 C 
HETATM    6  C2  UNL     1     -34.969  13.720  -4.010  1.00 20.00     0.002 C 
HETATM    7  C3  UNL     1     -33.456  13.539  -3.877  1.00 20.00     0.002 C 
HETATM    8  C5  UNL     1     -32.888  14.918  -3.549  1.00 20.00     0.033 C 
HETATM    9  C7  UNL     1     -33.761  16.182  -5.574  1.00 20.00     0.041 C 
ENDBRANCH   2   4
TORSDOF 1
ENDMDL
MODEL 4
REMARK VINA RESULT:      -3.9     12.355     13.443
REMARK  1 active torsions:
REMARK  status: ('A' for Active; 'I' for Inactive)
REMARK    1  A    between atoms: C6_6  and  N8_8 
ROOT
HETATM    1  C1  UNL     1     -33.380  17.409  -4.996  1.00 20.00     0.158 C 
HETATM    2  N8  UNL     1     -33.016  16.342  -4.676  1.00 20.00    -0.265 NA
HETATM    3  S9  UNL     1     -33.842  18.866  -5.443  1.00 20.00    -0.055 SA
ENDROOT
BRANCH   2   4
HETATM    4  C6  UNL     1     -34.034  15.521  -4.016  1.00 20.00     0.051 C 
HETATM    5  C4  UNL     1     -33.701  14.038  -4.167  1.00 20.00     0.033 C 
HETATM    6  C2  UNL     1     -35.044  13.323  -4.035  1.00 20.00     0.002 C 
HETATM    7  C3  UNL     1     -36.114  14.350  -4.407  1.00 20.00     0.002 C 
HETATM    8  C5  UNL     1     -35.369  15.638  -4.749  1.00 20.00     0.033 C 
HETATM    9  C7  UNL     1     -34.127  15.956  -2.554  1.00 20.00     0.041 C 
ENDBRANCH   2   4
TORSDOF 1
ENDMDL
MODEL 5
REMARK VINA RESULT:      -3.8     12.222     12.976
REMARK  1 active torsions:
REMARK  status: ('A' for Active; 'I' for Inactive)
REMARK    1  A    between atoms: C6_6  and  N8_8 
ROOT
HETATM    1  C1  UNL     1     -34.120  16.856  -2.281  1.00 20.00     0.158 C 
HETATM    2  N8  UNL     1     -33.875  16.773  -3.424  1.00 20.00    -0.265 NA
HETATM    3  S9  UNL     1     -34.449  17.004  -0.731  1.00 20.00    -0.055 SA
ENDROOT
BRANCH   2   4
HETATM    4  C6  UNL     1     -33.874  15.407  -3.952  1.00 20.00     0.051 C 
HETATM    5  C4  UNL     1     -34.156  15.416  -5.453  1.00 20.00     0.033 C 
HETATM    6  C2  UNL     1     -34.738  14.035  -5.748  1.00 20.00     0.002 C 
HETATM    7  C3  UNL     1     -35.316  13.524  -4.428  1.00 20.00     0.002 C 
HETATM    8  C5  UNL     1     -35.059  14.620  -3.396  1.00 20.00     0.033 C 
HETATM    9  C7  UNL     1     -32.530  14.763  -3.612  1.00 20.00     0.041 C 
ENDBRANCH   2   4
TORSDOF 1
ENDMDL
MODEL 6
REMARK VINA RESULT:      -3.8     11.935     12.981
REMARK  1 active torsions:
REMARK  status: ('A' for Active; 'I' for Inactive)
REMARK    1  A    between atoms: C6_6  and  N8_8 
ROOT
HETATM    1  C1  UNL     1     -36.708  14.401  -4.045  1.00 20.00     0.158 C 
HETATM    2  N8  UNL     1     -35.689  13.824  -4.090  1.00 20.00    -0.265 NA
HETATM    3  S9  UNL     1     -38.109  15.156  -3.990  1.00 20.00    -0.055 SA
ENDROOT
BRANCH   2   4
HETATM    4  C6  UNL     1     -34.505  14.651  -3.849  1.00 20.00     0.051 C 
HETATM    5  C4  UNL     1     -34.704  15.515  -2.604  1.00 20.00     0.033 C 
HETATM    6  C2  UNL     1     -33.775  16.709  -2.807  1.00 20.00     0.002 C 
HETATM    7  C3  UNL     1     -33.547  16.823  -4.314  1.00 20.00     0.002 C 
HETATM    8  C5  UNL     1     -34.351  15.694  -4.955  1.00 20.00     0.033 C 
HETATM    9  C7  UNL     1     -33.291  13.731  -3.737  1.00 20.00     0.041 C 
ENDBRANCH   2   4
TORSDOF 1
ENDMDL
MODEL 7
REMARK VINA RESULT:      -3.8     12.759     13.556
REMARK  1 active torsions:
REMARK  status: ('A' for Active; 'I' for Inactive)
REMARK    1  A    between atoms: C6_6  and  N8_8 
ROOT
HETATM    1  C1  UNL     1     -33.355  17.401  -5.269  1.00 20.00     0.158 C 
HETATM    2  N8  UNL     1     -32.960  16.337  -4.976  1.00 20.00    -0.265 NA
HETATM    3  S9  UNL     1     -33.865  18.849  -5.691  1.00 20.00    -0.055 SA
ENDROOT
BRANCH   2   4
HETATM    4  C6  UNL     1     -33.717  15.676  -3.912  1.00 20.00     0.051 C 
HETATM    5  C4  UNL     1     -35.213  15.713  -4.221  1.00 20.00     0.033 C 
HETATM    6  C2  UNL     1     -35.895  15.600  -2.860  1.00 20.00     0.002 C 
HETATM    7  C3  UNL     1     -34.877  16.090  -1.829  1.00 20.00     0.002 C 
HETATM    8  C5  UNL     1     -33.627  16.479  -2.616  1.00 20.00     0.033 C 
HETATM    9  C7  UNL     1     -33.185  14.252  -3.758  1.00 20.00     0.041 C 
ENDBRANCH   2   4
TORSDOF 1
ENDMDL
MODEL 8
REMARK VINA RESULT:      -3.8      9.388     10.494
REMARK  1 active torsions:
REMARK  status: ('A' for Active; 'I' for Inactive)
REMARK    1  A    between atoms: C6_6  and  N8_8 
ROOT
HETATM    1  C1  UNL     1     -42.275   3.108  -3.077  1.00 20.00     0.158 C 
HETATM    2  N8  UNL     1     -41.465   3.503  -2.328  1.00 20.00    -0.265 NA
HETATM    3  S9  UNL     1     -43.354   2.545  -4.104  1.00 20.00    -0.055 SA
ENDROOT
BRANCH   2   4
HETATM    4  C6  UNL     1     -41.862   4.690  -1.567  1.00 20.00     0.051 C 
HETATM    5  C4  UNL     1     -42.200   5.841  -2.514  1.00 20.00     0.033 C 
HETATM    6  C2  UNL     1     -41.977   7.104  -1.686  1.00 20.00     0.002 C 
HETATM    7  C3  UNL     1     -40.999   6.720  -0.575  1.00 20.00     0.002 C 
HETATM    8  C5  UNL     1     -40.674   5.243  -0.783  1.00 20.00     0.033 C 
HETATM    9  C7  UNL     1     -43.035   4.310  -0.664  1.00 20.00     0.041 C 
ENDBRANCH   2   4
TORSDOF 1
ENDMDL
MODEL 9
REMARK VINA RESULT:      -3.7     12.094     13.370
REMARK  1 active torsions:
REMARK  status: ('A' for Active; 'I' for Inactive)
REMARK    1  A    between atoms: C6_6  and  N8_8 
ROOT
HETATM    1  C1  UNL     1     -34.983  15.973  -2.236  1.00 20.00     0.158 C 
HETATM    2  N8  UNL     1     -35.492  15.283  -3.035  1.00 20.00    -0.265 NA
HETATM    3  S9  UNL     1     -34.320  16.908  -1.131  1.00 20.00    -0.055 SA
ENDROOT
BRANCH   2   4
HETATM    4  C6  UNL     1     -34.673  15.007  -4.217  1.00 20.00     0.051 C 
HETATM    5  C4  UNL     1     -34.256  16.312  -4.893  1.00 20.00     0.033 C 
HETATM    6  C2  UNL     1     -33.993  15.931  -6.347  1.00 20.00     0.002 C 
HETATM    7  C3  UNL     1     -34.796  14.656  -6.607  1.00 20.00     0.002 C 
HETATM    8  C5  UNL     1     -35.510  14.326  -5.298  1.00 20.00     0.033 C 
HETATM    9  C7  UNL     1     -33.475  14.163  -3.783  1.00 20.00     0.041 C 
ENDBRANCH   2   4
TORSDOF 1
ENDMDL
