MODEL 1
REMARK VINA RESULT:      -3.8      0.000      0.000
REMARK  2 active torsions:
REMARK  status: ('A' for Active; 'I' for Inactive)
REMARK    1  A    between atoms: C1_1  and  C5_5 
REMARK    2  A    between atoms: C1_1  and  C6_6 
ROOT
HETATM    1  C2  UNL     1     -35.629   5.394   4.066  1.00 20.00     0.023 C 
HETATM    2  C3  UNL     1     -35.220   4.138   4.820  1.00 20.00     0.075 C 
HETATM    3  C4  UNL     1     -34.017   6.411   5.612  1.00 20.00     0.086 C 
HETATM    4  C5  UNL     1     -34.487   6.397   4.164  1.00 20.00     0.066 C 
HETATM    5  S8  UNL     1     -34.257   4.722   6.239  1.00 20.00    -0.168 SA
ENDROOT
BRANCH   4   6
HETATM    6  C1  UNL     1     -33.360   6.062   3.229  1.00 20.00     0.145 C 
HETATM    7  O7  UNL     1     -33.501   5.201   2.361  1.00 20.00    -0.296 OA
BRANCH   6   8
HETATM    8  C6  UNL     1     -32.081   6.839   3.437  1.00 20.00     0.193 C 
HETATM    9 CL9  UNL     1     -31.936   8.138   2.243  1.00 20.00    -0.123 Cl
ENDBRANCH   6   8
ENDBRANCH   4   6
TORSDOF 2
ENDMDL
MODEL 2
REMARK VINA RESULT:      -3.8     11.966     12.579
REMARK  2 active torsions:
REMARK  status: ('A' for Active; 'I' for Inactive)
REMARK    1  A    between atoms: C1_1  and  C5_5 
REMARK    2  A    between atoms: C1_1  and  C6_6 
ROOT
HETATM    1  C2  UNL     1     -32.955  14.947  -3.725  1.00 20.00     0.023 C 
HETATM    2  C3  UNL     1     -33.196  16.132  -4.647  1.00 20.00     0.075 C 
HETATM    3  C4  UNL     1     -34.930  15.879  -2.605  1.00 20.00     0.086 C 
HETATM    4  C5  UNL     1     -34.281  14.582  -3.068  1.00 20.00     0.066 C 
HETATM    5  S8  UNL     1     -34.437  17.150  -3.807  1.00 20.00    -0.168 SA
ENDROOT
BRANCH   4   6
HETATM    6  C1  UNL     1     -35.182  13.824  -4.000  1.00 20.00     0.145 C 
HETATM    7  O7  UNL     1     -34.782  12.810  -4.571  1.00 20.00    -0.296 OA
BRANCH   6   8
HETATM    8  C6  UNL     1     -36.572  14.390  -4.175  1.00 20.00     0.193 C 
HETATM    9 CL9  UNL     1     -36.774  15.065  -5.799  1.00 20.00    -0.123 Cl
ENDBRANCH   6   8
ENDBRANCH   4   6
TORSDOF 2
ENDMDL
MODEL 3
REMARK VINA RESULT:      -3.7     11.905     12.563
REMARK  2 active torsions:
REMARK  status: ('A' for Active; 'I' for Inactive)
REMARK    1  A    between atoms: C1_1  and  C5_5 
REMARK    2  A    between atoms: C1_1  and  C6_6 
ROOT
HETATM    1  C2  UNL     1     -35.731  15.138  -3.284  1.00 20.00     0.023 C 
HETATM    2  C3  UNL     1     -36.064  14.862  -4.742  1.00 20.00     0.075 C 
HETATM    3  C4  UNL     1     -33.749  13.810  -3.860  1.00 20.00     0.086 C 
HETATM    4  C5  UNL     1     -34.218  15.055  -3.121  1.00 20.00     0.066 C 
HETATM    5  S8  UNL     1     -34.868  13.611  -5.279  1.00 20.00    -0.168 SA
ENDROOT
BRANCH   4   6
HETATM    6  C1  UNL     1     -33.528  16.286  -3.634  1.00 20.00     0.145 C 
HETATM    7  O7  UNL     1     -32.761  16.221  -4.594  1.00 20.00    -0.296 OA
BRANCH   6   8
HETATM    8  C6  UNL     1     -33.839  17.569  -2.897  1.00 20.00     0.193 C 
HETATM    9 CL9  UNL     1     -33.630  17.356  -1.153  1.00 20.00    -0.123 Cl
ENDBRANCH   6   8
ENDBRANCH   4   6
TORSDOF 2
ENDMDL
MODEL 4
REMARK VINA RESULT:      -3.6     11.891     12.564
REMARK  2 active torsions:
REMARK  status: ('A' for Active; 'I' for Inactive)
REMARK    1  A    between atoms: C1_1  and  C5_5 
REMARK    2  A    between atoms: C1_1  and  C6_6 
ROOT
HETATM    1  C2  UNL     1     -34.465  14.062  -5.329  1.00 20.00     0.023 C 
HETATM    2  C3  UNL     1     -35.432  13.424  -4.344  1.00 20.00     0.075 C 
HETATM    3  C4  UNL     1     -35.733  16.072  -4.714  1.00 20.00     0.086 C 
HETATM    4  C5  UNL     1     -34.331  15.537  -4.970  1.00 20.00     0.066 C 
HETATM    5  S8  UNL     1     -36.681  14.692  -4.005  1.00 20.00    -0.168 SA
ENDROOT
BRANCH   4   6
HETATM    6  C1  UNL     1     -33.442  15.749  -3.779  1.00 20.00     0.145 C 
HETATM    7  O7  UNL     1     -32.473  15.017  -3.582  1.00 20.00    -0.296 OA
BRANCH   6   8
HETATM    8  C6  UNL     1     -33.823  16.895  -2.870  1.00 20.00     0.193 C 
HETATM    9 CL9  UNL     1     -34.509  16.291  -1.354  1.00 20.00    -0.123 Cl
ENDBRANCH   6   8
ENDBRANCH   4   6
TORSDOF 2
ENDMDL
MODEL 5
REMARK VINA RESULT:      -3.6     12.013     12.634
REMARK  2 active torsions:
REMARK  status: ('A' for Active; 'I' for Inactive)
REMARK    1  A    between atoms: C1_1  and  C5_5 
REMARK    2  A    between atoms: C1_1  and  C6_6 
ROOT
HETATM    1  C2  UNL     1     -33.699  16.029  -2.641  1.00 20.00     0.023 C 
HETATM    2  C3  UNL     1     -33.706  17.003  -3.809  1.00 20.00     0.075 C 
HETATM    3  C4  UNL     1     -35.996  15.646  -3.416  1.00 20.00     0.086 C 
HETATM    4  C5  UNL     1     -34.737  14.949  -2.921  1.00 20.00     0.066 C 
HETATM    5  S8  UNL     1     -35.436  17.112  -4.334  1.00 20.00    -0.168 SA
ENDROOT
BRANCH   4   6
HETATM    6  C1  UNL     1     -34.245  13.940  -3.918  1.00 20.00     0.145 C 
HETATM    7  O7  UNL     1     -33.167  13.369  -3.753  1.00 20.00    -0.296 OA
BRANCH   6   8
HETATM    8  C6  UNL     1     -35.150  13.692  -5.102  1.00 20.00     0.193 C 
HETATM    9 CL9  UNL     1     -34.517  14.485  -6.552  1.00 20.00    -0.123 Cl
ENDBRANCH   6   8
ENDBRANCH   4   6
TORSDOF 2
ENDMDL
MODEL 6
REMARK VINA RESULT:      -3.6     12.118     12.941
REMARK  2 active torsions:
REMARK  status: ('A' for Active; 'I' for Inactive)
REMARK    1  A    between atoms: C1_1  and  C5_5 
REMARK    2  A    between atoms: C1_1  and  C6_6 
ROOT
HETATM    1  C2  UNL     1     -32.775  14.898  -3.674  1.00 20.00     0.023 C 
HETATM    2  C3  UNL     1     -33.862  13.833  -3.711  1.00 20.00     0.075 C 
HETATM    3  C4  UNL     1     -34.011  15.712  -5.632  1.00 20.00     0.086 C 
HETATM    4  C5  UNL     1     -33.319  16.150  -4.350  1.00 20.00     0.066 C 
HETATM    5  S8  UNL     1     -34.711  14.068  -5.294  1.00 20.00    -0.168 SA
ENDROOT
BRANCH   4   6
HETATM    6  C1  UNL     1     -34.258  16.910  -3.457  1.00 20.00     0.145 C 
HETATM    7  O7  UNL     1     -35.382  17.220  -3.848  1.00 20.00    -0.296 OA
BRANCH   6   8
HETATM    8  C6  UNL     1     -33.725  17.254  -2.085  1.00 20.00     0.193 C 
HETATM    9 CL9  UNL     1     -34.686  16.467  -0.824  1.00 20.00    -0.123 Cl
ENDBRANCH   6   8
ENDBRANCH   4   6
TORSDOF 2
ENDMDL
MODEL 7
REMARK VINA RESULT:      -3.6     12.528     13.204
REMARK  2 active torsions:
REMARK  status: ('A' for Active; 'I' for Inactive)
REMARK    1  A    between atoms: C1_1  and  C5_5 
REMARK    2  A    between atoms: C1_1  and  C6_6 
ROOT
HETATM    1  C2  UNL     1     -35.882  14.509  -6.681  1.00 20.00     0.023 C 
HETATM    2  C3  UNL     1     -36.672  15.579  -5.943  1.00 20.00     0.075 C 
HETATM    3  C4  UNL     1     -34.013  15.974  -6.061  1.00 20.00     0.086 C 
HETATM    4  C5  UNL     1     -34.456  14.520  -6.144  1.00 20.00     0.066 C 
HETATM    5  S8  UNL     1     -35.505  16.938  -5.672  1.00 20.00    -0.168 SA
ENDROOT
BRANCH   4   6
HETATM    6  C1  UNL     1     -34.352  13.842  -4.808  1.00 20.00     0.145 C 
HETATM    7  O7  UNL     1     -34.941  12.783  -4.595  1.00 20.00    -0.296 OA
BRANCH   6   8
HETATM    8  C6  UNL     1     -33.494  14.544  -3.781  1.00 20.00     0.193 C 
HETATM    9 CL9  UNL     1     -34.501  15.335  -2.559  1.00 20.00    -0.123 Cl
ENDBRANCH   6   8
ENDBRANCH   4   6
TORSDOF 2
ENDMDL
MODEL 8
REMARK VINA RESULT:      -3.6     12.116     12.660
REMARK  2 active torsions:
REMARK  status: ('A' for Active; 'I' for Inactive)
REMARK    1  A    between atoms: C1_1  and  C5_5 
REMARK    2  A    between atoms: C1_1  and  C6_6 
ROOT
HETATM    1  C2  UNL     1     -33.003  15.186  -3.824  1.00 20.00     0.023 C 
HETATM    2  C3  UNL     1     -33.280  16.525  -4.491  1.00 20.00     0.075 C 
HETATM    3  C4  UNL     1     -34.721  16.010  -2.277  1.00 20.00     0.086 C 
HETATM    4  C5  UNL     1     -34.246  14.782  -3.041  1.00 20.00     0.066 C 
HETATM    5  S8  UNL     1     -34.306  17.444  -3.314  1.00 20.00    -0.168 SA
ENDROOT
BRANCH   4   6
HETATM    6  C1  UNL     1     -35.326  14.246  -3.936  1.00 20.00     0.145 C 
HETATM    7  O7  UNL     1     -36.507  14.524  -3.730  1.00 20.00    -0.296 OA
BRANCH   6   8
HETATM    8  C6  UNL     1     -34.861  13.364  -5.072  1.00 20.00     0.193 C 
HETATM    9 CL9  UNL     1     -35.180  14.132  -6.634  1.00 20.00    -0.123 Cl
ENDBRANCH   6   8
ENDBRANCH   4   6
TORSDOF 2
ENDMDL
MODEL 9
REMARK VINA RESULT:      -3.6     12.214     12.681
REMARK  2 active torsions:
REMARK  status: ('A' for Active; 'I' for Inactive)
REMARK    1  A    between atoms: C1_1  and  C5_5 
REMARK    2  A    between atoms: C1_1  and  C6_6 
ROOT
HETATM    1  C2  UNL     1     -34.637  13.520  -4.781  1.00 20.00     0.023 C 
HETATM    2  C3  UNL     1     -35.025  14.178  -6.097  1.00 20.00     0.075 C 
HETATM    3  C4  UNL     1     -33.569  15.700  -4.421  1.00 20.00     0.086 C 
HETATM    4  C5  UNL     1     -34.407  14.620  -3.752  1.00 20.00     0.066 C 
HETATM    5  S8  UNL     1     -34.055  15.707  -6.173  1.00 20.00    -0.168 SA
ENDROOT
BRANCH   4   6
HETATM    6  C1  UNL     1     -35.699  15.179  -3.228  1.00 20.00     0.145 C 
HETATM    7  O7  UNL     1     -36.752  14.557  -3.363  1.00 20.00    -0.296 OA
BRANCH   6   8
HETATM    8  C6  UNL     1     -35.603  16.524  -2.544  1.00 20.00     0.193 C 
HETATM    9 CL9  UNL     1     -34.646  16.406  -1.060  1.00 20.00    -0.123 Cl
ENDBRANCH   6   8
ENDBRANCH   4   6
TORSDOF 2
ENDMDL
