MODEL 1
REMARK VINA RESULT:      -4.6      0.000      0.000
REMARK  3 active torsions:
REMARK  status: ('A' for Active; 'I' for Inactive)
REMARK    1  A    between atoms: C3_3  and  C5_5 
REMARK    2  A    between atoms: C5_5  and  C7_7 
REMARK    3  A    between atoms: C6_6  and  C7_7 
ROOT
HETATM    1  C5  UNL     1     -33.919   6.492   4.218  1.00 20.00     0.010 C 
ENDROOT
BRANCH   1   2
HETATM    2  C3  UNL     1     -32.640   6.442   3.434  1.00 20.00    -0.014 A 
HETATM    3  C1  UNL     1     -32.316   7.525   2.443  1.00 20.00     0.005 A 
HETATM    4  C2  UNL     1     -31.536   7.419   3.724  1.00 20.00     0.005 A 
ENDBRANCH   1   2
BRANCH   1   5
HETATM    5  C7  UNL     1     -33.750   6.037   5.680  1.00 20.00    -0.004 C 
HETATM    6  C4  UNL     1     -33.695   7.227   6.646  1.00 20.00     0.011 C 
BRANCH   5   7
HETATM    7  C6  UNL     1     -34.837   5.029   6.092  1.00 20.00     0.119 C 
HETATM    8 CL8  UNL     1     -35.162   3.786   4.861  1.00 20.00    -0.130 Cl
ENDBRANCH   5   7
ENDBRANCH   1   5
TORSDOF 3
ENDMDL
MODEL 2
REMARK VINA RESULT:      -4.3      1.414      2.112
REMARK  3 active torsions:
REMARK  status: ('A' for Active; 'I' for Inactive)
REMARK    1  A    between atoms: C3_3  and  C5_5 
REMARK    2  A    between atoms: C5_5  and  C7_7 
REMARK    3  A    between atoms: C6_6  and  C7_7 
ROOT
HETATM    1  C5  UNL     1     -33.746   6.663   4.172  1.00 20.00     0.010 C 
ENDROOT
BRANCH   1   2
HETATM    2  C3  UNL     1     -32.496   6.657   3.343  1.00 20.00    -0.014 A 
HETATM    3  C1  UNL     1     -32.169   7.827   2.456  1.00 20.00     0.005 A 
HETATM    4  C2  UNL     1     -31.352   7.568   3.691  1.00 20.00     0.005 A 
ENDBRANCH   1   2
BRANCH   1   5
HETATM    5  C7  UNL     1     -34.787   5.628   3.704  1.00 20.00    -0.004 C 
HETATM    6  C4  UNL     1     -34.349   4.917   2.419  1.00 20.00     0.011 C 
BRANCH   5   7
HETATM    7  C6  UNL     1     -35.127   4.620   4.816  1.00 20.00     0.119 C 
HETATM    8 CL8  UNL     1     -34.710   5.190   6.450  1.00 20.00    -0.130 Cl
ENDBRANCH   5   7
ENDBRANCH   1   5
TORSDOF 3
ENDMDL
MODEL 3
REMARK VINA RESULT:      -4.3      2.792      4.350
REMARK  3 active torsions:
REMARK  status: ('A' for Active; 'I' for Inactive)
REMARK    1  A    between atoms: C3_3  and  C5_5 
REMARK    2  A    between atoms: C5_5  and  C7_7 
REMARK    3  A    between atoms: C6_6  and  C7_7 
ROOT
HETATM    1  C5  UNL     1     -33.042   6.213   3.227  1.00 20.00     0.010 C 
ENDROOT
BRANCH   1   2
HETATM    2  C3  UNL     1     -34.315   6.204   4.020  1.00 20.00    -0.014 A 
HETATM    3  C1  UNL     1     -34.990   4.903   4.356  1.00 20.00     0.005 A 
HETATM    4  C2  UNL     1     -34.321   5.704   5.438  1.00 20.00     0.005 A 
ENDBRANCH   1   2
BRANCH   1   5
HETATM    5  C7  UNL     1     -32.386   7.605   3.151  1.00 20.00    -0.004 C 
HETATM    6  C4  UNL     1     -31.162   7.712   4.068  1.00 20.00     0.011 C 
BRANCH   5   7
HETATM    7  C6  UNL     1     -32.038   7.993   1.703  1.00 20.00     0.119 C 
HETATM    8 CL8  UNL     1     -32.395   9.693   1.313  1.00 20.00    -0.130 Cl
ENDBRANCH   5   7
ENDBRANCH   1   5
TORSDOF 3
ENDMDL
MODEL 4
REMARK VINA RESULT:      -4.2      2.323      4.274
REMARK  3 active torsions:
REMARK  status: ('A' for Active; 'I' for Inactive)
REMARK    1  A    between atoms: C3_3  and  C5_5 
REMARK    2  A    between atoms: C5_5  and  C7_7 
REMARK    3  A    between atoms: C6_6  and  C7_7 
ROOT
HETATM    1  C5  UNL     1     -33.702   6.317   4.977  1.00 20.00     0.010 C 
ENDROOT
BRANCH   1   2
HETATM    2  C3  UNL     1     -34.802   5.307   5.125  1.00 20.00    -0.014 A 
HETATM    3  C1  UNL     1     -34.498   3.924   5.629  1.00 20.00     0.005 A 
HETATM    4  C2  UNL     1     -35.264   4.887   6.492  1.00 20.00     0.005 A 
ENDBRANCH   1   2
BRANCH   1   5
HETATM    5  C7  UNL     1     -32.829   6.082   3.729  1.00 20.00    -0.004 C 
HETATM    6  C4  UNL     1     -33.676   5.776   2.488  1.00 20.00     0.011 C 
BRANCH   5   7
HETATM    7  C6  UNL     1     -31.868   7.257   3.477  1.00 20.00     0.119 C 
HETATM    8 CL8  UNL     1     -32.174   8.115   1.947  1.00 20.00    -0.130 Cl
ENDBRANCH   5   7
ENDBRANCH   1   5
TORSDOF 3
ENDMDL
MODEL 5
REMARK VINA RESULT:      -3.9      1.437      2.423
REMARK  3 active torsions:
REMARK  status: ('A' for Active; 'I' for Inactive)
REMARK    1  A    between atoms: C3_3  and  C5_5 
REMARK    2  A    between atoms: C5_5  and  C7_7 
REMARK    3  A    between atoms: C6_6  and  C7_7 
ROOT
HETATM    1  C5  UNL     1     -31.902   7.404   3.245  1.00 20.00     0.010 C 
ENDROOT
BRANCH   1   2
HETATM    2  C3  UNL     1     -32.548   8.046   2.052  1.00 20.00    -0.014 A 
HETATM    3  C1  UNL     1     -32.476   9.535   1.861  1.00 20.00     0.005 A 
HETATM    4  C2  UNL     1     -31.701   8.623   0.952  1.00 20.00     0.005 A 
ENDBRANCH   1   2
BRANCH   1   5
HETATM    5  C7  UNL     1     -32.755   6.278   3.862  1.00 20.00    -0.004 C 
HETATM    6  C4  UNL     1     -33.394   6.706   5.188  1.00 20.00     0.011 C 
BRANCH   5   7
HETATM    7  C6  UNL     1     -33.812   5.757   2.873  1.00 20.00     0.119 C 
HETATM    8 CL8  UNL     1     -35.392   5.426   3.623  1.00 20.00    -0.130 Cl
ENDBRANCH   5   7
ENDBRANCH   1   5
TORSDOF 3
ENDMDL
MODEL 6
REMARK VINA RESULT:      -3.7     11.930     12.861
REMARK  3 active torsions:
REMARK  status: ('A' for Active; 'I' for Inactive)
REMARK    1  A    between atoms: C3_3  and  C5_5 
REMARK    2  A    between atoms: C5_5  and  C7_7 
REMARK    3  A    between atoms: C6_6  and  C7_7 
ROOT
HETATM    1  C5  UNL     1     -34.737  15.572  -2.540  1.00 20.00     0.010 C 
ENDROOT
BRANCH   1   2
HETATM    2  C3  UNL     1     -34.777  16.897  -1.837  1.00 20.00    -0.014 A 
HETATM    3  C1  UNL     1     -34.777  16.958  -0.334  1.00 20.00     0.005 A 
HETATM    4  C2  UNL     1     -33.565  17.402  -1.105  1.00 20.00     0.005 A 
ENDBRANCH   1   2
BRANCH   1   5
HETATM    5  C7  UNL     1     -33.453  15.362  -3.364  1.00 20.00    -0.004 C 
HETATM    6  C4  UNL     1     -33.254  13.892  -3.751  1.00 20.00     0.011 C 
BRANCH   5   7
HETATM    7  C6  UNL     1     -33.414  16.278  -4.600  1.00 20.00     0.119 C 
HETATM    8 CL8  UNL     1     -34.112  15.537  -6.061  1.00 20.00    -0.130 Cl
ENDBRANCH   5   7
ENDBRANCH   1   5
TORSDOF 3
ENDMDL
MODEL 7
REMARK VINA RESULT:      -3.7     12.101     12.687
REMARK  3 active torsions:
REMARK  status: ('A' for Active; 'I' for Inactive)
REMARK    1  A    between atoms: C3_3  and  C5_5 
REMARK    2  A    between atoms: C5_5  and  C7_7 
REMARK    3  A    between atoms: C6_6  and  C7_7 
ROOT
HETATM    1  C5  UNL     1     -35.119  15.957  -2.480  1.00 20.00     0.010 C 
ENDROOT
BRANCH   1   2
HETATM    2  C3  UNL     1     -34.508  16.363  -1.170  1.00 20.00    -0.014 A 
HETATM    3  C1  UNL     1     -33.742  17.652  -1.058  1.00 20.00     0.005 A 
HETATM    4  C2  UNL     1     -35.082  17.513  -0.392  1.00 20.00     0.005 A 
ENDBRANCH   1   2
BRANCH   1   5
HETATM    5  C7  UNL     1     -34.429  14.734  -3.116  1.00 20.00    -0.004 C 
HETATM    6  C4  UNL     1     -35.356  13.999  -4.091  1.00 20.00     0.011 C 
BRANCH   5   7
HETATM    7  C6  UNL     1     -33.098  15.116  -3.786  1.00 20.00     0.119 C 
HETATM    8 CL8  UNL     1     -33.197  16.585  -4.787  1.00 20.00    -0.130 Cl
ENDBRANCH   5   7
ENDBRANCH   1   5
TORSDOF 3
ENDMDL
MODEL 8
REMARK VINA RESULT:      -3.6     11.485     12.939
REMARK  3 active torsions:
REMARK  status: ('A' for Active; 'I' for Inactive)
REMARK    1  A    between atoms: C3_3  and  C5_5 
REMARK    2  A    between atoms: C5_5  and  C7_7 
REMARK    3  A    between atoms: C6_6  and  C7_7 
ROOT
HETATM    1  C5  UNL     1     -35.386  14.756  -4.657  1.00 20.00     0.010 C 
ENDROOT
BRANCH   1   2
HETATM    2  C3  UNL     1     -34.727  14.323  -5.934  1.00 20.00    -0.014 A 
HETATM    3  C1  UNL     1     -35.455  14.449  -7.243  1.00 20.00     0.005 A 
HETATM    4  C2  UNL     1     -34.287  15.346  -6.944  1.00 20.00     0.005 A 
ENDBRANCH   1   2
BRANCH   1   5
HETATM    5  C7  UNL     1     -34.480  14.588  -3.422  1.00 20.00    -0.004 C 
HETATM    6  C4  UNL     1     -33.288  13.667  -3.708  1.00 20.00     0.011 C 
BRANCH   5   7
HETATM    7  C6  UNL     1     -34.019  15.946  -2.865  1.00 20.00     0.119 C 
HETATM    8 CL8  UNL     1     -34.670  16.314  -1.249  1.00 20.00    -0.130 Cl
ENDBRANCH   5   7
ENDBRANCH   1   5
TORSDOF 3
ENDMDL
MODEL 9
REMARK VINA RESULT:      -3.6     11.855     12.383
REMARK  3 active torsions:
REMARK  status: ('A' for Active; 'I' for Inactive)
REMARK    1  A    between atoms: C3_3  and  C5_5 
REMARK    2  A    between atoms: C5_5  and  C7_7 
REMARK    3  A    between atoms: C6_6  and  C7_7 
ROOT
HETATM    1  C5  UNL     1     -35.520  16.299  -2.617  1.00 20.00     0.010 C 
ENDROOT
BRANCH   1   2
HETATM    2  C3  UNL     1     -34.542  16.257  -1.479  1.00 20.00    -0.014 A 
HETATM    3  C1  UNL     1     -33.685  17.453  -1.171  1.00 20.00     0.005 A 
HETATM    4  C2  UNL     1     -34.793  17.061  -0.234  1.00 20.00     0.005 A 
ENDBRANCH   1   2
BRANCH   1   5
HETATM    5  C7  UNL     1     -35.678  14.942  -3.329  1.00 20.00    -0.004 C 
HETATM    6  C4  UNL     1     -37.068  14.785  -3.957  1.00 20.00     0.011 C 
BRANCH   5   7
HETATM    7  C6  UNL     1     -34.565  14.709  -4.365  1.00 20.00     0.119 C 
HETATM    8 CL8  UNL     1     -33.235  13.687  -3.767  1.00 20.00    -0.130 Cl
ENDBRANCH   5   7
ENDBRANCH   1   5
TORSDOF 3
ENDMDL
