MODEL 1
REMARK VINA RESULT:      -4.7      0.000      0.000
REMARK  1 active torsions:
REMARK  status: ('A' for Active; 'I' for Inactive)
REMARK    1  A    between atoms: C2_2  and  C6_6 
ROOT
HETATM    1  C1  UNL     1     -34.862   6.250   3.853  1.00 20.00     0.015 A 
HETATM    2  C2  UNL     1     -33.455   5.714   3.857  1.00 20.00     0.008 A 
HETATM    3  C3  UNL     1     -34.324   5.577   5.098  1.00 20.00    -0.043 A 
HETATM    4  C4  UNL     1     -34.833   4.199   5.429  1.00 20.00     0.015 C 
HETATM    5  C5  UNL     1     -34.055   6.435   6.305  1.00 20.00     0.015 C 
ENDROOT
BRANCH   2   6
HETATM    6  C6  UNL     1     -32.295   6.647   3.786  1.00 20.00     0.120 C 
HETATM    7 CL7  UNL     1     -32.389   7.687   2.338  1.00 20.00    -0.130 Cl
ENDBRANCH   2   6
TORSDOF 1
ENDMDL
MODEL 2
REMARK VINA RESULT:      -3.9      1.991      3.011
REMARK  1 active torsions:
REMARK  status: ('A' for Active; 'I' for Inactive)
REMARK    1  A    between atoms: C2_2  and  C6_6 
ROOT
HETATM    1  C1  UNL     1     -34.930   3.985   4.713  1.00 20.00     0.015 A 
HETATM    2  C2  UNL     1     -34.999   5.194   5.607  1.00 20.00     0.008 A 
HETATM    3  C3  UNL     1     -34.869   5.368   4.102  1.00 20.00    -0.043 A 
HETATM    4  C4  UNL     1     -36.084   5.865   3.363  1.00 20.00     0.015 C 
HETATM    5  C5  UNL     1     -33.564   5.822   3.505  1.00 20.00     0.015 C 
ENDROOT
BRANCH   2   6
HETATM    6  C6  UNL     1     -33.887   5.496   6.551  1.00 20.00     0.120 C 
HETATM    7 CL7  UNL     1     -33.721   7.254   6.813  1.00 20.00    -0.130 Cl
ENDBRANCH   2   6
TORSDOF 1
ENDMDL
MODEL 3
REMARK VINA RESULT:      -3.8      2.190      3.669
REMARK  1 active torsions:
REMARK  status: ('A' for Active; 'I' for Inactive)
REMARK    1  A    between atoms: C2_2  and  C6_6 
ROOT
HETATM    1  C1  UNL     1     -32.213   5.786   2.945  1.00 20.00     0.015 A 
HETATM    2  C2  UNL     1     -33.415   6.512   3.490  1.00 20.00     0.008 A 
HETATM    3  C3  UNL     1     -32.144   7.282   3.168  1.00 20.00    -0.043 A 
HETATM    4  C4  UNL     1     -32.173   8.176   1.956  1.00 20.00     0.015 C 
HETATM    5  C5  UNL     1     -31.268   7.792   4.281  1.00 20.00     0.015 C 
ENDROOT
BRANCH   2   6
HETATM    6  C6  UNL     1     -33.874   6.264   4.885  1.00 20.00     0.120 C 
HETATM    7 CL7  UNL     1     -35.133   5.000   4.937  1.00 20.00    -0.130 Cl
ENDBRANCH   2   6
TORSDOF 1
ENDMDL
MODEL 4
REMARK VINA RESULT:      -3.5     11.801     12.461
REMARK  1 active torsions:
REMARK  status: ('A' for Active; 'I' for Inactive)
REMARK    1  A    between atoms: C2_2  and  C6_6 
ROOT
HETATM    1  C1  UNL     1     -32.860  14.716  -3.609  1.00 20.00     0.015 A 
HETATM    2  C2  UNL     1     -34.216  15.013  -3.026  1.00 20.00     0.008 A 
HETATM    3  C3  UNL     1     -34.089  14.609  -4.487  1.00 20.00    -0.043 A 
HETATM    4  C4  UNL     1     -34.569  13.231  -4.860  1.00 20.00     0.015 C 
HETATM    5  C5  UNL     1     -34.275  15.635  -5.573  1.00 20.00     0.015 C 
ENDROOT
BRANCH   2   6
HETATM    6  C6  UNL     1     -34.565  16.399  -2.602  1.00 20.00     0.120 C 
HETATM    7 CL7  UNL     1     -34.622  16.535  -0.823  1.00 20.00    -0.130 Cl
ENDBRANCH   2   6
TORSDOF 1
ENDMDL
MODEL 5
REMARK VINA RESULT:      -3.4      1.513      2.613
REMARK  1 active torsions:
REMARK  status: ('A' for Active; 'I' for Inactive)
REMARK    1  A    between atoms: C2_2  and  C6_6 
ROOT
HETATM    1  C1  UNL     1     -31.836   5.937   3.411  1.00 20.00     0.015 A 
HETATM    2  C2  UNL     1     -32.334   7.333   3.147  1.00 20.00     0.008 A 
HETATM    3  C3  UNL     1     -33.310   6.245   3.570  1.00 20.00    -0.043 A 
HETATM    4  C4  UNL     1     -33.864   6.329   4.968  1.00 20.00     0.015 C 
HETATM    5  C5  UNL     1     -34.267   5.659   2.567  1.00 20.00     0.015 C 
ENDROOT
BRANCH   2   6
HETATM    6  C6  UNL     1     -32.303   7.893   1.767  1.00 20.00     0.120 C 
HETATM    7 CL7  UNL     1     -32.546   9.662   1.783  1.00 20.00    -0.130 Cl
ENDBRANCH   2   6
TORSDOF 1
ENDMDL
MODEL 6
REMARK VINA RESULT:      -3.4      1.488      2.439
REMARK  1 active torsions:
REMARK  status: ('A' for Active; 'I' for Inactive)
REMARK    1  A    between atoms: C2_2  and  C6_6 
ROOT
HETATM    1  C1  UNL     1     -33.039   6.086   4.448  1.00 20.00     0.015 A 
HETATM    2  C2  UNL     1     -34.483   6.453   4.235  1.00 20.00     0.008 A 
HETATM    3  C3  UNL     1     -34.026   5.920   5.584  1.00 20.00    -0.043 A 
HETATM    4  C4  UNL     1     -33.960   6.904   6.722  1.00 20.00     0.015 C 
HETATM    5  C5  UNL     1     -34.390   4.522   6.006  1.00 20.00     0.015 C 
ENDROOT
BRANCH   2   6
HETATM    6  C6  UNL     1     -35.331   5.659   3.302  1.00 20.00     0.120 C 
HETATM    7 CL7  UNL     1     -34.345   4.896   2.024  1.00 20.00    -0.130 Cl
ENDBRANCH   2   6
TORSDOF 1
ENDMDL
MODEL 7
REMARK VINA RESULT:      -3.4      2.287      3.455
REMARK  1 active torsions:
REMARK  status: ('A' for Active; 'I' for Inactive)
REMARK    1  A    between atoms: C2_2  and  C6_6 
ROOT
HETATM    1  C1  UNL     1     -34.431   5.721   2.894  1.00 20.00     0.015 A 
HETATM    2  C2  UNL     1     -34.200   6.394   4.221  1.00 20.00     0.008 A 
HETATM    3  C3  UNL     1     -33.080   6.337   3.193  1.00 20.00    -0.043 A 
HETATM    4  C4  UNL     1     -32.724   7.623   2.496  1.00 20.00     0.015 C 
HETATM    5  C5  UNL     1     -31.911   5.411   3.402  1.00 20.00     0.015 C 
ENDROOT
BRANCH   2   6
HETATM    6  C6  UNL     1     -34.181   5.593   5.477  1.00 20.00     0.120 C 
HETATM    7 CL7  UNL     1     -35.037   4.040   5.266  1.00 20.00    -0.130 Cl
ENDBRANCH   2   6
TORSDOF 1
ENDMDL
MODEL 8
REMARK VINA RESULT:      -3.4      2.389      3.437
REMARK  1 active torsions:
REMARK  status: ('A' for Active; 'I' for Inactive)
REMARK    1  A    between atoms: C2_2  and  C6_6 
ROOT
HETATM    1  C1  UNL     1     -34.071   7.337   4.246  1.00 20.00     0.015 A 
HETATM    2  C2  UNL     1     -33.774   6.146   5.118  1.00 20.00     0.008 A 
HETATM    3  C3  UNL     1     -33.532   6.069   3.619  1.00 20.00    -0.043 A 
HETATM    4  C4  UNL     1     -32.099   6.067   3.156  1.00 20.00     0.015 C 
HETATM    5  C5  UNL     1     -34.456   5.262   2.746  1.00 20.00     0.015 C 
ENDROOT
BRANCH   2   6
HETATM    6  C6  UNL     1     -34.882   5.414   5.793  1.00 20.00     0.120 C 
HETATM    7 CL7  UNL     1     -34.562   3.658   5.840  1.00 20.00    -0.130 Cl
ENDBRANCH   2   6
TORSDOF 1
ENDMDL
MODEL 9
REMARK VINA RESULT:      -3.3     11.413     12.430
REMARK  1 active torsions:
REMARK  status: ('A' for Active; 'I' for Inactive)
REMARK    1  A    between atoms: C2_2  and  C6_6 
ROOT
HETATM    1  C1  UNL     1     -35.643  14.896  -3.463  1.00 20.00     0.015 A 
HETATM    2  C2  UNL     1     -34.642  15.989  -3.725  1.00 20.00     0.008 A 
HETATM    3  C3  UNL     1     -34.423  14.603  -4.310  1.00 20.00    -0.043 A 
HETATM    4  C4  UNL     1     -34.618  14.447  -5.795  1.00 20.00     0.015 C 
HETATM    5  C5  UNL     1     -33.363  13.700  -3.735  1.00 20.00     0.015 C 
ENDROOT
BRANCH   2   6
HETATM    6  C6  UNL     1     -33.814  16.532  -2.611  1.00 20.00     0.120 C 
HETATM    7 CL7  UNL     1     -34.657  16.380  -1.045  1.00 20.00    -0.130 Cl
ENDBRANCH   2   6
TORSDOF 1
ENDMDL
