MODEL 1
REMARK VINA RESULT:      -3.9      0.000      0.000
REMARK  4 active torsions:
REMARK  status: ('A' for Active; 'I' for Inactive)
REMARK    1  A    between atoms: C1_1  and  C6_6 
REMARK    2  A    between atoms: C2_2  and  C7_7 
REMARK    3  A    between atoms: C6_6  and  S9_9 
REMARK    4  A    between atoms: C8_8  and  S9_9 
ROOT
HETATM    1  C6  UNL     1     -33.273  15.513  -3.465  1.00 20.00     0.101 C 
ENDROOT
BRANCH   1   2
HETATM    2  C1  UNL     1     -33.623  16.466  -2.366  1.00 20.00    -0.020 C 
HETATM    3  C2  UNL     1     -34.602  16.247  -1.475  1.00 20.00    -0.015 C 
BRANCH   3   4
HETATM    4  C7  UNL     1     -34.947  17.196  -0.375  1.00 20.00     0.141 C 
HETATM    5 CL10 UNL     1     -33.521  18.161   0.063  1.00 20.00    -0.126 Cl
ENDBRANCH   3   4
ENDBRANCH   1   2
BRANCH   1   6
HETATM    6  S9  UNL     1     -33.587  16.274  -5.072  1.00 20.00    -0.156 SA
BRANCH   6   7
HETATM    7  C8  UNL     1     -34.764  15.022  -5.713  1.00 20.00    -0.003 C 
HETATM    8  C3  UNL     1     -36.191  15.489  -5.407  1.00 20.00     0.026 C 
HETATM    9  C4  UNL     1     -34.559  14.897  -7.225  1.00 20.00     0.026 C 
HETATM   10  C5  UNL     1     -34.482  13.684  -5.025  1.00 20.00     0.026 C 
ENDBRANCH   6   7
ENDBRANCH   1   6
TORSDOF 4
ENDMDL
MODEL 2
REMARK VINA RESULT:      -3.8      0.856      1.698
REMARK  4 active torsions:
REMARK  status: ('A' for Active; 'I' for Inactive)
REMARK    1  A    between atoms: C1_1  and  C6_6 
REMARK    2  A    between atoms: C2_2  and  C7_7 
REMARK    3  A    between atoms: C6_6  and  S9_9 
REMARK    4  A    between atoms: C8_8  and  S9_9 
ROOT
HETATM    1  C6  UNL     1     -34.521  15.579  -2.644  1.00 20.00     0.101 C 
ENDROOT
BRANCH   1   2
HETATM    2  C1  UNL     1     -34.041  16.612  -1.676  1.00 20.00    -0.020 C 
HETATM    3  C2  UNL     1     -34.689  16.931  -0.545  1.00 20.00    -0.015 C 
BRANCH   3   4
HETATM    4  C7  UNL     1     -34.206  17.959   0.424  1.00 20.00     0.141 C 
HETATM    5 CL10 UNL     1     -32.616  18.568  -0.082  1.00 20.00    -0.126 Cl
ENDBRANCH   3   4
ENDBRANCH   1   2
BRANCH   1   6
HETATM    6  S9  UNL     1     -33.636  15.734  -4.210  1.00 20.00    -0.156 SA
BRANCH   6   7
HETATM    7  C8  UNL     1     -34.761  14.708  -5.233  1.00 20.00    -0.003 C 
HETATM    8  C3  UNL     1     -34.555  13.236  -4.863  1.00 20.00     0.026 C 
HETATM    9  C4  UNL     1     -36.203  15.132  -4.940  1.00 20.00     0.026 C 
HETATM   10  C5  UNL     1     -34.429  14.938  -6.710  1.00 20.00     0.026 C 
ENDBRANCH   6   7
ENDBRANCH   1   6
TORSDOF 4
ENDMDL
MODEL 3
REMARK VINA RESULT:      -3.8      1.500      2.227
REMARK  4 active torsions:
REMARK  status: ('A' for Active; 'I' for Inactive)
REMARK    1  A    between atoms: C1_1  and  C6_6 
REMARK    2  A    between atoms: C2_2  and  C7_7 
REMARK    3  A    between atoms: C6_6  and  S9_9 
REMARK    4  A    between atoms: C8_8  and  S9_9 
ROOT
HETATM    1  C6  UNL     1     -34.121  16.379  -2.114  1.00 20.00     0.101 C 
ENDROOT
BRANCH   1   2
HETATM    2  C1  UNL     1     -34.736  16.600  -0.769  1.00 20.00    -0.020 C 
HETATM    3  C2  UNL     1     -34.401  17.612   0.046  1.00 20.00    -0.015 C 
BRANCH   3   4
HETATM    4  C7  UNL     1     -35.019  17.835   1.387  1.00 20.00     0.141 C 
HETATM    5 CL10 UNL     1     -33.808  18.484   2.512  1.00 20.00    -0.126 Cl
ENDBRANCH   3   4
ENDBRANCH   1   2
BRANCH   1   6
HETATM    6  S9  UNL     1     -35.371  15.804  -3.283  1.00 20.00    -0.156 SA
BRANCH   6   7
HETATM    7  C8  UNL     1     -34.277  14.762  -4.323  1.00 20.00    -0.003 C 
HETATM    8  C3  UNL     1     -34.256  15.337  -5.742  1.00 20.00     0.026 C 
HETATM    9  C4  UNL     1     -32.870  14.787  -3.719  1.00 20.00     0.026 C 
HETATM   10  C5  UNL     1     -34.826  13.332  -4.334  1.00 20.00     0.026 C 
ENDBRANCH   6   7
ENDBRANCH   1   6
TORSDOF 4
ENDMDL
MODEL 4
REMARK VINA RESULT:      -3.7      1.442      2.104
REMARK  4 active torsions:
REMARK  status: ('A' for Active; 'I' for Inactive)
REMARK    1  A    between atoms: C1_1  and  C6_6 
REMARK    2  A    between atoms: C2_2  and  C7_7 
REMARK    3  A    between atoms: C6_6  and  S9_9 
REMARK    4  A    between atoms: C8_8  and  S9_9 
ROOT
HETATM    1  C6  UNL     1     -36.010  15.300  -3.317  1.00 20.00     0.101 C 
ENDROOT
BRANCH   1   2
HETATM    2  C1  UNL     1     -35.605  16.350  -2.331  1.00 20.00    -0.020 C 
HETATM    3  C2  UNL     1     -34.461  16.311  -1.630  1.00 20.00    -0.015 C 
BRANCH   3   4
HETATM    4  C7  UNL     1     -34.056  17.362  -0.650  1.00 20.00     0.141 C 
HETATM    5 CL10 UNL     1     -35.127  17.316   0.766  1.00 20.00    -0.126 Cl
ENDBRANCH   3   4
ENDBRANCH   1   2
BRANCH   1   6
HETATM    6  S9  UNL     1     -35.992  15.979  -4.990  1.00 20.00    -0.156 SA
BRANCH   6   7
HETATM    7  C8  UNL     1     -34.402  15.245  -5.537  1.00 20.00    -0.003 C 
HETATM    8  C3  UNL     1     -33.271  16.222  -5.205  1.00 20.00     0.026 C 
HETATM    9  C4  UNL     1     -34.199  13.923  -4.791  1.00 20.00     0.026 C 
HETATM   10  C5  UNL     1     -34.469  14.998  -7.047  1.00 20.00     0.026 C 
ENDBRANCH   6   7
ENDBRANCH   1   6
TORSDOF 4
ENDMDL
MODEL 5
REMARK VINA RESULT:      -3.5     11.238     12.155
REMARK  4 active torsions:
REMARK  status: ('A' for Active; 'I' for Inactive)
REMARK    1  A    between atoms: C1_1  and  C6_6 
REMARK    2  A    between atoms: C2_2  and  C7_7 
REMARK    3  A    between atoms: C6_6  and  S9_9 
REMARK    4  A    between atoms: C8_8  and  S9_9 
ROOT
HETATM    1  C6  UNL     1     -32.442   6.846   3.719  1.00 20.00     0.101 C 
ENDROOT
BRANCH   1   2
HETATM    2  C1  UNL     1     -32.100   7.633   2.494  1.00 20.00    -0.020 C 
HETATM    3  C2  UNL     1     -32.550   8.875   2.256  1.00 20.00    -0.015 C 
BRANCH   3   4
HETATM    4  C7  UNL     1     -32.204   9.661   1.035  1.00 20.00     0.141 C 
HETATM    5 CL10 UNL     1     -32.671   8.757  -0.420  1.00 20.00    -0.126 Cl
ENDBRANCH   3   4
ENDBRANCH   1   2
BRANCH   1   6
HETATM    6  S9  UNL     1     -33.254   5.301   3.259  1.00 20.00    -0.156 SA
BRANCH   6   7
HETATM    7  C8  UNL     1     -34.578   5.330   4.529  1.00 20.00    -0.003 C 
HETATM    8  C3  UNL     1     -34.737   3.920   5.104  1.00 20.00     0.026 C 
HETATM    9  C4  UNL     1     -34.167   6.310   5.632  1.00 20.00     0.026 C 
HETATM   10  C5  UNL     1     -35.882   5.788   3.870  1.00 20.00     0.026 C 
ENDBRANCH   6   7
ENDBRANCH   1   6
TORSDOF 4
ENDMDL
MODEL 6
REMARK VINA RESULT:      -3.5     11.207     12.067
REMARK  4 active torsions:
REMARK  status: ('A' for Active; 'I' for Inactive)
REMARK    1  A    between atoms: C1_1  and  C6_6 
REMARK    2  A    between atoms: C2_2  and  C7_7 
REMARK    3  A    between atoms: C6_6  and  S9_9 
REMARK    4  A    between atoms: C8_8  and  S9_9 
ROOT
HETATM    1  C6  UNL     1     -32.389   6.843   3.701  1.00 20.00     0.101 C 
ENDROOT
BRANCH   1   2
HETATM    2  C1  UNL     1     -32.079   7.648   2.479  1.00 20.00    -0.020 C 
HETATM    3  C2  UNL     1     -32.554   8.884   2.261  1.00 20.00    -0.015 C 
BRANCH   3   4
HETATM    4  C7  UNL     1     -32.241   9.688   1.043  1.00 20.00     0.141 C 
HETATM    5 CL10 UNL     1     -32.737   8.801  -0.413  1.00 20.00    -0.126 Cl
ENDBRANCH   3   4
ENDBRANCH   1   2
BRANCH   1   6
HETATM    6  S9  UNL     1     -33.215   5.305   3.241  1.00 20.00    -0.156 SA
BRANCH   6   7
HETATM    7  C8  UNL     1     -34.553   5.358   4.495  1.00 20.00    -0.003 C 
HETATM    8  C3  UNL     1     -34.147   6.333   5.604  1.00 20.00     0.026 C 
HETATM    9  C4  UNL     1     -35.837   5.835   3.811  1.00 20.00     0.026 C 
HETATM   10  C5  UNL     1     -34.746   3.950   5.066  1.00 20.00     0.026 C 
ENDBRANCH   6   7
ENDBRANCH   1   6
TORSDOF 4
ENDMDL
MODEL 7
REMARK VINA RESULT:      -3.5     11.242     12.127
REMARK  4 active torsions:
REMARK  status: ('A' for Active; 'I' for Inactive)
REMARK    1  A    between atoms: C1_1  and  C6_6 
REMARK    2  A    between atoms: C2_2  and  C7_7 
REMARK    3  A    between atoms: C6_6  and  S9_9 
REMARK    4  A    between atoms: C8_8  and  S9_9 
ROOT
HETATM    1  C6  UNL     1     -32.430   6.867   3.704  1.00 20.00     0.101 C 
ENDROOT
BRANCH   1   2
HETATM    2  C1  UNL     1     -32.119   7.629   2.455  1.00 20.00    -0.020 C 
HETATM    3  C2  UNL     1     -32.494   8.899   2.244  1.00 20.00    -0.015 C 
BRANCH   3   4
HETATM    4  C7  UNL     1     -32.178   9.660   0.998  1.00 20.00     0.141 C 
HETATM    5 CL10 UNL     1     -32.698   8.734  -0.425  1.00 20.00    -0.126 Cl
ENDBRANCH   3   4
ENDBRANCH   1   2
BRANCH   1   6
HETATM    6  S9  UNL     1     -33.195   5.284   3.293  1.00 20.00    -0.156 SA
BRANCH   6   7
HETATM    7  C8  UNL     1     -34.537   5.326   4.543  1.00 20.00    -0.003 C 
HETATM    8  C3  UNL     1     -35.833   5.765   3.855  1.00 20.00     0.026 C 
HETATM    9  C4  UNL     1     -34.696   3.920   5.128  1.00 20.00     0.026 C 
HETATM   10  C5  UNL     1     -34.154   6.320   5.643  1.00 20.00     0.026 C 
ENDBRANCH   6   7
ENDBRANCH   1   6
TORSDOF 4
ENDMDL
MODEL 8
REMARK VINA RESULT:      -3.4      1.577      2.164
REMARK  4 active torsions:
REMARK  status: ('A' for Active; 'I' for Inactive)
REMARK    1  A    between atoms: C1_1  and  C6_6 
REMARK    2  A    between atoms: C2_2  and  C7_7 
REMARK    3  A    between atoms: C6_6  and  S9_9 
REMARK    4  A    between atoms: C8_8  and  S9_9 
ROOT
HETATM    1  C6  UNL     1     -36.004  14.626  -3.898  1.00 20.00     0.101 C 
ENDROOT
BRANCH   1   2
HETATM    2  C1  UNL     1     -35.294  15.275  -2.753  1.00 20.00    -0.020 C 
HETATM    3  C2  UNL     1     -34.452  16.311  -2.889  1.00 20.00    -0.015 C 
BRANCH   3   4
HETATM    4  C7  UNL     1     -33.748  16.962  -1.744  1.00 20.00     0.141 C 
HETATM    5 CL10 UNL     1     -34.744  16.851  -0.278  1.00 20.00    -0.126 Cl
ENDBRANCH   3   4
ENDBRANCH   1   2
BRANCH   1   6
HETATM    6  S9  UNL     1     -34.815  14.106  -5.153  1.00 20.00    -0.156 SA
BRANCH   6   7
HETATM    7  C8  UNL     1     -35.352  15.244  -6.489  1.00 20.00    -0.003 C 
HETATM    8  C3  UNL     1     -34.293  16.336  -6.658  1.00 20.00     0.026 C 
HETATM    9  C4  UNL     1     -35.494  14.437  -7.782  1.00 20.00     0.026 C 
HETATM   10  C5  UNL     1     -36.698  15.862  -6.097  1.00 20.00     0.026 C 
ENDBRANCH   6   7
ENDBRANCH   1   6
TORSDOF 4
ENDMDL
MODEL 9
REMARK VINA RESULT:      -3.3     11.279     12.543
REMARK  4 active torsions:
REMARK  status: ('A' for Active; 'I' for Inactive)
REMARK    1  A    between atoms: C1_1  and  C6_6 
REMARK    2  A    between atoms: C2_2  and  C7_7 
REMARK    3  A    between atoms: C6_6  and  S9_9 
REMARK    4  A    between atoms: C8_8  and  S9_9 
ROOT
HETATM    1  C6  UNL     1     -42.447   7.756  -2.819  1.00 20.00     0.101 C 
ENDROOT
BRANCH   1   2
HETATM    2  C1  UNL     1     -42.629   8.061  -4.272  1.00 20.00    -0.020 C 
HETATM    3  C2  UNL     1     -42.141   9.159  -4.869  1.00 20.00    -0.015 C 
BRANCH   3   4
HETATM    4  C7  UNL     1     -42.318   9.459  -6.321  1.00 20.00     0.141 C 
HETATM    5 CL10 UNL     1     -40.821   9.091  -7.203  1.00 20.00    -0.126 Cl
ENDBRANCH   3   4
ENDBRANCH   1   2
BRANCH   1   6
HETATM    6  S9  UNL     1     -42.869   6.032  -2.487  1.00 20.00    -0.156 SA
BRANCH   6   7
HETATM    7  C8  UNL     1     -41.799   5.795  -1.016  1.00 20.00    -0.003 C 
HETATM    8  C3  UNL     1     -40.897   4.581  -1.256  1.00 20.00     0.026 C 
HETATM    9  C4  UNL     1     -40.952   7.056  -0.826  1.00 20.00     0.026 C 
HETATM   10  C5  UNL     1     -42.690   5.563   0.208  1.00 20.00     0.026 C 
ENDBRANCH   6   7
ENDBRANCH   1   6
TORSDOF 4
ENDMDL
