MODEL 1
REMARK VINA RESULT:      -4.2      0.000      0.000
REMARK  1 active torsions:
REMARK  status: ('A' for Active; 'I' for Inactive)
REMARK    1  A    between atoms: C6_6  and  C9_9 
ROOT
HETATM    1  C1  UNL     1     -34.391  14.188  -4.734  1.00 20.00    -0.085 C 
HETATM    2  C2  UNL     1     -35.329  13.319  -4.332  1.00 20.00     0.014 C 
HETATM    3  C3  UNL     1     -34.347  14.771  -6.118  1.00 20.00     0.059 C 
HETATM    4  C4  UNL     1     -33.297  14.694  -3.834  1.00 20.00     0.065 C 
HETATM    5  C5  UNL     1     -34.281  16.292  -6.028  1.00 20.00     0.172 C 
HETATM    6  C6  UNL     1     -33.244  16.227  -3.856  1.00 20.00     0.128 C 
HETATM    7  O10 UNL     1     -33.193  16.720  -5.203  1.00 20.00    -0.385 OA
ENDROOT
BRANCH   6   8
HETATM    8  C9  UNL     1     -34.370  16.885  -3.058  1.00 20.00     0.007 C 
HETATM    9  C7  UNL     1     -34.503  16.243  -1.678  1.00 20.00     0.012 C 
HETATM   10  C8  UNL     1     -34.133  18.389  -2.927  1.00 20.00     0.012 C 
ENDBRANCH   6   8
TORSDOF 1
ENDMDL
MODEL 2
REMARK VINA RESULT:      -4.1      2.016      3.866
REMARK  1 active torsions:
REMARK  status: ('A' for Active; 'I' for Inactive)
REMARK    1  A    between atoms: C6_6  and  C9_9 
ROOT
HETATM    1  C1  UNL     1     -33.980  14.860  -3.307  1.00 20.00    -0.085 C 
HETATM    2  C2  UNL     1     -32.708  15.046  -3.683  1.00 20.00     0.014 C 
HETATM    3  C3  UNL     1     -34.682  15.739  -2.310  1.00 20.00     0.059 C 
HETATM    4  C4  UNL     1     -34.853  13.769  -3.863  1.00 20.00     0.065 C 
HETATM    5  C5  UNL     1     -35.990  16.244  -2.908  1.00 20.00     0.172 C 
HETATM    6  C6  UNL     1     -36.180  14.343  -4.374  1.00 20.00     0.128 C 
HETATM    7  O10 UNL     1     -36.803  15.163  -3.374  1.00 20.00    -0.385 OA
ENDROOT
BRANCH   6   8
HETATM    8  C9  UNL     1     -36.048  15.083  -5.706  1.00 20.00     0.007 C 
HETATM    9  C7  UNL     1     -35.220  14.268  -6.698  1.00 20.00     0.012 C 
HETATM   10  C8  UNL     1     -37.426  15.395  -6.289  1.00 20.00     0.012 C 
ENDBRANCH   6   8
TORSDOF 1
ENDMDL
MODEL 3
REMARK VINA RESULT:      -4.1     12.135     13.524
REMARK  1 active torsions:
REMARK  status: ('A' for Active; 'I' for Inactive)
REMARK    1  A    between atoms: C6_6  and  C9_9 
ROOT
HETATM    1  C1  UNL     1     -34.869   4.668   5.119  1.00 20.00    -0.085 C 
HETATM    2  C2  UNL     1     -34.746   3.339   5.000  1.00 20.00     0.014 C 
HETATM    3  C3  UNL     1     -34.827   5.385   6.439  1.00 20.00     0.059 C 
HETATM    4  C4  UNL     1     -35.035   5.589   3.941  1.00 20.00     0.065 C 
HETATM    5  C5  UNL     1     -33.788   6.499   6.380  1.00 20.00     0.172 C 
HETATM    6  C6  UNL     1     -34.006   6.725   3.993  1.00 20.00     0.128 C 
HETATM    7  O10 UNL     1     -34.022   7.374   5.273  1.00 20.00    -0.385 OA
ENDROOT
BRANCH   6   8
HETATM    8  C9  UNL     1     -32.595   6.284   3.604  1.00 20.00     0.007 C 
HETATM    9  C7  UNL     1     -32.626   5.411   2.350  1.00 20.00     0.012 C 
HETATM   10  C8  UNL     1     -31.689   7.497   3.387  1.00 20.00     0.012 C 
ENDBRANCH   6   8
TORSDOF 1
ENDMDL
MODEL 4
REMARK VINA RESULT:      -3.9      1.317      3.285
REMARK  1 active torsions:
REMARK  status: ('A' for Active; 'I' for Inactive)
REMARK    1  A    between atoms: C6_6  and  C9_9 
ROOT
HETATM    1  C1  UNL     1     -34.101  14.733  -3.736  1.00 20.00    -0.085 C 
HETATM    2  C2  UNL     1     -33.361  13.616  -3.764  1.00 20.00     0.014 C 
HETATM    3  C3  UNL     1     -33.746  15.937  -2.910  1.00 20.00     0.059 C 
HETATM    4  C4  UNL     1     -35.353  14.912  -4.551  1.00 20.00     0.065 C 
HETATM    5  C5  UNL     1     -33.729  17.176  -3.798  1.00 20.00     0.172 C 
HETATM    6  C6  UNL     1     -35.293  16.216  -5.356  1.00 20.00     0.128 C 
HETATM    7  O10 UNL     1     -34.960  17.327  -4.510  1.00 20.00    -0.385 OA
ENDROOT
BRANCH   6   8
HETATM    8  C9  UNL     1     -34.369  16.138  -6.571  1.00 20.00     0.007 C 
HETATM    9  C7  UNL     1     -34.638  14.866  -7.375  1.00 20.00     0.012 C 
HETATM   10  C8  UNL     1     -34.532  17.373  -7.456  1.00 20.00     0.012 C 
ENDBRANCH   6   8
TORSDOF 1
ENDMDL
MODEL 5
REMARK VINA RESULT:      -3.9      1.586      2.627
REMARK  1 active torsions:
REMARK  status: ('A' for Active; 'I' for Inactive)
REMARK    1  A    between atoms: C6_6  and  C9_9 
ROOT
HETATM    1  C1  UNL     1     -34.897  14.864  -5.945  1.00 20.00    -0.085 C 
HETATM    2  C2  UNL     1     -34.211  15.114  -7.068  1.00 20.00     0.014 C 
HETATM    3  C3  UNL     1     -34.932  13.514  -5.284  1.00 20.00     0.059 C 
HETATM    4  C4  UNL     1     -35.685  15.913  -5.208  1.00 20.00     0.065 C 
HETATM    5  C5  UNL     1     -34.544  13.657  -3.816  1.00 20.00     0.172 C 
HETATM    6  C6  UNL     1     -35.293  15.943  -3.726  1.00 20.00     0.128 C 
HETATM    7  O10 UNL     1     -35.356  14.628  -3.152  1.00 20.00    -0.385 OA
ENDROOT
BRANCH   6   8
HETATM    8  C9  UNL     1     -33.940  16.605  -3.468  1.00 20.00     0.007 C 
HETATM    9  C7  UNL     1     -33.826  17.922  -4.235  1.00 20.00     0.012 C 
HETATM   10  C8  UNL     1     -33.728  16.838  -1.972  1.00 20.00     0.012 C 
ENDBRANCH   6   8
TORSDOF 1
ENDMDL
MODEL 6
REMARK VINA RESULT:      -3.9      1.769      3.426
REMARK  1 active torsions:
REMARK  status: ('A' for Active; 'I' for Inactive)
REMARK    1  A    between atoms: C6_6  and  C9_9 
ROOT
HETATM    1  C1  UNL     1     -34.135  15.289  -3.378  1.00 20.00    -0.085 C 
HETATM    2  C2  UNL     1     -34.488  15.898  -2.238  1.00 20.00     0.014 C 
HETATM    3  C3  UNL     1     -34.012  13.797  -3.511  1.00 20.00     0.059 C 
HETATM    4  C4  UNL     1     -33.851  16.031  -4.655  1.00 20.00     0.065 C 
HETATM    5  C5  UNL     1     -34.846  13.322  -4.696  1.00 20.00     0.172 C 
HETATM    6  C6  UNL     1     -34.667  15.446  -5.814  1.00 20.00     0.128 C 
HETATM    7  O10 UNL     1     -34.500  14.023  -5.894  1.00 20.00    -0.385 OA
ENDROOT
BRANCH   6   8
HETATM    8  C9  UNL     1     -36.145  15.837  -5.774  1.00 20.00     0.007 C 
HETATM    9  C7  UNL     1     -36.301  17.348  -5.611  1.00 20.00     0.012 C 
HETATM   10  C8  UNL     1     -36.865  15.359  -7.035  1.00 20.00     0.012 C 
ENDBRANCH   6   8
TORSDOF 1
ENDMDL
MODEL 7
REMARK VINA RESULT:      -3.8      1.979      2.855
REMARK  1 active torsions:
REMARK  status: ('A' for Active; 'I' for Inactive)
REMARK    1  A    between atoms: C6_6  and  C9_9 
ROOT
HETATM    1  C1  UNL     1     -36.719  15.455  -5.222  1.00 20.00    -0.085 C 
HETATM    2  C2  UNL     1     -37.278  16.669  -5.124  1.00 20.00     0.014 C 
HETATM    3  C3  UNL     1     -36.281  14.852  -6.527  1.00 20.00     0.059 C 
HETATM    4  C4  UNL     1     -36.445  14.575  -4.032  1.00 20.00     0.065 C 
HETATM    5  C5  UNL     1     -34.828  14.403  -6.417  1.00 20.00     0.172 C 
HETATM    6  C6  UNL     1     -34.987  14.102  -4.034  1.00 20.00     0.128 C 
HETATM    7  O10 UNL     1     -34.634  13.529  -5.302  1.00 20.00    -0.385 OA
ENDROOT
BRANCH   6   8
HETATM    8  C9  UNL     1     -33.996  15.187  -3.611  1.00 20.00     0.007 C 
HETATM    9  C7  UNL     1     -34.414  15.814  -2.282  1.00 20.00     0.012 C 
HETATM   10  C8  UNL     1     -32.580  14.618  -3.512  1.00 20.00     0.012 C 
ENDBRANCH   6   8
TORSDOF 1
ENDMDL
MODEL 8
REMARK VINA RESULT:      -3.8      1.349      1.592
REMARK  1 active torsions:
REMARK  status: ('A' for Active; 'I' for Inactive)
REMARK    1  A    between atoms: C6_6  and  C9_9 
ROOT
HETATM    1  C1  UNL     1     -33.794  14.744  -4.343  1.00 20.00    -0.085 C 
HETATM    2  C2  UNL     1     -33.490  13.564  -3.786  1.00 20.00     0.014 C 
HETATM    3  C3  UNL     1     -34.635  14.878  -5.581  1.00 20.00     0.059 C 
HETATM    4  C4  UNL     1     -33.349  16.063  -3.773  1.00 20.00     0.065 C 
HETATM    5  C5  UNL     1     -35.780  15.850  -5.316  1.00 20.00     0.172 C 
HETATM    6  C6  UNL     1     -34.542  17.011  -3.608  1.00 20.00     0.128 C 
HETATM    7  O10 UNL     1     -35.298  17.104  -4.825  1.00 20.00    -0.385 OA
ENDROOT
BRANCH   6   8
HETATM    8  C9  UNL     1     -35.435  16.662  -2.417  1.00 20.00     0.007 C 
HETATM    9  C7  UNL     1     -34.602  16.484  -1.149  1.00 20.00     0.012 C 
HETATM   10  C8  UNL     1     -36.503  17.735  -2.208  1.00 20.00     0.012 C 
ENDBRANCH   6   8
TORSDOF 1
ENDMDL
MODEL 9
REMARK VINA RESULT:      -3.8      1.346      2.332
REMARK  1 active torsions:
REMARK  status: ('A' for Active; 'I' for Inactive)
REMARK    1  A    between atoms: C6_6  and  C9_9 
ROOT
HETATM    1  C1  UNL     1     -34.257  16.179  -6.288  1.00 20.00    -0.085 C 
HETATM    2  C2  UNL     1     -34.437  15.045  -6.979  1.00 20.00     0.014 C 
HETATM    3  C3  UNL     1     -35.104  17.405  -6.482  1.00 20.00     0.059 C 
HETATM    4  C4  UNL     1     -33.206  16.337  -5.223  1.00 20.00     0.065 C 
HETATM    5  C5  UNL     1     -35.657  17.860  -5.136  1.00 20.00     0.172 C 
HETATM    6  C6  UNL     1     -33.826  16.870  -3.926  1.00 20.00     0.128 C 
HETATM    7  O10 UNL     1     -34.612  18.045  -4.177  1.00 20.00    -0.385 OA
ENDROOT
BRANCH   6   8
HETATM    8  C9  UNL     1     -34.620  15.817  -3.154  1.00 20.00     0.007 C 
HETATM    9  C7  UNL     1     -33.987  14.435  -3.316  1.00 20.00     0.012 C 
HETATM   10  C8  UNL     1     -34.719  16.189  -1.675  1.00 20.00     0.012 C 
ENDBRANCH   6   8
TORSDOF 1
ENDMDL
