MODEL 1
REMARK VINA RESULT:      -5.1      0.000      0.000
REMARK  4 active torsions:
REMARK  status: ('A' for Active; 'I' for Inactive)
REMARK    1  A    between atoms: C2_2  and  C5_5 
REMARK    2  A    between atoms: C5_5  and  C6_6 
REMARK    3  A    between atoms: C6_6  and  C8_8 
REMARK    4  A    between atoms: C7_7  and  C8_8 
ROOT
HETATM    1  C1  UNL     1     -32.199   8.691   1.677  1.00 20.00    -0.111 C 
HETATM    2  C2  UNL     1     -32.109   7.779   2.453  1.00 20.00    -0.107 C 
HETATM    3  C3  UNL     1     -32.308   9.803   0.734  1.00 20.00     0.112 C 
ENDROOT
BRANCH   2   4
HETATM    4  C5  UNL     1     -32.002   6.661   3.400  1.00 20.00     0.094 C 
BRANCH   4   5
HETATM    5  C6  UNL     1     -33.213   5.726   3.340  1.00 20.00     0.017 C 
BRANCH   5   6
HETATM    6  C8  UNL     1     -34.406   6.125   4.240  1.00 20.00    -0.004 C 
HETATM    7  C4  UNL     1     -35.689   5.465   3.717  1.00 20.00     0.011 C 
BRANCH   6   8
HETATM    8  C7  UNL     1     -34.198   5.837   5.735  1.00 20.00     0.119 C 
HETATM    9 CL9  UNL     1     -35.054   4.385   6.308  1.00 20.00    -0.130 Cl
ENDBRANCH   6   8
ENDBRANCH   5   6
ENDBRANCH   4   5
ENDBRANCH   2   4
TORSDOF 4
ENDMDL
MODEL 2
REMARK VINA RESULT:      -5.1      1.016      1.645
REMARK  4 active torsions:
REMARK  status: ('A' for Active; 'I' for Inactive)
REMARK    1  A    between atoms: C2_2  and  C5_5 
REMARK    2  A    between atoms: C5_5  and  C6_6 
REMARK    3  A    between atoms: C6_6  and  C8_8 
REMARK    4  A    between atoms: C7_7  and  C8_8 
ROOT
HETATM    1  C1  UNL     1     -32.256   8.408   1.824  1.00 20.00    -0.111 C 
HETATM    2  C2  UNL     1     -32.340   7.503   2.608  1.00 20.00    -0.107 C 
HETATM    3  C3  UNL     1     -32.158   9.510   0.869  1.00 20.00     0.112 C 
ENDROOT
BRANCH   2   4
HETATM    4  C5  UNL     1     -32.440   6.393   3.566  1.00 20.00     0.094 C 
BRANCH   4   5
HETATM    5  C6  UNL     1     -33.786   6.369   4.294  1.00 20.00     0.017 C 
BRANCH   5   6
HETATM    6  C8  UNL     1     -33.728   5.965   5.785  1.00 20.00    -0.004 C 
HETATM    7  C4  UNL     1     -33.693   7.226   6.660  1.00 20.00     0.011 C 
BRANCH   6   8
HETATM    8  C7  UNL     1     -34.846   5.008   6.228  1.00 20.00     0.119 C 
HETATM    9 CL9  UNL     1     -35.207   3.734   5.038  1.00 20.00    -0.130 Cl
ENDBRANCH   6   8
ENDBRANCH   5   6
ENDBRANCH   4   5
ENDBRANCH   2   4
TORSDOF 4
ENDMDL
MODEL 3
REMARK VINA RESULT:      -5.0      1.465      1.568
REMARK  4 active torsions:
REMARK  status: ('A' for Active; 'I' for Inactive)
REMARK    1  A    between atoms: C2_2  and  C5_5 
REMARK    2  A    between atoms: C5_5  and  C6_6 
REMARK    3  A    between atoms: C6_6  and  C8_8 
REMARK    4  A    between atoms: C7_7  and  C8_8 
ROOT
HETATM    1  C1  UNL     1     -32.196   8.083   2.030  1.00 20.00    -0.111 C 
HETATM    2  C2  UNL     1     -32.465   7.211   2.810  1.00 20.00    -0.107 C 
HETATM    3  C3  UNL     1     -31.867   9.147   1.083  1.00 20.00     0.112 C 
ENDROOT
BRANCH   2   4
HETATM    4  C5  UNL     1     -32.798   6.144   3.763  1.00 20.00     0.094 C 
BRANCH   4   5
HETATM    5  C6  UNL     1     -34.304   5.877   3.840  1.00 20.00     0.017 C 
BRANCH   5   6
HETATM    6  C8  UNL     1     -34.820   5.364   5.204  1.00 20.00    -0.004 C 
HETATM    7  C4  UNL     1     -35.134   3.866   5.106  1.00 20.00     0.011 C 
BRANCH   6   8
HETATM    8  C7  UNL     1     -33.888   5.664   6.389  1.00 20.00     0.119 C 
HETATM    9 CL9  UNL     1     -33.827   7.387   6.832  1.00 20.00    -0.130 Cl
ENDBRANCH   6   8
ENDBRANCH   5   6
ENDBRANCH   4   5
ENDBRANCH   2   4
TORSDOF 4
ENDMDL
MODEL 4
REMARK VINA RESULT:      -4.8      1.382      1.864
REMARK  4 active torsions:
REMARK  status: ('A' for Active; 'I' for Inactive)
REMARK    1  A    between atoms: C2_2  and  C5_5 
REMARK    2  A    between atoms: C5_5  and  C6_6 
REMARK    3  A    between atoms: C6_6  and  C8_8 
REMARK    4  A    between atoms: C7_7  and  C8_8 
ROOT
HETATM    1  C1  UNL     1     -32.231   8.412   1.846  1.00 20.00    -0.111 C 
HETATM    2  C2  UNL     1     -32.325   7.471   2.585  1.00 20.00    -0.107 C 
HETATM    3  C3  UNL     1     -32.118   9.559   0.947  1.00 20.00     0.112 C 
ENDROOT
BRANCH   2   4
HETATM    4  C5  UNL     1     -32.442   6.317   3.488  1.00 20.00     0.094 C 
BRANCH   4   5
HETATM    5  C6  UNL     1     -33.483   6.539   4.588  1.00 20.00     0.017 C 
BRANCH   5   6
HETATM    6  C8  UNL     1     -34.121   5.256   5.168  1.00 20.00    -0.004 C 
HETATM    7  C4  UNL     1     -34.580   5.515   6.609  1.00 20.00     0.011 C 
BRANCH   6   8
HETATM    8  C7  UNL     1     -35.257   4.670   4.316  1.00 20.00     0.119 C 
HETATM    9 CL9  UNL     1     -36.049   5.866   3.262  1.00 20.00    -0.130 Cl
ENDBRANCH   6   8
ENDBRANCH   5   6
ENDBRANCH   4   5
ENDBRANCH   2   4
TORSDOF 4
ENDMDL
MODEL 5
REMARK VINA RESULT:      -4.5      2.793      5.230
REMARK  4 active torsions:
REMARK  status: ('A' for Active; 'I' for Inactive)
REMARK    1  A    between atoms: C2_2  and  C5_5 
REMARK    2  A    between atoms: C5_5  and  C6_6 
REMARK    3  A    between atoms: C6_6  and  C8_8 
REMARK    4  A    between atoms: C7_7  and  C8_8 
ROOT
HETATM    1  C1  UNL     1     -34.837   4.927   5.234  1.00 20.00    -0.111 C 
HETATM    2  C2  UNL     1     -34.512   5.231   4.118  1.00 20.00    -0.107 C 
HETATM    3  C3  UNL     1     -35.235   4.558   6.590  1.00 20.00     0.112 C 
ENDROOT
BRANCH   2   4
HETATM    4  C5  UNL     1     -34.114   5.605   2.754  1.00 20.00     0.094 C 
BRANCH   4   5
HETATM    5  C6  UNL     1     -32.640   6.009   2.666  1.00 20.00     0.017 C 
BRANCH   5   6
HETATM    6  C8  UNL     1     -32.347   7.511   2.883  1.00 20.00    -0.004 C 
HETATM    7  C4  UNL     1     -31.318   7.677   4.010  1.00 20.00     0.011 C 
BRANCH   6   8
HETATM    8  C7  UNL     1     -31.915   8.264   1.615  1.00 20.00     0.119 C 
HETATM    9 CL9  UNL     1     -32.526   9.934   1.534  1.00 20.00    -0.130 Cl
ENDBRANCH   6   8
ENDBRANCH   5   6
ENDBRANCH   4   5
ENDBRANCH   2   4
TORSDOF 4
ENDMDL
MODEL 6
REMARK VINA RESULT:      -4.1     11.342     12.025
REMARK  4 active torsions:
REMARK  status: ('A' for Active; 'I' for Inactive)
REMARK    1  A    between atoms: C2_2  and  C5_5 
REMARK    2  A    between atoms: C5_5  and  C6_6 
REMARK    3  A    between atoms: C6_6  and  C8_8 
REMARK    4  A    between atoms: C7_7  and  C8_8 
ROOT
HETATM    1  C1  UNL     1     -34.780  17.106  -0.091  1.00 20.00    -0.111 C 
HETATM    2  C2  UNL     1     -34.321  16.750  -1.142  1.00 20.00    -0.107 C 
HETATM    3  C3  UNL     1     -35.338  17.541   1.188  1.00 20.00     0.112 C 
ENDROOT
BRANCH   2   4
HETATM    4  C5  UNL     1     -33.758  16.311  -2.426  1.00 20.00     0.094 C 
BRANCH   4   5
HETATM    5  C6  UNL     1     -34.536  15.143  -3.037  1.00 20.00     0.017 C 
BRANCH   5   6
HETATM    6  C8  UNL     1     -33.987  14.609  -4.380  1.00 20.00    -0.004 C 
HETATM    7  C4  UNL     1     -34.667  13.276  -4.720  1.00 20.00     0.011 C 
BRANCH   6   8
HETATM    8  C7  UNL     1     -34.089  15.603  -5.547  1.00 20.00     0.119 C 
HETATM    9 CL9  UNL     1     -34.449  14.832  -7.112  1.00 20.00    -0.130 Cl
ENDBRANCH   6   8
ENDBRANCH   5   6
ENDBRANCH   4   5
ENDBRANCH   2   4
TORSDOF 4
ENDMDL
MODEL 7
REMARK VINA RESULT:      -4.0     11.256     11.936
REMARK  4 active torsions:
REMARK  status: ('A' for Active; 'I' for Inactive)
REMARK    1  A    between atoms: C2_2  and  C5_5 
REMARK    2  A    between atoms: C5_5  and  C6_6 
REMARK    3  A    between atoms: C6_6  and  C8_8 
REMARK    4  A    between atoms: C7_7  and  C8_8 
ROOT
HETATM    1  C1  UNL     1     -34.308  16.655  -1.299  1.00 20.00    -0.111 C 
HETATM    2  C2  UNL     1     -33.836  16.247  -2.325  1.00 20.00    -0.107 C 
HETATM    3  C3  UNL     1     -34.880  17.153  -0.050  1.00 20.00     0.112 C 
ENDROOT
BRANCH   2   4
HETATM    4  C5  UNL     1     -33.258  15.745  -3.579  1.00 20.00     0.094 C 
BRANCH   4   5
HETATM    5  C6  UNL     1     -33.530  14.253  -3.791  1.00 20.00     0.017 C 
BRANCH   5   6
HETATM    6  C8  UNL     1     -34.554  13.914  -4.899  1.00 20.00    -0.004 C 
HETATM    7  C4  UNL     1     -35.970  13.917  -4.308  1.00 20.00     0.011 C 
BRANCH   6   8
HETATM    8  C7  UNL     1     -34.464  14.811  -6.143  1.00 20.00     0.119 C 
HETATM    9 CL9  UNL     1     -35.522  14.290  -7.477  1.00 20.00    -0.130 Cl
ENDBRANCH   6   8
ENDBRANCH   5   6
ENDBRANCH   4   5
ENDBRANCH   2   4
TORSDOF 4
ENDMDL
MODEL 8
REMARK VINA RESULT:      -4.0     11.047     11.829
REMARK  4 active torsions:
REMARK  status: ('A' for Active; 'I' for Inactive)
REMARK    1  A    between atoms: C2_2  and  C5_5 
REMARK    2  A    between atoms: C5_5  and  C6_6 
REMARK    3  A    between atoms: C6_6  and  C8_8 
REMARK    4  A    between atoms: C7_7  and  C8_8 
ROOT
HETATM    1  C1  UNL     1     -34.232  16.455  -1.677  1.00 20.00    -0.111 C 
HETATM    2  C2  UNL     1     -33.723  15.965  -2.647  1.00 20.00    -0.107 C 
HETATM    3  C3  UNL     1     -34.851  17.049  -0.493  1.00 20.00     0.112 C 
ENDROOT
BRANCH   2   4
HETATM    4  C5  UNL     1     -33.102  15.364  -3.836  1.00 20.00     0.094 C 
BRANCH   4   5
HETATM    5  C6  UNL     1     -33.873  15.679  -5.121  1.00 20.00     0.017 C 
BRANCH   5   6
HETATM    6  C8  UNL     1     -34.881  14.598  -5.573  1.00 20.00    -0.004 C 
HETATM    7  C4  UNL     1     -34.562  13.271  -4.871  1.00 20.00     0.011 C 
BRANCH   6   8
HETATM    8  C7  UNL     1     -36.356  14.988  -5.389  1.00 20.00     0.119 C 
HETATM    9 CL9  UNL     1     -36.977  14.680  -3.749  1.00 20.00    -0.130 Cl
ENDBRANCH   6   8
ENDBRANCH   5   6
ENDBRANCH   4   5
ENDBRANCH   2   4
TORSDOF 4
ENDMDL
MODEL 9
REMARK VINA RESULT:      -3.9     11.246     12.101
REMARK  4 active torsions:
REMARK  status: ('A' for Active; 'I' for Inactive)
REMARK    1  A    between atoms: C2_2  and  C5_5 
REMARK    2  A    between atoms: C5_5  and  C6_6 
REMARK    3  A    between atoms: C6_6  and  C8_8 
REMARK    4  A    between atoms: C7_7  and  C8_8 
ROOT
HETATM    1  C1  UNL     1     -34.798  17.042  -0.197  1.00 20.00    -0.111 C 
HETATM    2  C2  UNL     1     -34.386  16.597  -1.234  1.00 20.00    -0.107 C 
HETATM    3  C3  UNL     1     -35.298  17.582   1.065  1.00 20.00     0.112 C 
ENDROOT
BRANCH   2   4
HETATM    4  C5  UNL     1     -33.886  16.053  -2.503  1.00 20.00     0.094 C 
BRANCH   4   5
HETATM    5  C6  UNL     1     -35.015  15.727  -3.485  1.00 20.00     0.017 C 
BRANCH   5   6
HETATM    6  C8  UNL     1     -34.656  15.870  -4.982  1.00 20.00    -0.004 C 
HETATM    7  C4  UNL     1     -33.313  16.600  -5.122  1.00 20.00     0.011 C 
BRANCH   6   8
HETATM    8  C7  UNL     1     -34.660  14.549  -5.766  1.00 20.00     0.119 C 
HETATM    9 CL9  UNL     1     -34.351  13.117  -4.753  1.00 20.00    -0.130 Cl
ENDBRANCH   6   8
ENDBRANCH   5   6
ENDBRANCH   4   5
ENDBRANCH   2   4
TORSDOF 4
ENDMDL
