MODEL 1
REMARK VINA RESULT:      -4.5      0.000      0.000
REMARK  0 active torsions:
REMARK  status: ('A' for Active; 'I' for Inactive)
ROOT
HETATM    1  C1  UNL     1     -34.173  16.100  -2.543  1.00 20.00    -0.088 C 
HETATM    2  C2  UNL     1     -34.608  16.433  -1.319  1.00 20.00     0.014 C 
HETATM    3  C3  UNL     1     -33.665  17.120  -3.527  1.00 20.00     0.037 C 
HETATM    4  C4  UNL     1     -34.168  14.678  -3.043  1.00 20.00     0.042 C 
HETATM    5  C5  UNL     1     -34.410  15.579  -5.401  1.00 20.00     0.013 C 
HETATM    6  C6  UNL     1     -34.422  17.022  -4.860  1.00 20.00    -0.014 C 
HETATM    7  C7  UNL     1     -34.928  14.531  -4.383  1.00 20.00    -0.044 C 
HETATM    8  C8  UNL     1     -33.823  17.983  -5.887  1.00 20.00     0.010 C 
HETATM    9  C9  UNL     1     -36.446  14.692  -4.164  1.00 20.00     0.015 C 
HETATM   10  C10 UNL     1     -34.677  13.120  -4.948  1.00 20.00     0.015 C 
ENDROOT
TORSDOF 0
ENDMDL
MODEL 2
REMARK VINA RESULT:      -4.5     11.666     13.138
REMARK  0 active torsions:
REMARK  status: ('A' for Active; 'I' for Inactive)
ROOT
HETATM    1  C1  UNL     1     -41.037   5.829  -1.016  1.00 20.00    -0.088 C 
HETATM    2  C2  UNL     1     -40.693   6.142   0.241  1.00 20.00     0.014 C 
HETATM    3  C3  UNL     1     -41.538   6.856  -1.997  1.00 20.00     0.037 C 
HETATM    4  C4  UNL     1     -40.964   4.422  -1.551  1.00 20.00     0.042 C 
HETATM    5  C5  UNL     1     -42.837   5.009  -3.158  1.00 20.00     0.013 C 
HETATM    6  C6  UNL     1     -42.895   6.438  -2.584  1.00 20.00    -0.014 C 
HETATM    7  C7  UNL     1     -42.315   3.956  -2.147  1.00 20.00    -0.044 C 
HETATM    8  C8  UNL     1     -43.339   7.429  -3.660  1.00 20.00     0.010 C 
HETATM    9  C9  UNL     1     -43.347   3.723  -1.026  1.00 20.00     0.015 C 
HETATM   10  C10 UNL     1     -42.103   2.620  -2.883  1.00 20.00     0.015 C 
ENDROOT
TORSDOF 0
ENDMDL
MODEL 3
REMARK VINA RESULT:      -4.4      1.049      3.111
REMARK  0 active torsions:
REMARK  status: ('A' for Active; 'I' for Inactive)
ROOT
HETATM    1  C1  UNL     1     -34.235  17.474  -4.239  1.00 20.00    -0.088 C 
HETATM    2  C2  UNL     1     -33.499  18.281  -5.017  1.00 20.00     0.014 C 
HETATM    3  C3  UNL     1     -34.655  17.857  -2.845  1.00 20.00     0.037 C 
HETATM    4  C4  UNL     1     -34.692  16.110  -4.688  1.00 20.00     0.042 C 
HETATM    5  C5  UNL     1     -34.701  15.388  -2.257  1.00 20.00     0.013 C 
HETATM    6  C6  UNL     1     -34.223  16.789  -1.828  1.00 20.00    -0.014 C 
HETATM    7  C7  UNL     1     -34.271  15.000  -3.695  1.00 20.00    -0.044 C 
HETATM    8  C8  UNL     1     -34.753  17.131  -0.436  1.00 20.00     0.010 C 
HETATM    9  C9  UNL     1     -32.749  14.765  -3.761  1.00 20.00     0.015 C 
HETATM   10  C10 UNL     1     -34.972  13.685  -4.088  1.00 20.00     0.015 C 
ENDROOT
TORSDOF 0
ENDMDL
MODEL 4
REMARK VINA RESULT:      -4.4      1.514      2.821
REMARK  0 active torsions:
REMARK  status: ('A' for Active; 'I' for Inactive)
ROOT
HETATM    1  C1  UNL     1     -33.645  16.900  -5.455  1.00 20.00    -0.088 C 
HETATM    2  C2  UNL     1     -33.726  18.198  -5.131  1.00 20.00     0.014 C 
HETATM    3  C3  UNL     1     -34.199  16.352  -6.743  1.00 20.00     0.037 C 
HETATM    4  C4  UNL     1     -33.006  15.876  -4.552  1.00 20.00     0.042 C 
HETATM    5  C5  UNL     1     -34.532  14.125  -5.570  1.00 20.00     0.013 C 
HETATM    6  C6  UNL     1     -35.175  15.195  -6.474  1.00 20.00    -0.014 C 
HETATM    7  C7  UNL     1     -33.958  14.694  -4.248  1.00 20.00    -0.044 C 
HETATM    8  C8  UNL     1     -35.642  14.573  -7.790  1.00 20.00     0.010 C 
HETATM    9  C9  UNL     1     -35.097  15.146  -3.312  1.00 20.00     0.015 C 
HETATM   10  C10 UNL     1     -33.165  13.586  -3.529  1.00 20.00     0.015 C 
ENDROOT
TORSDOF 0
ENDMDL
MODEL 5
REMARK VINA RESULT:      -4.4      1.007      3.433
REMARK  0 active torsions:
REMARK  status: ('A' for Active; 'I' for Inactive)
ROOT
HETATM    1  C1  UNL     1     -33.620  17.267  -4.451  1.00 20.00    -0.088 C 
HETATM    2  C2  UNL     1     -33.715  18.278  -5.328  1.00 20.00     0.014 C 
HETATM    3  C3  UNL     1     -33.435  15.837  -4.882  1.00 20.00     0.037 C 
HETATM    4  C4  UNL     1     -33.704  17.476  -2.961  1.00 20.00     0.042 C 
HETATM    5  C5  UNL     1     -34.612  15.117  -2.751  1.00 20.00     0.013 C 
HETATM    6  C6  UNL     1     -34.524  14.936  -4.279  1.00 20.00    -0.014 C 
HETATM    7  C7  UNL     1     -34.796  16.592  -2.311  1.00 20.00    -0.044 C 
HETATM    8  C8  UNL     1     -34.261  13.472  -4.630  1.00 20.00     0.010 C 
HETATM    9  C9  UNL     1     -36.200  17.100  -2.693  1.00 20.00     0.015 C 
HETATM   10  C10 UNL     1     -34.662  16.676  -0.778  1.00 20.00     0.015 C 
ENDROOT
TORSDOF 0
ENDMDL
MODEL 6
REMARK VINA RESULT:      -4.2      1.468      3.268
REMARK  0 active torsions:
REMARK  status: ('A' for Active; 'I' for Inactive)
ROOT
HETATM    1  C1  UNL     1     -34.432  14.569  -4.262  1.00 20.00    -0.088 C 
HETATM    2  C2  UNL     1     -34.125  13.293  -4.539  1.00 20.00     0.014 C 
HETATM    3  C3  UNL     1     -33.877  15.293  -3.064  1.00 20.00     0.037 C 
HETATM    4  C4  UNL     1     -35.368  15.382  -5.119  1.00 20.00     0.042 C 
HETATM    5  C5  UNL     1     -35.965  16.737  -3.059  1.00 20.00     0.013 C 
HETATM    6  C6  UNL     1     -35.008  15.882  -2.206  1.00 20.00    -0.014 C 
HETATM    7  C7  UNL     1     -36.529  15.990  -4.295  1.00 20.00    -0.044 C 
HETATM    8  C8  UNL     1     -34.431  16.709  -1.058  1.00 20.00     0.010 C 
HETATM    9  C9  UNL     1     -37.516  14.888  -3.859  1.00 20.00     0.015 C 
HETATM   10  C10 UNL     1     -37.297  16.993  -5.177  1.00 20.00     0.015 C 
ENDROOT
TORSDOF 0
ENDMDL
MODEL 7
REMARK VINA RESULT:      -4.2      0.816      3.443
REMARK  0 active torsions:
REMARK  status: ('A' for Active; 'I' for Inactive)
ROOT
HETATM    1  C1  UNL     1     -34.293  14.487  -4.498  1.00 20.00    -0.088 C 
HETATM    2  C2  UNL     1     -34.815  13.343  -4.963  1.00 20.00     0.014 C 
HETATM    3  C3  UNL     1     -34.159  14.775  -3.026  1.00 20.00     0.037 C 
HETATM    4  C4  UNL     1     -33.808  15.587  -5.407  1.00 20.00     0.042 C 
HETATM    5  C5  UNL     1     -34.339  17.249  -3.566  1.00 20.00     0.013 C 
HETATM    6  C6  UNL     1     -34.838  16.105  -2.662  1.00 20.00    -0.014 C 
HETATM    7  C7  UNL     1     -34.473  16.946  -5.080  1.00 20.00    -0.044 C 
HETATM    8  C8  UNL     1     -34.598  16.442  -1.191  1.00 20.00     0.010 C 
HETATM    9  C9  UNL     1     -35.957  16.936  -5.502  1.00 20.00     0.015 C 
HETATM   10  C10 UNL     1     -33.761  18.056  -5.877  1.00 20.00     0.015 C 
ENDROOT
TORSDOF 0
ENDMDL
MODEL 8
REMARK VINA RESULT:      -4.1      1.291      2.899
REMARK  0 active torsions:
REMARK  status: ('A' for Active; 'I' for Inactive)
ROOT
HETATM    1  C1  UNL     1     -35.091  16.022  -3.090  1.00 20.00    -0.088 C 
HETATM    2  C2  UNL     1     -34.386  16.079  -1.951  1.00 20.00     0.014 C 
HETATM    3  C3  UNL     1     -36.596  15.978  -3.107  1.00 20.00     0.037 C 
HETATM    4  C4  UNL     1     -34.438  15.981  -4.447  1.00 20.00     0.042 C 
HETATM    5  C5  UNL     1     -36.463  14.719  -5.307  1.00 20.00     0.013 C 
HETATM    6  C6  UNL     1     -37.101  14.766  -3.906  1.00 20.00    -0.014 C 
HETATM    7  C7  UNL     1     -34.914  14.770  -5.285  1.00 20.00    -0.044 C 
HETATM    8  C8  UNL     1     -38.626  14.796  -4.013  1.00 20.00     0.010 C 
HETATM    9  C9  UNL     1     -34.336  13.459  -4.714  1.00 20.00     0.015 C 
HETATM   10  C10 UNL     1     -34.398  14.926  -6.728  1.00 20.00     0.015 C 
ENDROOT
TORSDOF 0
ENDMDL
MODEL 9
REMARK VINA RESULT:      -4.1      1.461      3.302
REMARK  0 active torsions:
REMARK  status: ('A' for Active; 'I' for Inactive)
ROOT
HETATM    1  C1  UNL     1     -34.120  14.174  -4.136  1.00 20.00    -0.088 C 
HETATM    2  C2  UNL     1     -33.054  13.574  -3.586  1.00 20.00     0.014 C 
HETATM    3  C3  UNL     1     -34.716  13.725  -5.444  1.00 20.00     0.037 C 
HETATM    4  C4  UNL     1     -34.803  15.357  -3.500  1.00 20.00     0.042 C 
HETATM    5  C5  UNL     1     -35.514  16.106  -5.817  1.00 20.00     0.013 C 
HETATM    6  C6  UNL     1     -34.797  14.893  -6.440  1.00 20.00    -0.014 C 
HETATM    7  C7  UNL     1     -34.901  16.562  -4.467  1.00 20.00    -0.044 C 
HETATM    8  C8  UNL     1     -35.506  14.454  -7.721  1.00 20.00     0.010 C 
HETATM    9  C9  UNL     1     -33.511  17.191  -4.688  1.00 20.00     0.015 C 
HETATM   10  C10 UNL     1     -35.813  17.634  -3.841  1.00 20.00     0.015 C 
ENDROOT
TORSDOF 0
ENDMDL
