MODEL 1
REMARK VINA RESULT:      -4.9      0.000      0.000
REMARK  5 active torsions:
REMARK  status: ('A' for Active; 'I' for Inactive)
REMARK    1  A    between atoms: C4_4  and  C5_5 
REMARK    2  A    between atoms: C4_4  and  C6_6 
REMARK    3  A    between atoms: C5_5  and  C8_8 
REMARK    4  A    between atoms: C6_6  and  C9_9 
REMARK    5  A    between atoms: C7_7  and  C9_9 
ROOT
HETATM    1  C4  UNL     1     -33.861   5.531   2.760  1.00 20.00     0.001 C 
ENDROOT
BRANCH   1   2
HETATM    2  C5  UNL     1     -32.408   5.991   2.917  1.00 20.00     0.004 C 
BRANCH   2   3
HETATM    3  C8  UNL     1     -32.260   7.517   3.068  1.00 20.00    -0.023 C 
HETATM    4  C1  UNL     1     -32.019   8.216   1.729  1.00 20.00     0.009 C 
HETATM    5  C2  UNL     1     -31.114   7.835   4.031  1.00 20.00     0.009 C 
ENDBRANCH   2   3
ENDBRANCH   1   2
BRANCH   1   6
HETATM    6  C6  UNL     1     -34.697   5.914   3.986  1.00 20.00     0.005 C 
BRANCH   6   7
HETATM    7  C9  UNL     1     -34.281   5.173   5.273  1.00 20.00    -0.005 C 
HETATM    8  C3  UNL     1     -34.999   3.820   5.348  1.00 20.00     0.011 C 
BRANCH   7   9
HETATM    9  C7  UNL     1     -34.477   5.983   6.564  1.00 20.00     0.119 C 
HETATM   10 CL10 UNL     1     -33.293   7.297   6.767  1.00 20.00    -0.130 Cl
ENDBRANCH   7   9
ENDBRANCH   6   7
ENDBRANCH   1   6
TORSDOF 5
ENDMDL
MODEL 2
REMARK VINA RESULT:      -4.8      2.217      4.708
REMARK  5 active torsions:
REMARK  status: ('A' for Active; 'I' for Inactive)
REMARK    1  A    between atoms: C4_4  and  C5_5 
REMARK    2  A    between atoms: C4_4  and  C6_6 
REMARK    3  A    between atoms: C5_5  and  C8_8 
REMARK    4  A    between atoms: C6_6  and  C9_9 
REMARK    5  A    between atoms: C7_7  and  C9_9 
ROOT
HETATM    1  C4  UNL     1     -34.089   6.597   3.641  1.00 20.00     0.001 C 
ENDROOT
BRANCH   1   2
HETATM    2  C5  UNL     1     -34.921   5.370   4.028  1.00 20.00     0.004 C 
BRANCH   2   3
HETATM    3  C8  UNL     1     -35.046   5.169   5.550  1.00 20.00    -0.023 C 
HETATM    4  C1  UNL     1     -34.210   6.173   6.343  1.00 20.00     0.009 C 
HETATM    5  C2  UNL     1     -34.630   3.743   5.921  1.00 20.00     0.009 C 
ENDBRANCH   2   3
ENDBRANCH   1   2
BRANCH   1   6
HETATM    6  C6  UNL     1     -32.741   6.183   3.041  1.00 20.00     0.005 C 
BRANCH   6   7
HETATM    7  C9  UNL     1     -31.752   7.355   2.877  1.00 20.00    -0.005 C 
HETATM    8  C3  UNL     1     -31.254   7.810   4.253  1.00 20.00     0.011 C 
BRANCH   7   9
HETATM    9  C7  UNL     1     -32.298   8.536   2.059  1.00 20.00     0.119 C 
HETATM   10 CL10 UNL     1     -31.606   8.650   0.423  1.00 20.00    -0.130 Cl
ENDBRANCH   7   9
ENDBRANCH   6   7
ENDBRANCH   1   6
TORSDOF 5
ENDMDL
MODEL 3
REMARK VINA RESULT:      -4.8      2.086      4.507
REMARK  5 active torsions:
REMARK  status: ('A' for Active; 'I' for Inactive)
REMARK    1  A    between atoms: C4_4  and  C5_5 
REMARK    2  A    between atoms: C4_4  and  C6_6 
REMARK    3  A    between atoms: C5_5  and  C8_8 
REMARK    4  A    between atoms: C6_6  and  C9_9 
REMARK    5  A    between atoms: C7_7  and  C9_9 
ROOT
HETATM    1  C4  UNL     1     -33.796   5.786   2.801  1.00 20.00     0.001 C 
ENDROOT
BRANCH   1   2
HETATM    2  C5  UNL     1     -34.766   5.855   3.986  1.00 20.00     0.004 C 
BRANCH   2   3
HETATM    3  C8  UNL     1     -34.174   5.309   5.298  1.00 20.00    -0.023 C 
HETATM    4  C1  UNL     1     -34.963   4.120   5.845  1.00 20.00     0.009 C 
HETATM    5  C2  UNL     1     -34.123   6.422   6.348  1.00 20.00     0.009 C 
ENDBRANCH   2   3
ENDBRANCH   1   2
BRANCH   1   6
HETATM    6  C6  UNL     1     -32.341   5.885   3.274  1.00 20.00     0.005 C 
BRANCH   6   7
HETATM    7  C9  UNL     1     -31.689   7.251   2.980  1.00 20.00    -0.005 C 
HETATM    8  C3  UNL     1     -31.240   7.905   4.292  1.00 20.00     0.011 C 
BRANCH   7   9
HETATM    9  C7  UNL     1     -32.560   8.205   2.147  1.00 20.00     0.119 C 
HETATM   10 CL10 UNL     1     -31.738   8.840   0.701  1.00 20.00    -0.130 Cl
ENDBRANCH   7   9
ENDBRANCH   6   7
ENDBRANCH   1   6
TORSDOF 5
ENDMDL
MODEL 4
REMARK VINA RESULT:      -4.6      1.582      2.412
REMARK  5 active torsions:
REMARK  status: ('A' for Active; 'I' for Inactive)
REMARK    1  A    between atoms: C4_4  and  C5_5 
REMARK    2  A    between atoms: C4_4  and  C6_6 
REMARK    3  A    between atoms: C5_5  and  C8_8 
REMARK    4  A    between atoms: C6_6  and  C9_9 
REMARK    5  A    between atoms: C7_7  and  C9_9 
ROOT
HETATM    1  C4  UNL     1     -32.076   6.442   3.338  1.00 20.00     0.001 C 
ENDROOT
BRANCH   1   2
HETATM    2  C5  UNL     1     -31.713   7.906   3.067  1.00 20.00     0.004 C 
BRANCH   2   3
HETATM    3  C8  UNL     1     -32.407   8.491   1.823  1.00 20.00    -0.023 C 
HETATM    4  C1  UNL     1     -31.554   8.362   0.561  1.00 20.00     0.009 C 
HETATM    5  C2  UNL     1     -32.751   9.963   2.065  1.00 20.00     0.009 C 
ENDBRANCH   2   3
ENDBRANCH   1   2
BRANCH   1   6
HETATM    6  C6  UNL     1     -33.533   6.156   2.959  1.00 20.00     0.005 C 
BRANCH   6   7
HETATM    7  C9  UNL     1     -34.487   6.107   4.170  1.00 20.00    -0.005 C 
HETATM    8  C3  UNL     1     -33.731   6.505   5.443  1.00 20.00     0.011 C 
BRANCH   7   9
HETATM    9  C7  UNL     1     -35.218   4.767   4.348  1.00 20.00     0.119 C 
HETATM   10 CL10 UNL     1     -35.040   4.069   5.976  1.00 20.00    -0.130 Cl
ENDBRANCH   7   9
ENDBRANCH   6   7
ENDBRANCH   1   6
TORSDOF 5
ENDMDL
MODEL 5
REMARK VINA RESULT:      -4.0      2.519      5.079
REMARK  5 active torsions:
REMARK  status: ('A' for Active; 'I' for Inactive)
REMARK    1  A    between atoms: C4_4  and  C5_5 
REMARK    2  A    between atoms: C4_4  and  C6_6 
REMARK    3  A    between atoms: C5_5  and  C8_8 
REMARK    4  A    between atoms: C6_6  and  C9_9 
REMARK    5  A    between atoms: C7_7  and  C9_9 
ROOT
HETATM    1  C4  UNL     1     -32.671   6.486   2.945  1.00 20.00     0.001 C 
ENDROOT
BRANCH   1   2
HETATM    2  C5  UNL     1     -34.000   6.485   3.708  1.00 20.00     0.004 C 
BRANCH   2   3
HETATM    3  C8  UNL     1     -33.999   5.564   4.942  1.00 20.00    -0.023 C 
HETATM    4  C1  UNL     1     -35.167   4.578   4.937  1.00 20.00     0.009 C 
HETATM    5  C2  UNL     1     -34.042   6.408   6.219  1.00 20.00     0.009 C 
ENDBRANCH   2   3
ENDBRANCH   1   2
BRANCH   1   6
HETATM    6  C6  UNL     1     -31.856   7.746   3.258  1.00 20.00     0.005 C 
BRANCH   6   7
HETATM    7  C9  UNL     1     -31.757   8.726   2.071  1.00 20.00    -0.005 C 
HETATM    8  C3  UNL     1     -32.816   9.826   2.217  1.00 20.00     0.011 C 
BRANCH   7   9
HETATM    9  C7  UNL     1     -31.828   8.059   0.688  1.00 20.00     0.119 C 
HETATM   10 CL10 UNL     1     -32.847   8.940  -0.476  1.00 20.00    -0.130 Cl
ENDBRANCH   7   9
ENDBRANCH   6   7
ENDBRANCH   1   6
TORSDOF 5
ENDMDL
MODEL 6
REMARK VINA RESULT:      -3.9     11.848     13.006
REMARK  5 active torsions:
REMARK  status: ('A' for Active; 'I' for Inactive)
REMARK    1  A    between atoms: C4_4  and  C5_5 
REMARK    2  A    between atoms: C4_4  and  C6_6 
REMARK    3  A    between atoms: C5_5  and  C8_8 
REMARK    4  A    between atoms: C6_6  and  C9_9 
REMARK    5  A    between atoms: C7_7  and  C9_9 
ROOT
HETATM    1  C4  UNL     1     -34.423  14.311  -3.537  1.00 20.00     0.001 C 
ENDROOT
BRANCH   1   2
HETATM    2  C5  UNL     1     -34.338  13.568  -4.875  1.00 20.00     0.004 C 
BRANCH   2   3
HETATM    3  C8  UNL     1     -35.258  14.156  -5.962  1.00 20.00    -0.023 C 
HETATM    4  C1  UNL     1     -34.478  14.884  -7.057  1.00 20.00     0.009 C 
HETATM    5  C2  UNL     1     -36.269  15.112  -5.325  1.00 20.00     0.009 C 
ENDBRANCH   2   3
ENDBRANCH   1   2
BRANCH   1   6
HETATM    6  C6  UNL     1     -33.258  15.294  -3.377  1.00 20.00     0.005 C 
BRANCH   6   7
HETATM    7  C9  UNL     1     -33.615  16.543  -2.546  1.00 20.00    -0.005 C 
HETATM    8  C3  UNL     1     -34.761  16.215  -1.581  1.00 20.00     0.011 C 
BRANCH   7   9
HETATM    9  C7  UNL     1     -33.927  17.794  -3.382  1.00 20.00     0.119 C 
HETATM   10 CL10 UNL     1     -33.426  17.657  -5.084  1.00 20.00    -0.130 Cl
ENDBRANCH   7   9
ENDBRANCH   6   7
ENDBRANCH   1   6
TORSDOF 5
ENDMDL
MODEL 7
REMARK VINA RESULT:      -3.9     11.294     12.492
REMARK  5 active torsions:
REMARK  status: ('A' for Active; 'I' for Inactive)
REMARK    1  A    between atoms: C4_4  and  C5_5 
REMARK    2  A    between atoms: C4_4  and  C6_6 
REMARK    3  A    between atoms: C5_5  and  C8_8 
REMARK    4  A    between atoms: C6_6  and  C9_9 
REMARK    5  A    between atoms: C7_7  and  C9_9 
ROOT
HETATM    1  C4  UNL     1     -34.651  16.298  -1.319  1.00 20.00     0.001 C 
ENDROOT
BRANCH   1   2
HETATM    2  C5  UNL     1     -33.635  17.437  -1.186  1.00 20.00     0.004 C 
BRANCH   2   3
HETATM    3  C8  UNL     1     -33.921  18.380  -0.002  1.00 20.00    -0.023 C 
HETATM    4  C1  UNL     1     -32.649  18.790   0.740  1.00 20.00     0.009 C 
HETATM    5  C2  UNL     1     -34.893  17.710   0.971  1.00 20.00     0.009 C 
ENDBRANCH   2   3
ENDBRANCH   1   2
BRANCH   1   6
HETATM    6  C6  UNL     1     -34.820  15.878  -2.783  1.00 20.00     0.005 C 
BRANCH   6   7
HETATM    7  C9  UNL     1     -33.514  15.387  -3.439  1.00 20.00    -0.005 C 
HETATM    8  C3  UNL     1     -33.202  16.238  -4.676  1.00 20.00     0.011 C 
BRANCH   7   9
HETATM    9  C7  UNL     1     -33.496  13.886  -3.772  1.00 20.00     0.119 C 
HETATM   10 CL10 UNL     1     -35.092  13.236  -4.217  1.00 20.00    -0.130 Cl
ENDBRANCH   7   9
ENDBRANCH   6   7
ENDBRANCH   1   6
TORSDOF 5
ENDMDL
MODEL 8
REMARK VINA RESULT:      -3.9     11.445     12.413
REMARK  5 active torsions:
REMARK  status: ('A' for Active; 'I' for Inactive)
REMARK    1  A    between atoms: C4_4  and  C5_5 
REMARK    2  A    between atoms: C4_4  and  C6_6 
REMARK    3  A    between atoms: C5_5  and  C8_8 
REMARK    4  A    between atoms: C6_6  and  C9_9 
REMARK    5  A    between atoms: C7_7  and  C9_9 
ROOT
HETATM    1  C4  UNL     1     -34.230  16.000  -2.603  1.00 20.00     0.001 C 
ENDROOT
BRANCH   1   2
HETATM    2  C5  UNL     1     -34.679  16.477  -1.217  1.00 20.00     0.004 C 
BRANCH   2   3
HETATM    3  C8  UNL     1     -33.745  17.535  -0.600  1.00 20.00    -0.023 C 
HETATM    4  C1  UNL     1     -34.305  18.124   0.695  1.00 20.00     0.009 C 
HETATM    5  C2  UNL     1     -33.493  18.657  -1.611  1.00 20.00     0.009 C 
ENDBRANCH   2   3
ENDBRANCH   1   2
BRANCH   1   6
HETATM    6  C6  UNL     1     -35.209  14.970  -3.176  1.00 20.00     0.005 C 
BRANCH   6   7
HETATM    7  C9  UNL     1     -34.519  13.721  -3.760  1.00 20.00    -0.005 C 
HETATM    8  C3  UNL     1     -32.999  13.842  -3.595  1.00 20.00     0.011 C 
BRANCH   7   9
HETATM    9  C7  UNL     1     -34.902  13.405  -5.214  1.00 20.00     0.119 C 
HETATM   10 CL10 UNL     1     -34.458  14.690  -6.363  1.00 20.00    -0.130 Cl
ENDBRANCH   7   9
ENDBRANCH   6   7
ENDBRANCH   1   6
TORSDOF 5
ENDMDL
MODEL 9
REMARK VINA RESULT:      -3.8      1.928      2.563
REMARK  5 active torsions:
REMARK  status: ('A' for Active; 'I' for Inactive)
REMARK    1  A    between atoms: C4_4  and  C5_5 
REMARK    2  A    between atoms: C4_4  and  C6_6 
REMARK    3  A    between atoms: C5_5  and  C8_8 
REMARK    4  A    between atoms: C6_6  and  C9_9 
REMARK    5  A    between atoms: C7_7  and  C9_9 
ROOT
HETATM    1  C4  UNL     1     -32.635   6.522   3.052  1.00 20.00     0.001 C 
ENDROOT
BRANCH   1   2
HETATM    2  C5  UNL     1     -31.839   7.797   2.748  1.00 20.00     0.004 C 
BRANCH   2   3
HETATM    3  C8  UNL     1     -32.386   8.589   1.546  1.00 20.00    -0.023 C 
HETATM    4  C1  UNL     1     -31.422   8.590   0.359  1.00 20.00     0.009 C 
HETATM    5  C2  UNL     1     -32.687  10.030   1.967  1.00 20.00     0.009 C 
ENDBRANCH   2   3
ENDBRANCH   1   2
BRANCH   1   6
HETATM    6  C6  UNL     1     -32.875   6.368   4.557  1.00 20.00     0.005 C 
BRANCH   6   7
HETATM    7  C9  UNL     1     -34.347   6.088   4.922  1.00 20.00    -0.005 C 
HETATM    8  C3  UNL     1     -34.433   5.539   6.351  1.00 20.00     0.011 C 
BRANCH   7   9
HETATM    9  C7  UNL     1     -35.086   5.178   3.927  1.00 20.00     0.119 C 
HETATM   10 CL10 UNL     1     -36.507   5.946   3.179  1.00 20.00    -0.130 Cl
ENDBRANCH   7   9
ENDBRANCH   6   7
ENDBRANCH   1   6
TORSDOF 5
ENDMDL
