MODEL 1
REMARK VINA RESULT:      -4.7      0.000      0.000
REMARK  0 active torsions:
REMARK  status: ('A' for Active; 'I' for Inactive)
ROOT
HETATM    1  C1  UNL     1     -33.858   6.191   4.228  1.00 20.00    -0.066 C 
HETATM    2  C2  UNL     1     -32.878   6.655   3.441  1.00 20.00     0.016 C 
HETATM    3  C3  UNL     1     -33.909   6.459   5.707  1.00 20.00     0.037 C 
HETATM    4  C4  UNL     1     -34.981   5.335   3.711  1.00 20.00     0.201 C 
HETATM    5  C5  UNL     1     -34.137   5.149   6.462  1.00 20.00     0.030 C 
HETATM    6  C6  UNL     1     -35.298   4.364   5.858  1.00 20.00     0.168 C 
HETATM    7  O7  UNL     1     -35.065   4.123   4.467  1.00 20.00    -0.387 OA
ENDROOT
TORSDOF 0
ENDMDL
MODEL 2
REMARK VINA RESULT:      -4.5      1.436      3.228
REMARK  0 active torsions:
REMARK  status: ('A' for Active; 'I' for Inactive)
ROOT
HETATM    1  C1  UNL     1     -34.768   5.249   5.262  1.00 20.00    -0.066 C 
HETATM    2  C2  UNL     1     -35.068   4.283   6.141  1.00 20.00     0.016 C 
HETATM    3  C3  UNL     1     -35.254   5.231   3.838  1.00 20.00     0.037 C 
HETATM    4  C4  UNL     1     -33.895   6.423   5.607  1.00 20.00     0.201 C 
HETATM    5  C5  UNL     1     -34.081   5.479   2.889  1.00 20.00     0.030 C 
HETATM    6  C6  UNL     1     -33.267   6.692   3.331  1.00 20.00     0.168 C 
HETATM    7  O7  UNL     1     -32.813   6.524   4.676  1.00 20.00    -0.387 OA
ENDROOT
TORSDOF 0
ENDMDL
MODEL 3
REMARK VINA RESULT:      -4.2      0.955      2.301
REMARK  0 active torsions:
REMARK  status: ('A' for Active; 'I' for Inactive)
ROOT
HETATM    1  C1  UNL     1     -33.858   6.213   5.954  1.00 20.00    -0.066 C 
HETATM    2  C2  UNL     1     -33.679   7.294   6.724  1.00 20.00     0.016 C 
HETATM    3  C3  UNL     1     -33.761   6.260   4.453  1.00 20.00     0.037 C 
HETATM    4  C4  UNL     1     -34.201   4.861   6.514  1.00 20.00     0.201 C 
HETATM    5  C5  UNL     1     -34.986   5.584   3.835  1.00 20.00     0.030 C 
HETATM    6  C6  UNL     1     -35.240   4.221   4.474  1.00 20.00     0.168 C 
HETATM    7  O7  UNL     1     -35.385   4.355   5.890  1.00 20.00    -0.387 OA
ENDROOT
TORSDOF 0
ENDMDL
MODEL 4
REMARK VINA RESULT:      -3.8      1.434      2.171
REMARK  0 active torsions:
REMARK  status: ('A' for Active; 'I' for Inactive)
ROOT
HETATM    1  C1  UNL     1     -34.326   5.322   3.793  1.00 20.00    -0.066 C 
HETATM    2  C2  UNL     1     -34.745   5.442   2.526  1.00 20.00     0.016 C 
HETATM    3  C3  UNL     1     -34.809   4.230   4.709  1.00 20.00     0.037 C 
HETATM    4  C4  UNL     1     -33.358   6.283   4.425  1.00 20.00     0.201 C 
HETATM    5  C5  UNL     1     -35.258   4.833   6.040  1.00 20.00     0.030 C 
HETATM    6  C6  UNL     1     -34.202   5.788   6.592  1.00 20.00     0.168 C 
HETATM    7  O7  UNL     1     -33.908   6.811   5.637  1.00 20.00    -0.387 OA
ENDROOT
TORSDOF 0
ENDMDL
MODEL 5
REMARK VINA RESULT:      -3.7     12.315     12.611
REMARK  0 active torsions:
REMARK  status: ('A' for Active; 'I' for Inactive)
ROOT
HETATM    1  C1  UNL     1     -34.385  15.444  -2.991  1.00 20.00    -0.066 C 
HETATM    2  C2  UNL     1     -34.401  16.124  -1.837  1.00 20.00     0.016 C 
HETATM    3  C3  UNL     1     -35.625  15.202  -3.809  1.00 20.00     0.037 C 
HETATM    4  C4  UNL     1     -33.135  14.835  -3.560  1.00 20.00     0.201 C 
HETATM    5  C5  UNL     1     -35.723  13.720  -4.172  1.00 20.00     0.030 C 
HETATM    6  C6  UNL     1     -34.402  13.208  -4.742  1.00 20.00     0.168 C 
HETATM    7  O7  UNL     1     -33.337  13.442  -3.817  1.00 20.00    -0.387 OA
ENDROOT
TORSDOF 0
ENDMDL
MODEL 6
REMARK VINA RESULT:      -3.7      1.385      2.244
REMARK  0 active torsions:
REMARK  status: ('A' for Active; 'I' for Inactive)
ROOT
HETATM    1  C1  UNL     1     -33.110   6.429   3.495  1.00 20.00    -0.066 C 
HETATM    2  C2  UNL     1     -32.523   7.371   2.744  1.00 20.00     0.016 C 
HETATM    3  C3  UNL     1     -34.017   5.377   2.917  1.00 20.00     0.037 C 
HETATM    4  C4  UNL     1     -32.941   6.355   4.987  1.00 20.00     0.201 C 
HETATM    5  C5  UNL     1     -35.315   5.314   3.722  1.00 20.00     0.030 C 
HETATM    6  C6  UNL     1     -35.027   5.238   5.220  1.00 20.00     0.168 C 
HETATM    7  O7  UNL     1     -34.220   6.346   5.628  1.00 20.00    -0.387 OA
ENDROOT
TORSDOF 0
ENDMDL
MODEL 7
REMARK VINA RESULT:      -3.5     12.020     13.389
REMARK  0 active torsions:
REMARK  status: ('A' for Active; 'I' for Inactive)
ROOT
HETATM    1  C1  UNL     1     -34.512  14.823  -6.001  1.00 20.00    -0.066 C 
HETATM    2  C2  UNL     1     -34.339  15.101  -7.300  1.00 20.00     0.016 C 
HETATM    3  C3  UNL     1     -33.954  15.687  -4.903  1.00 20.00     0.037 C 
HETATM    4  C4  UNL     1     -35.255  13.608  -5.520  1.00 20.00     0.201 C 
HETATM    5  C5  UNL     1     -33.205  14.818  -3.892  1.00 20.00     0.030 C 
HETATM    6  C6  UNL     1     -34.050  13.618  -3.471  1.00 20.00     0.168 C 
HETATM    7  O7  UNL     1     -34.438  12.856  -4.617  1.00 20.00    -0.387 OA
ENDROOT
TORSDOF 0
ENDMDL
MODEL 8
REMARK VINA RESULT:      -3.4     12.929     13.895
REMARK  0 active torsions:
REMARK  status: ('A' for Active; 'I' for Inactive)
ROOT
HETATM    1  C1  UNL     1     -34.520  16.489  -2.184  1.00 20.00    -0.066 C 
HETATM    2  C2  UNL     1     -34.616  16.616  -0.853  1.00 20.00     0.016 C 
HETATM    3  C3  UNL     1     -34.243  15.172  -2.857  1.00 20.00     0.037 C 
HETATM    4  C4  UNL     1     -34.650  17.654  -3.125  1.00 20.00     0.201 C 
HETATM    5  C5  UNL     1     -33.102  15.334  -3.861  1.00 20.00     0.030 C 
HETATM    6  C6  UNL     1     -33.338  16.542  -4.765  1.00 20.00     0.168 C 
HETATM    7  O7  UNL     1     -33.506  17.726  -3.982  1.00 20.00    -0.387 OA
ENDROOT
TORSDOF 0
ENDMDL
MODEL 9
REMARK VINA RESULT:      -3.4      9.045     10.159
REMARK  0 active torsions:
REMARK  status: ('A' for Active; 'I' for Inactive)
ROOT
HETATM    1  C1  UNL     1     -42.301   6.987  -2.589  1.00 20.00    -0.066 C 
HETATM    2  C2  UNL     1     -42.512   7.666  -3.724  1.00 20.00     0.016 C 
HETATM    3  C3  UNL     1     -42.027   7.665  -1.274  1.00 20.00     0.037 C 
HETATM    4  C4  UNL     1     -42.292   5.485  -2.529  1.00 20.00     0.201 C 
HETATM    5  C5  UNL     1     -40.794   7.043  -0.619  1.00 20.00     0.030 C 
HETATM    6  C6  UNL     1     -40.890   5.519  -0.609  1.00 20.00     0.168 C 
HETATM    7  O7  UNL     1     -41.073   5.023  -1.938  1.00 20.00    -0.387 OA
ENDROOT
TORSDOF 0
ENDMDL
