MODEL 1
REMARK VINA RESULT:      -5.1      0.000      0.000
REMARK  4 active torsions:
REMARK  status: ('A' for Active; 'I' for Inactive)
REMARK    1  A    between atoms: C1_1  and  C12_12 
REMARK    2  A    between atoms: C6_6  and  C10_10 
REMARK    3  A    between atoms: C7_7  and  C11_11 
REMARK    4  A    between atoms: C11_11  and  C12_12 
ROOT
HETATM    1  C2  UNL     1     -34.766  17.392   0.580  1.00 20.00     0.001 C 
HETATM    2  C3  UNL     1     -34.428  18.880   0.501  1.00 20.00     0.005 C 
HETATM    3  C4  UNL     1     -34.947  16.780  -0.807  1.00 20.00     0.005 C 
HETATM    4  C5  UNL     1     -33.393  18.522  -1.779  1.00 20.00     0.009 C 
HETATM    5  C6  UNL     1     -33.219  19.174  -0.398  1.00 20.00    -0.014 C 
HETATM    6  C7  UNL     1     -33.725  17.024  -1.703  1.00 20.00    -0.013 C 
ENDROOT
BRANCH   6   7
HETATM    7  C11 UNL     1     -33.966  16.457  -3.102  1.00 20.00     0.015 C 
BRANCH   7   8
HETATM    8  C12 UNL     1     -34.436  15.000  -3.069  1.00 20.00     0.043 C 
HETATM    9  C9  UNL     1     -35.816  14.869  -3.710  1.00 20.00     0.017 C 
BRANCH   8  10
HETATM   10  C1  UNL     1     -33.496  14.055  -3.797  1.00 20.00     0.235 C 
HETATM   11  O13 UNL     1     -33.836  13.018  -4.358  1.00 20.00    -0.306 OA
ENDBRANCH   8  10
ENDBRANCH   7   8
ENDBRANCH   6   7
BRANCH   5  12
HETATM   12  C10 UNL     1     -31.905  18.757   0.266  1.00 20.00     0.000 C 
HETATM   13  C8  UNL     1     -31.810  19.262   1.668  1.00 20.00     0.005 C 
ENDBRANCH   5  12
TORSDOF 4
ENDMDL
MODEL 2
REMARK VINA RESULT:      -4.9      1.348      2.396
REMARK  4 active torsions:
REMARK  status: ('A' for Active; 'I' for Inactive)
REMARK    1  A    between atoms: C1_1  and  C12_12 
REMARK    2  A    between atoms: C6_6  and  C10_10 
REMARK    3  A    between atoms: C7_7  and  C11_11 
REMARK    4  A    between atoms: C11_11  and  C12_12 
ROOT
HETATM    1  C2  UNL     1     -33.568  19.103  -1.857  1.00 20.00     0.001 C 
HETATM    2  C3  UNL     1     -33.225  18.300  -0.604  1.00 20.00     0.005 C 
HETATM    3  C4  UNL     1     -33.832  18.193  -3.054  1.00 20.00     0.005 C 
HETATM    4  C5  UNL     1     -34.563  16.346  -1.491  1.00 20.00     0.009 C 
HETATM    5  C6  UNL     1     -34.276  17.233  -0.269  1.00 20.00    -0.014 C 
HETATM    6  C7  UNL     1     -34.916  17.150  -2.752  1.00 20.00    -0.013 C 
ENDROOT
BRANCH   6   7
HETATM    7  C11 UNL     1     -35.108  16.216  -3.946  1.00 20.00     0.015 C 
BRANCH   7   8
HETATM    8  C12 UNL     1     -35.552  14.813  -3.524  1.00 20.00     0.043 C 
HETATM    9  C9  UNL     1     -36.983  14.544  -3.984  1.00 20.00     0.017 C 
BRANCH   8  10
HETATM   10  C1  UNL     1     -34.670  13.714  -4.092  1.00 20.00     0.235 C 
HETATM   11  O13 UNL     1     -35.067  12.610  -4.453  1.00 20.00    -0.306 OA
ENDBRANCH   8  10
ENDBRANCH   7   8
ENDBRANCH   6   7
BRANCH   5  12
HETATM   12  C10 UNL     1     -35.555  17.854   0.296  1.00 20.00     0.000 C 
HETATM   13  C8  UNL     1     -35.623  17.724   1.782  1.00 20.00     0.005 C 
ENDBRANCH   5  12
TORSDOF 4
ENDMDL
MODEL 3
REMARK VINA RESULT:      -4.8      1.956      3.000
REMARK  4 active torsions:
REMARK  status: ('A' for Active; 'I' for Inactive)
REMARK    1  A    between atoms: C1_1  and  C12_12 
REMARK    2  A    between atoms: C6_6  and  C10_10 
REMARK    3  A    between atoms: C7_7  and  C11_11 
REMARK    4  A    between atoms: C11_11  and  C12_12 
ROOT
HETATM    1  C2  UNL     1     -34.740  18.992  -2.805  1.00 20.00     0.001 C 
HETATM    2  C3  UNL     1     -33.623  18.621  -1.831  1.00 20.00     0.005 C 
HETATM    3  C4  UNL     1     -34.760  18.066  -4.019  1.00 20.00     0.005 C 
HETATM    4  C5  UNL     1     -33.723  16.224  -2.632  1.00 20.00     0.009 C 
HETATM    5  C6  UNL     1     -33.664  17.148  -1.404  1.00 20.00    -0.014 C 
HETATM    6  C7  UNL     1     -34.849  16.590  -3.610  1.00 20.00    -0.013 C 
ENDROOT
BRANCH   6   7
HETATM    7  C11 UNL     1     -34.801  15.689  -4.844  1.00 20.00     0.015 C 
BRANCH   7   8
HETATM    8  C12 UNL     1     -35.795  14.528  -4.759  1.00 20.00     0.043 C 
HETATM    9  C9  UNL     1     -35.085  13.249  -4.321  1.00 20.00     0.017 C 
BRANCH   8  10
HETATM   10  C1  UNL     1     -36.928  14.785  -3.781  1.00 20.00     0.235 C 
HETATM   11  O13 UNL     1     -38.001  14.190  -3.775  1.00 20.00    -0.306 OA
ENDBRANCH   8  10
ENDBRANCH   7   8
ENDBRANCH   6   7
BRANCH   5  12
HETATM   12  C10 UNL     1     -34.812  16.872  -0.430  1.00 20.00     0.000 C 
HETATM   13  C8  UNL     1     -34.742  17.757   0.770  1.00 20.00     0.005 C 
ENDBRANCH   5  12
TORSDOF 4
ENDMDL
MODEL 4
REMARK VINA RESULT:      -4.6      2.541      5.791
REMARK  4 active torsions:
REMARK  status: ('A' for Active; 'I' for Inactive)
REMARK    1  A    between atoms: C1_1  and  C12_12 
REMARK    2  A    between atoms: C6_6  and  C10_10 
REMARK    3  A    between atoms: C7_7  and  C11_11 
REMARK    4  A    between atoms: C11_11  and  C12_12 
ROOT
HETATM    1  C2  UNL     1     -36.324  15.022  -3.903  1.00 20.00     0.001 C 
HETATM    2  C3  UNL     1     -35.446  13.969  -4.576  1.00 20.00     0.005 C 
HETATM    3  C4  UNL     1     -35.638  15.631  -2.682  1.00 20.00     0.005 C 
HETATM    4  C5  UNL     1     -33.379  15.135  -3.703  1.00 20.00     0.009 C 
HETATM    5  C6  UNL     1     -34.046  14.490  -4.928  1.00 20.00    -0.014 C 
HETATM    6  C7  UNL     1     -34.256  16.200  -3.027  1.00 20.00    -0.013 C 
ENDROOT
BRANCH   6   7
HETATM    7  C11 UNL     1     -33.571  16.741  -1.772  1.00 20.00     0.015 C 
BRANCH   7   8
HETATM    8  C12 UNL     1     -34.371  17.865  -1.109  1.00 20.00     0.043 C 
HETATM    9  C9  UNL     1     -34.777  17.466   0.308  1.00 20.00     0.017 C 
BRANCH   8  10
HETATM   10  C1  UNL     1     -33.601  19.171  -1.019  1.00 20.00     0.235 C 
HETATM   11  O13 UNL     1     -32.388  19.263  -0.863  1.00 20.00    -0.306 OA
ENDBRANCH   8  10
ENDBRANCH   7   8
ENDBRANCH   6   7
BRANCH   5  12
HETATM   12  C10 UNL     1     -34.081  15.443  -6.124  1.00 20.00     0.000 C 
HETATM   13  C8  UNL     1     -34.780  14.835  -7.295  1.00 20.00     0.005 C 
ENDBRANCH   5  12
TORSDOF 4
ENDMDL
MODEL 5
REMARK VINA RESULT:      -4.5      2.492      5.857
REMARK  4 active torsions:
REMARK  status: ('A' for Active; 'I' for Inactive)
REMARK    1  A    between atoms: C1_1  and  C12_12 
REMARK    2  A    between atoms: C6_6  and  C10_10 
REMARK    3  A    between atoms: C7_7  and  C11_11 
REMARK    4  A    between atoms: C11_11  and  C12_12 
ROOT
HETATM    1  C2  UNL     1     -34.963  13.263  -4.562  1.00 20.00     0.001 C 
HETATM    2  C3  UNL     1     -34.921  13.977  -5.912  1.00 20.00     0.005 C 
HETATM    3  C4  UNL     1     -34.189  14.032  -3.494  1.00 20.00     0.005 C 
HETATM    4  C5  UNL     1     -34.626  16.193  -4.730  1.00 20.00     0.009 C 
HETATM    5  C6  UNL     1     -35.384  15.438  -5.834  1.00 20.00    -0.014 C 
HETATM    6  C7  UNL     1     -34.673  15.482  -3.369  1.00 20.00    -0.013 C 
ENDROOT
BRANCH   6   7
HETATM    7  C11 UNL     1     -33.834  16.240  -2.340  1.00 20.00     0.015 C 
BRANCH   7   8
HETATM    8  C12 UNL     1     -34.683  16.805  -1.198  1.00 20.00     0.043 C 
HETATM    9  C9  UNL     1     -33.843  17.724  -0.313  1.00 20.00     0.017 C 
BRANCH   8  10
HETATM   10  C1  UNL     1     -35.881  17.601  -1.684  1.00 20.00     0.235 C 
HETATM   11  O13 UNL     1     -35.837  18.753  -2.106  1.00 20.00    -0.306 OA
ENDBRANCH   8  10
ENDBRANCH   7   8
ENDBRANCH   6   7
BRANCH   5  12
HETATM   12  C10 UNL     1     -36.900  15.543  -5.656  1.00 20.00     0.000 C 
HETATM   13  C8  UNL     1     -37.329  16.948  -5.393  1.00 20.00     0.005 C 
ENDBRANCH   5  12
TORSDOF 4
ENDMDL
MODEL 6
REMARK VINA RESULT:      -4.4      2.575      4.544
REMARK  4 active torsions:
REMARK  status: ('A' for Active; 'I' for Inactive)
REMARK    1  A    between atoms: C1_1  and  C12_12 
REMARK    2  A    between atoms: C6_6  and  C10_10 
REMARK    3  A    between atoms: C7_7  and  C11_11 
REMARK    4  A    between atoms: C11_11  and  C12_12 
ROOT
HETATM    1  C2  UNL     1     -33.279  16.416  -4.882  1.00 20.00     0.001 C 
HETATM    2  C3  UNL     1     -33.086  15.386  -3.770  1.00 20.00     0.005 C 
HETATM    3  C4  UNL     1     -34.715  16.426  -5.399  1.00 20.00     0.005 C 
HETATM    4  C5  UNL     1     -35.530  15.598  -3.153  1.00 20.00     0.009 C 
HETATM    5  C6  UNL     1     -34.089  15.551  -2.620  1.00 20.00    -0.014 C 
HETATM    6  C7  UNL     1     -35.728  16.638  -4.267  1.00 20.00    -0.013 C 
ENDROOT
BRANCH   6   7
HETATM    7  C11 UNL     1     -37.157  16.577  -4.808  1.00 20.00     0.015 C 
BRANCH   7   8
HETATM    8  C12 UNL     1     -38.203  16.529  -3.691  1.00 20.00     0.043 C 
HETATM    9  C9  UNL     1     -39.106  17.759  -3.751  1.00 20.00     0.017 C 
BRANCH   8  10
HETATM   10  C1  UNL     1     -39.091  15.299  -3.760  1.00 20.00     0.235 C 
HETATM   11  O13 UNL     1     -38.691  14.150  -3.913  1.00 20.00    -0.306 OA
ENDBRANCH   8  10
ENDBRANCH   7   8
ENDBRANCH   6   7
BRANCH   5  12
HETATM   12  C10 UNL     1     -33.763  16.769  -1.754  1.00 20.00     0.000 C 
HETATM   13  C8  UNL     1     -34.647  16.846  -0.554  1.00 20.00     0.005 C 
ENDBRANCH   5  12
TORSDOF 4
ENDMDL
MODEL 7
REMARK VINA RESULT:      -4.4      2.672      5.558
REMARK  4 active torsions:
REMARK  status: ('A' for Active; 'I' for Inactive)
REMARK    1  A    between atoms: C1_1  and  C12_12 
REMARK    2  A    between atoms: C6_6  and  C10_10 
REMARK    3  A    between atoms: C7_7  and  C11_11 
REMARK    4  A    between atoms: C11_11  and  C12_12 
ROOT
HETATM    1  C2  UNL     1     -34.665  14.486  -3.391  1.00 20.00     0.001 C 
HETATM    2  C3  UNL     1     -33.430  14.761  -4.246  1.00 20.00     0.005 C 
HETATM    3  C4  UNL     1     -34.861  15.557  -2.321  1.00 20.00     0.005 C 
HETATM    4  C5  UNL     1     -33.660  17.236  -3.781  1.00 20.00     0.009 C 
HETATM    5  C6  UNL     1     -33.425  16.167  -4.860  1.00 20.00    -0.014 C 
HETATM    6  C7  UNL     1     -34.907  16.966  -2.924  1.00 20.00    -0.013 C 
ENDROOT
BRANCH   6   7
HETATM    7  C11 UNL     1     -35.037  18.017  -1.821  1.00 20.00     0.015 C 
BRANCH   7   8
HETATM    8  C12 UNL     1     -34.500  17.520  -0.476  1.00 20.00     0.043 C 
HETATM    9  C9  UNL     1     -33.196  18.234  -0.125  1.00 20.00     0.017 C 
BRANCH   8  10
HETATM   10  C1  UNL     1     -35.471  17.740   0.671  1.00 20.00     0.235 C 
HETATM   11  O13 UNL     1     -35.306  17.342   1.819  1.00 20.00    -0.306 OA
ENDBRANCH   8  10
ENDBRANCH   7   8
ENDBRANCH   6   7
BRANCH   5  12
HETATM   12  C10 UNL     1     -34.431  16.288  -6.007  1.00 20.00     0.000 C 
HETATM   13  C8  UNL     1     -34.268  15.185  -7.001  1.00 20.00     0.005 C 
ENDBRANCH   5  12
TORSDOF 4
ENDMDL
MODEL 8
REMARK VINA RESULT:      -4.4      2.337      3.734
REMARK  4 active torsions:
REMARK  status: ('A' for Active; 'I' for Inactive)
REMARK    1  A    between atoms: C1_1  and  C12_12 
REMARK    2  A    between atoms: C6_6  and  C10_10 
REMARK    3  A    between atoms: C7_7  and  C11_11 
REMARK    4  A    between atoms: C11_11  and  C12_12 
ROOT
HETATM    1  C2  UNL     1     -33.730  16.757  -1.831  1.00 20.00     0.001 C 
HETATM    2  C3  UNL     1     -35.227  16.778  -1.530  1.00 20.00     0.005 C 
HETATM    3  C4  UNL     1     -33.420  15.961  -3.097  1.00 20.00     0.005 C 
HETATM    4  C5  UNL     1     -35.725  16.488  -3.993  1.00 20.00     0.009 C 
HETATM    5  C6  UNL     1     -36.071  17.269  -2.714  1.00 20.00    -0.014 C 
HETATM    6  C7  UNL     1     -34.220  16.471  -4.303  1.00 20.00    -0.013 C 
ENDROOT
BRANCH   6   7
HETATM    7  C11 UNL     1     -33.937  15.613  -5.535  1.00 20.00     0.015 C 
BRANCH   7   8
HETATM    8  C12 UNL     1     -35.050  14.598  -5.808  1.00 20.00     0.043 C 
HETATM    9  C9  UNL     1     -35.334  14.506  -7.306  1.00 20.00     0.017 C 
BRANCH   8  10
HETATM   10  C1  UNL     1     -34.717  13.201  -5.314  1.00 20.00     0.235 C 
HETATM   11  O13 UNL     1     -34.987  12.766  -4.199  1.00 20.00    -0.306 OA
ENDBRANCH   8  10
ENDBRANCH   7   8
ENDBRANCH   6   7
BRANCH   5  12
HETATM   12  C10 UNL     1     -35.937  18.780  -2.918  1.00 20.00     0.000 C 
HETATM   13  C8  UNL     1     -36.750  19.255  -4.076  1.00 20.00     0.005 C 
ENDBRANCH   5  12
TORSDOF 4
ENDMDL
MODEL 9
REMARK VINA RESULT:      -4.4      3.868      5.234
REMARK  4 active torsions:
REMARK  status: ('A' for Active; 'I' for Inactive)
REMARK    1  A    between atoms: C1_1  and  C12_12 
REMARK    2  A    between atoms: C6_6  and  C10_10 
REMARK    3  A    between atoms: C7_7  and  C11_11 
REMARK    4  A    between atoms: C11_11  and  C12_12 
ROOT
HETATM    1  C2  UNL     1     -33.997  13.297  -4.565  1.00 20.00     0.001 C 
HETATM    2  C3  UNL     1     -33.100  14.122  -3.644  1.00 20.00     0.005 C 
HETATM    3  C4  UNL     1     -35.470  13.427  -4.182  1.00 20.00     0.005 C 
HETATM    4  C5  UNL     1     -35.016  15.715  -3.206  1.00 20.00     0.009 C 
HETATM    5  C6  UNL     1     -33.523  15.595  -3.554  1.00 20.00    -0.014 C 
HETATM    6  C7  UNL     1     -35.922  14.892  -4.136  1.00 20.00    -0.013 C 
ENDROOT
BRANCH   6   7
HETATM    7  C11 UNL     1     -37.380  14.989  -3.686  1.00 20.00     0.015 C 
BRANCH   7   8
HETATM    8  C12 UNL     1     -38.253  15.738  -4.695  1.00 20.00     0.043 C 
HETATM    9  C9  UNL     1     -37.490  15.963  -5.999  1.00 20.00     0.017 C 
BRANCH   8  10
HETATM   10  C1  UNL     1     -39.538  15.002  -5.033  1.00 20.00     0.235 C 
HETATM   11  O13 UNL     1     -39.840  13.888  -4.618  1.00 20.00    -0.306 OA
ENDBRANCH   8  10
ENDBRANCH   7   8
ENDBRANCH   6   7
BRANCH   5  12
HETATM   12  C10 UNL     1     -33.174  16.363  -4.831  1.00 20.00     0.000 C 
HETATM   13  C8  UNL     1     -33.631  17.782  -4.763  1.00 20.00     0.005 C 
ENDBRANCH   5  12
TORSDOF 4
ENDMDL
