MODEL 1
REMARK VINA RESULT:      -4.2      0.000      0.000
REMARK  2 active torsions:
REMARK  status: ('A' for Active; 'I' for Inactive)
REMARK    1  A    between atoms: C7_7  and  C8_8 
REMARK    2  A    between atoms: C7_7  and  N9_9 
ROOT
HETATM    1  C1  UNL     1     -34.740  13.296  -5.266  1.00 20.00     0.038 C 
HETATM    2  C2  UNL     1     -34.160  13.762  -3.946  1.00 20.00     0.235 C 
HETATM    3  C3  UNL     1     -34.058  15.564  -5.609  1.00 20.00     0.243 C 
HETATM    4  C4  UNL     1     -35.192  14.590  -5.949  1.00 20.00    -0.022 C 
HETATM    5  C5  UNL     1     -35.330  14.403  -7.463  1.00 20.00     0.016 C 
HETATM    6  C6  UNL     1     -36.534  15.086  -5.383  1.00 20.00     0.016 C 
HETATM    7  N9  UNL     1     -33.482  15.069  -4.291  1.00 20.00    -0.069 N 
HETATM    8  H27 UNL     1     -32.487  14.852  -4.464  1.00 20.00     0.280 HD
ENDROOT
BRANCH   7   9
HETATM    9  C7  UNL     1     -33.514  16.076  -3.186  1.00 20.00     0.250 C 
BRANCH   9  10
HETATM   10  C8  UNL     1     -34.713  15.826  -2.289  1.00 20.00     0.142 C 
HETATM   11 CL10 UNL     1     -34.525  16.625  -0.709  1.00 20.00    -0.129 Cl
ENDBRANCH   9  10
ENDBRANCH   7   9
TORSDOF 2
ENDMDL
MODEL 2
REMARK VINA RESULT:      -3.9      2.480      4.031
REMARK  2 active torsions:
REMARK  status: ('A' for Active; 'I' for Inactive)
REMARK    1  A    between atoms: C7_7  and  C8_8 
REMARK    2  A    between atoms: C7_7  and  N9_9 
ROOT
HETATM    1  C1  UNL     1     -34.086  13.996  -3.428  1.00 20.00     0.038 C 
HETATM    2  C2  UNL     1     -34.589  13.554  -4.788  1.00 20.00     0.235 C 
HETATM    3  C3  UNL     1     -35.794  15.558  -4.038  1.00 20.00     0.243 C 
HETATM    4  C4  UNL     1     -34.411  15.492  -3.380  1.00 20.00    -0.022 C 
HETATM    5  C5  UNL     1     -34.454  16.007  -1.939  1.00 20.00     0.016 C 
HETATM    6  C6  UNL     1     -33.382  16.315  -4.175  1.00 20.00     0.016 C 
HETATM    7  N9  UNL     1     -35.845  14.372  -4.990  1.00 20.00    -0.069 N 
HETATM    8  H27 UNL     1     -36.637  13.782  -4.688  1.00 20.00     0.280 HD
ENDROOT
BRANCH   7   9
HETATM    9  C7  UNL     1     -36.104  14.738  -6.417  1.00 20.00     0.250 C 
BRANCH   9  10
HETATM   10  C8  UNL     1     -34.790  14.892  -7.161  1.00 20.00     0.142 C 
HETATM   11 CL10 UNL     1     -34.458  16.595  -7.556  1.00 20.00    -0.129 Cl
ENDBRANCH   9  10
ENDBRANCH   7   9
TORSDOF 2
ENDMDL
MODEL 3
REMARK VINA RESULT:      -3.9      1.680      2.556
REMARK  2 active torsions:
REMARK  status: ('A' for Active; 'I' for Inactive)
REMARK    1  A    between atoms: C7_7  and  C8_8 
REMARK    2  A    between atoms: C7_7  and  N9_9 
ROOT
HETATM    1  C1  UNL     1     -33.948  15.486  -5.269  1.00 20.00     0.038 C 
HETATM    2  C2  UNL     1     -33.579  16.736  -4.496  1.00 20.00     0.235 C 
HETATM    3  C3  UNL     1     -35.041  15.297  -3.148  1.00 20.00     0.243 C 
HETATM    4  C4  UNL     1     -34.276  14.460  -4.179  1.00 20.00    -0.022 C 
HETATM    5  C5  UNL     1     -35.141  13.322  -4.727  1.00 20.00     0.016 C 
HETATM    6  C6  UNL     1     -32.997  13.864  -3.566  1.00 20.00     0.016 C 
HETATM    7  N9  UNL     1     -34.516  16.716  -3.309  1.00 20.00    -0.069 N 
HETATM    8  H27 UNL     1     -35.325  17.307  -3.558  1.00 20.00     0.280 HD
ENDROOT
BRANCH   7   9
HETATM    9  C7  UNL     1     -33.926  17.300  -2.065  1.00 20.00     0.250 C 
BRANCH   9  10
HETATM   10  C8  UNL     1     -34.547  16.652  -0.841  1.00 20.00     0.142 C 
HETATM   11 CL10 UNL     1     -34.474  17.727   0.576  1.00 20.00    -0.129 Cl
ENDBRANCH   9  10
ENDBRANCH   7   9
TORSDOF 2
ENDMDL
MODEL 4
REMARK VINA RESULT:      -3.8      2.303      4.077
REMARK  2 active torsions:
REMARK  status: ('A' for Active; 'I' for Inactive)
REMARK    1  A    between atoms: C7_7  and  C8_8 
REMARK    2  A    between atoms: C7_7  and  N9_9 
ROOT
HETATM    1  C1  UNL     1     -33.632  16.810  -3.718  1.00 20.00     0.038 C 
HETATM    2  C2  UNL     1     -33.602  16.040  -5.024  1.00 20.00     0.235 C 
HETATM    3  C3  UNL     1     -34.445  14.617  -3.210  1.00 20.00     0.243 C 
HETATM    4  C4  UNL     1     -34.704  16.093  -2.891  1.00 20.00    -0.022 C 
HETATM    5  C5  UNL     1     -34.536  16.378  -1.396  1.00 20.00     0.016 C 
HETATM    6  C6  UNL     1     -36.120  16.512  -3.323  1.00 20.00     0.016 C 
HETATM    7  N9  UNL     1     -33.831  14.606  -4.603  1.00 20.00    -0.069 N 
HETATM    8  H27 UNL     1     -32.899  14.169  -4.513  1.00 20.00     0.280 HD
ENDROOT
BRANCH   7   9
HETATM    9  C7  UNL     1     -34.590  13.796  -5.605  1.00 20.00     0.250 C 
BRANCH   9  10
HETATM   10  C8  UNL     1     -35.004  14.670  -6.774  1.00 20.00     0.142 C 
HETATM   11 CL10 UNL     1     -36.730  15.098  -6.692  1.00 20.00    -0.129 Cl
ENDBRANCH   9  10
ENDBRANCH   7   9
TORSDOF 2
ENDMDL
MODEL 5
REMARK VINA RESULT:      -3.8     11.765     13.124
REMARK  2 active torsions:
REMARK  status: ('A' for Active; 'I' for Inactive)
REMARK    1  A    between atoms: C7_7  and  C8_8 
REMARK    2  A    between atoms: C7_7  and  N9_9 
ROOT
HETATM    1  C1  UNL     1     -35.631   5.083   4.293  1.00 20.00     0.038 C 
HETATM    2  C2  UNL     1     -34.721   5.470   3.144  1.00 20.00     0.235 C 
HETATM    3  C3  UNL     1     -33.705   6.096   5.289  1.00 20.00     0.243 C 
HETATM    4  C4  UNL     1     -34.679   4.928   5.483  1.00 20.00    -0.022 C 
HETATM    5  C5  UNL     1     -35.428   5.043   6.814  1.00 20.00     0.016 C 
HETATM    6  C6  UNL     1     -33.940   3.580   5.440  1.00 20.00     0.016 C 
HETATM    7  N9  UNL     1     -33.682   6.358   3.790  1.00 20.00    -0.069 N 
HETATM    8  H27 UNL     1     -33.997   7.333   3.654  1.00 20.00     0.280 HD
ENDROOT
BRANCH   7   9
HETATM    9  C7  UNL     1     -32.327   6.254   3.166  1.00 20.00     0.250 C 
BRANCH   9  10
HETATM   10  C8  UNL     1     -31.671   7.622   3.115  1.00 20.00     0.142 C 
HETATM   11 CL10 UNL     1     -32.077   8.487   1.613  1.00 20.00    -0.129 Cl
ENDBRANCH   9  10
ENDBRANCH   7   9
TORSDOF 2
ENDMDL
MODEL 6
REMARK VINA RESULT:      -3.8      1.336      1.765
REMARK  2 active torsions:
REMARK  status: ('A' for Active; 'I' for Inactive)
REMARK    1  A    between atoms: C7_7  and  C8_8 
REMARK    2  A    between atoms: C7_7  and  N9_9 
ROOT
HETATM    1  C1  UNL     1     -34.958  14.959  -6.958  1.00 20.00     0.038 C 
HETATM    2  C2  UNL     1     -34.680  14.122  -5.726  1.00 20.00     0.235 C 
HETATM    3  C3  UNL     1     -33.618  16.325  -5.521  1.00 20.00     0.243 C 
HETATM    4  C4  UNL     1     -34.825  16.403  -6.462  1.00 20.00    -0.022 C 
HETATM    5  C5  UNL     1     -34.566  17.369  -7.622  1.00 20.00     0.016 C 
HETATM    6  C6  UNL     1     -36.086  16.856  -5.707  1.00 20.00     0.016 C 
HETATM    7  N9  UNL     1     -33.603  14.896  -4.999  1.00 20.00    -0.069 N 
HETATM    8  H27 UNL     1     -32.699  14.485  -5.282  1.00 20.00     0.280 HD
ENDROOT
BRANCH   7   9
HETATM    9  C7  UNL     1     -33.679  14.782  -3.510  1.00 20.00     0.250 C 
BRANCH   9  10
HETATM   10  C8  UNL     1     -33.659  16.163  -2.881  1.00 20.00     0.142 C 
HETATM   11 CL10 UNL     1     -34.667  16.228  -1.415  1.00 20.00    -0.129 Cl
ENDBRANCH   9  10
ENDBRANCH   7   9
TORSDOF 2
ENDMDL
MODEL 7
REMARK VINA RESULT:      -3.8      1.103      2.005
REMARK  2 active torsions:
REMARK  status: ('A' for Active; 'I' for Inactive)
REMARK    1  A    between atoms: C7_7  and  C8_8 
REMARK    2  A    between atoms: C7_7  and  N9_9 
ROOT
HETATM    1  C1  UNL     1     -33.680  15.941  -5.678  1.00 20.00     0.038 C 
HETATM    2  C2  UNL     1     -33.857  16.615  -4.331  1.00 20.00     0.235 C 
HETATM    3  C3  UNL     1     -35.981  15.647  -5.090  1.00 20.00     0.243 C 
HETATM    4  C4  UNL     1     -34.801  14.898  -5.720  1.00 20.00    -0.022 C 
HETATM    5  C5  UNL     1     -35.114  14.474  -7.157  1.00 20.00     0.016 C 
HETATM    6  C6  UNL     1     -34.438  13.649  -4.898  1.00 20.00     0.016 C 
HETATM    7  N9  UNL     1     -35.357  16.666  -4.148  1.00 20.00    -0.069 N 
HETATM    8  H27 UNL     1     -35.665  17.597  -4.471  1.00 20.00     0.280 HD
ENDROOT
BRANCH   7   9
HETATM    9  C7  UNL     1     -35.796  16.539  -2.724  1.00 20.00     0.250 C 
BRANCH   9  10
HETATM   10  C8  UNL     1     -34.611  16.184  -1.844  1.00 20.00     0.142 C 
HETATM   11 CL10 UNL     1     -34.762  16.902  -0.222  1.00 20.00    -0.129 Cl
ENDBRANCH   9  10
ENDBRANCH   7   9
TORSDOF 2
ENDMDL
MODEL 8
REMARK VINA RESULT:      -3.7      1.051      1.938
REMARK  2 active torsions:
REMARK  status: ('A' for Active; 'I' for Inactive)
REMARK    1  A    between atoms: C7_7  and  C8_8 
REMARK    2  A    between atoms: C7_7  and  N9_9 
ROOT
HETATM    1  C1  UNL     1     -36.468  15.707  -5.905  1.00 20.00     0.038 C 
HETATM    2  C2  UNL     1     -36.148  15.747  -4.424  1.00 20.00     0.235 C 
HETATM    3  C3  UNL     1     -34.840  13.992  -5.535  1.00 20.00     0.243 C 
HETATM    4  C4  UNL     1     -35.217  15.089  -6.537  1.00 20.00    -0.022 C 
HETATM    5  C5  UNL     1     -35.523  14.501  -7.918  1.00 20.00     0.016 C 
HETATM    6  C6  UNL     1     -34.087  16.124  -6.675  1.00 20.00     0.016 C 
HETATM    7  N9  UNL     1     -35.362  14.477  -4.190  1.00 20.00    -0.069 N 
HETATM    8  H27 UNL     1     -36.034  13.767  -3.859  1.00 20.00     0.280 HD
ENDROOT
BRANCH   7   9
HETATM    9  C7  UNL     1     -34.314  14.602  -3.131  1.00 20.00     0.250 C 
BRANCH   9  10
HETATM   10  C8  UNL     1     -34.110  16.062  -2.770  1.00 20.00     0.142 C 
HETATM   11 CL10 UNL     1     -34.544  16.383  -1.074  1.00 20.00    -0.129 Cl
ENDBRANCH   9  10
ENDBRANCH   7   9
TORSDOF 2
ENDMDL
MODEL 9
REMARK VINA RESULT:      -3.6      2.503      4.433
REMARK  2 active torsions:
REMARK  status: ('A' for Active; 'I' for Inactive)
REMARK    1  A    between atoms: C7_7  and  C8_8 
REMARK    2  A    between atoms: C7_7  and  N9_9 
ROOT
HETATM    1  C1  UNL     1     -35.706  17.453  -2.896  1.00 20.00     0.038 C 
HETATM    2  C2  UNL     1     -36.062  16.072  -3.409  1.00 20.00     0.235 C 
HETATM    3  C3  UNL     1     -33.636  16.265  -3.082  1.00 20.00     0.243 C 
HETATM    4  C4  UNL     1     -34.376  17.245  -2.164  1.00 20.00    -0.022 C 
HETATM    5  C5  UNL     1     -33.608  18.561  -2.018  1.00 20.00     0.016 C 
HETATM    6  C6  UNL     1     -34.593  16.636  -0.767  1.00 20.00     0.016 C 
HETATM    7  N9  UNL     1     -34.726  15.474  -3.791  1.00 20.00    -0.069 N 
HETATM    8  H27 UNL     1     -34.603  15.640  -4.803  1.00 20.00     0.280 HD
ENDROOT
BRANCH   7   9
HETATM    9  C7  UNL     1     -34.646  13.995  -3.587  1.00 20.00     0.250 C 
BRANCH   9  10
HETATM   10  C8  UNL     1     -34.643  13.284  -4.927  1.00 20.00     0.142 C 
HETATM   11 CL10 UNL     1     -34.589  14.440  -6.280  1.00 20.00    -0.129 Cl
ENDBRANCH   9  10
ENDBRANCH   7   9
TORSDOF 2
ENDMDL
