MODEL 1
REMARK VINA RESULT:      -3.9      0.000      0.000
REMARK  3 active torsions:
REMARK  status: ('A' for Active; 'I' for Inactive)
REMARK    1  A    between atoms: C1_1  and  C5_5 
REMARK    2  A    between atoms: C1_1  and  C7_7 
REMARK    3  A    between atoms: C6_6  and  C7_7 
ROOT
HETATM    1  C3  UNL     1     -32.742  14.121  -3.459  1.00 20.00     0.023 C 
HETATM    2  C4  UNL     1     -33.491  16.031  -4.861  1.00 20.00     0.023 C 
HETATM    3  C7  UNL     1     -33.980  14.799  -4.078  1.00 20.00     0.014 C 
ENDROOT
BRANCH   3   4
HETATM    4  C1  UNL     1     -34.678  13.817  -5.048  1.00 20.00     0.148 C 
HETATM    5  O8  UNL     1     -34.884  12.644  -4.723  1.00 20.00    -0.296 OA
BRANCH   4   6
HETATM    6  C5  UNL     1     -35.089  14.345  -6.411  1.00 20.00     0.193 C 
HETATM    7 CL9  UNL     1     -36.701  15.078  -6.327  1.00 20.00    -0.123 Cl
ENDBRANCH   4   6
ENDBRANCH   3   4
BRANCH   3   8
HETATM    8  C6  UNL     1     -34.959  15.258  -2.970  1.00 20.00     0.012 C 
HETATM    9  C2  UNL     1     -34.372  16.221  -1.945  1.00 20.00     0.006 C 
ENDBRANCH   3   8
TORSDOF 3
ENDMDL
MODEL 2
REMARK VINA RESULT:      -3.8      1.965      2.471
REMARK  3 active torsions:
REMARK  status: ('A' for Active; 'I' for Inactive)
REMARK    1  A    between atoms: C1_1  and  C5_5 
REMARK    2  A    between atoms: C1_1  and  C7_7 
REMARK    3  A    between atoms: C6_6  and  C7_7 
ROOT
HETATM    1  C3  UNL     1     -35.886  15.272  -3.481  1.00 20.00     0.023 C 
HETATM    2  C4  UNL     1     -33.816  13.902  -3.594  1.00 20.00     0.023 C 
HETATM    3  C7  UNL     1     -34.353  15.345  -3.612  1.00 20.00     0.014 C 
ENDROOT
BRANCH   3   4
HETATM    4  C1  UNL     1     -33.979  16.015  -4.955  1.00 20.00     0.148 C 
HETATM    5  O8  UNL     1     -32.887  16.572  -5.103  1.00 20.00    -0.296 OA
BRANCH   4   6
HETATM    6  C5  UNL     1     -35.003  15.970  -6.075  1.00 20.00     0.193 C 
HETATM    7 CL9  UNL     1     -34.472  14.862  -7.353  1.00 20.00    -0.123 Cl
ENDBRANCH   4   6
ENDBRANCH   3   4
BRANCH   3   8
HETATM    8  C6  UNL     1     -33.741  16.128  -2.424  1.00 20.00     0.012 C 
HETATM    9  C2  UNL     1     -34.702  16.418  -1.277  1.00 20.00     0.006 C 
ENDBRANCH   3   8
TORSDOF 3
ENDMDL
MODEL 3
REMARK VINA RESULT:      -3.8     11.691     12.507
REMARK  3 active torsions:
REMARK  status: ('A' for Active; 'I' for Inactive)
REMARK    1  A    between atoms: C1_1  and  C5_5 
REMARK    2  A    between atoms: C1_1  and  C7_7 
REMARK    3  A    between atoms: C6_6  and  C7_7 
ROOT
HETATM    1  C3  UNL     1     -36.053   5.873   3.631  1.00 20.00     0.023 C 
HETATM    2  C4  UNL     1     -34.764   4.069   4.753  1.00 20.00     0.023 C 
HETATM    3  C7  UNL     1     -34.663   5.493   4.178  1.00 20.00     0.014 C 
ENDROOT
BRANCH   3   4
HETATM    4  C1  UNL     1     -33.630   5.510   3.026  1.00 20.00     0.148 C 
HETATM    5  O8  UNL     1     -33.887   4.988   1.937  1.00 20.00    -0.296 OA
BRANCH   4   6
HETATM    6  C5  UNL     1     -32.294   6.182   3.287  1.00 20.00     0.193 C 
HETATM    7 CL9  UNL     1     -32.195   7.719   2.410  1.00 20.00    -0.123 Cl
ENDBRANCH   4   6
ENDBRANCH   3   4
BRANCH   3   8
HETATM    8  C6  UNL     1     -34.238   6.466   5.305  1.00 20.00     0.012 C 
HETATM    9  C2  UNL     1     -34.350   5.908   6.719  1.00 20.00     0.006 C 
ENDBRANCH   3   8
TORSDOF 3
ENDMDL
MODEL 4
REMARK VINA RESULT:      -3.8      0.507      1.745
REMARK  3 active torsions:
REMARK  status: ('A' for Active; 'I' for Inactive)
REMARK    1  A    between atoms: C1_1  and  C5_5 
REMARK    2  A    between atoms: C1_1  and  C7_7 
REMARK    3  A    between atoms: C6_6  and  C7_7 
ROOT
HETATM    1  C3  UNL     1     -34.750  15.360  -2.934  1.00 20.00     0.023 C 
HETATM    2  C4  UNL     1     -32.655  14.137  -3.475  1.00 20.00     0.023 C 
HETATM    3  C7  UNL     1     -33.878  14.839  -4.093  1.00 20.00     0.014 C 
ENDROOT
BRANCH   3   4
HETATM    4  C1  UNL     1     -34.686  13.821  -4.932  1.00 20.00     0.148 C 
HETATM    5  O8  UNL     1     -34.950  12.701  -4.486  1.00 20.00    -0.296 OA
BRANCH   4   6
HETATM    6  C5  UNL     1     -35.133  14.247  -6.319  1.00 20.00     0.193 C 
HETATM    7 CL9  UNL     1     -36.676  15.115  -6.231  1.00 20.00    -0.123 Cl
ENDBRANCH   4   6
ENDBRANCH   3   4
BRANCH   3   8
HETATM    8  C6  UNL     1     -33.394  16.013  -4.980  1.00 20.00     0.012 C 
HETATM    9  C2  UNL     1     -33.769  17.402  -4.477  1.00 20.00     0.006 C 
ENDBRANCH   3   8
TORSDOF 3
ENDMDL
MODEL 5
REMARK VINA RESULT:      -3.7      2.225      3.487
REMARK  3 active torsions:
REMARK  status: ('A' for Active; 'I' for Inactive)
REMARK    1  A    between atoms: C1_1  and  C5_5 
REMARK    2  A    between atoms: C1_1  and  C7_7 
REMARK    3  A    between atoms: C6_6  and  C7_7 
ROOT
HETATM    1  C3  UNL     1     -33.367  16.049  -4.584  1.00 20.00     0.023 C 
HETATM    2  C4  UNL     1     -33.479  13.717  -3.732  1.00 20.00     0.023 C 
HETATM    3  C7  UNL     1     -34.288  14.823  -4.435  1.00 20.00     0.014 C 
ENDROOT
BRANCH   3   4
HETATM    4  C1  UNL     1     -35.512  15.196  -3.566  1.00 20.00     0.148 C 
HETATM    5  O8  UNL     1     -36.495  14.453  -3.504  1.00 20.00    -0.296 OA
BRANCH   4   6
HETATM    6  C5  UNL     1     -35.461  16.508  -2.802  1.00 20.00     0.193 C 
HETATM    7 CL9  UNL     1     -34.675  16.276  -1.230  1.00 20.00    -0.123 Cl
ENDBRANCH   4   6
ENDBRANCH   3   4
BRANCH   3   8
HETATM    8  C6  UNL     1     -34.742  14.312  -5.825  1.00 20.00     0.012 C 
HETATM    9  C2  UNL     1     -34.343  15.194  -7.001  1.00 20.00     0.006 C 
ENDBRANCH   3   8
TORSDOF 3
ENDMDL
MODEL 6
REMARK VINA RESULT:      -3.7      1.892      2.601
REMARK  3 active torsions:
REMARK  status: ('A' for Active; 'I' for Inactive)
REMARK    1  A    between atoms: C1_1  and  C5_5 
REMARK    2  A    between atoms: C1_1  and  C7_7 
REMARK    3  A    between atoms: C6_6  and  C7_7 
ROOT
HETATM    1  C3  UNL     1     -34.343  17.116  -4.347  1.00 20.00     0.023 C 
HETATM    2  C4  UNL     1     -35.862  15.784  -2.900  1.00 20.00     0.023 C 
HETATM    3  C7  UNL     1     -34.384  16.119  -3.173  1.00 20.00     0.014 C 
ENDROOT
BRANCH   3   4
HETATM    4  C1  UNL     1     -33.628  14.827  -3.563  1.00 20.00     0.148 C 
HETATM    5  O8  UNL     1     -32.395  14.801  -3.598  1.00 20.00    -0.296 OA
BRANCH   4   6
HETATM    6  C5  UNL     1     -34.457  13.602  -3.908  1.00 20.00     0.193 C 
HETATM    7 CL9  UNL     1     -34.893  13.616  -5.626  1.00 20.00    -0.123 Cl
ENDBRANCH   4   6
ENDBRANCH   3   4
BRANCH   3   8
HETATM    8  C6  UNL     1     -33.765  16.749  -1.901  1.00 20.00     0.012 C 
HETATM    9  C2  UNL     1     -34.656  16.723  -0.665  1.00 20.00     0.006 C 
ENDBRANCH   3   8
TORSDOF 3
ENDMDL
MODEL 7
REMARK VINA RESULT:      -3.7     11.788     12.592
REMARK  3 active torsions:
REMARK  status: ('A' for Active; 'I' for Inactive)
REMARK    1  A    between atoms: C1_1  and  C5_5 
REMARK    2  A    between atoms: C1_1  and  C7_7 
REMARK    3  A    between atoms: C6_6  and  C7_7 
ROOT
HETATM    1  C3  UNL     1     -34.171   6.562   5.301  1.00 20.00     0.023 C 
HETATM    2  C4  UNL     1     -35.975   6.010   3.683  1.00 20.00     0.023 C 
HETATM    3  C7  UNL     1     -34.604   5.557   4.216  1.00 20.00     0.014 C 
ENDROOT
BRANCH   3   4
HETATM    4  C1  UNL     1     -33.575   5.565   3.061  1.00 20.00     0.148 C 
HETATM    5  O8  UNL     1     -33.828   5.019   1.983  1.00 20.00    -0.296 OA
BRANCH   4   6
HETATM    6  C5  UNL     1     -32.247   6.260   3.305  1.00 20.00     0.193 C 
HETATM    7 CL9  UNL     1     -32.168   7.777   2.391  1.00 20.00    -0.123 Cl
ENDBRANCH   4   6
ENDBRANCH   3   4
BRANCH   3   8
HETATM    8  C6  UNL     1     -34.738   4.135   4.815  1.00 20.00     0.012 C 
HETATM    9  C2  UNL     1     -35.111   4.087   6.292  1.00 20.00     0.006 C 
ENDBRANCH   3   8
TORSDOF 3
ENDMDL
MODEL 8
REMARK VINA RESULT:      -3.7      2.266      3.540
REMARK  3 active torsions:
REMARK  status: ('A' for Active; 'I' for Inactive)
REMARK    1  A    between atoms: C1_1  and  C5_5 
REMARK    2  A    between atoms: C1_1  and  C7_7 
REMARK    3  A    between atoms: C6_6  and  C7_7 
ROOT
HETATM    1  C3  UNL     1     -36.761  14.440  -4.118  1.00 20.00     0.023 C 
HETATM    2  C4  UNL     1     -35.426  16.361  -4.956  1.00 20.00     0.023 C 
HETATM    3  C7  UNL     1     -35.383  14.848  -4.674  1.00 20.00     0.014 C 
ENDROOT
BRANCH   3   4
HETATM    4  C1  UNL     1     -34.291  14.553  -3.619  1.00 20.00     0.148 C 
HETATM    5  O8  UNL     1     -33.933  13.395  -3.385  1.00 20.00    -0.296 OA
BRANCH   4   6
HETATM    6  C5  UNL     1     -33.685  15.734  -2.881  1.00 20.00     0.193 C 
HETATM    7 CL9  UNL     1     -34.682  16.161  -1.478  1.00 20.00    -0.123 Cl
ENDBRANCH   4   6
ENDBRANCH   3   4
BRANCH   3   8
HETATM    8  C6  UNL     1     -35.084  14.095  -5.994  1.00 20.00     0.012 C 
HETATM    9  C2  UNL     1     -34.489  14.950  -7.106  1.00 20.00     0.006 C 
ENDBRANCH   3   8
TORSDOF 3
ENDMDL
MODEL 9
REMARK VINA RESULT:      -3.6      1.923      2.891
REMARK  3 active torsions:
REMARK  status: ('A' for Active; 'I' for Inactive)
REMARK    1  A    between atoms: C1_1  and  C5_5 
REMARK    2  A    between atoms: C1_1  and  C7_7 
REMARK    3  A    between atoms: C6_6  and  C7_7 
ROOT
HETATM    1  C3  UNL     1     -34.339  16.007  -2.160  1.00 20.00     0.023 C 
HETATM    2  C4  UNL     1     -36.212  15.466  -3.701  1.00 20.00     0.023 C 
HETATM    3  C7  UNL     1     -34.686  15.373  -3.521  1.00 20.00     0.014 C 
ENDROOT
BRANCH   3   4
HETATM    4  C1  UNL     1     -33.987  16.162  -4.654  1.00 20.00     0.148 C 
HETATM    5  O8  UNL     1     -32.761  16.310  -4.660  1.00 20.00    -0.296 OA
BRANCH   4   6
HETATM    6  C5  UNL     1     -34.861  16.751  -5.746  1.00 20.00     0.193 C 
HETATM    7 CL9  UNL     1     -34.556  15.933  -7.289  1.00 20.00    -0.123 Cl
ENDBRANCH   4   6
ENDBRANCH   3   4
BRANCH   3   8
HETATM    8  C6  UNL     1     -34.261  13.884  -3.552  1.00 20.00     0.012 C 
HETATM    9  C2  UNL     1     -34.661  13.123  -4.810  1.00 20.00     0.006 C 
ENDBRANCH   3   8
TORSDOF 3
ENDMDL
