MODEL 1
REMARK VINA RESULT:      -5.5      0.000      0.000
REMARK  4 active torsions:
REMARK  status: ('A' for Active; 'I' for Inactive)
REMARK    1  A    between atoms: C4_4  and  C5_5 
REMARK    2  A    between atoms: C5_5  and  C6_6 
REMARK    3  A    between atoms: C6_6  and  C8_8 
REMARK    4  A    between atoms: C7_7  and  C8_8 
ROOT
HETATM    1  C1  UNL     1     -31.984   8.786   1.272  1.00 20.00     0.012 C 
HETATM    2  C2  UNL     1     -32.059   8.021   2.194  1.00 20.00    -0.117 C 
HETATM    3  C4  UNL     1     -32.148   7.086   3.325  1.00 20.00     0.093 C 
ENDROOT
BRANCH   3   4
HETATM    4  C5  UNL     1     -33.123   5.937   3.053  1.00 20.00     0.012 C 
BRANCH   4   5
HETATM    5  C6  UNL     1     -34.362   5.983   3.957  1.00 20.00     0.006 C 
BRANCH   5   6
HETATM    6  C8  UNL     1     -34.206   5.166   5.256  1.00 20.00    -0.005 C 
HETATM    7  C3  UNL     1     -35.104   3.925   5.198  1.00 20.00     0.011 C 
BRANCH   6   8
HETATM    8  C7  UNL     1     -34.443   5.966   6.547  1.00 20.00     0.119 C 
HETATM    9 CL9  UNL     1     -33.320   7.331   6.755  1.00 20.00    -0.130 Cl
ENDBRANCH   6   8
ENDBRANCH   5   6
ENDBRANCH   4   5
ENDBRANCH   3   4
TORSDOF 4
ENDMDL
MODEL 2
REMARK VINA RESULT:      -4.9      1.260      1.583
REMARK  4 active torsions:
REMARK  status: ('A' for Active; 'I' for Inactive)
REMARK    1  A    between atoms: C4_4  and  C5_5 
REMARK    2  A    between atoms: C5_5  and  C6_6 
REMARK    3  A    between atoms: C6_6  and  C8_8 
REMARK    4  A    between atoms: C7_7  and  C8_8 
ROOT
HETATM    1  C1  UNL     1     -32.271   9.210   0.903  1.00 20.00     0.012 C 
HETATM    2  C2  UNL     1     -32.024   8.479   1.822  1.00 20.00    -0.117 C 
HETATM    3  C4  UNL     1     -31.720   7.585   2.950  1.00 20.00     0.093 C 
ENDROOT
BRANCH   3   4
HETATM    4  C5  UNL     1     -32.593   6.328   2.946  1.00 20.00     0.012 C 
BRANCH   4   5
HETATM    5  C6  UNL     1     -33.612   6.309   4.093  1.00 20.00     0.006 C 
BRANCH   5   6
HETATM    6  C8  UNL     1     -34.692   5.218   3.938  1.00 20.00    -0.005 C 
HETATM    7  C3  UNL     1     -35.981   5.841   3.391  1.00 20.00     0.011 C 
BRANCH   6   8
HETATM    8  C7  UNL     1     -34.964   4.402   5.212  1.00 20.00     0.119 C 
HETATM    9 CL9  UNL     1     -34.677   5.311   6.715  1.00 20.00    -0.130 Cl
ENDBRANCH   6   8
ENDBRANCH   5   6
ENDBRANCH   4   5
ENDBRANCH   3   4
TORSDOF 4
ENDMDL
MODEL 3
REMARK VINA RESULT:      -4.9      1.618      2.118
REMARK  4 active torsions:
REMARK  status: ('A' for Active; 'I' for Inactive)
REMARK    1  A    between atoms: C4_4  and  C5_5 
REMARK    2  A    between atoms: C5_5  and  C6_6 
REMARK    3  A    between atoms: C6_6  and  C8_8 
REMARK    4  A    between atoms: C7_7  and  C8_8 
ROOT
HETATM    1  C1  UNL     1     -32.447   9.429   0.464  1.00 20.00     0.012 C 
HETATM    2  C2  UNL     1     -32.184   8.782   1.439  1.00 20.00    -0.117 C 
HETATM    3  C4  UNL     1     -31.861   7.991   2.636  1.00 20.00     0.093 C 
ENDROOT
BRANCH   3   4
HETATM    4  C5  UNL     1     -32.613   6.658   2.672  1.00 20.00     0.012 C 
BRANCH   4   5
HETATM    5  C6  UNL     1     -32.735   6.084   4.089  1.00 20.00     0.006 C 
BRANCH   5   6
HETATM    6  C8  UNL     1     -34.147   6.230   4.693  1.00 20.00    -0.005 C 
HETATM    7  C3  UNL     1     -34.041   6.489   6.200  1.00 20.00     0.011 C 
BRANCH   6   8
HETATM    8  C7  UNL     1     -35.096   5.058   4.395  1.00 20.00     0.119 C 
HETATM    9 CL9  UNL     1     -35.056   3.777   5.630  1.00 20.00    -0.130 Cl
ENDBRANCH   6   8
ENDBRANCH   5   6
ENDBRANCH   4   5
ENDBRANCH   3   4
TORSDOF 4
ENDMDL
MODEL 4
REMARK VINA RESULT:      -4.7      2.399      4.969
REMARK  4 active torsions:
REMARK  status: ('A' for Active; 'I' for Inactive)
REMARK    1  A    between atoms: C4_4  and  C5_5 
REMARK    2  A    between atoms: C5_5  and  C6_6 
REMARK    3  A    between atoms: C6_6  and  C8_8 
REMARK    4  A    between atoms: C7_7  and  C8_8 
ROOT
HETATM    1  C1  UNL     1     -35.095   4.232   6.177  1.00 20.00     0.012 C 
HETATM    2  C2  UNL     1     -35.043   4.736   5.089  1.00 20.00    -0.117 C 
HETATM    3  C4  UNL     1     -34.983   5.352   3.756  1.00 20.00     0.093 C 
ENDROOT
BRANCH   3   4
HETATM    4  C5  UNL     1     -34.019   6.540   3.709  1.00 20.00     0.012 C 
BRANCH   4   5
HETATM    5  C6  UNL     1     -32.671   6.186   3.068  1.00 20.00     0.006 C 
BRANCH   5   6
HETATM    6  C8  UNL     1     -31.740   7.401   2.881  1.00 20.00    -0.005 C 
HETATM    7  C3  UNL     1     -31.187   7.844   4.240  1.00 20.00     0.011 C 
BRANCH   6   8
HETATM    8  C7  UNL     1     -32.372   8.581   2.125  1.00 20.00     0.119 C 
HETATM    9 CL9  UNL     1     -31.821   8.725   0.439  1.00 20.00    -0.130 Cl
ENDBRANCH   6   8
ENDBRANCH   5   6
ENDBRANCH   4   5
ENDBRANCH   3   4
TORSDOF 4
ENDMDL
MODEL 5
REMARK VINA RESULT:      -4.6      2.189      4.608
REMARK  4 active torsions:
REMARK  status: ('A' for Active; 'I' for Inactive)
REMARK    1  A    between atoms: C4_4  and  C5_5 
REMARK    2  A    between atoms: C5_5  and  C6_6 
REMARK    3  A    between atoms: C6_6  and  C8_8 
REMARK    4  A    between atoms: C7_7  and  C8_8 
ROOT
HETATM    1  C1  UNL     1     -35.096   3.858   5.568  1.00 20.00     0.012 C 
HETATM    2  C2  UNL     1     -34.699   4.924   5.951  1.00 20.00    -0.117 C 
HETATM    3  C4  UNL     1     -34.213   6.228   6.423  1.00 20.00     0.093 C 
ENDROOT
BRANCH   3   4
HETATM    4  C5  UNL     1     -33.350   6.939   5.378  1.00 20.00     0.012 C 
BRANCH   4   5
HETATM    5  C6  UNL     1     -33.928   6.836   3.960  1.00 20.00     0.006 C 
BRANCH   5   6
HETATM    6  C8  UNL     1     -32.849   6.715   2.864  1.00 20.00    -0.005 C 
HETATM    7  C3  UNL     1     -32.042   5.428   3.071  1.00 20.00     0.011 C 
BRANCH   6   8
HETATM    8  C7  UNL     1     -31.926   7.937   2.736  1.00 20.00     0.119 C 
HETATM    9 CL9  UNL     1     -32.008   8.728   1.144  1.00 20.00    -0.130 Cl
ENDBRANCH   6   8
ENDBRANCH   5   6
ENDBRANCH   4   5
ENDBRANCH   3   4
TORSDOF 4
ENDMDL
MODEL 6
REMARK VINA RESULT:      -4.5      2.195      4.386
REMARK  4 active torsions:
REMARK  status: ('A' for Active; 'I' for Inactive)
REMARK    1  A    between atoms: C4_4  and  C5_5 
REMARK    2  A    between atoms: C5_5  and  C6_6 
REMARK    3  A    between atoms: C6_6  and  C8_8 
REMARK    4  A    between atoms: C7_7  and  C8_8 
ROOT
HETATM    1  C1  UNL     1     -33.952   6.584   6.820  1.00 20.00     0.012 C 
HETATM    2  C2  UNL     1     -34.462   5.828   6.040  1.00 20.00    -0.117 C 
HETATM    3  C4  UNL     1     -35.088   4.900   5.087  1.00 20.00     0.093 C 
ENDROOT
BRANCH   3   4
HETATM    4  C5  UNL     1     -34.827   5.299   3.632  1.00 20.00     0.012 C 
BRANCH   4   5
HETATM    5  C6  UNL     1     -34.187   6.687   3.503  1.00 20.00     0.006 C 
BRANCH   5   6
HETATM    6  C8  UNL     1     -32.870   6.685   2.700  1.00 20.00    -0.005 C 
HETATM    7  C3  UNL     1     -31.970   5.543   3.186  1.00 20.00     0.011 C 
BRANCH   6   8
HETATM    8  C7  UNL     1     -32.118   8.026   2.700  1.00 20.00     0.119 C 
HETATM    9 CL9  UNL     1     -32.038   8.797   1.099  1.00 20.00    -0.130 Cl
ENDBRANCH   6   8
ENDBRANCH   5   6
ENDBRANCH   4   5
ENDBRANCH   3   4
TORSDOF 4
ENDMDL
MODEL 7
REMARK VINA RESULT:      -4.1     11.502     12.544
REMARK  4 active torsions:
REMARK  status: ('A' for Active; 'I' for Inactive)
REMARK    1  A    between atoms: C4_4  and  C5_5 
REMARK    2  A    between atoms: C5_5  and  C6_6 
REMARK    3  A    between atoms: C6_6  and  C8_8 
REMARK    4  A    between atoms: C7_7  and  C8_8 
ROOT
HETATM    1  C1  UNL     1     -34.801  14.704  -6.917  1.00 20.00     0.012 C 
HETATM    2  C2  UNL     1     -34.822  14.075  -5.895  1.00 20.00    -0.117 C 
HETATM    3  C4  UNL     1     -34.849  13.302  -4.645  1.00 20.00     0.093 C 
ENDROOT
BRANCH   3   4
HETATM    4  C5  UNL     1     -34.153  14.034  -3.495  1.00 20.00     0.012 C 
BRANCH   4   5
HETATM    5  C6  UNL     1     -34.922  15.277  -3.030  1.00 20.00     0.006 C 
BRANCH   5   6
HETATM    6  C8  UNL     1     -34.040  16.310  -2.300  1.00 20.00    -0.005 C 
HETATM    7  C3  UNL     1     -34.615  16.589  -0.906  1.00 20.00     0.011 C 
BRANCH   6   8
HETATM    8  C7  UNL     1     -33.805  17.615  -3.077  1.00 20.00     0.119 C 
HETATM    9 CL9  UNL     1     -33.430  17.362  -4.798  1.00 20.00    -0.130 Cl
ENDBRANCH   6   8
ENDBRANCH   5   6
ENDBRANCH   4   5
ENDBRANCH   3   4
TORSDOF 4
ENDMDL
MODEL 8
REMARK VINA RESULT:      -4.0      2.290      3.957
REMARK  4 active torsions:
REMARK  status: ('A' for Active; 'I' for Inactive)
REMARK    1  A    between atoms: C4_4  and  C5_5 
REMARK    2  A    between atoms: C5_5  and  C6_6 
REMARK    3  A    between atoms: C6_6  and  C8_8 
REMARK    4  A    between atoms: C7_7  and  C8_8 
ROOT
HETATM    1  C1  UNL     1     -33.261   7.302   6.633  1.00 20.00     0.012 C 
HETATM    2  C2  UNL     1     -34.048   6.395   6.658  1.00 20.00    -0.117 C 
HETATM    3  C4  UNL     1     -35.012   5.287   6.690  1.00 20.00     0.093 C 
ENDROOT
BRANCH   3   4
HETATM    4  C5  UNL     1     -34.526   4.070   5.899  1.00 20.00     0.012 C 
BRANCH   4   5
HETATM    5  C6  UNL     1     -34.961   4.106   4.428  1.00 20.00     0.006 C 
BRANCH   5   6
HETATM    6  C8  UNL     1     -34.808   5.495   3.774  1.00 20.00    -0.005 C 
HETATM    7  C3  UNL     1     -36.160   5.955   3.216  1.00 20.00     0.011 C 
BRANCH   6   8
HETATM    8  C7  UNL     1     -33.705   5.582   2.707  1.00 20.00     0.119 C 
HETATM    9 CL9  UNL     1     -32.258   6.465   3.250  1.00 20.00    -0.130 Cl
ENDBRANCH   6   8
ENDBRANCH   5   6
ENDBRANCH   4   5
ENDBRANCH   3   4
TORSDOF 4
ENDMDL
MODEL 9
REMARK VINA RESULT:      -4.0      1.896      4.665
REMARK  4 active torsions:
REMARK  status: ('A' for Active; 'I' for Inactive)
REMARK    1  A    between atoms: C4_4  and  C5_5 
REMARK    2  A    between atoms: C5_5  and  C6_6 
REMARK    3  A    between atoms: C6_6  and  C8_8 
REMARK    4  A    between atoms: C7_7  and  C8_8 
ROOT
HETATM    1  C1  UNL     1     -34.981   3.844   5.447  1.00 20.00     0.012 C 
HETATM    2  C2  UNL     1     -34.718   4.884   5.985  1.00 20.00    -0.117 C 
HETATM    3  C4  UNL     1     -34.398   6.158   6.645  1.00 20.00     0.093 C 
ENDROOT
BRANCH   3   4
HETATM    4  C5  UNL     1     -33.307   6.936   5.907  1.00 20.00     0.012 C 
BRANCH   4   5
HETATM    5  C6  UNL     1     -33.594   7.085   4.407  1.00 20.00     0.006 C 
BRANCH   5   6
HETATM    6  C8  UNL     1     -32.381   6.758   3.513  1.00 20.00    -0.005 C 
HETATM    7  C3  UNL     1     -32.054   7.963   2.623  1.00 20.00     0.011 C 
BRANCH   6   8
HETATM    8  C7  UNL     1     -32.527   5.474   2.680  1.00 20.00     0.119 C 
HETATM    9 CL9  UNL     1     -34.218   5.035   2.338  1.00 20.00    -0.130 Cl
ENDBRANCH   6   8
ENDBRANCH   5   6
ENDBRANCH   4   5
ENDBRANCH   3   4
TORSDOF 4
ENDMDL
