MODEL 1
REMARK VINA RESULT:      -4.0      0.000      0.000
REMARK  2 active torsions:
REMARK  status: ('A' for Active; 'I' for Inactive)
REMARK    1  A    between atoms: C5_5  and  C7_7 
REMARK    2  A    between atoms: C6_6  and  C7_7 
ROOT
HETATM    1  C3  UNL     1     -33.664   4.906   2.796  1.00 20.00     0.016 C 
HETATM    2  C4  UNL     1     -35.848   5.827   3.565  1.00 20.00     0.016 C 
HETATM    3  C7  UNL     1     -34.332   5.790   3.874  1.00 20.00    -0.032 C 
ENDROOT
BRANCH   3   4
HETATM    4  C5  UNL     1     -33.754   7.223   3.698  1.00 20.00     0.123 C 
HETATM    5 CL8  UNL     1     -32.087   7.266   3.066  1.00 20.00    -0.130 Cl
ENDBRANCH   3   4
BRANCH   3   6
HETATM    6  C6  UNL     1     -34.091   5.220   5.322  1.00 20.00    -0.014 C 
HETATM    7  C1  UNL     1     -35.049   4.084   5.711  1.00 20.00     0.010 C 
HETATM    8  C2  UNL     1     -34.134   6.286   6.429  1.00 20.00     0.010 C 
ENDBRANCH   3   6
TORSDOF 2
ENDMDL
MODEL 2
REMARK VINA RESULT:      -3.7      0.535      1.347
REMARK  2 active torsions:
REMARK  status: ('A' for Active; 'I' for Inactive)
REMARK    1  A    between atoms: C5_5  and  C7_7 
REMARK    2  A    between atoms: C6_6  and  C7_7 
ROOT
HETATM    1  C3  UNL     1     -34.068   4.609   3.130  1.00 20.00     0.016 C 
HETATM    2  C4  UNL     1     -36.062   6.096   3.291  1.00 20.00     0.016 C 
HETATM    3  C7  UNL     1     -34.715   5.739   3.965  1.00 20.00    -0.032 C 
ENDROOT
BRANCH   3   4
HETATM    4  C5  UNL     1     -33.767   6.967   3.866  1.00 20.00     0.123 C 
HETATM    5 CL8  UNL     1     -32.171   6.604   3.160  1.00 20.00    -0.130 Cl
ENDBRANCH   3   4
BRANCH   3   6
HETATM    6  C6  UNL     1     -34.961   5.290   5.455  1.00 20.00    -0.014 C 
HETATM    7  C1  UNL     1     -34.174   6.109   6.489  1.00 20.00     0.010 C 
HETATM    8  C2  UNL     1     -34.685   3.799   5.711  1.00 20.00     0.010 C 
ENDBRANCH   3   6
TORSDOF 2
ENDMDL
MODEL 3
REMARK VINA RESULT:      -3.6     11.811     13.163
REMARK  2 active torsions:
REMARK  status: ('A' for Active; 'I' for Inactive)
REMARK    1  A    between atoms: C5_5  and  C7_7 
REMARK    2  A    between atoms: C6_6  and  C7_7 
ROOT
HETATM    1  C3  UNL     1     -34.754  13.339  -4.541  1.00 20.00     0.016 C 
HETATM    2  C4  UNL     1     -32.940  14.778  -3.620  1.00 20.00     0.016 C 
HETATM    3  C7  UNL     1     -34.388  14.794  -4.166  1.00 20.00    -0.032 C 
ENDROOT
BRANCH   3   4
HETATM    4  C5  UNL     1     -35.348  15.215  -3.018  1.00 20.00     0.123 C 
HETATM    5 CL8  UNL     1     -34.560  16.127  -1.704  1.00 20.00    -0.130 Cl
ENDBRANCH   3   4
BRANCH   3   6
HETATM    6  C6  UNL     1     -34.484  15.754  -5.411  1.00 20.00    -0.014 C 
HETATM    7  C1  UNL     1     -34.397  15.031  -6.763  1.00 20.00     0.010 C 
HETATM    8  C2  UNL     1     -33.447  16.889  -5.405  1.00 20.00     0.010 C 
ENDBRANCH   3   6
TORSDOF 2
ENDMDL
MODEL 4
REMARK VINA RESULT:      -3.6     11.495     12.619
REMARK  2 active torsions:
REMARK  status: ('A' for Active; 'I' for Inactive)
REMARK    1  A    between atoms: C5_5  and  C7_7 
REMARK    2  A    between atoms: C6_6  and  C7_7 
ROOT
HETATM    1  C3  UNL     1     -33.322  16.371  -4.682  1.00 20.00     0.016 C 
HETATM    2  C4  UNL     1     -35.640  16.765  -3.858  1.00 20.00     0.016 C 
HETATM    3  C7  UNL     1     -34.305  16.053  -3.532  1.00 20.00    -0.032 C 
ENDROOT
BRANCH   3   4
HETATM    4  C5  UNL     1     -33.706  16.685  -2.244  1.00 20.00     0.123 C 
HETATM    5 CL8  UNL     1     -34.708  16.463  -0.786  1.00 20.00    -0.130 Cl
ENDBRANCH   3   4
BRANCH   3   6
HETATM    6  C6  UNL     1     -34.543  14.503  -3.385  1.00 20.00    -0.014 C 
HETATM    7  C1  UNL     1     -33.307  13.651  -3.712  1.00 20.00     0.010 C 
HETATM    8  C2  UNL     1     -35.726  13.972  -4.211  1.00 20.00     0.010 C 
ENDBRANCH   3   6
TORSDOF 2
ENDMDL
MODEL 5
REMARK VINA RESULT:      -3.6     12.131     12.640
REMARK  2 active torsions:
REMARK  status: ('A' for Active; 'I' for Inactive)
REMARK    1  A    between atoms: C5_5  and  C7_7 
REMARK    2  A    between atoms: C6_6  and  C7_7 
ROOT
HETATM    1  C3  UNL     1     -32.583  14.756  -3.636  1.00 20.00     0.016 C 
HETATM    2  C4  UNL     1     -34.325  13.301  -4.664  1.00 20.00     0.016 C 
HETATM    3  C7  UNL     1     -34.048  14.726  -4.129  1.00 20.00    -0.032 C 
ENDROOT
BRANCH   3   4
HETATM    4  C5  UNL     1     -34.143  15.729  -5.313  1.00 20.00     0.123 C 
HETATM    5 CL8  UNL     1     -34.359  14.960  -6.907  1.00 20.00    -0.130 Cl
ENDBRANCH   3   4
BRANCH   3   6
HETATM    6  C6  UNL     1     -35.056  15.072  -2.969  1.00 20.00    -0.014 C 
HETATM    7  C1  UNL     1     -36.438  15.528  -3.461  1.00 20.00     0.010 C 
HETATM    8  C2  UNL     1     -34.530  16.121  -1.976  1.00 20.00     0.010 C 
ENDBRANCH   3   6
TORSDOF 2
ENDMDL
MODEL 6
REMARK VINA RESULT:      -3.6     12.142     12.807
REMARK  2 active torsions:
REMARK  status: ('A' for Active; 'I' for Inactive)
REMARK    1  A    between atoms: C5_5  and  C7_7 
REMARK    2  A    between atoms: C6_6  and  C7_7 
ROOT
HETATM    1  C3  UNL     1     -34.558  16.000  -2.021  1.00 20.00     0.016 C 
HETATM    2  C4  UNL     1     -32.867  15.133  -3.633  1.00 20.00     0.016 C 
HETATM    3  C7  UNL     1     -34.368  15.469  -3.461  1.00 20.00    -0.032 C 
ENDROOT
BRANCH   3   4
HETATM    4  C5  UNL     1     -34.729  16.638  -4.420  1.00 20.00     0.123 C 
HETATM    5 CL8  UNL     1     -33.767  16.677  -5.920  1.00 20.00    -0.130 Cl
ENDBRANCH   3   4
BRANCH   3   6
HETATM    6  C6  UNL     1     -35.241  14.185  -3.725  1.00 20.00    -0.014 C 
HETATM    7  C1  UNL     1     -34.668  13.253  -4.803  1.00 20.00     0.010 C 
HETATM    8  C2  UNL     1     -36.706  14.489  -4.082  1.00 20.00     0.010 C 
ENDBRANCH   3   6
TORSDOF 2
ENDMDL
MODEL 7
REMARK VINA RESULT:      -3.6     11.961     13.243
REMARK  2 active torsions:
REMARK  status: ('A' for Active; 'I' for Inactive)
REMARK    1  A    between atoms: C5_5  and  C7_7 
REMARK    2  A    between atoms: C6_6  and  C7_7 
ROOT
HETATM    1  C3  UNL     1     -32.938  15.020  -3.551  1.00 20.00     0.016 C 
HETATM    2  C4  UNL     1     -33.341  16.793  -5.255  1.00 20.00     0.016 C 
HETATM    3  C7  UNL     1     -34.039  15.733  -4.370  1.00 20.00    -0.032 C 
ENDROOT
BRANCH   3   4
HETATM    4  C5  UNL     1     -34.955  16.463  -3.347  1.00 20.00     0.123 C 
HETATM    5 CL8  UNL     1     -34.578  16.103  -1.642  1.00 20.00    -0.130 Cl
ENDBRANCH   3   4
BRANCH   3   6
HETATM    6  C6  UNL     1     -34.838  14.718  -5.272  1.00 20.00    -0.014 C 
HETATM    7  C1  UNL     1     -34.683  13.251  -4.845  1.00 20.00     0.010 C 
HETATM    8  C2  UNL     1     -34.507  14.821  -6.770  1.00 20.00     0.010 C 
ENDBRANCH   3   6
TORSDOF 2
ENDMDL
MODEL 8
REMARK VINA RESULT:      -3.5     11.991     12.953
REMARK  2 active torsions:
REMARK  status: ('A' for Active; 'I' for Inactive)
REMARK    1  A    between atoms: C5_5  and  C7_7 
REMARK    2  A    between atoms: C6_6  and  C7_7 
ROOT
HETATM    1  C3  UNL     1     -33.275  16.579  -5.050  1.00 20.00     0.016 C 
HETATM    2  C4  UNL     1     -32.657  14.651  -3.599  1.00 20.00     0.016 C 
HETATM    3  C7  UNL     1     -33.679  15.798  -3.778  1.00 20.00    -0.032 C 
ENDROOT
BRANCH   3   4
HETATM    4  C5  UNL     1     -35.078  15.180  -4.059  1.00 20.00     0.123 C 
HETATM    5 CL8  UNL     1     -35.092  13.397  -4.107  1.00 20.00    -0.130 Cl
ENDBRANCH   3   4
BRANCH   3   6
HETATM    6  C6  UNL     1     -33.678  16.725  -2.505  1.00 20.00    -0.014 C 
HETATM    7  C1  UNL     1     -34.698  16.312  -1.433  1.00 20.00     0.010 C 
HETATM    8  C2  UNL     1     -33.888  18.216  -2.818  1.00 20.00     0.010 C 
ENDBRANCH   3   6
TORSDOF 2
ENDMDL
MODEL 9
REMARK VINA RESULT:      -3.5     11.870     13.167
REMARK  2 active torsions:
REMARK  status: ('A' for Active; 'I' for Inactive)
REMARK    1  A    between atoms: C5_5  and  C7_7 
REMARK    2  A    between atoms: C6_6  and  C7_7 
ROOT
HETATM    1  C3  UNL     1     -36.350  14.723  -3.874  1.00 20.00     0.016 C 
HETATM    2  C4  UNL     1     -34.627  13.199  -4.833  1.00 20.00     0.016 C 
HETATM    3  C7  UNL     1     -34.888  14.653  -4.370  1.00 20.00    -0.032 C 
ENDROOT
BRANCH   3   4
HETATM    4  C5  UNL     1     -33.983  14.954  -3.142  1.00 20.00     0.123 C 
HETATM    5 CL8  UNL     1     -34.750  15.986  -1.906  1.00 20.00    -0.130 Cl
ENDBRANCH   3   4
BRANCH   3   6
HETATM    6  C6  UNL     1     -34.633  15.652  -5.562  1.00 20.00    -0.014 C 
HETATM    7  C1  UNL     1     -34.470  14.964  -6.926  1.00 20.00     0.010 C 
HETATM    8  C2  UNL     1     -33.430  16.585  -5.347  1.00 20.00     0.010 C 
ENDBRANCH   3   6
TORSDOF 2
ENDMDL
