MODEL 1
REMARK VINA RESULT:      -4.5      0.000      0.000
REMARK  4 active torsions:
REMARK  status: ('A' for Active; 'I' for Inactive)
REMARK    1  A    between atoms: C4_4  and  C5_5 
REMARK    2  A    between atoms: C5_5  and  C7_7 
REMARK    3  A    between atoms: C6_6  and  C7_7 
REMARK    4  A    between atoms: C6_6  and  C8_8 
ROOT
HETATM    1  C2  UNL     1     -32.104   5.534   2.944  1.00 20.00     0.010 C 
HETATM    2  C7  UNL     1     -33.028   6.458   3.746  1.00 20.00    -0.017 C 
ENDROOT
BRANCH   2   3
HETATM    3  C5  UNL     1     -33.018   7.859   3.092  1.00 20.00     0.004 C 
BRANCH   3   4
HETATM    4  C4  UNL     1     -31.927   8.039   2.033  1.00 20.00    -0.004 C 
HETATM    5  C1  UNL     1     -32.247   9.199   1.100  1.00 20.00     0.005 C 
ENDBRANCH   3   4
ENDBRANCH   2   3
BRANCH   2   6
HETATM    6  C6  UNL     1     -34.462   5.888   3.847  1.00 20.00     0.024 C 
BRANCH   6   7
HETATM    7  C8  UNL     1     -34.942   5.505   5.257  1.00 20.00     0.078 C 
HETATM    8  C3  UNL     1     -34.117   6.219   6.325  1.00 20.00     0.026 C 
HETATM    9 CL9  UNL     1     -34.819   3.740   5.522  1.00 20.00    -0.125 Cl
ENDBRANCH   6   7
ENDBRANCH   2   6
TORSDOF 4
ENDMDL
MODEL 2
REMARK VINA RESULT:      -4.4      1.243      1.442
REMARK  4 active torsions:
REMARK  status: ('A' for Active; 'I' for Inactive)
REMARK    1  A    between atoms: C4_4  and  C5_5 
REMARK    2  A    between atoms: C5_5  and  C7_7 
REMARK    3  A    between atoms: C6_6  and  C7_7 
REMARK    4  A    between atoms: C6_6  and  C8_8 
ROOT
HETATM    1  C2  UNL     1     -32.330   5.622   2.218  1.00 20.00     0.010 C 
HETATM    2  C7  UNL     1     -32.353   6.521   3.459  1.00 20.00    -0.017 C 
ENDROOT
BRANCH   2   3
HETATM    3  C5  UNL     1     -31.821   7.920   3.069  1.00 20.00     0.004 C 
BRANCH   3   4
HETATM    4  C4  UNL     1     -31.950   8.236   1.577  1.00 20.00    -0.004 C 
HETATM    5  C1  UNL     1     -32.416   9.668   1.353  1.00 20.00     0.005 C 
ENDBRANCH   3   4
ENDBRANCH   2   3
BRANCH   2   6
HETATM    6  C6  UNL     1     -33.766   6.604   4.082  1.00 20.00     0.024 C 
BRANCH   6   7
HETATM    7  C8  UNL     1     -34.164   5.449   5.017  1.00 20.00     0.078 C 
HETATM    8  C3  UNL     1     -35.431   4.759   4.520  1.00 20.00     0.026 C 
HETATM    9 CL9  UNL     1     -34.444   6.038   6.683  1.00 20.00    -0.125 Cl
ENDBRANCH   6   7
ENDBRANCH   2   6
TORSDOF 4
ENDMDL
MODEL 3
REMARK VINA RESULT:      -4.2      2.475      4.588
REMARK  4 active torsions:
REMARK  status: ('A' for Active; 'I' for Inactive)
REMARK    1  A    between atoms: C4_4  and  C5_5 
REMARK    2  A    between atoms: C5_5  and  C7_7 
REMARK    3  A    between atoms: C6_6  and  C7_7 
REMARK    4  A    between atoms: C6_6  and  C8_8 
ROOT
HETATM    1  C2  UNL     1     -35.194   5.709   3.368  1.00 20.00     0.010 C 
HETATM    2  C7  UNL     1     -33.999   6.470   3.954  1.00 20.00    -0.017 C 
ENDROOT
BRANCH   2   3
HETATM    3  C5  UNL     1     -33.954   6.227   5.480  1.00 20.00     0.004 C 
BRANCH   3   4
HETATM    4  C4  UNL     1     -34.985   5.208   5.973  1.00 20.00    -0.004 C 
HETATM    5  C1  UNL     1     -34.397   3.804   6.020  1.00 20.00     0.005 C 
ENDBRANCH   3   4
ENDBRANCH   2   3
BRANCH   2   6
HETATM    6  C6  UNL     1     -32.670   6.063   3.274  1.00 20.00     0.024 C 
BRANCH   6   7
HETATM    7  C8  UNL     1     -31.698   7.208   2.945  1.00 20.00     0.078 C 
HETATM    8  C3  UNL     1     -31.192   7.875   4.221  1.00 20.00     0.026 C 
HETATM    9 CL9  UNL     1     -32.484   8.446   1.921  1.00 20.00    -0.125 Cl
ENDBRANCH   6   7
ENDBRANCH   2   6
TORSDOF 4
ENDMDL
MODEL 4
REMARK VINA RESULT:      -4.2      1.685      1.991
REMARK  4 active torsions:
REMARK  status: ('A' for Active; 'I' for Inactive)
REMARK    1  A    between atoms: C4_4  and  C5_5 
REMARK    2  A    between atoms: C5_5  and  C7_7 
REMARK    3  A    between atoms: C6_6  and  C7_7 
REMARK    4  A    between atoms: C6_6  and  C8_8 
ROOT
HETATM    1  C2  UNL     1     -34.429   5.358   2.274  1.00 20.00     0.010 C 
HETATM    2  C7  UNL     1     -33.463   5.562   3.446  1.00 20.00    -0.017 C 
ENDROOT
BRANCH   2   3
HETATM    3  C5  UNL     1     -32.127   6.115   2.899  1.00 20.00     0.004 C 
BRANCH   3   4
HETATM    4  C4  UNL     1     -31.941   7.618   3.126  1.00 20.00    -0.004 C 
HETATM    5  C1  UNL     1     -32.033   8.391   1.818  1.00 20.00     0.005 C 
ENDBRANCH   3   4
ENDBRANCH   2   3
BRANCH   2   6
HETATM    6  C6  UNL     1     -34.062   6.491   4.528  1.00 20.00     0.024 C 
BRANCH   6   7
HETATM    7  C8  UNL     1     -33.852   6.055   5.988  1.00 20.00     0.078 C 
HETATM    8  C3  UNL     1     -34.943   5.081   6.427  1.00 20.00     0.026 C 
HETATM    9 CL9  UNL     1     -33.863   7.464   7.089  1.00 20.00    -0.125 Cl
ENDBRANCH   6   7
ENDBRANCH   2   6
TORSDOF 4
ENDMDL
MODEL 5
REMARK VINA RESULT:      -4.0      0.997      1.319
REMARK  4 active torsions:
REMARK  status: ('A' for Active; 'I' for Inactive)
REMARK    1  A    between atoms: C4_4  and  C5_5 
REMARK    2  A    between atoms: C5_5  and  C7_7 
REMARK    3  A    between atoms: C6_6  and  C7_7 
REMARK    4  A    between atoms: C6_6  and  C8_8 
ROOT
HETATM    1  C2  UNL     1     -31.203   7.674   4.031  1.00 20.00     0.010 C 
HETATM    2  C7  UNL     1     -32.538   7.338   3.356  1.00 20.00    -0.017 C 
ENDROOT
BRANCH   2   3
HETATM    3  C5  UNL     1     -32.350   7.401   1.823  1.00 20.00     0.004 C 
BRANCH   3   4
HETATM    4  C4  UNL     1     -31.665   8.681   1.336  1.00 20.00    -0.004 C 
HETATM    5  C1  UNL     1     -32.581   9.888   1.477  1.00 20.00     0.005 C 
ENDBRANCH   3   4
ENDBRANCH   2   3
BRANCH   2   6
HETATM    6  C6  UNL     1     -33.079   5.961   3.807  1.00 20.00     0.024 C 
BRANCH   6   7
HETATM    7  C8  UNL     1     -34.326   5.983   4.707  1.00 20.00     0.078 C 
HETATM    8  C3  UNL     1     -33.964   6.416   6.126  1.00 20.00     0.026 C 
HETATM    9 CL9  UNL     1     -35.098   4.372   4.777  1.00 20.00    -0.125 Cl
ENDBRANCH   6   7
ENDBRANCH   2   6
TORSDOF 4
ENDMDL
MODEL 6
REMARK VINA RESULT:      -4.0      1.745      4.494
REMARK  4 active torsions:
REMARK  status: ('A' for Active; 'I' for Inactive)
REMARK    1  A    between atoms: C4_4  and  C5_5 
REMARK    2  A    between atoms: C5_5  and  C7_7 
REMARK    3  A    between atoms: C6_6  and  C7_7 
REMARK    4  A    between atoms: C6_6  and  C8_8 
ROOT
HETATM    1  C2  UNL     1     -33.438   7.622   7.048  1.00 20.00     0.010 C 
HETATM    2  C7  UNL     1     -33.553   6.464   6.050  1.00 20.00    -0.017 C 
ENDROOT
BRANCH   2   3
HETATM    3  C5  UNL     1     -34.719   5.546   6.486  1.00 20.00     0.004 C 
BRANCH   3   4
HETATM    4  C4  UNL     1     -34.555   4.088   6.046  1.00 20.00    -0.004 C 
HETATM    5  C1  UNL     1     -35.357   3.797   4.785  1.00 20.00     0.005 C 
ENDBRANCH   3   4
ENDBRANCH   2   3
BRANCH   2   6
HETATM    6  C6  UNL     1     -33.740   6.971   4.601  1.00 20.00     0.024 C 
BRANCH   6   7
HETATM    7  C8  UNL     1     -32.809   6.356   3.542  1.00 20.00     0.078 C 
HETATM    8  C3  UNL     1     -32.078   7.445   2.762  1.00 20.00     0.026 C 
HETATM    9 CL9  UNL     1     -33.727   5.342   2.389  1.00 20.00    -0.125 Cl
ENDBRANCH   6   7
ENDBRANCH   2   6
TORSDOF 4
ENDMDL
MODEL 7
REMARK VINA RESULT:      -3.9      2.731      4.938
REMARK  4 active torsions:
REMARK  status: ('A' for Active; 'I' for Inactive)
REMARK    1  A    between atoms: C4_4  and  C5_5 
REMARK    2  A    between atoms: C5_5  and  C7_7 
REMARK    3  A    between atoms: C6_6  and  C7_7 
REMARK    4  A    between atoms: C6_6  and  C8_8 
ROOT
HETATM    1  C2  UNL     1     -32.151   5.216   2.918  1.00 20.00     0.010 C 
HETATM    2  C7  UNL     1     -33.039   6.458   3.061  1.00 20.00    -0.017 C 
ENDROOT
BRANCH   2   3
HETATM    3  C5  UNL     1     -33.775   6.389   4.419  1.00 20.00     0.004 C 
BRANCH   3   4
HETATM    4  C4  UNL     1     -34.805   5.260   4.506  1.00 20.00    -0.004 C 
HETATM    5  C1  UNL     1     -34.861   4.668   5.907  1.00 20.00     0.005 C 
ENDBRANCH   3   4
ENDBRANCH   2   3
BRANCH   2   6
HETATM    6  C6  UNL     1     -32.224   7.765   2.922  1.00 20.00     0.024 C 
BRANCH   6   7
HETATM    7  C8  UNL     1     -32.551   8.643   1.702  1.00 20.00     0.078 C 
HETATM    8  C3  UNL     1     -31.465   8.521   0.637  1.00 20.00     0.026 C 
HETATM    9 CL9  UNL     1     -32.708  10.362   2.169  1.00 20.00    -0.125 Cl
ENDBRANCH   6   7
ENDBRANCH   2   6
TORSDOF 4
ENDMDL
MODEL 8
REMARK VINA RESULT:      -3.9     10.759     11.904
REMARK  4 active torsions:
REMARK  status: ('A' for Active; 'I' for Inactive)
REMARK    1  A    between atoms: C4_4  and  C5_5 
REMARK    2  A    between atoms: C5_5  and  C7_7 
REMARK    3  A    between atoms: C6_6  and  C7_7 
REMARK    4  A    between atoms: C6_6  and  C8_8 
ROOT
HETATM    1  C2  UNL     1     -33.690  17.168  -4.263  1.00 20.00     0.010 C 
HETATM    2  C7  UNL     1     -33.710  16.220  -3.059  1.00 20.00    -0.017 C 
ENDROOT
BRANCH   2   3
HETATM    3  C5  UNL     1     -33.718  17.063  -1.762  1.00 20.00     0.004 C 
BRANCH   3   4
HETATM    4  C4  UNL     1     -34.743  16.594  -0.727  1.00 20.00    -0.004 C 
HETATM    5  C1  UNL     1     -34.820  17.554   0.452  1.00 20.00     0.005 C 
ENDBRANCH   3   4
ENDBRANCH   2   3
BRANCH   2   6
HETATM    6  C6  UNL     1     -34.911  15.248  -3.112  1.00 20.00     0.024 C 
BRANCH   6   7
HETATM    7  C8  UNL     1     -34.658  13.893  -3.794  1.00 20.00     0.078 C 
HETATM    8  C3  UNL     1     -33.187  13.499  -3.692  1.00 20.00     0.026 C 
HETATM    9 CL9  UNL     1     -35.121  13.945  -5.521  1.00 20.00    -0.125 Cl
ENDBRANCH   6   7
ENDBRANCH   2   6
TORSDOF 4
ENDMDL
MODEL 9
REMARK VINA RESULT:      -3.9     11.263     12.404
REMARK  4 active torsions:
REMARK  status: ('A' for Active; 'I' for Inactive)
REMARK    1  A    between atoms: C4_4  and  C5_5 
REMARK    2  A    between atoms: C5_5  and  C7_7 
REMARK    3  A    between atoms: C6_6  and  C7_7 
REMARK    4  A    between atoms: C6_6  and  C8_8 
ROOT
HETATM    1  C2  UNL     1     -32.847  13.998  -3.530  1.00 20.00     0.010 C 
HETATM    2  C7  UNL     1     -34.359  13.854  -3.738  1.00 20.00    -0.017 C 
ENDROOT
BRANCH   2   3
HETATM    3  C5  UNL     1     -35.067  15.075  -3.108  1.00 20.00     0.004 C 
BRANCH   3   4
HETATM    4  C4  UNL     1     -34.108  16.084  -2.471  1.00 20.00    -0.004 C 
HETATM    5  C1  UNL     1     -34.598  16.524  -1.098  1.00 20.00     0.005 C 
ENDBRANCH   3   4
ENDBRANCH   2   3
BRANCH   2   6
HETATM    6  C6  UNL     1     -34.720  13.696  -5.234  1.00 20.00     0.024 C 
BRANCH   6   7
HETATM    7  C8  UNL     1     -35.210  14.965  -5.951  1.00 20.00     0.078 C 
HETATM    8  C3  UNL     1     -35.908  14.614  -7.262  1.00 20.00     0.026 C 
HETATM    9 CL9  UNL     1     -33.850  16.072  -6.301  1.00 20.00    -0.125 Cl
ENDBRANCH   6   7
ENDBRANCH   2   6
TORSDOF 4
ENDMDL
