MODEL 1
REMARK VINA RESULT:      -4.9      0.000      0.000
REMARK  1 active torsions:
REMARK  status: ('A' for Active; 'I' for Inactive)
REMARK    1  A    between atoms: C7_7  and  C8_8 
ROOT
HETATM    1  C1  UNL     1     -34.766  16.842  -1.029  1.00 20.00     0.064 C 
HETATM    2  C2  UNL     1     -33.340  15.992  -2.923  1.00 20.00     0.020 C 
HETATM    3  C3  UNL     1     -35.854  15.776  -3.034  1.00 20.00     0.020 C 
HETATM    4  C4  UNL     1     -33.248  15.726  -4.427  1.00 20.00     0.015 C 
HETATM    5  C5  UNL     1     -35.767  15.509  -4.538  1.00 20.00     0.015 C 
HETATM    6  C6  UNL     1     -34.680  16.631  -2.540  1.00 20.00     0.093 C 
HETATM    7  C7  UNL     1     -34.425  14.903  -4.964  1.00 20.00     0.093 C 
HETATM    8  N9  UNL     1     -34.830  17.002   0.118  1.00 20.00    -0.197 NA
ENDROOT
BRANCH   7   9
HETATM    9  C8  UNL     1     -34.323  13.494  -4.539  1.00 20.00     0.391 C 
HETATM   10  F10 UNL     1     -35.212  13.242  -3.567  1.00 20.00    -0.171 F 
HETATM   11  F11 UNL     1     -34.573  12.682  -5.578  1.00 20.00    -0.171 F 
HETATM   12  F12 UNL     1     -33.089  13.241  -4.077  1.00 20.00    -0.171 F 
ENDBRANCH   7   9
TORSDOF 1
ENDMDL
MODEL 2
REMARK VINA RESULT:      -4.9      1.829      2.605
REMARK  1 active torsions:
REMARK  status: ('A' for Active; 'I' for Inactive)
REMARK    1  A    between atoms: C7_7  and  C8_8 
ROOT
HETATM    1  C1  UNL     1     -33.973  16.742  -1.928  1.00 20.00     0.064 C 
HETATM    2  C2  UNL     1     -35.803  15.653  -3.273  1.00 20.00     0.020 C 
HETATM    3  C3  UNL     1     -33.404  14.916  -3.566  1.00 20.00     0.020 C 
HETATM    4  C4  UNL     1     -36.282  14.380  -3.973  1.00 20.00     0.015 C 
HETATM    5  C5  UNL     1     -33.879  13.642  -4.267  1.00 20.00     0.015 C 
HETATM    6  C6  UNL     1     -34.452  15.445  -2.578  1.00 20.00     0.093 C 
HETATM    7  C7  UNL     1     -35.246  13.802  -4.943  1.00 20.00     0.093 C 
HETATM    8  N9  UNL     1     -33.609  17.728  -1.435  1.00 20.00    -0.197 NA
ENDROOT
BRANCH   7   9
HETATM    9  C8  UNL     1     -35.140  14.630  -6.160  1.00 20.00     0.391 C 
HETATM   10  F10 UNL     1     -33.908  15.152  -6.254  1.00 20.00    -0.171 F 
HETATM   11  F11 UNL     1     -35.379  13.881  -7.247  1.00 20.00    -0.171 F 
HETATM   12  F12 UNL     1     -36.034  15.629  -6.115  1.00 20.00    -0.171 F 
ENDBRANCH   7   9
TORSDOF 1
ENDMDL
MODEL 3
REMARK VINA RESULT:      -4.9      1.822      2.573
REMARK  1 active torsions:
REMARK  status: ('A' for Active; 'I' for Inactive)
REMARK    1  A    between atoms: C7_7  and  C8_8 
ROOT
HETATM    1  C1  UNL     1     -34.018  16.767  -1.944  1.00 20.00     0.064 C 
HETATM    2  C2  UNL     1     -35.829  15.641  -3.283  1.00 20.00     0.020 C 
HETATM    3  C3  UNL     1     -33.420  14.936  -3.566  1.00 20.00     0.020 C 
HETATM    4  C4  UNL     1     -36.289  14.355  -3.974  1.00 20.00     0.015 C 
HETATM    5  C5  UNL     1     -33.875  13.650  -4.257  1.00 20.00     0.015 C 
HETATM    6  C6  UNL     1     -34.477  15.458  -2.584  1.00 20.00     0.093 C 
HETATM    7  C7  UNL     1     -35.242  13.785  -4.938  1.00 20.00     0.093 C 
HETATM    8  N9  UNL     1     -33.669  17.761  -1.457  1.00 20.00    -0.197 NA
ENDROOT
BRANCH   7   9
HETATM    9  C8  UNL     1     -35.146  14.605  -6.160  1.00 20.00     0.391 C 
HETATM   10  F10 UNL     1     -35.398  13.850  -7.240  1.00 20.00    -0.171 F 
HETATM   11  F11 UNL     1     -36.038  15.606  -6.113  1.00 20.00    -0.171 F 
HETATM   12  F12 UNL     1     -33.914  15.124  -6.270  1.00 20.00    -0.171 F 
ENDBRANCH   7   9
TORSDOF 1
ENDMDL
MODEL 4
REMARK VINA RESULT:      -4.9      3.245      4.540
REMARK  1 active torsions:
REMARK  status: ('A' for Active; 'I' for Inactive)
REMARK    1  A    between atoms: C7_7  and  C8_8 
ROOT
HETATM    1  C1  UNL     1     -34.882  13.773  -4.367  1.00 20.00     0.064 C 
HETATM    2  C2  UNL     1     -36.072  15.557  -3.047  1.00 20.00     0.020 C 
HETATM    3  C3  UNL     1     -33.646  15.858  -3.685  1.00 20.00     0.020 C 
HETATM    4  C4  UNL     1     -36.178  17.051  -2.734  1.00 20.00     0.015 C 
HETATM    5  C5  UNL     1     -33.747  17.352  -3.372  1.00 20.00     0.015 C 
HETATM    6  C6  UNL     1     -35.001  15.274  -4.107  1.00 20.00     0.093 C 
HETATM    7  C7  UNL     1     -34.834  17.678  -2.342  1.00 20.00     0.093 C 
HETATM    8  N9  UNL     1     -34.793  12.632  -4.565  1.00 20.00    -0.197 NA
ENDROOT
BRANCH   7   9
HETATM    9  C8  UNL     1     -34.426  17.253  -0.990  1.00 20.00     0.391 C 
HETATM   10  F10 UNL     1     -34.720  15.957  -0.808  1.00 20.00    -0.171 F 
HETATM   11  F11 UNL     1     -33.104  17.425  -0.834  1.00 20.00    -0.171 F 
HETATM   12  F12 UNL     1     -35.071  17.980  -0.065  1.00 20.00    -0.171 F 
ENDBRANCH   7   9
TORSDOF 1
ENDMDL
MODEL 5
REMARK VINA RESULT:      -4.8      3.063      3.958
REMARK  1 active torsions:
REMARK  status: ('A' for Active; 'I' for Inactive)
REMARK    1  A    between atoms: C7_7  and  C8_8 
ROOT
HETATM    1  C1  UNL     1     -36.560  15.927  -6.922  1.00 20.00     0.064 C 
HETATM    2  C2  UNL     1     -34.858  14.291  -6.044  1.00 20.00     0.020 C 
HETATM    3  C3  UNL     1     -36.027  15.876  -4.462  1.00 20.00     0.020 C 
HETATM    4  C4  UNL     1     -34.410  13.434  -4.859  1.00 20.00     0.015 C 
HETATM    5  C5  UNL     1     -35.581  15.022  -3.274  1.00 20.00     0.015 C 
HETATM    6  C6  UNL     1     -36.161  15.042  -5.742  1.00 20.00     0.093 C 
HETATM    7  C7  UNL     1     -34.300  14.228  -3.552  1.00 20.00     0.093 C 
HETATM    8  N9  UNL     1     -36.863  16.599  -7.819  1.00 20.00    -0.197 NA
ENDROOT
BRANCH   7   9
HETATM    9  C8  UNL     1     -33.121  15.115  -3.569  1.00 20.00     0.391 C 
HETATM   10  F10 UNL     1     -33.198  16.001  -2.565  1.00 20.00    -0.171 F 
HETATM   11  F11 UNL     1     -32.000  14.392  -3.426  1.00 20.00    -0.171 F 
HETATM   12  F12 UNL     1     -33.064  15.780  -4.733  1.00 20.00    -0.171 F 
ENDBRANCH   7   9
TORSDOF 1
ENDMDL
MODEL 6
REMARK VINA RESULT:      -4.8      3.320      4.472
REMARK  1 active torsions:
REMARK  status: ('A' for Active; 'I' for Inactive)
REMARK    1  A    between atoms: C7_7  and  C8_8 
ROOT
HETATM    1  C1  UNL     1     -37.288  14.925  -3.790  1.00 20.00     0.064 C 
HETATM    2  C2  UNL     1     -36.298  17.183  -3.274  1.00 20.00     0.020 C 
HETATM    3  C3  UNL     1     -34.912  15.092  -2.974  1.00 20.00     0.020 C 
HETATM    4  C4  UNL     1     -35.028  18.035  -3.226  1.00 20.00     0.015 C 
HETATM    5  C5  UNL     1     -33.640  15.940  -2.925  1.00 20.00     0.015 C 
HETATM    6  C6  UNL     1     -36.015  15.770  -3.797  1.00 20.00     0.093 C 
HETATM    7  C7  UNL     1     -33.891  17.373  -2.440  1.00 20.00     0.093 C 
HETATM    8  N9  UNL     1     -38.256  14.285  -3.784  1.00 20.00    -0.197 NA
ENDROOT
BRANCH   7   9
HETATM    9  C8  UNL     1     -34.163  17.400  -0.990  1.00 20.00     0.391 C 
HETATM   10  F10 UNL     1     -34.612  16.203  -0.585  1.00 20.00    -0.171 F 
HETATM   11  F11 UNL     1     -33.040  17.694  -0.317  1.00 20.00    -0.171 F 
HETATM   12  F12 UNL     1     -35.092  18.329  -0.715  1.00 20.00    -0.171 F 
ENDBRANCH   7   9
TORSDOF 1
ENDMDL
MODEL 7
REMARK VINA RESULT:      -4.7      2.447      3.278
REMARK  1 active torsions:
REMARK  status: ('A' for Active; 'I' for Inactive)
REMARK    1  A    between atoms: C7_7  and  C8_8 
ROOT
HETATM    1  C1  UNL     1     -37.959  14.789  -4.262  1.00 20.00     0.064 C 
HETATM    2  C2  UNL     1     -36.028  16.352  -3.848  1.00 20.00     0.020 C 
HETATM    3  C3  UNL     1     -35.665  14.196  -5.114  1.00 20.00     0.020 C 
HETATM    4  C4  UNL     1     -34.687  16.881  -4.360  1.00 20.00     0.015 C 
HETATM    5  C5  UNL     1     -34.324  14.721  -5.628  1.00 20.00     0.015 C 
HETATM    6  C6  UNL     1     -36.646  15.337  -4.818  1.00 20.00     0.093 C 
HETATM    7  C7  UNL     1     -33.692  15.766  -4.701  1.00 20.00     0.093 C 
HETATM    8  N9  UNL     1     -38.957  14.373  -3.839  1.00 20.00    -0.197 NA
ENDROOT
BRANCH   7   9
HETATM    9  C8  UNL     1     -33.164  15.135  -3.475  1.00 20.00     0.391 C 
HETATM   10  F10 UNL     1     -33.235  15.996  -2.449  1.00 20.00    -0.171 F 
HETATM   11  F11 UNL     1     -33.883  14.042  -3.175  1.00 20.00    -0.171 F 
HETATM   12  F12 UNL     1     -31.884  14.778  -3.657  1.00 20.00    -0.171 F 
ENDBRANCH   7   9
TORSDOF 1
ENDMDL
MODEL 8
REMARK VINA RESULT:      -4.7      1.719      2.444
REMARK  1 active torsions:
REMARK  status: ('A' for Active; 'I' for Inactive)
REMARK    1  A    between atoms: C7_7  and  C8_8 
ROOT
HETATM    1  C1  UNL     1     -37.366  17.024  -3.235  1.00 20.00     0.064 C 
HETATM    2  C2  UNL     1     -35.157  16.189  -2.358  1.00 20.00     0.020 C 
HETATM    3  C3  UNL     1     -35.584  16.268  -4.847  1.00 20.00     0.020 C 
HETATM    4  C4  UNL     1     -33.656  16.048  -2.617  1.00 20.00     0.015 C 
HETATM    5  C5  UNL     1     -34.084  16.127  -5.111  1.00 20.00     0.015 C 
HETATM    6  C6  UNL     1     -35.862  16.938  -3.495  1.00 20.00     0.093 C 
HETATM    7  C7  UNL     1     -33.339  15.414  -3.977  1.00 20.00     0.093 C 
HETATM    8  N9  UNL     1     -38.507  17.088  -3.037  1.00 20.00    -0.197 NA
ENDROOT
BRANCH   7   9
HETATM    9  C8  UNL     1     -33.642  13.970  -3.971  1.00 20.00     0.391 C 
HETATM   10  F10 UNL     1     -32.560  13.275  -3.589  1.00 20.00    -0.171 F 
HETATM   11  F11 UNL     1     -34.646  13.715  -3.117  1.00 20.00    -0.171 F 
HETATM   12  F12 UNL     1     -34.004  13.571  -5.200  1.00 20.00    -0.171 F 
ENDBRANCH   7   9
TORSDOF 1
ENDMDL
MODEL 9
REMARK VINA RESULT:      -4.6      3.405      4.145
REMARK  1 active torsions:
REMARK  status: ('A' for Active; 'I' for Inactive)
REMARK    1  A    between atoms: C7_7  and  C8_8 
ROOT
HETATM    1  C1  UNL     1     -34.418  17.005  -6.829  1.00 20.00     0.064 C 
HETATM    2  C2  UNL     1     -33.152  16.243  -4.790  1.00 20.00     0.020 C 
HETATM    3  C3  UNL     1     -35.661  15.976  -4.896  1.00 20.00     0.020 C 
HETATM    4  C4  UNL     1     -33.093  15.255  -3.623  1.00 20.00     0.015 C 
HETATM    5  C5  UNL     1     -35.608  14.988  -3.729  1.00 20.00     0.015 C 
HETATM    6  C6  UNL     1     -34.356  15.976  -5.701  1.00 20.00     0.093 C 
HETATM    7  C7  UNL     1     -34.395  15.202  -2.816  1.00 20.00     0.093 C 
HETATM    8  N9  UNL     1     -34.465  17.786  -7.686  1.00 20.00    -0.197 NA
ENDROOT
BRANCH   7   9
HETATM    9  C8  UNL     1     -34.559  16.417  -1.995  1.00 20.00     0.391 C 
HETATM   10  F10 UNL     1     -35.601  17.135  -2.442  1.00 20.00    -0.171 F 
HETATM   11  F11 UNL     1     -34.780  16.081  -0.715  1.00 20.00    -0.171 F 
HETATM   12  F12 UNL     1     -33.451  17.170  -2.063  1.00 20.00    -0.171 F 
ENDBRANCH   7   9
TORSDOF 1
ENDMDL
