MODEL 1
REMARK VINA RESULT:      -4.6      0.000      0.000
REMARK  4 active torsions:
REMARK  status: ('A' for Active; 'I' for Inactive)
REMARK    1  A    between atoms: C5_5  and  C8_8 
REMARK    2  A    between atoms: C6_6  and  C9_9 
REMARK    3  A    between atoms: C9_9  and  C10_10 
REMARK    4  A    between atoms: C10_10  and  O11_11 
ROOT
HETATM    1  C1  UNL     1     -35.853  16.818  -2.200  1.00 20.00     0.005 C 
HETATM    2  C2  UNL     1     -33.373  16.434  -2.476  1.00 20.00     0.005 C 
HETATM    3  C3  UNL     1     -36.135  15.774  -3.278  1.00 20.00     0.005 C 
HETATM    4  C4  UNL     1     -33.655  15.389  -3.554  1.00 20.00     0.005 C 
HETATM    5  C5  UNL     1     -34.530  16.543  -1.475  1.00 20.00    -0.015 C 
HETATM    6  C6  UNL     1     -34.978  15.666  -4.279  1.00 20.00    -0.013 C 
ENDROOT
BRANCH   6   7
HETATM    7  C9  UNL     1     -35.261  14.580  -5.317  1.00 20.00     0.030 C 
BRANCH   7   8
HETATM    8  C10 UNL     1     -34.559  13.281  -4.968  1.00 20.00     0.164 C 
BRANCH   8   9
HETATM    9  O11 UNL     1     -35.414  12.517  -4.130  1.00 20.00    -0.401 OA
HETATM   10  H31 UNL     1     -35.211  12.770  -3.215  1.00 20.00     0.209 HD
ENDBRANCH   8   9
ENDBRANCH   7   8
ENDBRANCH   6   7
BRANCH   5  11
HETATM   11  C8  UNL     1     -34.247  17.629  -0.438  1.00 20.00     0.000 C 
HETATM   12  C7  UNL     1     -35.089  17.459   0.783  1.00 20.00     0.005 C 
ENDBRANCH   5  11
TORSDOF 4
ENDMDL
MODEL 2
REMARK VINA RESULT:      -4.6      1.337      1.657
REMARK  4 active torsions:
REMARK  status: ('A' for Active; 'I' for Inactive)
REMARK    1  A    between atoms: C5_5  and  C8_8 
REMARK    2  A    between atoms: C6_6  and  C9_9 
REMARK    3  A    between atoms: C9_9  and  C10_10 
REMARK    4  A    between atoms: C10_10  and  O11_11 
ROOT
HETATM    1  C1  UNL     1     -34.670  16.618  -1.064  1.00 20.00     0.005 C 
HETATM    2  C2  UNL     1     -33.682  18.198  -2.768  1.00 20.00     0.005 C 
HETATM    3  C3  UNL     1     -34.765  15.528  -2.128  1.00 20.00     0.005 C 
HETATM    4  C4  UNL     1     -33.777  17.107  -3.833  1.00 20.00     0.005 C 
HETATM    5  C5  UNL     1     -33.534  17.605  -1.361  1.00 20.00    -0.015 C 
HETATM    6  C6  UNL     1     -34.913  16.121  -3.535  1.00 20.00    -0.013 C 
ENDROOT
BRANCH   6   7
HETATM    7  C9  UNL     1     -34.956  15.013  -4.586  1.00 20.00     0.030 C 
BRANCH   7   8
HETATM    8  C10 UNL     1     -34.242  13.763  -4.106  1.00 20.00     0.164 C 
BRANCH   8   9
HETATM    9  O11 UNL     1     -35.150  12.672  -4.171  1.00 20.00    -0.401 OA
HETATM   10  H31 UNL     1     -36.042  13.051  -4.219  1.00 20.00     0.209 HD
ENDBRANCH   8   9
ENDBRANCH   7   8
ENDBRANCH   6   7
BRANCH   5  11
HETATM   11  C8  UNL     1     -33.493  18.714  -0.311  1.00 20.00     0.000 C 
HETATM   12  C7  UNL     1     -32.117  18.903   0.238  1.00 20.00     0.005 C 
ENDBRANCH   5  11
TORSDOF 4
ENDMDL
MODEL 3
REMARK VINA RESULT:      -4.4     11.120     11.826
REMARK  4 active torsions:
REMARK  status: ('A' for Active; 'I' for Inactive)
REMARK    1  A    between atoms: C5_5  and  C8_8 
REMARK    2  A    between atoms: C6_6  and  C9_9 
REMARK    3  A    between atoms: C9_9  and  C10_10 
REMARK    4  A    between atoms: C10_10  and  O11_11 
ROOT
HETATM    1  C1  UNL     1     -33.699   6.186   5.232  1.00 20.00     0.005 C 
HETATM    2  C2  UNL     1     -33.913   5.135   2.946  1.00 20.00     0.005 C 
HETATM    3  C3  UNL     1     -32.903   7.340   4.628  1.00 20.00     0.005 C 
HETATM    4  C4  UNL     1     -33.115   6.290   2.341  1.00 20.00     0.005 C 
HETATM    5  C5  UNL     1     -34.663   5.566   4.212  1.00 20.00    -0.015 C 
HETATM    6  C6  UNL     1     -32.152   6.909   3.361  1.00 20.00    -0.013 C 
ENDROOT
BRANCH   6   7
HETATM    7  C9  UNL     1     -31.404   8.091   2.748  1.00 20.00     0.030 C 
BRANCH   7   8
HETATM    8  C10 UNL     1     -32.072   8.571   1.473  1.00 20.00     0.164 C 
BRANCH   8   9
HETATM    9  O11 UNL     1     -32.550   9.892   1.684  1.00 20.00    -0.401 OA
HETATM   10  H31 UNL     1     -32.194  10.187   2.538  1.00 20.00     0.209 HD
ENDBRANCH   8   9
ENDBRANCH   7   8
ENDBRANCH   6   7
BRANCH   5  11
HETATM   11  C8  UNL     1     -35.410   4.383   4.825  1.00 20.00     0.000 C 
HETATM   12  C7  UNL     1     -35.117   4.241   6.283  1.00 20.00     0.005 C 
ENDBRANCH   5  11
TORSDOF 4
ENDMDL
MODEL 4
REMARK VINA RESULT:      -4.4      2.108      2.553
REMARK  4 active torsions:
REMARK  status: ('A' for Active; 'I' for Inactive)
REMARK    1  A    between atoms: C5_5  and  C8_8 
REMARK    2  A    between atoms: C6_6  and  C9_9 
REMARK    3  A    between atoms: C9_9  and  C10_10 
REMARK    4  A    between atoms: C10_10  and  O11_11 
ROOT
HETATM    1  C1  UNL     1     -34.712  16.598  -0.717  1.00 20.00     0.005 C 
HETATM    2  C2  UNL     1     -33.956  18.846  -1.584  1.00 20.00     0.005 C 
HETATM    3  C3  UNL     1     -34.615  16.021  -2.127  1.00 20.00     0.005 C 
HETATM    4  C4  UNL     1     -33.858  18.268  -2.995  1.00 20.00     0.005 C 
HETATM    5  C5  UNL     1     -33.741  17.768  -0.514  1.00 20.00    -0.015 C 
HETATM    6  C6  UNL     1     -34.830  17.099  -3.198  1.00 20.00    -0.013 C 
ENDROOT
BRANCH   6   7
HETATM    7  C9  UNL     1     -34.678  16.507  -4.598  1.00 20.00     0.030 C 
BRANCH   7   8
HETATM    8  C10 UNL     1     -33.334  16.860  -5.208  1.00 20.00     0.164 C 
BRANCH   8   9
HETATM    9  O11 UNL     1     -32.422  15.807  -4.931  1.00 20.00    -0.401 OA
HETATM   10  H31 UNL     1     -32.220  15.853  -3.982  1.00 20.00     0.209 HD
ENDBRANCH   8   9
ENDBRANCH   7   8
ENDBRANCH   6   7
BRANCH   5  11
HETATM   11  C8  UNL     1     -33.894  18.361   0.886  1.00 20.00     0.000 C 
HETATM   12  C7  UNL     1     -35.079  17.794   1.598  1.00 20.00     0.005 C 
ENDBRANCH   5  11
TORSDOF 4
ENDMDL
MODEL 5
REMARK VINA RESULT:      -4.3     11.073     11.759
REMARK  4 active torsions:
REMARK  status: ('A' for Active; 'I' for Inactive)
REMARK    1  A    between atoms: C5_5  and  C8_8 
REMARK    2  A    between atoms: C6_6  and  C9_9 
REMARK    3  A    between atoms: C9_9  and  C10_10 
REMARK    4  A    between atoms: C10_10  and  O11_11 
ROOT
HETATM    1  C1  UNL     1     -34.350   5.213   2.997  1.00 20.00     0.005 C 
HETATM    2  C2  UNL     1     -33.742   6.397   5.142  1.00 20.00     0.005 C 
HETATM    3  C3  UNL     1     -33.197   5.913   2.282  1.00 20.00     0.005 C 
HETATM    4  C4  UNL     1     -32.587   7.098   4.427  1.00 20.00     0.005 C 
HETATM    5  C5  UNL     1     -34.071   5.046   4.496  1.00 20.00    -0.015 C 
HETATM    6  C6  UNL     1     -32.867   7.265   2.928  1.00 20.00    -0.013 C 
ENDROOT
BRANCH   6   7
HETATM    7  C9  UNL     1     -31.678   7.923   2.228  1.00 20.00     0.030 C 
BRANCH   7   8
HETATM    8  C10 UNL     1     -32.133   8.887   1.148  1.00 20.00     0.164 C 
BRANCH   8   9
HETATM    9  O11 UNL     1     -32.573  10.086   1.770  1.00 20.00    -0.401 OA
HETATM   10  H31 UNL     1     -32.610  10.765   1.077  1.00 20.00     0.209 HD
ENDBRANCH   8   9
ENDBRANCH   7   8
ENDBRANCH   6   7
BRANCH   5  11
HETATM   11  C8  UNL     1     -35.261   4.390   5.196  1.00 20.00     0.000 C 
HETATM   12  C7  UNL     1     -35.232   4.626   6.670  1.00 20.00     0.005 C 
ENDBRANCH   5  11
TORSDOF 4
ENDMDL
MODEL 6
REMARK VINA RESULT:      -4.3      2.841      5.103
REMARK  4 active torsions:
REMARK  status: ('A' for Active; 'I' for Inactive)
REMARK    1  A    between atoms: C5_5  and  C8_8 
REMARK    2  A    between atoms: C6_6  and  C9_9 
REMARK    3  A    between atoms: C9_9  and  C10_10 
REMARK    4  A    between atoms: C10_10  and  O11_11 
ROOT
HETATM    1  C1  UNL     1     -34.743  15.083  -3.047  1.00 20.00     0.005 C 
HETATM    2  C2  UNL     1     -33.607  16.868  -4.423  1.00 20.00     0.005 C 
HETATM    3  C3  UNL     1     -34.741  16.013  -1.836  1.00 20.00     0.005 C 
HETATM    4  C4  UNL     1     -33.605  17.800  -3.212  1.00 20.00     0.005 C 
HETATM    5  C5  UNL     1     -34.766  15.866  -4.365  1.00 20.00    -0.015 C 
HETATM    6  C6  UNL     1     -33.581  17.016  -1.894  1.00 20.00    -0.013 C 
ENDROOT
BRANCH   6   7
HETATM    7  C9  UNL     1     -33.630  17.968  -0.700  1.00 20.00     0.030 C 
BRANCH   7   8
HETATM    8  C10 UNL     1     -32.884  19.258  -0.986  1.00 20.00     0.164 C 
BRANCH   8   9
HETATM    9  O11 UNL     1     -31.683  19.263  -0.228  1.00 20.00    -0.401 OA
HETATM   10  H31 UNL     1     -30.964  19.035  -0.840  1.00 20.00     0.209 HD
ENDBRANCH   8   9
ENDBRANCH   7   8
ENDBRANCH   6   7
BRANCH   5  11
HETATM   11  C8  UNL     1     -34.715  14.914  -5.559  1.00 20.00     0.000 C 
HETATM   12  C7  UNL     1     -34.714  13.485  -5.126  1.00 20.00     0.005 C 
ENDBRANCH   5  11
TORSDOF 4
ENDMDL
MODEL 7
REMARK VINA RESULT:      -4.3      1.782      2.065
REMARK  4 active torsions:
REMARK  status: ('A' for Active; 'I' for Inactive)
REMARK    1  A    between atoms: C5_5  and  C8_8 
REMARK    2  A    between atoms: C6_6  and  C9_9 
REMARK    3  A    between atoms: C9_9  and  C10_10 
REMARK    4  A    between atoms: C10_10  and  O11_11 
ROOT
HETATM    1  C1  UNL     1     -34.856  15.280  -2.567  1.00 20.00     0.005 C 
HETATM    2  C2  UNL     1     -33.676  17.001  -3.989  1.00 20.00     0.005 C 
HETATM    3  C3  UNL     1     -34.875  14.315  -3.751  1.00 20.00     0.005 C 
HETATM    4  C4  UNL     1     -33.695  16.035  -5.173  1.00 20.00     0.005 C 
HETATM    5  C5  UNL     1     -33.675  16.255  -2.649  1.00 20.00    -0.015 C 
HETATM    6  C6  UNL     1     -34.877  15.061  -5.091  1.00 20.00    -0.013 C 
ENDROOT
BRANCH   6   7
HETATM    7  C9  UNL     1     -34.846  14.075  -6.258  1.00 20.00     0.030 C 
BRANCH   7   8
HETATM    8  C10 UNL     1     -35.646  14.588  -7.441  1.00 20.00     0.164 C 
BRANCH   8   9
HETATM    9  O11 UNL     1     -36.918  15.014  -6.975  1.00 20.00    -0.401 OA
HETATM   10  H31 UNL     1     -37.052  15.917  -7.306  1.00 20.00     0.209 HD
ENDBRANCH   8   9
ENDBRANCH   7   8
ENDBRANCH   6   7
BRANCH   5  11
HETATM   11  C8  UNL     1     -33.707  17.241  -1.483  1.00 20.00     0.000 C 
HETATM   12  C7  UNL     1     -34.718  16.848  -0.456  1.00 20.00     0.005 C 
ENDBRANCH   5  11
TORSDOF 4
ENDMDL
MODEL 8
REMARK VINA RESULT:      -4.2      2.338      4.882
REMARK  4 active torsions:
REMARK  status: ('A' for Active; 'I' for Inactive)
REMARK    1  A    between atoms: C5_5  and  C8_8 
REMARK    2  A    between atoms: C6_6  and  C9_9 
REMARK    3  A    between atoms: C9_9  and  C10_10 
REMARK    4  A    between atoms: C10_10  and  O11_11 
ROOT
HETATM    1  C1  UNL     1     -34.957  14.634  -4.500  1.00 20.00     0.005 C 
HETATM    2  C2  UNL     1     -33.406  16.594  -4.859  1.00 20.00     0.005 C 
HETATM    3  C3  UNL     1     -35.300  15.159  -3.108  1.00 20.00     0.005 C 
HETATM    4  C4  UNL     1     -33.750  17.120  -3.466  1.00 20.00     0.005 C 
HETATM    5  C5  UNL     1     -34.554  15.767  -5.451  1.00 20.00    -0.015 C 
HETATM    6  C6  UNL     1     -34.152  15.986  -2.515  1.00 20.00    -0.013 C 
ENDROOT
BRANCH   6   7
HETATM    7  C9  UNL     1     -34.539  16.542  -1.145  1.00 20.00     0.030 C 
BRANCH   7   8
HETATM    8  C10 UNL     1     -35.273  17.864  -1.269  1.00 20.00     0.164 C 
BRANCH   8   9
HETATM    9  O11 UNL     1     -36.548  17.732  -0.657  1.00 20.00    -0.401 OA
HETATM   10  H31 UNL     1     -36.658  18.498  -0.069  1.00 20.00     0.209 HD
ENDBRANCH   8   9
ENDBRANCH   7   8
ENDBRANCH   6   7
BRANCH   5  11
HETATM   11  C8  UNL     1     -34.166  15.211  -6.821  1.00 20.00     0.000 C 
HETATM   12  C7  UNL     1     -35.323  14.553  -7.497  1.00 20.00     0.005 C 
ENDBRANCH   5  11
TORSDOF 4
ENDMDL
MODEL 9
REMARK VINA RESULT:      -4.2     11.933     13.376
REMARK  4 active torsions:
REMARK  status: ('A' for Active; 'I' for Inactive)
REMARK    1  A    between atoms: C5_5  and  C8_8 
REMARK    2  A    between atoms: C6_6  and  C9_9 
REMARK    3  A    between atoms: C9_9  and  C10_10 
REMARK    4  A    between atoms: C10_10  and  O11_11 
ROOT
HETATM    1  C1  UNL     1     -40.992   5.186  -1.093  1.00 20.00     0.005 C 
HETATM    2  C2  UNL     1     -42.998   5.990  -2.398  1.00 20.00     0.005 C 
HETATM    3  C3  UNL     1     -40.963   3.905  -1.925  1.00 20.00     0.005 C 
HETATM    4  C4  UNL     1     -42.970   4.709  -3.231  1.00 20.00     0.005 C 
HETATM    5  C5  UNL     1     -41.604   6.356  -1.874  1.00 20.00    -0.015 C 
HETATM    6  C6  UNL     1     -42.358   3.539  -2.450  1.00 20.00    -0.013 C 
ENDROOT
BRANCH   6   7
HETATM    7  C9  UNL     1     -42.295   2.284  -3.319  1.00 20.00     0.030 C 
BRANCH   7   8
HETATM    8  C10 UNL     1     -43.323   2.329  -4.434  1.00 20.00     0.164 C 
BRANCH   8   9
HETATM    9  O11 UNL     1     -42.674   2.018  -5.659  1.00 20.00    -0.401 OA
HETATM   10  H31 UNL     1     -43.021   2.634  -6.325  1.00 20.00     0.209 HD
ENDBRANCH   8   9
ENDBRANCH   7   8
ENDBRANCH   6   7
BRANCH   5  11
HETATM   11  C8  UNL     1     -41.668   7.610  -1.003  1.00 20.00     0.000 C 
HETATM   12  C7  UNL     1     -43.077   8.033  -0.748  1.00 20.00     0.005 C 
ENDBRANCH   5  11
TORSDOF 4
ENDMDL
