MODEL 1
REMARK VINA RESULT:      -4.6      0.000      0.000
REMARK  2 active torsions:
REMARK  status: ('A' for Active; 'I' for Inactive)
REMARK    1  A    between atoms: C5_5  and  C7_7 
REMARK    2  A    between atoms: C6_6  and  S11_11 
ROOT
HETATM    1  C1  UNL     1     -34.640  13.551  -4.368  1.00 20.00     0.002 C 
HETATM    2  C2  UNL     1     -33.336  13.979  -3.696  1.00 20.00     0.013 C 
HETATM    3  C3  UNL     1     -34.792  14.175  -5.753  1.00 20.00     0.015 C 
HETATM    4  C4  UNL     1     -33.351  16.128  -5.032  1.00 20.00     0.028 C 
HETATM    5  C5  UNL     1     -33.159  15.503  -3.640  1.00 20.00     0.094 C 
HETATM    6  C6  UNL     1     -34.666  15.700  -5.695  1.00 20.00     0.045 C 
ENDROOT
BRANCH   5   7
HETATM    7  C7  UNL     1     -34.082  16.141  -2.599  1.00 20.00     0.391 C 
HETATM    8  F8  UNL     1     -34.828  17.097  -3.173  1.00 20.00    -0.171 F 
HETATM    9  F9  UNL     1     -34.892  15.212  -2.072  1.00 20.00    -0.171 F 
HETATM   10  F10 UNL     1     -33.353  16.690  -1.616  1.00 20.00    -0.171 F 
ENDBRANCH   5   7
BRANCH   6  11
HETATM   11  S11 UNL     1     -34.761  16.396  -7.380  1.00 20.00    -0.177 SA
HETATM   12  H22 UNL     1     -36.040  16.779  -7.287  1.00 20.00     0.102 HD
ENDBRANCH   6  11
TORSDOF 2
ENDMDL
MODEL 2
REMARK VINA RESULT:      -4.5      2.821      3.676
REMARK  2 active torsions:
REMARK  status: ('A' for Active; 'I' for Inactive)
REMARK    1  A    between atoms: C5_5  and  C7_7 
REMARK    2  A    between atoms: C6_6  and  S11_11 
ROOT
HETATM    1  C1  UNL     1     -36.039  16.102  -4.297  1.00 20.00     0.002 C 
HETATM    2  C2  UNL     1     -34.687  16.050  -5.005  1.00 20.00     0.013 C 
HETATM    3  C3  UNL     1     -35.937  16.784  -2.935  1.00 20.00     0.015 C 
HETATM    4  C4  UNL     1     -33.511  16.082  -2.765  1.00 20.00     0.028 C 
HETATM    5  C5  UNL     1     -33.582  15.415  -4.149  1.00 20.00     0.094 C 
HETATM    6  C6  UNL     1     -34.871  16.122  -2.057  1.00 20.00     0.045 C 
ENDROOT
BRANCH   5   7
HETATM    7  C7  UNL     1     -33.753  13.898  -4.038  1.00 20.00     0.391 C 
HETATM    8  F8  UNL     1     -34.719  13.609  -3.154  1.00 20.00    -0.171 F 
HETATM    9  F9  UNL     1     -34.087  13.385  -5.231  1.00 20.00    -0.171 F 
HETATM   10  F10 UNL     1     -32.606  13.336  -3.629  1.00 20.00    -0.171 F 
ENDBRANCH   5   7
BRANCH   6  11
HETATM   11  S11 UNL     1     -34.718  17.025  -0.479  1.00 20.00    -0.177 SA
HETATM   12  H22 UNL     1     -33.896  16.139   0.095  1.00 20.00     0.102 HD
ENDBRANCH   6  11
TORSDOF 2
ENDMDL
MODEL 3
REMARK VINA RESULT:      -4.5      2.797      3.674
REMARK  2 active torsions:
REMARK  status: ('A' for Active; 'I' for Inactive)
REMARK    1  A    between atoms: C5_5  and  C7_7 
REMARK    2  A    between atoms: C6_6  and  S11_11 
ROOT
HETATM    1  C1  UNL     1     -35.871  16.170  -4.407  1.00 20.00     0.002 C 
HETATM    2  C2  UNL     1     -34.480  16.055  -5.029  1.00 20.00     0.013 C 
HETATM    3  C3  UNL     1     -35.824  16.852  -3.042  1.00 20.00     0.015 C 
HETATM    4  C4  UNL     1     -33.447  16.044  -2.719  1.00 20.00     0.028 C 
HETATM    5  C5  UNL     1     -33.461  15.375  -4.105  1.00 20.00     0.094 C 
HETATM    6  C6  UNL     1     -34.845  16.147  -2.099  1.00 20.00     0.045 C 
ENDROOT
BRANCH   5   7
HETATM    7  C7  UNL     1     -33.707  13.867  -4.004  1.00 20.00     0.391 C 
HETATM    8  F8  UNL     1     -34.096  13.385  -5.194  1.00 20.00    -0.171 F 
HETATM    9  F9  UNL     1     -32.581  13.243  -3.627  1.00 20.00    -0.171 F 
HETATM   10  F10 UNL     1     -34.665  13.618  -3.099  1.00 20.00    -0.171 F 
ENDBRANCH   5   7
BRANCH   6  11
HETATM   11  S11 UNL     1     -34.751  17.048  -0.514  1.00 20.00    -0.177 SA
HETATM   12  H22 UNL     1     -34.665  18.264  -1.066  1.00 20.00     0.102 HD
ENDBRANCH   6  11
TORSDOF 2
ENDMDL
MODEL 4
REMARK VINA RESULT:      -4.5      1.816      2.376
REMARK  2 active torsions:
REMARK  status: ('A' for Active; 'I' for Inactive)
REMARK    1  A    between atoms: C5_5  and  C7_7 
REMARK    2  A    between atoms: C6_6  and  S11_11 
ROOT
HETATM    1  C1  UNL     1     -36.027  16.237  -4.024  1.00 20.00     0.002 C 
HETATM    2  C2  UNL     1     -35.537  15.053  -3.192  1.00 20.00     0.013 C 
HETATM    3  C3  UNL     1     -36.273  15.840  -5.478  1.00 20.00     0.015 C 
HETATM    4  C4  UNL     1     -34.547  14.000  -5.269  1.00 20.00     0.028 C 
HETATM    5  C5  UNL     1     -34.306  14.362  -3.793  1.00 20.00     0.094 C 
HETATM    6  C6  UNL     1     -35.030  15.196  -6.099  1.00 20.00     0.045 C 
ENDROOT
BRANCH   5   7
HETATM    7  C7  UNL     1     -33.040  15.206  -3.616  1.00 20.00     0.391 C 
HETATM    8  F8  UNL     1     -33.160  15.990  -2.535  1.00 20.00    -0.171 F 
HETATM    9  F9  UNL     1     -31.975  14.408  -3.461  1.00 20.00    -0.171 F 
HETATM   10  F10 UNL     1     -32.851  15.980  -4.696  1.00 20.00    -0.171 F 
ENDBRANCH   5   7
BRANCH   6  11
HETATM   11  S11 UNL     1     -35.397  14.655  -7.803  1.00 20.00    -0.177 SA
HETATM   12  H22 UNL     1     -34.493  13.668  -7.820  1.00 20.00     0.102 HD
ENDBRANCH   6  11
TORSDOF 2
ENDMDL
MODEL 5
REMARK VINA RESULT:      -4.4     12.059     13.318
REMARK  2 active torsions:
REMARK  status: ('A' for Active; 'I' for Inactive)
REMARK    1  A    between atoms: C5_5  and  C7_7 
REMARK    2  A    between atoms: C6_6  and  S11_11 
ROOT
HETATM    1  C1  UNL     1     -43.417   4.735   0.101  1.00 20.00     0.002 C 
HETATM    2  C2  UNL     1     -42.099   5.236   0.687  1.00 20.00     0.013 C 
HETATM    3  C3  UNL     1     -43.196   3.599  -0.896  1.00 20.00     0.015 C 
HETATM    4  C4  UNL     1     -40.885   4.497  -1.406  1.00 20.00     0.028 C 
HETATM    5  C5  UNL     1     -41.074   5.631  -0.385  1.00 20.00     0.094 C 
HETATM    6  C6  UNL     1     -42.212   4.006  -1.996  1.00 20.00     0.045 C 
ENDROOT
BRANCH   5   7
HETATM    7  C7  UNL     1     -41.448   6.950  -1.066  1.00 20.00     0.391 C 
HETATM    8  F8  UNL     1     -42.740   7.233  -0.840  1.00 20.00    -0.171 F 
HETATM    9  F9  UNL     1     -40.693   7.947  -0.582  1.00 20.00    -0.171 F 
HETATM   10  F10 UNL     1     -41.248   6.856  -2.389  1.00 20.00    -0.171 F 
ENDBRANCH   5   7
BRANCH   6  11
HETATM   11  S11 UNL     1     -41.906   2.591  -3.109  1.00 20.00    -0.177 SA
HETATM   12  H22 UNL     1     -43.174   2.166  -3.125  1.00 20.00     0.102 HD
ENDBRANCH   6  11
TORSDOF 2
ENDMDL
MODEL 6
REMARK VINA RESULT:      -4.4      1.757      2.149
REMARK  2 active torsions:
REMARK  status: ('A' for Active; 'I' for Inactive)
REMARK    1  A    between atoms: C5_5  and  C7_7 
REMARK    2  A    between atoms: C6_6  and  S11_11 
ROOT
HETATM    1  C1  UNL     1     -36.372  14.762  -3.805  1.00 20.00     0.002 C 
HETATM    2  C2  UNL     1     -35.408  13.634  -4.168  1.00 20.00     0.013 C 
HETATM    3  C3  UNL     1     -36.668  15.659  -5.004  1.00 20.00     0.015 C 
HETATM    4  C4  UNL     1     -34.417  15.070  -6.002  1.00 20.00     0.028 C 
HETATM    5  C5  UNL     1     -34.111  14.136  -4.818  1.00 20.00     0.094 C 
HETATM    6  C6  UNL     1     -35.379  16.204  -5.626  1.00 20.00     0.045 C 
ENDROOT
BRANCH   5   7
HETATM    7  C7  UNL     1     -33.186  14.803  -3.795  1.00 20.00     0.391 C 
HETATM    8  F8  UNL     1     -32.612  15.888  -4.336  1.00 20.00    -0.171 F 
HETATM    9  F9  UNL     1     -33.888  15.173  -2.715  1.00 20.00    -0.171 F 
HETATM   10  F10 UNL     1     -32.227  13.945  -3.418  1.00 20.00    -0.171 F 
ENDBRANCH   5   7
BRANCH   6  11
HETATM   11  S11 UNL     1     -35.774  17.193  -7.108  1.00 20.00    -0.177 SA
HETATM   12  H22 UNL     1     -36.339  16.186  -7.785  1.00 20.00     0.102 HD
ENDBRANCH   6  11
TORSDOF 2
ENDMDL
MODEL 7
REMARK VINA RESULT:      -4.3      2.566      3.315
REMARK  2 active torsions:
REMARK  status: ('A' for Active; 'I' for Inactive)
REMARK    1  A    between atoms: C5_5  and  C7_7 
REMARK    2  A    between atoms: C6_6  and  S11_11 
ROOT
HETATM    1  C1  UNL     1     -34.182  16.684  -5.441  1.00 20.00     0.002 C 
HETATM    2  C2  UNL     1     -33.274  16.307  -4.272  1.00 20.00     0.013 C 
HETATM    3  C3  UNL     1     -35.571  17.101  -4.965  1.00 20.00     0.015 C 
HETATM    4  C4  UNL     1     -35.303  15.651  -2.908  1.00 20.00     0.028 C 
HETATM    5  C5  UNL     1     -33.888  15.241  -3.353  1.00 20.00     0.094 C 
HETATM    6  C6  UNL     1     -36.209  16.020  -4.089  1.00 20.00     0.045 C 
ENDROOT
BRANCH   5   7
HETATM    7  C7  UNL     1     -33.878  13.856  -4.006  1.00 20.00     0.391 C 
HETATM    8  F8  UNL     1     -32.740  13.214  -3.700  1.00 20.00    -0.171 F 
HETATM    9  F9  UNL     1     -34.918  13.134  -3.566  1.00 20.00    -0.171 F 
HETATM   10  F10 UNL     1     -33.965  13.978  -5.339  1.00 20.00    -0.171 F 
ENDBRANCH   5   7
BRANCH   6  11
HETATM   11  S11 UNL     1     -37.825  16.597  -3.467  1.00 20.00    -0.177 SA
HETATM   12  H22 UNL     1     -37.572  16.323  -2.183  1.00 20.00     0.102 HD
ENDBRANCH   6  11
TORSDOF 2
ENDMDL
MODEL 8
REMARK VINA RESULT:      -4.3      2.452      3.267
REMARK  2 active torsions:
REMARK  status: ('A' for Active; 'I' for Inactive)
REMARK    1  A    between atoms: C5_5  and  C7_7 
REMARK    2  A    between atoms: C6_6  and  S11_11 
ROOT
HETATM    1  C1  UNL     1     -33.608  16.916  -4.260  1.00 20.00     0.002 C 
HETATM    2  C2  UNL     1     -33.522  16.006  -3.036  1.00 20.00     0.013 C 
HETATM    3  C3  UNL     1     -35.029  17.431  -4.481  1.00 20.00     0.015 C 
HETATM    4  C4  UNL     1     -35.954  15.371  -3.334  1.00 20.00     0.028 C 
HETATM    5  C5  UNL     1     -34.531  14.849  -3.074  1.00 20.00     0.094 C 
HETATM    6  C6  UNL     1     -36.033  16.277  -4.569  1.00 20.00     0.045 C 
ENDROOT
BRANCH   5   7
HETATM    7  C7  UNL     1     -34.125  13.777  -4.089  1.00 20.00     0.391 C 
HETATM    8  F8  UNL     1     -35.041  12.797  -4.110  1.00 20.00    -0.171 F 
HETATM    9  F9  UNL     1     -34.035  14.316  -5.313  1.00 20.00    -0.171 F 
HETATM   10  F10 UNL     1     -32.936  13.255  -3.754  1.00 20.00    -0.171 F 
ENDBRANCH   5   7
BRANCH   6  11
HETATM   11  S11 UNL     1     -37.726  16.939  -4.740  1.00 20.00    -0.177 SA
HETATM   12  H22 UNL     1     -38.291  15.765  -5.044  1.00 20.00     0.102 HD
ENDBRANCH   6  11
TORSDOF 2
ENDMDL
MODEL 9
REMARK VINA RESULT:      -4.3      2.085      3.183
REMARK  2 active torsions:
REMARK  status: ('A' for Active; 'I' for Inactive)
REMARK    1  A    between atoms: C5_5  and  C7_7 
REMARK    2  A    between atoms: C6_6  and  S11_11 
ROOT
HETATM    1  C1  UNL     1     -33.881  16.366  -2.303  1.00 20.00     0.002 C 
HETATM    2  C2  UNL     1     -35.196  15.619  -2.520  1.00 20.00     0.013 C 
HETATM    3  C3  UNL     1     -33.720  17.522  -3.287  1.00 20.00     0.015 C 
HETATM    4  C4  UNL     1     -35.185  16.307  -4.956  1.00 20.00     0.028 C 
HETATM    5  C5  UNL     1     -35.387  15.146  -3.968  1.00 20.00     0.094 C 
HETATM    6  C6  UNL     1     -33.859  17.046  -4.736  1.00 20.00     0.045 C 
ENDROOT
BRANCH   5   7
HETATM    7  C7  UNL     1     -34.481  13.956  -4.298  1.00 20.00     0.391 C 
HETATM    8  F8  UNL     1     -33.363  14.013  -3.559  1.00 20.00    -0.171 F 
HETATM    9  F9  UNL     1     -35.119  12.807  -4.038  1.00 20.00    -0.171 F 
HETATM   10  F10 UNL     1     -34.145  13.983  -5.597  1.00 20.00    -0.171 F 
ENDBRANCH   5   7
BRANCH   6  11
HETATM   11  S11 UNL     1     -33.753  18.471  -5.871  1.00 20.00    -0.177 SA
HETATM   12  H22 UNL     1     -34.749  19.160  -5.303  1.00 20.00     0.102 HD
ENDBRANCH   6  11
TORSDOF 2
ENDMDL
