MODEL 1
REMARK VINA RESULT:      -4.2      0.000      0.000
REMARK  5 active torsions:
REMARK  status: ('A' for Active; 'I' for Inactive)
REMARK    1  A    between atoms: C6_6  and  C7_7 
REMARK    2  A    between atoms: C6_6  and  C9_9 
REMARK    3  A    between atoms: C7_7  and  C11_11 
REMARK    4  A    between atoms: C8_8  and  C10_10 
REMARK    5  A    between atoms: C8_8  and  C11_11 
ROOT
HETATM    1  C4  UNL     1     -33.662  18.261  -4.398  1.00 20.00     0.015 C 
HETATM    2  C5  UNL     1     -35.733  16.964  -3.971  1.00 20.00     0.015 C 
HETATM    3  C11 UNL     1     -34.199  16.848  -4.070  1.00 20.00    -0.046 C 
ENDROOT
BRANCH   3   4
HETATM    4  C7  UNL     1     -33.666  16.394  -2.680  1.00 20.00     0.009 C 
BRANCH   4   5
HETATM    5  C6  UNL     1     -34.731  16.191  -1.591  1.00 20.00     0.004 C 
BRANCH   5   6
HETATM    6  C9  UNL     1     -34.553  17.133  -0.384  1.00 20.00    -0.023 C 
HETATM    7  C1  UNL     1     -35.773  18.025  -0.149  1.00 20.00     0.009 C 
HETATM    8  C2  UNL     1     -33.309  18.003  -0.584  1.00 20.00     0.009 C 
ENDBRANCH   5   6
ENDBRANCH   4   5
ENDBRANCH   3   4
BRANCH   3   9
HETATM    9  C8  UNL     1     -33.769  15.905  -5.236  1.00 20.00     0.028 C 
BRANCH   9  10
HETATM   10  C10 UNL     1     -34.810  14.921  -5.804  1.00 20.00     0.079 C 
HETATM   11  C3  UNL     1     -34.650  14.784  -7.317  1.00 20.00     0.026 C 
HETATM   12 CL12 UNL     1     -34.649  13.293  -5.084  1.00 20.00    -0.125 Cl
ENDBRANCH   9  10
ENDBRANCH   3   9
TORSDOF 5
ENDMDL
MODEL 2
REMARK VINA RESULT:      -4.2      1.595      2.259
REMARK  5 active torsions:
REMARK  status: ('A' for Active; 'I' for Inactive)
REMARK    1  A    between atoms: C6_6  and  C7_7 
REMARK    2  A    between atoms: C6_6  and  C9_9 
REMARK    3  A    between atoms: C7_7  and  C11_11 
REMARK    4  A    between atoms: C8_8  and  C10_10 
REMARK    5  A    between atoms: C8_8  and  C11_11 
ROOT
HETATM    1  C4  UNL     1     -35.544  15.038  -3.789  1.00 20.00     0.015 C 
HETATM    2  C5  UNL     1     -33.337  13.909  -3.675  1.00 20.00     0.015 C 
HETATM    3  C11 UNL     1     -34.018  15.288  -3.786  1.00 20.00    -0.046 C 
ENDROOT
BRANCH   3   4
HETATM    4  C7  UNL     1     -33.625  16.115  -2.527  1.00 20.00     0.009 C 
BRANCH   4   5
HETATM    5  C6  UNL     1     -34.723  16.273  -1.464  1.00 20.00     0.004 C 
BRANCH   5   6
HETATM    6  C9  UNL     1     -34.623  17.596  -0.679  1.00 20.00    -0.023 C 
HETATM    7  C1  UNL     1     -33.205  18.170  -0.674  1.00 20.00     0.009 C 
HETATM    8  C2  UNL     1     -35.098  17.382   0.761  1.00 20.00     0.009 C 
ENDBRANCH   5   6
ENDBRANCH   4   5
ENDBRANCH   3   4
BRANCH   3   9
HETATM    9  C8  UNL     1     -33.660  15.997  -5.129  1.00 20.00     0.028 C 
BRANCH   9  10
HETATM   10  C10 UNL     1     -34.741  16.082  -6.224  1.00 20.00     0.079 C 
HETATM   11  C3  UNL     1     -34.672  17.427  -6.944  1.00 20.00     0.026 C 
HETATM   12 CL12 UNL     1     -34.551  14.792  -7.447  1.00 20.00    -0.125 Cl
ENDBRANCH   9  10
ENDBRANCH   3   9
TORSDOF 5
ENDMDL
MODEL 3
REMARK VINA RESULT:      -4.2     11.086     12.305
REMARK  5 active torsions:
REMARK  status: ('A' for Active; 'I' for Inactive)
REMARK    1  A    between atoms: C6_6  and  C7_7 
REMARK    2  A    between atoms: C6_6  and  C9_9 
REMARK    3  A    between atoms: C7_7  and  C11_11 
REMARK    4  A    between atoms: C8_8  and  C10_10 
REMARK    5  A    between atoms: C8_8  and  C11_11 
ROOT
HETATM    1  C4  UNL     1     -32.067   5.422   3.021  1.00 20.00     0.015 C 
HETATM    2  C5  UNL     1     -31.396   7.618   3.961  1.00 20.00     0.015 C 
HETATM    3  C11 UNL     1     -32.527   6.887   3.211  1.00 20.00    -0.046 C 
ENDROOT
BRANCH   3   4
HETATM    4  C7  UNL     1     -33.797   6.925   4.111  1.00 20.00     0.009 C 
BRANCH   4   5
HETATM    5  C6  UNL     1     -34.734   5.712   3.993  1.00 20.00     0.004 C 
BRANCH   5   6
HETATM    6  C9  UNL     1     -35.112   5.103   5.358  1.00 20.00    -0.023 C 
HETATM    7  C1  UNL     1     -34.475   5.849   6.531  1.00 20.00     0.009 C 
HETATM    8  C2  UNL     1     -34.701   3.629   5.400  1.00 20.00     0.009 C 
ENDBRANCH   5   6
ENDBRANCH   4   5
ENDBRANCH   3   4
BRANCH   3   9
HETATM    9  C8  UNL     1     -32.757   7.490   1.790  1.00 20.00     0.028 C 
BRANCH   9  10
HETATM   10  C10 UNL     1     -32.000   8.777   1.410  1.00 20.00     0.079 C 
HETATM   11  C3  UNL     1     -31.938   8.935  -0.108  1.00 20.00     0.026 C 
HETATM   12 CL12 UNL     1     -32.785  10.235   2.083  1.00 20.00    -0.125 Cl
ENDBRANCH   9  10
ENDBRANCH   3   9
TORSDOF 5
ENDMDL
MODEL 4
REMARK VINA RESULT:      -4.1      1.875      3.371
REMARK  5 active torsions:
REMARK  status: ('A' for Active; 'I' for Inactive)
REMARK    1  A    between atoms: C6_6  and  C7_7 
REMARK    2  A    between atoms: C6_6  and  C9_9 
REMARK    3  A    between atoms: C7_7  and  C11_11 
REMARK    4  A    between atoms: C8_8  and  C10_10 
REMARK    5  A    between atoms: C8_8  and  C11_11 
ROOT
HETATM    1  C4  UNL     1     -35.260  13.556  -4.353  1.00 20.00     0.015 C 
HETATM    2  C5  UNL     1     -34.760  14.507  -6.589  1.00 20.00     0.015 C 
HETATM    3  C11 UNL     1     -35.108  14.882  -5.135  1.00 20.00    -0.046 C 
ENDROOT
BRANCH   3   4
HETATM    4  C7  UNL     1     -33.916  15.698  -4.556  1.00 20.00     0.009 C 
BRANCH   4   5
HETATM    5  C6  UNL     1     -33.575  15.425  -3.082  1.00 20.00     0.004 C 
BRANCH   5   6
HETATM    6  C9  UNL     1     -33.679  16.680  -2.193  1.00 20.00    -0.023 C 
HETATM    7  C1  UNL     1     -34.683  16.509  -1.051  1.00 20.00     0.009 C 
HETATM    8  C2  UNL     1     -34.070  17.889  -3.046  1.00 20.00     0.009 C 
ENDBRANCH   5   6
ENDBRANCH   4   5
ENDBRANCH   3   4
BRANCH   3   9
HETATM    9  C8  UNL     1     -36.473  15.632  -5.048  1.00 20.00     0.028 C 
BRANCH   9  10
HETATM   10  C10 UNL     1     -37.282  15.532  -3.740  1.00 20.00     0.079 C 
HETATM   11  C3  UNL     1     -37.652  16.924  -3.230  1.00 20.00     0.026 C 
HETATM   12 CL12 UNL     1     -38.794  14.607  -3.962  1.00 20.00    -0.125 Cl
ENDBRANCH   9  10
ENDBRANCH   3   9
TORSDOF 5
ENDMDL
MODEL 5
REMARK VINA RESULT:      -4.1      2.305      5.083
REMARK  5 active torsions:
REMARK  status: ('A' for Active; 'I' for Inactive)
REMARK    1  A    between atoms: C6_6  and  C7_7 
REMARK    2  A    between atoms: C6_6  and  C9_9 
REMARK    3  A    between atoms: C7_7  and  C11_11 
REMARK    4  A    between atoms: C8_8  and  C10_10 
REMARK    5  A    between atoms: C8_8  and  C11_11 
ROOT
HETATM    1  C4  UNL     1     -32.565  14.590  -3.558  1.00 20.00     0.015 C 
HETATM    2  C5  UNL     1     -34.640  13.409  -4.232  1.00 20.00     0.015 C 
HETATM    3  C11 UNL     1     -34.002  14.805  -4.087  1.00 20.00    -0.046 C 
ENDROOT
BRANCH   3   4
HETATM    4  C7  UNL     1     -33.948  15.453  -5.501  1.00 20.00     0.009 C 
BRANCH   4   5
HETATM    5  C6  UNL     1     -35.120  16.383  -5.854  1.00 20.00     0.004 C 
BRANCH   5   6
HETATM    6  C9  UNL     1     -36.055  15.799  -6.931  1.00 20.00    -0.023 C 
HETATM    7  C1  UNL     1     -37.387  15.317  -6.354  1.00 20.00     0.009 C 
HETATM    8  C2  UNL     1     -35.358  14.643  -7.652  1.00 20.00     0.009 C 
ENDBRANCH   5   6
ENDBRANCH   4   5
ENDBRANCH   3   4
BRANCH   3   9
HETATM    9  C8  UNL     1     -34.760  15.675  -3.036  1.00 20.00     0.028 C 
BRANCH   9  10
HETATM   10  C10 UNL     1     -33.933  16.578  -2.100  1.00 20.00     0.079 C 
HETATM   11  C3  UNL     1     -33.825  17.990  -2.673  1.00 20.00     0.026 C 
HETATM   12 CL12 UNL     1     -34.666  16.699  -0.475  1.00 20.00    -0.125 Cl
ENDBRANCH   9  10
ENDBRANCH   3   9
TORSDOF 5
ENDMDL
MODEL 6
REMARK VINA RESULT:      -4.1      2.321      5.361
REMARK  5 active torsions:
REMARK  status: ('A' for Active; 'I' for Inactive)
REMARK    1  A    between atoms: C6_6  and  C7_7 
REMARK    2  A    between atoms: C6_6  and  C9_9 
REMARK    3  A    between atoms: C7_7  and  C11_11 
REMARK    4  A    between atoms: C8_8  and  C10_10 
REMARK    5  A    between atoms: C8_8  and  C11_11 
ROOT
HETATM    1  C4  UNL     1     -34.892  17.468  -3.459  1.00 20.00     0.015 C 
HETATM    2  C5  UNL     1     -33.180  15.678  -3.329  1.00 20.00     0.015 C 
HETATM    3  C11 UNL     1     -34.594  16.074  -2.860  1.00 20.00    -0.046 C 
ENDROOT
BRANCH   3   4
HETATM    4  C7  UNL     1     -35.595  15.031  -3.436  1.00 20.00     0.009 C 
BRANCH   4   5
HETATM    5  C6  UNL     1     -35.018  14.055  -4.473  1.00 20.00     0.004 C 
BRANCH   5   6
HETATM    6  C9  UNL     1     -35.499  14.341  -5.910  1.00 20.00    -0.023 C 
HETATM    7  C1  UNL     1     -34.419  15.000  -6.770  1.00 20.00     0.009 C 
HETATM    8  C2  UNL     1     -36.743  15.232  -5.873  1.00 20.00     0.009 C 
ENDBRANCH   5   6
ENDBRANCH   4   5
ENDBRANCH   3   4
BRANCH   3   9
HETATM    9  C8  UNL     1     -34.667  16.210  -1.308  1.00 20.00     0.028 C 
BRANCH   9  10
HETATM   10  C10 UNL     1     -34.621  17.622  -0.693  1.00 20.00     0.079 C 
HETATM   11  C3  UNL     1     -35.273  17.628   0.688  1.00 20.00     0.026 C 
HETATM   12 CL12 UNL     1     -32.944  18.214  -0.511  1.00 20.00    -0.125 Cl
ENDBRANCH   9  10
ENDBRANCH   3   9
TORSDOF 5
ENDMDL
MODEL 7
REMARK VINA RESULT:      -4.1      2.146      2.930
REMARK  5 active torsions:
REMARK  status: ('A' for Active; 'I' for Inactive)
REMARK    1  A    between atoms: C6_6  and  C7_7 
REMARK    2  A    between atoms: C6_6  and  C9_9 
REMARK    3  A    between atoms: C7_7  and  C11_11 
REMARK    4  A    between atoms: C8_8  and  C10_10 
REMARK    5  A    between atoms: C8_8  and  C11_11 
ROOT
HETATM    1  C4  UNL     1     -33.513  14.017  -3.776  1.00 20.00     0.015 C 
HETATM    2  C5  UNL     1     -34.223  16.047  -5.013  1.00 20.00     0.015 C 
HETATM    3  C11 UNL     1     -34.371  15.300  -3.672  1.00 20.00    -0.046 C 
ENDROOT
BRANCH   3   4
HETATM    4  C7  UNL     1     -33.805  16.219  -2.551  1.00 20.00     0.009 C 
BRANCH   4   5
HETATM    5  C6  UNL     1     -34.642  16.295  -1.265  1.00 20.00     0.004 C 
BRANCH   5   6
HETATM    6  C9  UNL     1     -34.552  17.664  -0.561  1.00 20.00    -0.023 C 
HETATM    7  C1  UNL     1     -33.125  18.212  -0.523  1.00 20.00     0.009 C 
HETATM    8  C2  UNL     1     -35.099  17.551   0.864  1.00 20.00     0.009 C 
ENDBRANCH   5   6
ENDBRANCH   4   5
ENDBRANCH   3   4
BRANCH   3   9
HETATM    9  C8  UNL     1     -35.845  14.855  -3.423  1.00 20.00     0.028 C 
BRANCH   9  10
HETATM   10  C10 UNL     1     -36.970  15.593  -4.174  1.00 20.00     0.079 C 
HETATM   11  C3  UNL     1     -38.264  14.783  -4.133  1.00 20.00     0.026 C 
HETATM   12 CL12 UNL     1     -37.303  17.199  -3.463  1.00 20.00    -0.125 Cl
ENDBRANCH   9  10
ENDBRANCH   3   9
TORSDOF 5
ENDMDL
MODEL 8
REMARK VINA RESULT:      -4.0      2.085      2.733
REMARK  5 active torsions:
REMARK  status: ('A' for Active; 'I' for Inactive)
REMARK    1  A    between atoms: C6_6  and  C7_7 
REMARK    2  A    between atoms: C6_6  and  C9_9 
REMARK    3  A    between atoms: C7_7  and  C11_11 
REMARK    4  A    between atoms: C8_8  and  C10_10 
REMARK    5  A    between atoms: C8_8  and  C11_11 
ROOT
HETATM    1  C4  UNL     1     -34.817  13.630  -3.894  1.00 20.00     0.015 C 
HETATM    2  C5  UNL     1     -32.781  15.037  -3.713  1.00 20.00     0.015 C 
HETATM    3  C11 UNL     1     -34.322  15.083  -3.704  1.00 20.00    -0.046 C 
ENDROOT
BRANCH   3   4
HETATM    4  C7  UNL     1     -34.774  15.613  -2.312  1.00 20.00     0.009 C 
BRANCH   4   5
HETATM    5  C6  UNL     1     -33.901  16.722  -1.705  1.00 20.00     0.004 C 
BRANCH   5   6
HETATM    6  C9  UNL     1     -34.716  17.790  -0.947  1.00 20.00    -0.023 C 
HETATM    7  C1  UNL     1     -35.012  17.387   0.498  1.00 20.00     0.009 C 
HETATM    8  C2  UNL     1     -36.029  18.061  -1.686  1.00 20.00     0.009 C 
ENDBRANCH   5   6
ENDBRANCH   4   5
ENDBRANCH   3   4
BRANCH   3   9
HETATM    9  C8  UNL     1     -34.877  15.923  -4.896  1.00 20.00     0.028 C 
BRANCH   9  10
HETATM   10  C10 UNL     1     -33.882  16.739  -5.744  1.00 20.00     0.079 C 
HETATM   11  C3  UNL     1     -34.447  16.990  -7.140  1.00 20.00     0.026 C 
HETATM   12 CL12 UNL     1     -33.521  18.324  -5.002  1.00 20.00    -0.125 Cl
ENDBRANCH   9  10
ENDBRANCH   3   9
TORSDOF 5
ENDMDL
MODEL 9
REMARK VINA RESULT:      -4.0      2.532      5.036
REMARK  5 active torsions:
REMARK  status: ('A' for Active; 'I' for Inactive)
REMARK    1  A    between atoms: C6_6  and  C7_7 
REMARK    2  A    between atoms: C6_6  and  C9_9 
REMARK    3  A    between atoms: C7_7  and  C11_11 
REMARK    4  A    between atoms: C8_8  and  C10_10 
REMARK    5  A    between atoms: C8_8  and  C11_11 
ROOT
HETATM    1  C4  UNL     1     -35.763  17.865  -3.127  1.00 20.00     0.015 C 
HETATM    2  C5  UNL     1     -33.628  17.596  -4.362  1.00 20.00     0.015 C 
HETATM    3  C11 UNL     1     -34.273  17.479  -2.967  1.00 20.00    -0.046 C 
ENDROOT
BRANCH   3   4
HETATM    4  C7  UNL     1     -34.162  15.994  -2.515  1.00 20.00     0.009 C 
BRANCH   4   5
HETATM    5  C6  UNL     1     -35.294  15.067  -2.986  1.00 20.00     0.004 C 
BRANCH   5   6
HETATM    6  C9  UNL     1     -34.797  13.897  -3.859  1.00 20.00    -0.023 C 
HETATM    7  C1  UNL     1     -33.285  13.689  -3.757  1.00 20.00     0.009 C 
HETATM    8  C2  UNL     1     -35.186  14.139  -5.319  1.00 20.00     0.009 C 
ENDBRANCH   5   6
ENDBRANCH   4   5
ENDBRANCH   3   4
BRANCH   3   9
HETATM    9  C8  UNL     1     -33.639  18.483  -1.956  1.00 20.00     0.028 C 
BRANCH   9  10
HETATM   10  C10 UNL     1     -33.232  17.963  -0.564  1.00 20.00     0.079 C 
HETATM   11  C3  UNL     1     -32.248  18.922   0.102  1.00 20.00     0.026 C 
HETATM   12 CL12 UNL     1     -34.644  17.784   0.518  1.00 20.00    -0.125 Cl
ENDBRANCH   9  10
ENDBRANCH   3   9
TORSDOF 5
ENDMDL
