MODEL 1
REMARK VINA RESULT:      -4.7      0.000      0.000
REMARK  0 active torsions:
REMARK  status: ('A' for Active; 'I' for Inactive)
ROOT
HETATM    1  C1  UNL     1     -34.307  16.792  -1.380  1.00 20.00     0.088 C 
HETATM    2  C2  UNL     1     -33.640  16.053  -3.574  1.00 20.00    -0.070 C 
HETATM    3  C3  UNL     1     -33.656  16.998  -2.622  1.00 20.00     0.096 C 
HETATM    4  C4  UNL     1     -34.310  14.716  -3.380  1.00 20.00     0.035 C 
HETATM    5  C5  UNL     1     -32.992  16.266  -4.913  1.00 20.00     0.039 C 
HETATM    6  C6  UNL     1     -34.611  14.017  -4.711  1.00 20.00     0.009 C 
HETATM    7  C7  UNL     1     -33.998  16.093  -6.070  1.00 20.00    -0.011 C 
HETATM    8  C8  UNL     1     -35.081  15.015  -5.778  1.00 20.00    -0.014 C 
HETATM    9  C9  UNL     1     -34.662  17.432  -6.418  1.00 20.00     0.010 C 
HETATM   10  C10 UNL     1     -35.487  14.282  -7.058  1.00 20.00     0.010 C 
HETATM   11  N11 UNL     1     -34.837  16.630  -0.361  1.00 20.00    -0.192 NA
ENDROOT
TORSDOF 0
ENDMDL
MODEL 2
REMARK VINA RESULT:      -4.7      1.407      2.530
REMARK  0 active torsions:
REMARK  status: ('A' for Active; 'I' for Inactive)
ROOT
HETATM    1  C1  UNL     1     -33.856  17.289  -1.019  1.00 20.00     0.088 C 
HETATM    2  C2  UNL     1     -35.082  16.258  -2.818  1.00 20.00    -0.070 C 
HETATM    3  C3  UNL     1     -34.668  16.252  -1.542  1.00 20.00     0.096 C 
HETATM    4  C4  UNL     1     -34.710  17.365  -3.770  1.00 20.00     0.035 C 
HETATM    5  C5  UNL     1     -35.908  15.147  -3.404  1.00 20.00     0.039 C 
HETATM    6  C6  UNL     1     -34.837  16.939  -5.238  1.00 20.00     0.009 C 
HETATM    7  C7  UNL     1     -35.208  14.489  -4.612  1.00 20.00    -0.011 C 
HETATM    8  C8  UNL     1     -34.364  15.494  -5.448  1.00 20.00    -0.014 C 
HETATM    9  C9  UNL     1     -34.335  13.311  -4.159  1.00 20.00     0.010 C 
HETATM   10  C10 UNL     1     -34.389  15.131  -6.934  1.00 20.00     0.010 C 
HETATM   11  N11 UNL     1     -33.192  18.135  -0.583  1.00 20.00    -0.192 NA
ENDROOT
TORSDOF 0
ENDMDL
MODEL 3
REMARK VINA RESULT:      -4.6      2.450      4.303
REMARK  0 active torsions:
REMARK  status: ('A' for Active; 'I' for Inactive)
ROOT
HETATM    1  C1  UNL     1     -35.111  13.895  -4.603  1.00 20.00     0.088 C 
HETATM    2  C2  UNL     1     -35.391  16.057  -3.580  1.00 20.00    -0.070 C 
HETATM    3  C3  UNL     1     -35.424  15.275  -4.670  1.00 20.00     0.096 C 
HETATM    4  C4  UNL     1     -35.020  15.516  -2.223  1.00 20.00     0.035 C 
HETATM    5  C5  UNL     1     -35.678  17.531  -3.635  1.00 20.00     0.039 C 
HETATM    6  C6  UNL     1     -34.556  16.619  -1.263  1.00 20.00     0.009 C 
HETATM    7  C7  UNL     1     -34.484  18.367  -3.126  1.00 20.00    -0.011 C 
HETATM    8  C8  UNL     1     -33.695  17.666  -1.983  1.00 20.00    -0.014 C 
HETATM    9  C9  UNL     1     -33.540  18.726  -4.280  1.00 20.00     0.010 C 
HETATM   10  C10 UNL     1     -33.147  18.688  -0.985  1.00 20.00     0.010 C 
HETATM   11  N11 UNL     1     -34.857  12.763  -4.558  1.00 20.00    -0.192 NA
ENDROOT
TORSDOF 0
ENDMDL
MODEL 4
REMARK VINA RESULT:      -4.6      1.438      2.024
REMARK  0 active torsions:
REMARK  status: ('A' for Active; 'I' for Inactive)
ROOT
HETATM    1  C1  UNL     1     -34.497  16.143  -1.714  1.00 20.00     0.088 C 
HETATM    2  C2  UNL     1     -35.097  14.811  -3.630  1.00 20.00    -0.070 C 
HETATM    3  C3  UNL     1     -34.159  15.317  -2.815  1.00 20.00     0.096 C 
HETATM    4  C4  UNL     1     -36.564  15.089  -3.423  1.00 20.00     0.035 C 
HETATM    5  C5  UNL     1     -34.757  13.969  -4.827  1.00 20.00     0.039 C 
HETATM    6  C6  UNL     1     -37.385  14.864  -4.699  1.00 20.00     0.009 C 
HETATM    7  C7  UNL     1     -35.288  14.592  -6.135  1.00 20.00    -0.011 C 
HETATM    8  C8  UNL     1     -36.633  15.351  -5.946  1.00 20.00    -0.014 C 
HETATM    9  C9  UNL     1     -34.238  15.520  -6.760  1.00 20.00     0.010 C 
HETATM   10  C10 UNL     1     -37.515  15.225  -7.189  1.00 20.00     0.010 C 
HETATM   11  N11 UNL     1     -34.765  16.819  -0.810  1.00 20.00    -0.192 NA
ENDROOT
TORSDOF 0
ENDMDL
MODEL 5
REMARK VINA RESULT:      -4.5      2.522      4.495
REMARK  0 active torsions:
REMARK  status: ('A' for Active; 'I' for Inactive)
ROOT
HETATM    1  C1  UNL     1     -34.500  13.614  -3.968  1.00 20.00     0.088 C 
HETATM    2  C2  UNL     1     -34.399  15.927  -3.302  1.00 20.00    -0.070 C 
HETATM    3  C3  UNL     1     -33.898  14.684  -3.259  1.00 20.00     0.096 C 
HETATM    4  C4  UNL     1     -35.630  16.262  -4.105  1.00 20.00     0.035 C 
HETATM    5  C5  UNL     1     -33.801  17.066  -2.526  1.00 20.00     0.039 C 
HETATM    6  C6  UNL     1     -36.305  17.553  -3.626  1.00 20.00     0.009 C 
HETATM    7  C7  UNL     1     -34.821  17.693  -1.551  1.00 20.00    -0.011 C 
HETATM    8  C8  UNL     1     -36.277  17.668  -2.095  1.00 20.00    -0.014 C 
HETATM    9  C9  UNL     1     -34.755  17.006  -0.180  1.00 20.00     0.010 C 
HETATM   10  C10 UNL     1     -37.058  18.901  -1.636  1.00 20.00     0.010 C 
HETATM   11  N11 UNL     1     -34.987  12.734  -4.545  1.00 20.00    -0.192 NA
ENDROOT
TORSDOF 0
ENDMDL
MODEL 6
REMARK VINA RESULT:      -4.5      2.703      4.567
REMARK  0 active torsions:
REMARK  status: ('A' for Active; 'I' for Inactive)
ROOT
HETATM    1  C1  UNL     1     -35.962  14.989  -7.428  1.00 20.00     0.088 C 
HETATM    2  C2  UNL     1     -34.582  16.019  -5.743  1.00 20.00    -0.070 C 
HETATM    3  C3  UNL     1     -34.701  15.254  -6.839  1.00 20.00     0.096 C 
HETATM    4  C4  UNL     1     -35.781  16.642  -5.074  1.00 20.00     0.035 C 
HETATM    5  C5  UNL     1     -33.260  16.278  -5.078  1.00 20.00     0.039 C 
HETATM    6  C6  UNL     1     -35.501  17.024  -3.615  1.00 20.00     0.009 C 
HETATM    7  C7  UNL     1     -33.255  15.805  -3.609  1.00 20.00    -0.011 C 
HETATM    8  C8  UNL     1     -34.637  15.967  -2.913  1.00 20.00    -0.014 C 
HETATM    9  C9  UNL     1     -32.778  14.350  -3.508  1.00 20.00     0.010 C 
HETATM   10  C10 UNL     1     -34.470  16.309  -1.431  1.00 20.00     0.010 C 
HETATM   11  N11 UNL     1     -36.991  14.768  -7.917  1.00 20.00    -0.192 NA
ENDROOT
TORSDOF 0
ENDMDL
MODEL 7
REMARK VINA RESULT:      -4.4      2.537      4.596
REMARK  0 active torsions:
REMARK  status: ('A' for Active; 'I' for Inactive)
ROOT
HETATM    1  C1  UNL     1     -35.615  14.511  -6.538  1.00 20.00     0.088 C 
HETATM    2  C2  UNL     1     -34.057  15.435  -4.949  1.00 20.00    -0.070 C 
HETATM    3  C3  UNL     1     -34.847  14.428  -5.349  1.00 20.00     0.096 C 
HETATM    4  C4  UNL     1     -33.939  16.715  -5.738  1.00 20.00     0.035 C 
HETATM    5  C5  UNL     1     -33.267  15.384  -3.672  1.00 20.00     0.039 C 
HETATM    6  C6  UNL     1     -33.422  17.880  -4.884  1.00 20.00     0.009 C 
HETATM    7  C7  UNL     1     -33.644  16.539  -2.719  1.00 20.00    -0.011 C 
HETATM    8  C8  UNL     1     -34.019  17.849  -3.469  1.00 20.00    -0.014 C 
HETATM    9  C9  UNL     1     -34.782  16.120  -1.780  1.00 20.00     0.010 C 
HETATM   10  C10 UNL     1     -33.583  19.082  -2.676  1.00 20.00     0.010 C 
HETATM   11  N11 UNL     1     -36.246  14.572  -7.509  1.00 20.00    -0.192 NA
ENDROOT
TORSDOF 0
ENDMDL
MODEL 8
REMARK VINA RESULT:      -4.4      2.025      3.497
REMARK  0 active torsions:
REMARK  status: ('A' for Active; 'I' for Inactive)
ROOT
HETATM    1  C1  UNL     1     -32.375  18.614  -0.086  1.00 20.00     0.088 C 
HETATM    2  C2  UNL     1     -33.969  17.953  -1.766  1.00 20.00    -0.070 C 
HETATM    3  C3  UNL     1     -33.458  17.818  -0.533  1.00 20.00     0.096 C 
HETATM    4  C4  UNL     1     -33.423  18.959  -2.748  1.00 20.00     0.035 C 
HETATM    5  C5  UNL     1     -35.089  17.091  -2.276  1.00 20.00     0.039 C 
HETATM    6  C6  UNL     1     -33.780  18.611  -4.199  1.00 20.00     0.009 C 
HETATM    7  C7  UNL     1     -34.680  16.310  -3.543  1.00 20.00    -0.011 C 
HETATM    8  C8  UNL     1     -33.694  17.099  -4.451  1.00 20.00    -0.014 C 
HETATM    9  C9  UNL     1     -34.085  14.946  -3.172  1.00 20.00     0.010 C 
HETATM   10  C10 UNL     1     -33.938  16.787  -5.929  1.00 20.00     0.010 C 
HETATM   11  N11 UNL     1     -31.489  19.263   0.289  1.00 20.00    -0.192 NA
ENDROOT
TORSDOF 0
ENDMDL
MODEL 9
REMARK VINA RESULT:      -4.3      1.835      2.544
REMARK  0 active torsions:
REMARK  status: ('A' for Active; 'I' for Inactive)
ROOT
HETATM    1  C1  UNL     1     -35.049  17.658  -0.279  1.00 20.00     0.088 C 
HETATM    2  C2  UNL     1     -35.097  16.903  -2.566  1.00 20.00    -0.070 C 
HETATM    3  C3  UNL     1     -35.664  17.575  -1.553  1.00 20.00     0.096 C 
HETATM    4  C4  UNL     1     -33.774  16.197  -2.411  1.00 20.00     0.035 C 
HETATM    5  C5  UNL     1     -35.752  16.768  -3.912  1.00 20.00     0.039 C 
HETATM    6  C6  UNL     1     -33.567  15.109  -3.472  1.00 20.00     0.009 C 
HETATM    7  C7  UNL     1     -35.981  15.289  -4.291  1.00 20.00    -0.011 C 
HETATM    8  C8  UNL     1     -34.867  14.344  -3.755  1.00 20.00    -0.014 C 
HETATM    9  C9  UNL     1     -37.358  14.812  -3.812  1.00 20.00     0.010 C 
HETATM   10  C10 UNL     1     -34.611  13.190  -4.726  1.00 20.00     0.010 C 
HETATM   11  N11 UNL     1     -34.552  17.731   0.767  1.00 20.00    -0.192 NA
ENDROOT
TORSDOF 0
ENDMDL
