MODEL 1
REMARK VINA RESULT:      -5.0      0.000      0.000
REMARK  0 active torsions:
REMARK  status: ('A' for Active; 'I' for Inactive)
ROOT
HETATM    1  C1  UNL     1     -31.914   8.110   1.836  1.00 20.00     0.088 C 
HETATM    2  C2  UNL     1     -32.760   6.691   3.589  1.00 20.00    -0.070 C 
HETATM    3  C3  UNL     1     -32.051   7.763   3.203  1.00 20.00     0.096 C 
HETATM    4  C4  UNL     1     -33.453   5.788   2.604  1.00 20.00     0.035 C 
HETATM    5  C5  UNL     1     -32.938   6.325   5.040  1.00 20.00     0.039 C 
HETATM    6  C6  UNL     1     -34.933   5.632   2.962  1.00 20.00     0.009 C 
HETATM    7  C7  UNL     1     -34.430   6.168   5.387  1.00 20.00    -0.011 C 
HETATM    8  C8  UNL     1     -35.159   5.195   4.423  1.00 20.00    -0.014 C 
HETATM    9  C9  UNL     1     -34.598   5.785   6.859  1.00 20.00     0.010 C 
HETATM   10  C10 UNL     1     -34.773   3.723   4.619  1.00 20.00     0.010 C 
HETATM   11  N11 UNL     1     -31.798   8.400   0.718  1.00 20.00    -0.192 NA
ENDROOT
TORSDOF 0
ENDMDL
MODEL 2
REMARK VINA RESULT:      -4.7     11.291     12.766
REMARK  0 active torsions:
REMARK  status: ('A' for Active; 'I' for Inactive)
ROOT
HETATM    1  C1  UNL     1     -37.695  15.352  -7.040  1.00 20.00     0.088 C 
HETATM    2  C2  UNL     1     -35.997  15.634  -5.356  1.00 20.00    -0.070 C 
HETATM    3  C3  UNL     1     -37.108  16.069  -5.969  1.00 20.00     0.096 C 
HETATM    4  C4  UNL     1     -35.301  14.362  -5.760  1.00 20.00     0.035 C 
HETATM    5  C5  UNL     1     -35.376  16.370  -4.197  1.00 20.00     0.039 C 
HETATM    6  C6  UNL     1     -35.109  13.441  -4.553  1.00 20.00     0.009 C 
HETATM    7  C7  UNL     1     -35.186  15.435  -2.989  1.00 20.00    -0.011 C 
HETATM    8  C8  UNL     1     -34.418  14.139  -3.364  1.00 20.00    -0.014 C 
HETATM    9  C9  UNL     1     -34.545  16.190  -1.824  1.00 20.00     0.010 C 
HETATM   10  C10 UNL     1     -32.929  14.363  -3.655  1.00 20.00     0.010 C 
HETATM   11  N11 UNL     1     -38.182  14.769  -7.918  1.00 20.00    -0.192 NA
ENDROOT
TORSDOF 0
ENDMDL
MODEL 3
REMARK VINA RESULT:      -4.7     11.290     12.232
REMARK  0 active torsions:
REMARK  status: ('A' for Active; 'I' for Inactive)
ROOT
HETATM    1  C1  UNL     1     -35.205  17.486  -0.228  1.00 20.00     0.088 C 
HETATM    2  C2  UNL     1     -34.858  16.284  -2.286  1.00 20.00    -0.070 C 
HETATM    3  C3  UNL     1     -34.448  16.618  -1.053  1.00 20.00     0.096 C 
HETATM    4  C4  UNL     1     -36.140  16.806  -2.876  1.00 20.00     0.035 C 
HETATM    5  C5  UNL     1     -34.078  15.340  -3.165  1.00 20.00     0.039 C 
HETATM    6  C6  UNL     1     -37.017  15.654  -3.372  1.00 20.00     0.009 C 
HETATM    7  C7  UNL     1     -34.970  14.186  -3.658  1.00 20.00    -0.011 C 
HETATM    8  C8  UNL     1     -36.275  14.697  -4.326  1.00 20.00    -0.014 C 
HETATM    9  C9  UNL     1     -34.172  13.241  -4.558  1.00 20.00     0.010 C 
HETATM   10  C10 UNL     1     -36.055  15.353  -5.695  1.00 20.00     0.010 C 
HETATM   11  N11 UNL     1     -35.820  18.197   0.453  1.00 20.00    -0.192 NA
ENDROOT
TORSDOF 0
ENDMDL
MODEL 4
REMARK VINA RESULT:      -4.6      9.644     11.249
REMARK  0 active torsions:
REMARK  status: ('A' for Active; 'I' for Inactive)
ROOT
HETATM    1  C1  UNL     1     -42.256   2.317  -4.337  1.00 20.00     0.088 C 
HETATM    2  C2  UNL     1     -42.170   3.846  -2.478  1.00 20.00    -0.070 C 
HETATM    3  C3  UNL     1     -41.725   2.741  -3.094  1.00 20.00     0.096 C 
HETATM    4  C4  UNL     1     -43.258   4.708  -3.061  1.00 20.00     0.035 C 
HETATM    5  C5  UNL     1     -41.597   4.325  -1.169  1.00 20.00     0.039 C 
HETATM    6  C6  UNL     1     -42.803   6.167  -3.151  1.00 20.00     0.009 C 
HETATM    7  C7  UNL     1     -41.144   5.793  -1.271  1.00 20.00    -0.011 C 
HETATM    8  C8  UNL     1     -42.267   6.717  -1.814  1.00 20.00    -0.014 C 
HETATM    9  C9  UNL     1     -40.575   6.271   0.065  1.00 20.00     0.010 C 
HETATM   10  C10 UNL     1     -43.413   6.950  -0.822  1.00 20.00     0.010 C 
HETATM   11  N11 UNL     1     -42.686   1.965  -5.356  1.00 20.00    -0.192 NA
ENDROOT
TORSDOF 0
ENDMDL
MODEL 5
REMARK VINA RESULT:      -4.6     11.002     12.585
REMARK  0 active torsions:
REMARK  status: ('A' for Active; 'I' for Inactive)
ROOT
HETATM    1  C1  UNL     1     -34.357  13.524  -4.153  1.00 20.00     0.088 C 
HETATM    2  C2  UNL     1     -34.412  15.541  -2.837  1.00 20.00    -0.070 C 
HETATM    3  C3  UNL     1     -33.721  14.527  -3.379  1.00 20.00     0.096 C 
HETATM    4  C4  UNL     1     -35.900  15.684  -3.010  1.00 20.00     0.035 C 
HETATM    5  C5  UNL     1     -33.747  16.629  -2.035  1.00 20.00     0.039 C 
HETATM    6  C6  UNL     1     -36.251  17.071  -3.553  1.00 20.00     0.009 C 
HETATM    7  C7  UNL     1     -34.108  18.019  -2.589  1.00 20.00    -0.011 C 
HETATM    8  C8  UNL     1     -35.642  18.218  -2.723  1.00 20.00    -0.014 C 
HETATM    9  C9  UNL     1     -33.437  19.116  -1.761  1.00 20.00     0.010 C 
HETATM   10  C10 UNL     1     -36.368  18.364  -1.380  1.00 20.00     0.010 C 
HETATM   11  N11 UNL     1     -34.872  12.700  -4.788  1.00 20.00    -0.192 NA
ENDROOT
TORSDOF 0
ENDMDL
MODEL 6
REMARK VINA RESULT:      -4.6     11.416     12.450
REMARK  0 active torsions:
REMARK  status: ('A' for Active; 'I' for Inactive)
ROOT
HETATM    1  C1  UNL     1     -39.003  14.793  -4.104  1.00 20.00     0.088 C 
HETATM    2  C2  UNL     1     -36.844  15.736  -3.603  1.00 20.00    -0.070 C 
HETATM    3  C3  UNL     1     -38.173  15.717  -3.421  1.00 20.00     0.096 C 
HETATM    4  C4  UNL     1     -36.147  14.785  -4.539  1.00 20.00     0.035 C 
HETATM    5  C5  UNL     1     -35.945  16.693  -2.864  1.00 20.00     0.039 C 
HETATM    6  C6  UNL     1     -35.018  14.046  -3.817  1.00 20.00     0.009 C 
HETATM    7  C7  UNL     1     -34.813  15.938  -2.144  1.00 20.00    -0.011 C 
HETATM    8  C8  UNL     1     -34.036  14.993  -3.099  1.00 20.00    -0.014 C 
HETATM    9  C9  UNL     1     -33.900  16.920  -1.407  1.00 20.00     0.010 C 
HETATM   10  C10 UNL     1     -33.148  15.727  -4.111  1.00 20.00     0.010 C 
HETATM   11  N11 UNL     1     -39.689  14.039  -4.659  1.00 20.00    -0.192 NA
ENDROOT
TORSDOF 0
ENDMDL
MODEL 7
REMARK VINA RESULT:      -4.5     11.782     12.454
REMARK  0 active torsions:
REMARK  status: ('A' for Active; 'I' for Inactive)
ROOT
HETATM    1  C1  UNL     1     -33.748  17.665  -0.743  1.00 20.00     0.088 C 
HETATM    2  C2  UNL     1     -34.770  16.150  -2.312  1.00 20.00    -0.070 C 
HETATM    3  C3  UNL     1     -34.882  17.027  -1.303  1.00 20.00     0.096 C 
HETATM    4  C4  UNL     1     -33.440  15.786  -2.916  1.00 20.00     0.035 C 
HETATM    5  C5  UNL     1     -35.969  15.484  -2.937  1.00 20.00     0.039 C 
HETATM    6  C6  UNL     1     -33.461  15.985  -4.433  1.00 20.00     0.009 C 
HETATM    7  C7  UNL     1     -35.978  15.690  -4.462  1.00 20.00    -0.011 C 
HETATM    8  C8  UNL     1     -34.639  15.265  -5.121  1.00 20.00    -0.014 C 
HETATM    9  C9  UNL     1     -37.192  15.000  -5.087  1.00 20.00     0.010 C 
HETATM   10  C10 UNL     1     -34.412  13.749  -5.145  1.00 20.00     0.010 C 
HETATM   11  N11 UNL     1     -32.823  18.191  -0.280  1.00 20.00    -0.192 NA
ENDROOT
TORSDOF 0
ENDMDL
MODEL 8
REMARK VINA RESULT:      -4.4     11.280     13.021
REMARK  0 active torsions:
REMARK  status: ('A' for Active; 'I' for Inactive)
ROOT
HETATM    1  C1  UNL     1     -33.628  18.752  -2.490  1.00 20.00     0.088 C 
HETATM    2  C2  UNL     1     -34.509  16.955  -3.830  1.00 20.00    -0.070 C 
HETATM    3  C3  UNL     1     -34.255  18.261  -3.662  1.00 20.00     0.096 C 
HETATM    4  C4  UNL     1     -34.148  15.925  -2.793  1.00 20.00     0.035 C 
HETATM    5  C5  UNL     1     -35.151  16.415  -5.082  1.00 20.00     0.039 C 
HETATM    6  C6  UNL     1     -33.309  14.805  -3.411  1.00 20.00     0.009 C 
HETATM    7  C7  UNL     1     -34.298  15.288  -5.694  1.00 20.00    -0.011 C 
HETATM    8  C8  UNL     1     -33.960  14.180  -4.661  1.00 20.00    -0.014 C 
HETATM    9  C9  UNL     1     -34.964  14.739  -6.957  1.00 20.00     0.010 C 
HETATM   10  C10 UNL     1     -35.160  13.308  -4.272  1.00 20.00     0.010 C 
HETATM   11  N11 UNL     1     -33.114  19.160  -1.533  1.00 20.00    -0.192 NA
ENDROOT
TORSDOF 0
ENDMDL
MODEL 9
REMARK VINA RESULT:      -4.3     11.289     12.815
REMARK  0 active torsions:
REMARK  status: ('A' for Active; 'I' for Inactive)
ROOT
HETATM    1  C1  UNL     1     -35.239  13.760  -4.549  1.00 20.00     0.088 C 
HETATM    2  C2  UNL     1     -35.312  16.038  -3.769  1.00 20.00    -0.070 C 
HETATM    3  C3  UNL     1     -35.778  15.070  -4.573  1.00 20.00     0.096 C 
HETATM    4  C4  UNL     1     -34.192  15.801  -2.792  1.00 20.00     0.035 C 
HETATM    5  C5  UNL     1     -35.893  17.428  -3.762  1.00 20.00     0.039 C 
HETATM    6  C6  UNL     1     -34.604  16.226  -1.381  1.00 20.00     0.009 C 
HETATM    7  C7  UNL     1     -36.303  17.846  -2.338  1.00 20.00    -0.011 C 
HETATM    8  C8  UNL     1     -35.146  17.668  -1.318  1.00 20.00    -0.014 C 
HETATM    9  C9  UNL     1     -36.879  19.262  -2.341  1.00 20.00     0.010 C 
HETATM   10  C10 UNL     1     -34.010  18.685  -1.485  1.00 20.00     0.010 C 
HETATM   11  N11 UNL     1     -34.802  12.685  -4.535  1.00 20.00    -0.192 NA
ENDROOT
TORSDOF 0
ENDMDL
