MODEL 1
REMARK VINA RESULT:      -5.0      0.000      0.000
REMARK  2 active torsions:
REMARK  status: ('A' for Active; 'I' for Inactive)
REMARK    1  A    between atoms: C1_1  and  C5_5 
REMARK    2  A    between atoms: C1_1  and  C11_11 
ROOT
HETATM    1  C2  UNL     1     -33.932  17.530  -4.205  1.00 20.00     0.012 C 
HETATM    2  C3  UNL     1     -33.780  16.818  -5.544  1.00 20.00     0.005 C 
HETATM    3  C4  UNL     1     -34.367  15.318  -3.077  1.00 20.00     0.016 C 
HETATM    4  C5  UNL     1     -33.557  16.614  -3.043  1.00 20.00     0.056 C 
HETATM    5  C6  UNL     1     -34.593  15.513  -5.599  1.00 20.00    -0.015 C 
HETATM    6  C7  UNL     1     -34.217  14.582  -4.420  1.00 20.00    -0.014 C 
HETATM    7  C8  UNL     1     -34.387  14.845  -6.962  1.00 20.00     0.010 C 
HETATM    8  C9  UNL     1     -35.058  13.302  -4.393  1.00 20.00     0.010 C 
ENDROOT
BRANCH   4   9
HETATM    9  C1  UNL     1     -33.801  17.316  -1.743  1.00 20.00     0.130 C 
HETATM   10  O12 UNL     1     -33.290  18.411  -1.508  1.00 20.00    -0.298 OA
BRANCH   9  11
HETATM   11  C11 UNL     1     -34.700  16.600  -0.754  1.00 20.00     0.074 C 
HETATM   12  C10 UNL     1     -34.961  17.416   0.499  1.00 20.00     0.013 C 
ENDBRANCH   9  11
ENDBRANCH   4   9
TORSDOF 2
ENDMDL
MODEL 2
REMARK VINA RESULT:      -4.8      2.558      5.024
REMARK  2 active torsions:
REMARK  status: ('A' for Active; 'I' for Inactive)
REMARK    1  A    between atoms: C1_1  and  C5_5 
REMARK    2  A    between atoms: C1_1  and  C11_11 
ROOT
HETATM    1  C2  UNL     1     -36.588  15.780  -4.122  1.00 20.00     0.012 C 
HETATM    2  C3  UNL     1     -37.115  16.763  -3.083  1.00 20.00     0.005 C 
HETATM    3  C4  UNL     1     -34.462  15.515  -2.793  1.00 20.00     0.016 C 
HETATM    4  C5  UNL     1     -35.606  14.790  -3.502  1.00 20.00     0.056 C 
HETATM    5  C6  UNL     1     -35.978  17.507  -2.363  1.00 20.00    -0.015 C 
HETATM    6  C7  UNL     1     -34.979  16.506  -1.734  1.00 20.00    -0.014 C 
HETATM    7  C8  UNL     1     -36.576  18.466  -1.329  1.00 20.00     0.010 C 
HETATM    8  C9  UNL     1     -33.788  17.204  -1.071  1.00 20.00     0.010 C 
ENDROOT
BRANCH   4   9
HETATM    9  C1  UNL     1     -35.043  13.898  -4.565  1.00 20.00     0.130 C 
HETATM   10  O12 UNL     1     -35.042  12.675  -4.431  1.00 20.00    -0.298 OA
BRANCH   9  11
HETATM   11  C11 UNL     1     -34.484  14.591  -5.793  1.00 20.00     0.074 C 
HETATM   12  C10 UNL     1     -35.257  14.259  -7.056  1.00 20.00     0.013 C 
ENDBRANCH   9  11
ENDBRANCH   4   9
TORSDOF 2
ENDMDL
MODEL 3
REMARK VINA RESULT:      -4.7      2.939      6.662
REMARK  2 active torsions:
REMARK  status: ('A' for Active; 'I' for Inactive)
REMARK    1  A    between atoms: C1_1  and  C5_5 
REMARK    2  A    between atoms: C1_1  and  C11_11 
ROOT
HETATM    1  C2  UNL     1     -32.344  18.676   0.012  1.00 20.00     0.012 C 
HETATM    2  C3  UNL     1     -31.516  19.253   1.154  1.00 20.00     0.005 C 
HETATM    3  C4  UNL     1     -34.231  18.206   1.615  1.00 20.00     0.016 C 
HETATM    4  C5  UNL     1     -33.838  18.830   0.276  1.00 20.00     0.056 C 
HETATM    5  C6  UNL     1     -31.892  18.632   2.510  1.00 20.00    -0.015 C 
HETATM    6  C7  UNL     1     -33.409  18.784   2.781  1.00 20.00    -0.014 C 
HETATM    7  C8  UNL     1     -31.033  19.263   3.611  1.00 20.00     0.010 C 
HETATM    8  C9  UNL     1     -33.841  18.113   4.088  1.00 20.00     0.010 C 
ENDROOT
BRANCH   4   9
HETATM    9  C1  UNL     1     -34.620  18.177  -0.822  1.00 20.00     0.130 C 
HETATM   10  O12 UNL     1     -35.301  18.845  -1.599  1.00 20.00    -0.298 OA
BRANCH   9  11
HETATM   11  C11 UNL     1     -34.518  16.666  -0.908  1.00 20.00     0.074 C 
HETATM   12  C10 UNL     1     -34.099  16.185  -2.285  1.00 20.00     0.013 C 
ENDBRANCH   9  11
ENDBRANCH   4   9
TORSDOF 2
ENDMDL
MODEL 4
REMARK VINA RESULT:      -4.7      1.869      4.715
REMARK  2 active torsions:
REMARK  status: ('A' for Active; 'I' for Inactive)
REMARK    1  A    between atoms: C1_1  and  C5_5 
REMARK    2  A    between atoms: C1_1  and  C11_11 
ROOT
HETATM    1  C2  UNL     1     -35.575  16.664  -3.541  1.00 20.00     0.012 C 
HETATM    2  C3  UNL     1     -36.600  17.282  -2.598  1.00 20.00     0.005 C 
HETATM    3  C4  UNL     1     -33.895  16.582  -1.664  1.00 20.00     0.016 C 
HETATM    4  C5  UNL     1     -34.575  15.795  -2.784  1.00 20.00     0.056 C 
HETATM    5  C6  UNL     1     -35.934  18.084  -1.466  1.00 20.00    -0.015 C 
HETATM    6  C7  UNL     1     -34.917  17.206  -0.697  1.00 20.00    -0.014 C 
HETATM    7  C8  UNL     1     -37.017  18.665  -0.552  1.00 20.00     0.010 C 
HETATM    8  C9  UNL     1     -34.174  17.987   0.391  1.00 20.00     0.010 C 
ENDROOT
BRANCH   4   9
HETATM    9  C1  UNL     1     -33.534  15.276  -3.727  1.00 20.00     0.130 C 
HETATM   10  O12 UNL     1     -32.781  16.043  -4.325  1.00 20.00    -0.298 OA
BRANCH   9  11
HETATM   11  C11 UNL     1     -33.475  13.769  -3.893  1.00 20.00     0.074 C 
HETATM   12  C10 UNL     1     -34.669  13.215  -4.648  1.00 20.00     0.013 C 
ENDBRANCH   9  11
ENDBRANCH   4   9
TORSDOF 2
ENDMDL
MODEL 5
REMARK VINA RESULT:      -4.6      1.403      1.817
REMARK  2 active torsions:
REMARK  status: ('A' for Active; 'I' for Inactive)
REMARK    1  A    between atoms: C1_1  and  C5_5 
REMARK    2  A    between atoms: C1_1  and  C11_11 
ROOT
HETATM    1  C2  UNL     1     -33.294  15.888  -2.951  1.00 20.00     0.012 C 
HETATM    2  C3  UNL     1     -33.447  14.646  -3.821  1.00 20.00     0.005 C 
HETATM    3  C4  UNL     1     -35.798  16.009  -2.683  1.00 20.00     0.016 C 
HETATM    4  C5  UNL     1     -34.450  16.019  -1.963  1.00 20.00     0.056 C 
HETATM    5  C6  UNL     1     -34.797  14.621  -4.560  1.00 20.00    -0.015 C 
HETATM    6  C7  UNL     1     -35.972  14.757  -3.560  1.00 20.00    -0.014 C 
HETATM    7  C8  UNL     1     -34.889  13.346  -5.404  1.00 20.00     0.010 C 
HETATM    8  C9  UNL     1     -37.333  14.814  -4.260  1.00 20.00     0.010 C 
ENDROOT
BRANCH   4   9
HETATM    9  C1  UNL     1     -34.313  17.292  -1.186  1.00 20.00     0.130 C 
HETATM   10  O12 UNL     1     -33.755  18.275  -1.673  1.00 20.00    -0.298 OA
BRANCH   9  11
HETATM   11  C11 UNL     1     -34.895  17.287   0.214  1.00 20.00     0.074 C 
HETATM   12  C10 UNL     1     -34.217  18.284   1.135  1.00 20.00     0.013 C 
ENDBRANCH   9  11
ENDBRANCH   4   9
TORSDOF 2
ENDMDL
MODEL 6
REMARK VINA RESULT:      -4.5      2.276      5.000
REMARK  2 active torsions:
REMARK  status: ('A' for Active; 'I' for Inactive)
REMARK    1  A    between atoms: C1_1  and  C5_5 
REMARK    2  A    between atoms: C1_1  and  C11_11 
ROOT
HETATM    1  C2  UNL     1     -34.795  15.185  -2.835  1.00 20.00     0.012 C 
HETATM    2  C3  UNL     1     -34.159  16.299  -2.013  1.00 20.00     0.005 C 
HETATM    3  C4  UNL     1     -34.120  16.365  -4.958  1.00 20.00     0.016 C 
HETATM    4  C5  UNL     1     -34.116  15.041  -4.195  1.00 20.00     0.056 C 
HETATM    5  C6  UNL     1     -34.158  17.642  -2.762  1.00 20.00    -0.015 C 
HETATM    6  C7  UNL     1     -33.473  17.499  -4.143  1.00 20.00    -0.014 C 
HETATM    7  C8  UNL     1     -33.497  18.710  -1.887  1.00 20.00     0.010 C 
HETATM    8  C9  UNL     1     -33.518  18.796  -4.957  1.00 20.00     0.010 C 
ENDROOT
BRANCH   4   9
HETATM    9  C1  UNL     1     -34.821  13.999  -5.008  1.00 20.00     0.130 C 
HETATM   10  O12 UNL     1     -34.608  12.801  -4.825  1.00 20.00    -0.298 OA
BRANCH   9  11
HETATM   11  C11 UNL     1     -35.794  14.511  -6.052  1.00 20.00     0.074 C 
HETATM   12  C10 UNL     1     -35.298  14.297  -7.470  1.00 20.00     0.013 C 
ENDBRANCH   9  11
ENDBRANCH   4   9
TORSDOF 2
ENDMDL
MODEL 7
REMARK VINA RESULT:      -4.5      1.903      4.677
REMARK  2 active torsions:
REMARK  status: ('A' for Active; 'I' for Inactive)
REMARK    1  A    between atoms: C1_1  and  C5_5 
REMARK    2  A    between atoms: C1_1  and  C11_11 
ROOT
HETATM    1  C2  UNL     1     -33.493  16.551  -4.645  1.00 20.00     0.012 C 
HETATM    2  C3  UNL     1     -33.622  17.928  -4.004  1.00 20.00     0.005 C 
HETATM    3  C4  UNL     1     -34.600  15.510  -2.634  1.00 20.00     0.016 C 
HETATM    4  C5  UNL     1     -34.589  15.607  -4.159  1.00 20.00     0.056 C 
HETATM    5  C6  UNL     1     -33.628  17.851  -2.468  1.00 20.00    -0.015 C 
HETATM    6  C7  UNL     1     -34.738  16.892  -1.972  1.00 20.00    -0.014 C 
HETATM    7  C8  UNL     1     -33.771  19.263  -1.891  1.00 20.00     0.010 C 
HETATM    8  C9  UNL     1     -34.732  16.726  -0.449  1.00 20.00     0.010 C 
ENDROOT
BRANCH   4   9
HETATM    9  C1  UNL     1     -34.381  14.243  -4.741  1.00 20.00     0.130 C 
HETATM   10  O12 UNL     1     -33.642  13.426  -4.193  1.00 20.00    -0.298 OA
BRANCH   9  11
HETATM   11  C11 UNL     1     -35.128  13.943  -6.027  1.00 20.00     0.074 C 
HETATM   12  C10 UNL     1     -34.567  14.697  -7.219  1.00 20.00     0.013 C 
ENDBRANCH   9  11
ENDBRANCH   4   9
TORSDOF 2
ENDMDL
MODEL 8
REMARK VINA RESULT:      -4.3      1.608      1.720
REMARK  2 active torsions:
REMARK  status: ('A' for Active; 'I' for Inactive)
REMARK    1  A    between atoms: C1_1  and  C5_5 
REMARK    2  A    between atoms: C1_1  and  C11_11 
ROOT
HETATM    1  C2  UNL     1     -36.345  16.856  -3.783  1.00 20.00     0.012 C 
HETATM    2  C3  UNL     1     -35.988  16.244  -5.132  1.00 20.00     0.005 C 
HETATM    3  C4  UNL     1     -34.469  15.567  -2.700  1.00 20.00     0.016 C 
HETATM    4  C5  UNL     1     -35.125  16.937  -2.869  1.00 20.00     0.056 C 
HETATM    5  C6  UNL     1     -35.331  14.861  -4.983  1.00 20.00    -0.015 C 
HETATM    6  C7  UNL     1     -34.095  14.938  -4.054  1.00 20.00    -0.014 C 
HETATM    7  C8  UNL     1     -34.990  14.310  -6.370  1.00 20.00     0.010 C 
HETATM    8  C9  UNL     1     -33.454  13.568  -3.816  1.00 20.00     0.010 C 
ENDROOT
BRANCH   4   9
HETATM    9  C1  UNL     1     -35.529  17.462  -1.526  1.00 20.00     0.130 C 
HETATM   10  O12 UNL     1     -36.478  18.236  -1.407  1.00 20.00    -0.298 OA
BRANCH   9  11
HETATM   11  C11 UNL     1     -34.704  16.984  -0.346  1.00 20.00     0.074 C 
HETATM   12  C10 UNL     1     -33.879  18.093   0.279  1.00 20.00     0.013 C 
ENDBRANCH   9  11
ENDBRANCH   4   9
TORSDOF 2
ENDMDL
MODEL 9
REMARK VINA RESULT:      -4.3      3.059      4.839
REMARK  2 active torsions:
REMARK  status: ('A' for Active; 'I' for Inactive)
REMARK    1  A    between atoms: C1_1  and  C5_5 
REMARK    2  A    between atoms: C1_1  and  C11_11 
ROOT
HETATM    1  C2  UNL     1     -35.838  13.795  -4.807  1.00 20.00     0.012 C 
HETATM    2  C3  UNL     1     -34.320  13.926  -4.771  1.00 20.00     0.005 C 
HETATM    3  C4  UNL     1     -36.046  15.745  -3.224  1.00 20.00     0.016 C 
HETATM    4  C5  UNL     1     -36.518  15.135  -4.543  1.00 20.00     0.056 C 
HETATM    5  C6  UNL     1     -33.825  14.533  -3.447  1.00 20.00    -0.015 C 
HETATM    6  C7  UNL     1     -34.515  15.892  -3.174  1.00 20.00    -0.014 C 
HETATM    7  C8  UNL     1     -32.298  14.646  -3.481  1.00 20.00     0.010 C 
HETATM    8  C9  UNL     1     -34.107  16.496  -1.827  1.00 20.00     0.010 C 
ENDROOT
BRANCH   4   9
HETATM    9  C1  UNL     1     -38.004  14.953  -4.501  1.00 20.00     0.130 C 
HETATM   10  O12 UNL     1     -38.529  14.220  -3.664  1.00 20.00    -0.298 OA
BRANCH   9  11
HETATM   11  C11 UNL     1     -38.801  15.717  -5.540  1.00 20.00     0.074 C 
HETATM   12  C10 UNL     1     -38.504  15.263  -6.957  1.00 20.00     0.013 C 
ENDBRANCH   9  11
ENDBRANCH   4   9
TORSDOF 2
ENDMDL
