MODEL 1
REMARK VINA RESULT:      -4.9      0.000      0.000
REMARK  0 active torsions:
REMARK  status: ('A' for Active; 'I' for Inactive)
ROOT
HETATM    1  C1  UNL     1     -31.921   8.372   1.765  1.00 20.00     0.088 C 
HETATM    2  C2  UNL     1     -32.754   6.943   3.517  1.00 20.00    -0.070 C 
HETATM    3  C3  UNL     1     -32.402   8.162   3.081  1.00 20.00     0.096 C 
HETATM    4  C4  UNL     1     -32.665   5.722   2.647  1.00 20.00     0.035 C 
HETATM    5  C5  UNL     1     -33.306   6.730   4.904  1.00 20.00     0.039 C 
HETATM    6  C6  UNL     1     -34.027   5.033   2.520  1.00 20.00     0.009 C 
HETATM    7  C7  UNL     1     -33.989   5.356   5.058  1.00 20.00    -0.011 C 
HETATM    8  C8  UNL     1     -34.858   4.998   3.828  1.00 20.00    -0.014 C 
HETATM    9  C9  UNL     1     -34.752   5.282   6.382  1.00 20.00     0.010 C 
HETATM   10  C10 UNL     1     -36.105   5.880   3.684  1.00 20.00     0.010 C 
HETATM   11  N11 UNL     1     -31.526   8.550   0.688  1.00 20.00    -0.192 NA
ENDROOT
TORSDOF 0
ENDMDL
MODEL 2
REMARK VINA RESULT:      -4.8     11.403     12.524
REMARK  0 active torsions:
REMARK  status: ('A' for Active; 'I' for Inactive)
ROOT
HETATM    1  C1  UNL     1     -33.296  16.113  -4.199  1.00 20.00     0.088 C 
HETATM    2  C2  UNL     1     -34.179  16.898  -2.099  1.00 20.00    -0.070 C 
HETATM    3  C3  UNL     1     -33.723  15.896  -2.865  1.00 20.00     0.096 C 
HETATM    4  C4  UNL     1     -34.268  18.313  -2.596  1.00 20.00     0.035 C 
HETATM    5  C5  UNL     1     -34.591  16.672  -0.667  1.00 20.00     0.039 C 
HETATM    6  C6  UNL     1     -33.458  19.263  -1.708  1.00 20.00     0.009 C 
HETATM    7  C7  UNL     1     -34.712  17.990   0.124  1.00 20.00    -0.011 C 
HETATM    8  C8  UNL     1     -33.550  18.965  -0.190  1.00 20.00    -0.014 C 
HETATM    9  C9  UNL     1     -34.878  17.707   1.618  1.00 20.00     0.010 C 
HETATM   10  C10 UNL     1     -32.192  18.483   0.335  1.00 20.00     0.010 C 
HETATM   11  N11 UNL     1     -32.945  16.284  -5.292  1.00 20.00    -0.192 NA
ENDROOT
TORSDOF 0
ENDMDL
MODEL 3
REMARK VINA RESULT:      -4.7     11.007     12.374
REMARK  0 active torsions:
REMARK  status: ('A' for Active; 'I' for Inactive)
ROOT
HETATM    1  C1  UNL     1     -34.365  16.870  -1.081  1.00 20.00     0.088 C 
HETATM    2  C2  UNL     1     -34.617  16.407  -3.432  1.00 20.00    -0.070 C 
HETATM    3  C3  UNL     1     -33.844  16.760  -2.394  1.00 20.00     0.096 C 
HETATM    4  C4  UNL     1     -36.080  16.105  -3.278  1.00 20.00     0.035 C 
HETATM    5  C5  UNL     1     -34.050  16.249  -4.820  1.00 20.00     0.039 C 
HETATM    6  C6  UNL     1     -36.408  14.693  -3.771  1.00 20.00     0.009 C 
HETATM    7  C7  UNL     1     -35.004  15.485  -5.759  1.00 20.00    -0.011 C 
HETATM    8  C8  UNL     1     -35.657  14.268  -5.059  1.00 20.00    -0.014 C 
HETATM    9  C9  UNL     1     -34.296  15.124  -7.066  1.00 20.00     0.010 C 
HETATM   10  C10 UNL     1     -34.664  13.142  -4.742  1.00 20.00     0.010 C 
HETATM   11  N11 UNL     1     -34.786  16.961  -0.003  1.00 20.00    -0.192 NA
ENDROOT
TORSDOF 0
ENDMDL
MODEL 4
REMARK VINA RESULT:      -4.7     11.322     13.082
REMARK  0 active torsions:
REMARK  status: ('A' for Active; 'I' for Inactive)
ROOT
HETATM    1  C1  UNL     1     -34.752  16.242  -1.616  1.00 20.00     0.088 C 
HETATM    2  C2  UNL     1     -34.663  15.383  -3.866  1.00 20.00    -0.070 C 
HETATM    3  C3  UNL     1     -35.309  15.517  -2.698  1.00 20.00     0.096 C 
HETATM    4  C4  UNL     1     -33.310  15.991  -4.109  1.00 20.00     0.035 C 
HETATM    5  C5  UNL     1     -35.278  14.648  -5.029  1.00 20.00     0.039 C 
HETATM    6  C6  UNL     1     -33.338  16.936  -5.314  1.00 20.00     0.009 C 
HETATM    7  C7  UNL     1     -34.551  14.939  -6.357  1.00 20.00    -0.011 C 
HETATM    8  C8  UNL     1     -34.193  16.438  -6.507  1.00 20.00    -0.014 C 
HETATM    9  C9  UNL     1     -35.351  14.387  -7.539  1.00 20.00     0.010 C 
HETATM   10  C10 UNL     1     -35.419  17.343  -6.689  1.00 20.00     0.010 C 
HETATM   11  N11 UNL     1     -34.300  16.835  -0.727  1.00 20.00    -0.192 NA
ENDROOT
TORSDOF 0
ENDMDL
MODEL 5
REMARK VINA RESULT:      -4.6     10.893     12.321
REMARK  0 active torsions:
REMARK  status: ('A' for Active; 'I' for Inactive)
ROOT
HETATM    1  C1  UNL     1     -35.431  13.608  -4.229  1.00 20.00     0.088 C 
HETATM    2  C2  UNL     1     -35.682  15.886  -3.486  1.00 20.00    -0.070 C 
HETATM    3  C3  UNL     1     -36.216  14.683  -3.743  1.00 20.00     0.096 C 
HETATM    4  C4  UNL     1     -34.223  16.179  -3.693  1.00 20.00     0.035 C 
HETATM    5  C5  UNL     1     -36.511  17.014  -2.927  1.00 20.00     0.039 C 
HETATM    6  C6  UNL     1     -33.566  16.660  -2.395  1.00 20.00     0.009 C 
HETATM    7  C7  UNL     1     -35.643  18.155  -2.359  1.00 20.00    -0.011 C 
HETATM    8  C8  UNL     1     -34.439  17.619  -1.546  1.00 20.00    -0.014 C 
HETATM    9  C9  UNL     1     -36.506  19.149  -1.580  1.00 20.00     0.010 C 
HETATM   10  C10 UNL     1     -34.845  16.937  -0.233  1.00 20.00     0.010 C 
HETATM   11  N11 UNL     1     -34.793  12.724  -4.627  1.00 20.00    -0.192 NA
ENDROOT
TORSDOF 0
ENDMDL
MODEL 6
REMARK VINA RESULT:      -4.5      8.861     10.403
REMARK  0 active torsions:
REMARK  status: ('A' for Active; 'I' for Inactive)
ROOT
HETATM    1  C1  UNL     1     -42.538   8.021  -4.198  1.00 20.00     0.088 C 
HETATM    2  C2  UNL     1     -42.848   6.873  -2.103  1.00 20.00    -0.070 C 
HETATM    3  C3  UNL     1     -43.097   6.980  -3.416  1.00 20.00     0.096 C 
HETATM    4  C4  UNL     1     -41.962   7.842  -1.371  1.00 20.00     0.035 C 
HETATM    5  C5  UNL     1     -43.410   5.740  -1.283  1.00 20.00     0.039 C 
HETATM    6  C6  UNL     1     -40.797   7.119  -0.691  1.00 20.00     0.009 C 
HETATM    7  C7  UNL     1     -42.703   5.596   0.080  1.00 20.00    -0.011 C 
HETATM    8  C8  UNL     1     -41.168   5.762  -0.041  1.00 20.00    -0.014 C 
HETATM    9  C9  UNL     1     -43.120   4.294   0.766  1.00 20.00     0.010 C 
HETATM   10  C10 UNL     1     -40.489   4.612  -0.796  1.00 20.00     0.010 C 
HETATM   11  N11 UNL     1     -42.082   8.871  -4.844  1.00 20.00    -0.192 NA
ENDROOT
TORSDOF 0
ENDMDL
MODEL 7
REMARK VINA RESULT:      -4.5     11.187     12.402
REMARK  0 active torsions:
REMARK  status: ('A' for Active; 'I' for Inactive)
ROOT
HETATM    1  C1  UNL     1     -37.209  18.157  -2.184  1.00 20.00     0.088 C 
HETATM    2  C2  UNL     1     -36.038  16.144  -2.798  1.00 20.00    -0.070 C 
HETATM    3  C3  UNL     1     -37.059  16.994  -2.978  1.00 20.00     0.096 C 
HETATM    4  C4  UNL     1     -34.985  16.363  -1.748  1.00 20.00     0.035 C 
HETATM    5  C5  UNL     1     -35.857  14.930  -3.674  1.00 20.00     0.039 C 
HETATM    6  C6  UNL     1     -33.588  16.425  -2.372  1.00 20.00     0.009 C 
HETATM    7  C7  UNL     1     -34.446  14.321  -3.549  1.00 20.00    -0.011 C 
HETATM    8  C8  UNL     1     -33.345  15.409  -3.516  1.00 20.00    -0.014 C 
HETATM    9  C9  UNL     1     -34.221  13.262  -4.629  1.00 20.00     0.010 C 
HETATM   10  C10 UNL     1     -33.179  16.148  -4.851  1.00 20.00     0.010 C 
HETATM   11  N11 UNL     1     -37.337  19.112  -1.536  1.00 20.00    -0.192 NA
ENDROOT
TORSDOF 0
ENDMDL
MODEL 8
REMARK VINA RESULT:      -4.5     10.688     12.638
REMARK  0 active torsions:
REMARK  status: ('A' for Active; 'I' for Inactive)
ROOT
HETATM    1  C1  UNL     1     -34.333  13.440  -4.231  1.00 20.00     0.088 C 
HETATM    2  C2  UNL     1     -34.330  15.534  -3.040  1.00 20.00    -0.070 C 
HETATM    3  C3  UNL     1     -33.710  14.398  -3.394  1.00 20.00     0.096 C 
HETATM    4  C4  UNL     1     -35.719  15.870  -3.503  1.00 20.00     0.035 C 
HETATM    5  C5  UNL     1     -33.648  16.571  -2.184  1.00 20.00     0.039 C 
HETATM    6  C6  UNL     1     -35.742  17.203  -4.256  1.00 20.00     0.009 C 
HETATM    7  C7  UNL     1     -34.375  17.930  -2.219  1.00 20.00    -0.011 C 
HETATM    8  C8  UNL     1     -34.838  18.305  -3.648  1.00 20.00    -0.014 C 
HETATM    9  C9  UNL     1     -33.522  19.012  -1.555  1.00 20.00     0.010 C 
HETATM   10  C10 UNL     1     -33.677  18.619  -4.602  1.00 20.00     0.010 C 
HETATM   11  N11 UNL     1     -34.838  12.651  -4.917  1.00 20.00    -0.192 NA
ENDROOT
TORSDOF 0
ENDMDL
MODEL 9
REMARK VINA RESULT:      -4.4      9.399     10.908
REMARK  0 active torsions:
REMARK  status: ('A' for Active; 'I' for Inactive)
ROOT
HETATM    1  C1  UNL     1     -42.360   2.380  -3.275  1.00 20.00     0.088 C 
HETATM    2  C2  UNL     1     -42.306   4.633  -2.422  1.00 20.00    -0.070 C 
HETATM    3  C3  UNL     1     -42.897   3.686  -3.167  1.00 20.00     0.096 C 
HETATM    4  C4  UNL     1     -41.040   4.377  -1.655  1.00 20.00     0.035 C 
HETATM    5  C5  UNL     1     -42.904   6.008  -2.274  1.00 20.00     0.039 C 
HETATM    6  C6  UNL     1     -41.233   4.657  -0.162  1.00 20.00     0.009 C 
HETATM    7  C7  UNL     1     -42.287   6.793  -1.099  1.00 20.00    -0.011 C 
HETATM    8  C8  UNL     1     -42.096   5.905   0.156  1.00 20.00    -0.014 C 
HETATM    9  C9  UNL     1     -43.088   8.066  -0.823  1.00 20.00     0.010 C 
HETATM   10  C10 UNL     1     -43.417   5.479   0.808  1.00 20.00     0.010 C 
HETATM   11  N11 UNL     1     -41.924   1.308  -3.368  1.00 20.00    -0.192 NA
ENDROOT
TORSDOF 0
ENDMDL
