MODEL 1
REMARK VINA RESULT:      -3.8      0.000      0.000
REMARK  3 active torsions:
REMARK  status: ('A' for Active; 'I' for Inactive)
REMARK    1  A    between atoms: C6_6  and  C7_7 
REMARK    2  A    between atoms: C6_6  and  C8_8 
REMARK    3  A    between atoms: C7_7  and  C9_9 
ROOT
HETATM    1  C1  UNL     1     -34.429  16.559  -1.343  1.00 20.00     0.011 C 
HETATM    2  C7  UNL     1     -34.270  16.111  -2.807  1.00 20.00    -0.010 C 
ENDROOT
BRANCH   2   3
HETATM    3  C6  UNL     1     -35.313  15.008  -3.147  1.00 20.00     0.024 C 
BRANCH   3   4
HETATM    4  C8  UNL     1     -34.793  13.785  -3.925  1.00 20.00     0.078 C 
HETATM    5  C2  UNL     1     -33.291  13.609  -3.718  1.00 20.00     0.026 C 
HETATM    6 CL10 UNL     1     -35.114  13.949  -5.677  1.00 20.00    -0.125 Cl
ENDBRANCH   3   4
ENDBRANCH   2   3
BRANCH   2   7
HETATM    7  C9  UNL     1     -34.289  17.319  -3.824  1.00 20.00    -0.048 C 
HETATM    8  C3  UNL     1     -33.372  17.082  -5.038  1.00 20.00     0.015 C 
HETATM    9  C4  UNL     1     -35.724  17.559  -4.345  1.00 20.00     0.015 C 
HETATM   10  C5  UNL     1     -33.842  18.625  -3.129  1.00 20.00     0.015 C 
ENDBRANCH   2   7
TORSDOF 3
ENDMDL
MODEL 2
REMARK VINA RESULT:      -3.8      2.181      3.417
REMARK  3 active torsions:
REMARK  status: ('A' for Active; 'I' for Inactive)
REMARK    1  A    between atoms: C6_6  and  C7_7 
REMARK    2  A    between atoms: C6_6  and  C8_8 
REMARK    3  A    between atoms: C7_7  and  C9_9 
ROOT
HETATM    1  C1  UNL     1     -32.838  14.780  -3.541  1.00 20.00     0.011 C 
HETATM    2  C7  UNL     1     -34.368  14.827  -3.709  1.00 20.00    -0.010 C 
ENDROOT
BRANCH   2   3
HETATM    3  C6  UNL     1     -35.011  15.645  -2.552  1.00 20.00     0.024 C 
BRANCH   3   4
HETATM    4  C8  UNL     1     -34.086  16.627  -1.808  1.00 20.00     0.078 C 
HETATM    5  C2  UNL     1     -34.633  16.937  -0.417  1.00 20.00     0.026 C 
HETATM    6 CL10 UNL     1     -33.911  18.160  -2.710  1.00 20.00    -0.125 Cl
ENDBRANCH   3   4
ENDBRANCH   2   3
BRANCH   2   7
HETATM    7  C9  UNL     1     -34.811  15.324  -5.142  1.00 20.00    -0.048 C 
HETATM    8  C3  UNL     1     -33.758  16.235  -5.801  1.00 20.00     0.015 C 
HETATM    9  C4  UNL     1     -35.056  14.118  -6.077  1.00 20.00     0.015 C 
HETATM   10  C5  UNL     1     -36.142  16.105  -5.062  1.00 20.00     0.015 C 
ENDBRANCH   2   7
TORSDOF 3
ENDMDL
MODEL 3
REMARK VINA RESULT:      -3.8      2.175      3.349
REMARK  3 active torsions:
REMARK  status: ('A' for Active; 'I' for Inactive)
REMARK    1  A    between atoms: C6_6  and  C7_7 
REMARK    2  A    between atoms: C6_6  and  C8_8 
REMARK    3  A    between atoms: C7_7  and  C9_9 
ROOT
HETATM    1  C1  UNL     1     -32.802  14.794  -3.538  1.00 20.00     0.011 C 
HETATM    2  C7  UNL     1     -34.331  14.833  -3.710  1.00 20.00    -0.010 C 
ENDROOT
BRANCH   2   3
HETATM    3  C6  UNL     1     -34.982  15.636  -2.546  1.00 20.00     0.024 C 
BRANCH   3   4
HETATM    4  C8  UNL     1     -34.067  16.621  -1.794  1.00 20.00     0.078 C 
HETATM    5  C2  UNL     1     -34.630  16.938  -0.412  1.00 20.00     0.026 C 
HETATM    6 CL10 UNL     1     -33.881  18.150  -2.702  1.00 20.00    -0.125 Cl
ENDBRANCH   3   4
ENDBRANCH   2   3
BRANCH   2   7
HETATM    7  C9  UNL     1     -34.775  15.341  -5.138  1.00 20.00    -0.048 C 
HETATM    8  C3  UNL     1     -35.057  14.183  -6.114  1.00 20.00     0.015 C 
HETATM    9  C4  UNL     1     -36.054  16.201  -5.029  1.00 20.00     0.015 C 
HETATM   10  C5  UNL     1     -33.683  16.241  -5.761  1.00 20.00     0.015 C 
ENDBRANCH   2   7
TORSDOF 3
ENDMDL
MODEL 4
REMARK VINA RESULT:      -3.8      2.171      3.615
REMARK  3 active torsions:
REMARK  status: ('A' for Active; 'I' for Inactive)
REMARK    1  A    between atoms: C6_6  and  C7_7 
REMARK    2  A    between atoms: C6_6  and  C8_8 
REMARK    3  A    between atoms: C7_7  and  C9_9 
ROOT
HETATM    1  C1  UNL     1     -32.872  14.775  -3.606  1.00 20.00     0.011 C 
HETATM    2  C7  UNL     1     -34.401  14.844  -3.771  1.00 20.00    -0.010 C 
ENDROOT
BRANCH   2   3
HETATM    3  C6  UNL     1     -35.033  15.644  -2.596  1.00 20.00     0.024 C 
BRANCH   3   4
HETATM    4  C8  UNL     1     -34.094  16.592  -1.827  1.00 20.00     0.078 C 
HETATM    5  C2  UNL     1     -34.651  16.900  -0.439  1.00 20.00     0.026 C 
HETATM    6 CL10 UNL     1     -33.867  18.132  -2.707  1.00 20.00    -0.125 Cl
ENDBRANCH   3   4
ENDBRANCH   2   3
BRANCH   2   7
HETATM    7  C9  UNL     1     -34.841  15.376  -5.192  1.00 20.00    -0.048 C 
HETATM    8  C3  UNL     1     -36.122  16.229  -5.131  1.00 20.00     0.015 C 
HETATM    9  C4  UNL     1     -33.719  16.238  -5.814  1.00 20.00     0.015 C 
HETATM   10  C5  UNL     1     -35.092  14.199  -6.163  1.00 20.00     0.015 C 
ENDBRANCH   2   7
TORSDOF 3
ENDMDL
MODEL 5
REMARK VINA RESULT:      -3.8      2.430      4.116
REMARK  3 active torsions:
REMARK  status: ('A' for Active; 'I' for Inactive)
REMARK    1  A    between atoms: C6_6  and  C7_7 
REMARK    2  A    between atoms: C6_6  and  C8_8 
REMARK    3  A    between atoms: C7_7  and  C9_9 
ROOT
HETATM    1  C1  UNL     1     -33.354  17.047  -5.218  1.00 20.00     0.011 C 
HETATM    2  C7  UNL     1     -33.622  16.210  -3.954  1.00 20.00    -0.010 C 
ENDROOT
BRANCH   2   3
HETATM    3  C6  UNL     1     -34.378  17.062  -2.895  1.00 20.00     0.024 C 
BRANCH   3   4
HETATM    4  C8  UNL     1     -33.752  17.127  -1.489  1.00 20.00     0.078 C 
HETATM    5  C2  UNL     1     -34.799  16.845  -0.415  1.00 20.00     0.026 C 
HETATM    6 CL10 UNL     1     -33.028  18.732  -1.177  1.00 20.00    -0.125 Cl
ENDBRANCH   3   4
ENDBRANCH   2   3
BRANCH   2   7
HETATM    7  C9  UNL     1     -34.334  14.835  -4.269  1.00 20.00    -0.048 C 
HETATM    8  C3  UNL     1     -35.726  14.730  -3.617  1.00 20.00     0.015 C 
HETATM    9  C4  UNL     1     -34.502  14.654  -5.794  1.00 20.00     0.015 C 
HETATM   10  C5  UNL     1     -33.477  13.649  -3.769  1.00 20.00     0.015 C 
ENDBRANCH   2   7
TORSDOF 3
ENDMDL
MODEL 6
REMARK VINA RESULT:      -3.7      2.599      3.958
REMARK  3 active torsions:
REMARK  status: ('A' for Active; 'I' for Inactive)
REMARK    1  A    between atoms: C6_6  and  C7_7 
REMARK    2  A    between atoms: C6_6  and  C8_8 
REMARK    3  A    between atoms: C7_7  and  C9_9 
ROOT
HETATM    1  C1  UNL     1     -36.684  15.140  -3.461  1.00 20.00     0.011 C 
HETATM    2  C7  UNL     1     -35.247  15.690  -3.409  1.00 20.00    -0.010 C 
ENDROOT
BRANCH   2   3
HETATM    3  C6  UNL     1     -34.791  15.865  -1.932  1.00 20.00     0.024 C 
BRANCH   3   4
HETATM    4  C8  UNL     1     -34.887  17.286  -1.346  1.00 20.00     0.078 C 
HETATM    5  C2  UNL     1     -33.671  18.119  -1.743  1.00 20.00     0.026 C 
HETATM    6 CL10 UNL     1     -34.996  17.244   0.438  1.00 20.00    -0.125 Cl
ENDBRANCH   3   4
ENDBRANCH   2   3
BRANCH   2   7
HETATM    7  C9  UNL     1     -34.234  14.841  -4.275  1.00 20.00    -0.048 C 
HETATM    8  C3  UNL     1     -32.799  14.887  -3.716  1.00 20.00     0.015 C 
HETATM    9  C4  UNL     1     -34.681  13.363  -4.330  1.00 20.00     0.015 C 
HETATM   10  C5  UNL     1     -34.200  15.353  -5.733  1.00 20.00     0.015 C 
ENDBRANCH   2   7
TORSDOF 3
ENDMDL
MODEL 7
REMARK VINA RESULT:      -3.7      2.448      3.755
REMARK  3 active torsions:
REMARK  status: ('A' for Active; 'I' for Inactive)
REMARK    1  A    between atoms: C6_6  and  C7_7 
REMARK    2  A    between atoms: C6_6  and  C8_8 
REMARK    3  A    between atoms: C7_7  and  C9_9 
ROOT
HETATM    1  C1  UNL     1     -34.483  15.000  -7.292  1.00 20.00     0.011 C 
HETATM    2  C7  UNL     1     -34.747  15.027  -5.775  1.00 20.00    -0.010 C 
ENDROOT
BRANCH   2   3
HETATM    3  C6  UNL     1     -33.665  15.883  -5.057  1.00 20.00     0.024 C 
BRANCH   3   4
HETATM    4  C8  UNL     1     -33.109  15.321  -3.735  1.00 20.00     0.078 C 
HETATM    5  C2  UNL     1     -33.271  13.804  -3.680  1.00 20.00     0.026 C 
HETATM    6 CL10 UNL     1     -33.943  16.039  -2.326  1.00 20.00    -0.125 Cl
ENDBRANCH   3   4
ENDBRANCH   2   3
BRANCH   2   7
HETATM    7  C9  UNL     1     -36.223  15.463  -5.417  1.00 20.00    -0.048 C 
HETATM    8  C3  UNL     1     -36.809  14.651  -4.247  1.00 20.00     0.015 C 
HETATM    9  C4  UNL     1     -36.262  16.959  -5.032  1.00 20.00     0.015 C 
HETATM   10  C5  UNL     1     -37.155  15.290  -6.638  1.00 20.00     0.015 C 
ENDBRANCH   2   7
TORSDOF 3
ENDMDL
MODEL 8
REMARK VINA RESULT:      -3.7      2.209      3.861
REMARK  3 active torsions:
REMARK  status: ('A' for Active; 'I' for Inactive)
REMARK    1  A    between atoms: C6_6  and  C7_7 
REMARK    2  A    between atoms: C6_6  and  C8_8 
REMARK    3  A    between atoms: C7_7  and  C9_9 
ROOT
HETATM    1  C1  UNL     1     -32.566  14.659  -3.561  1.00 20.00     0.011 C 
HETATM    2  C7  UNL     1     -33.936  15.310  -3.297  1.00 20.00    -0.010 C 
ENDROOT
BRANCH   2   3
HETATM    3  C6  UNL     1     -33.815  16.860  -3.364  1.00 20.00     0.024 C 
BRANCH   3   4
HETATM    4  C8  UNL     1     -34.366  17.646  -2.159  1.00 20.00     0.078 C 
HETATM    5  C2  UNL     1     -33.415  18.772  -1.766  1.00 20.00     0.026 C 
HETATM    6 CL10 UNL     1     -34.605  16.576  -0.746  1.00 20.00    -0.125 Cl
ENDBRANCH   3   4
ENDBRANCH   2   3
BRANCH   2   7
HETATM    7  C9  UNL     1     -35.077  14.735  -4.226  1.00 20.00    -0.048 C 
HETATM    8  C3  UNL     1     -34.876  13.243  -4.552  1.00 20.00     0.015 C 
HETATM    9  C4  UNL     1     -36.455  14.897  -3.546  1.00 20.00     0.015 C 
HETATM   10  C5  UNL     1     -35.142  15.515  -5.559  1.00 20.00     0.015 C 
ENDBRANCH   2   7
TORSDOF 3
ENDMDL
MODEL 9
REMARK VINA RESULT:      -3.6      2.340      3.671
REMARK  3 active torsions:
REMARK  status: ('A' for Active; 'I' for Inactive)
REMARK    1  A    between atoms: C6_6  and  C7_7 
REMARK    2  A    between atoms: C6_6  and  C8_8 
REMARK    3  A    between atoms: C7_7  and  C9_9 
ROOT
HETATM    1  C1  UNL     1     -36.358  15.285  -3.441  1.00 20.00     0.011 C 
HETATM    2  C7  UNL     1     -35.016  16.026  -3.298  1.00 20.00    -0.010 C 
ENDROOT
BRANCH   2   3
HETATM    3  C6  UNL     1     -34.504  15.931  -1.831  1.00 20.00     0.024 C 
BRANCH   3   4
HETATM    4  C8  UNL     1     -34.195  17.264  -1.124  1.00 20.00     0.078 C 
HETATM    5  C2  UNL     1     -34.933  17.355   0.209  1.00 20.00     0.026 C 
HETATM    6 CL10 UNL     1     -34.669  18.659  -2.138  1.00 20.00    -0.125 Cl
ENDBRANCH   3   4
ENDBRANCH   2   3
BRANCH   2   7
HETATM    7  C9  UNL     1     -33.944  15.562  -4.361  1.00 20.00    -0.048 C 
HETATM    8  C3  UNL     1     -34.532  14.599  -5.409  1.00 20.00     0.015 C 
HETATM    9  C4  UNL     1     -33.361  16.784  -5.105  1.00 20.00     0.015 C 
HETATM   10  C5  UNL     1     -32.758  14.854  -3.667  1.00 20.00     0.015 C 
ENDBRANCH   2   7
TORSDOF 3
ENDMDL
