MODEL 1
REMARK VINA RESULT:      -5.4      0.000      0.000
REMARK  1 active torsions:
REMARK  status: ('A' for Active; 'I' for Inactive)
REMARK    1  A    between atoms: C6_6  and  C8_8 
ROOT
HETATM    1  C1  UNL     1     -32.973   6.863   5.194  1.00 20.00     0.016 C 
HETATM    2  C2  UNL     1     -33.912   5.669   3.165  1.00 20.00     0.016 C 
HETATM    3  C3  UNL     1     -34.130   6.337   6.044  1.00 20.00     0.041 C 
HETATM    4  C4  UNL     1     -35.072   5.141   4.009  1.00 20.00     0.041 C 
HETATM    5  C5  UNL     1     -34.352   3.736   6.087  1.00 20.00     0.207 A 
HETATM    6  C6  UNL     1     -33.377   7.004   3.715  1.00 20.00     0.093 C 
HETATM    7  C7  UNL     1     -34.668   5.069   5.451  1.00 20.00     0.082 A 
HETATM    8  O9  UNL     1     -35.613   4.389   6.288  1.00 20.00    -0.375 OA
ENDROOT
BRANCH   6   9
HETATM    9  C8  UNL     1     -32.194   7.494   2.881  1.00 20.00     0.391 C 
HETATM   10  F10 UNL     1     -31.782   6.521   2.054  1.00 20.00    -0.171 F 
HETATM   11  F11 UNL     1     -32.555   8.561   2.154  1.00 20.00    -0.171 F 
HETATM   12  F12 UNL     1     -31.178   7.839   3.685  1.00 20.00    -0.171 F 
ENDBRANCH   6   9
TORSDOF 1
ENDMDL
MODEL 2
REMARK VINA RESULT:      -5.4      0.009      1.093
REMARK  1 active torsions:
REMARK  status: ('A' for Active; 'I' for Inactive)
REMARK    1  A    between atoms: C6_6  and  C8_8 
ROOT
HETATM    1  C1  UNL     1     -32.974   6.860   5.203  1.00 20.00     0.016 C 
HETATM    2  C2  UNL     1     -33.908   5.665   3.173  1.00 20.00     0.016 C 
HETATM    3  C3  UNL     1     -34.131   6.334   6.051  1.00 20.00     0.041 C 
HETATM    4  C4  UNL     1     -35.069   5.136   4.015  1.00 20.00     0.041 C 
HETATM    5  C5  UNL     1     -34.351   3.733   6.095  1.00 20.00     0.207 A 
HETATM    6  C6  UNL     1     -33.374   7.001   3.723  1.00 20.00     0.093 C 
HETATM    7  C7  UNL     1     -34.667   5.065   5.457  1.00 20.00     0.082 A 
HETATM    8  O9  UNL     1     -35.613   4.385   6.293  1.00 20.00    -0.375 OA
ENDROOT
BRANCH   6   9
HETATM    9  C8  UNL     1     -32.191   7.491   2.891  1.00 20.00     0.391 C 
HETATM   10  F10 UNL     1     -32.551   8.562   2.167  1.00 20.00    -0.171 F 
HETATM   11  F11 UNL     1     -31.173   7.831   3.694  1.00 20.00    -0.171 F 
HETATM   12  F12 UNL     1     -31.783   6.521   2.058  1.00 20.00    -0.171 F 
ENDBRANCH   6   9
TORSDOF 1
ENDMDL
MODEL 3
REMARK VINA RESULT:      -5.1     11.654     12.314
REMARK  1 active torsions:
REMARK  status: ('A' for Active; 'I' for Inactive)
REMARK    1  A    between atoms: C6_6  and  C8_8 
ROOT
HETATM    1  C1  UNL     1     -33.453  15.286  -3.054  1.00 20.00     0.016 C 
HETATM    2  C2  UNL     1     -35.972  15.565  -3.067  1.00 20.00     0.016 C 
HETATM    3  C3  UNL     1     -33.588  13.995  -3.861  1.00 20.00     0.041 C 
HETATM    4  C4  UNL     1     -36.114  14.274  -3.874  1.00 20.00     0.041 C 
HETATM    5  C5  UNL     1     -34.826  14.265  -6.144  1.00 20.00     0.207 A 
HETATM    6  C6  UNL     1     -34.703  15.548  -2.194  1.00 20.00     0.093 C 
HETATM    7  C7  UNL     1     -34.860  14.016  -4.654  1.00 20.00     0.082 A 
HETATM    8  O9  UNL     1     -34.974  12.945  -5.602  1.00 20.00    -0.375 OA
ENDROOT
BRANCH   6   9
HETATM    9  C8  UNL     1     -34.561  16.862  -1.427  1.00 20.00     0.391 C 
HETATM   10  F10 UNL     1     -34.840  16.668  -0.129  1.00 20.00    -0.171 F 
HETATM   11  F11 UNL     1     -33.309  17.327  -1.540  1.00 20.00    -0.171 F 
HETATM   12  F12 UNL     1     -35.411  17.775  -1.922  1.00 20.00    -0.171 F 
ENDBRANCH   6   9
TORSDOF 1
ENDMDL
MODEL 4
REMARK VINA RESULT:      -4.9     11.904     13.030
REMARK  1 active torsions:
REMARK  status: ('A' for Active; 'I' for Inactive)
REMARK    1  A    between atoms: C6_6  and  C8_8 
ROOT
HETATM    1  C1  UNL     1     -33.664  17.100  -3.798  1.00 20.00     0.016 C 
HETATM    2  C2  UNL     1     -34.902  15.121  -2.810  1.00 20.00     0.016 C 
HETATM    3  C3  UNL     1     -33.373  16.291  -5.062  1.00 20.00     0.041 C 
HETATM    4  C4  UNL     1     -34.613  14.307  -4.071  1.00 20.00     0.041 C 
HETATM    5  C5  UNL     1     -35.493  15.379  -6.282  1.00 20.00     0.207 A 
HETATM    6  C6  UNL     1     -33.818  16.189  -2.567  1.00 20.00     0.093 C 
HETATM    7  C7  UNL     1     -34.411  15.224  -5.240  1.00 20.00     0.082 A 
HETATM    8  O9  UNL     1     -34.344  14.550  -6.504  1.00 20.00    -0.375 OA
ENDROOT
BRANCH   6   9
HETATM    9  C8  UNL     1     -34.147  17.015  -1.325  1.00 20.00     0.391 C 
HETATM   10  F10 UNL     1     -33.019  17.503  -0.786  1.00 20.00    -0.171 F 
HETATM   11  F11 UNL     1     -34.950  18.037  -1.653  1.00 20.00    -0.171 F 
HETATM   12  F12 UNL     1     -34.767  16.249  -0.416  1.00 20.00    -0.171 F 
ENDBRANCH   6   9
TORSDOF 1
ENDMDL
MODEL 5
REMARK VINA RESULT:      -4.8      3.452      4.530
REMARK  1 active torsions:
REMARK  status: ('A' for Active; 'I' for Inactive)
REMARK    1  A    between atoms: C6_6  and  C8_8 
ROOT
HETATM    1  C1  UNL     1     -33.481   6.767   4.990  1.00 20.00     0.016 C 
HETATM    2  C2  UNL     1     -33.973   5.372   2.932  1.00 20.00     0.016 C 
HETATM    3  C3  UNL     1     -32.231   7.331   4.314  1.00 20.00     0.041 C 
HETATM    4  C4  UNL     1     -32.724   5.931   2.250  1.00 20.00     0.041 C 
HETATM    5  C5  UNL     1     -32.674   8.532   2.039  1.00 20.00     0.207 A 
HETATM    6  C6  UNL     1     -33.822   5.361   4.465  1.00 20.00     0.093 C 
HETATM    7  C7  UNL     1     -32.383   7.274   2.823  1.00 20.00     0.082 A 
HETATM    8  O9  UNL     1     -31.356   7.970   2.105  1.00 20.00    -0.375 OA
ENDROOT
BRANCH   6   9
HETATM    9  C8  UNL     1     -35.095   4.836   5.126  1.00 20.00     0.391 C 
HETATM   10  F10 UNL     1     -35.253   5.401   6.333  1.00 20.00    -0.171 F 
HETATM   11  F11 UNL     1     -36.161   5.126   4.366  1.00 20.00    -0.171 F 
HETATM   12  F12 UNL     1     -35.018   3.505   5.277  1.00 20.00    -0.171 F 
ENDBRANCH   6   9
TORSDOF 1
ENDMDL
MODEL 6
REMARK VINA RESULT:      -4.7     12.041     13.253
REMARK  1 active torsions:
REMARK  status: ('A' for Active; 'I' for Inactive)
REMARK    1  A    between atoms: C6_6  and  C8_8 
ROOT
HETATM    1  C1  UNL     1     -34.572  15.206  -2.967  1.00 20.00     0.016 C 
HETATM    2  C2  UNL     1     -34.179  16.035  -5.330  1.00 20.00     0.016 C 
HETATM    3  C3  UNL     1     -33.846  16.431  -2.412  1.00 20.00     0.041 C 
HETATM    4  C4  UNL     1     -33.452  17.263  -4.781  1.00 20.00     0.041 C 
HETATM    5  C5  UNL     1     -34.866  18.721  -3.142  1.00 20.00     0.207 A 
HETATM    6  C6  UNL     1     -34.062  14.835  -4.371  1.00 20.00     0.093 C 
HETATM    7  C7  UNL     1     -33.928  17.564  -3.392  1.00 20.00     0.082 A 
HETATM    8  O9  UNL     1     -33.460  18.817  -2.874  1.00 20.00    -0.375 OA
ENDROOT
BRANCH   6   9
HETATM    9  C8  UNL     1     -34.827  13.633  -4.921  1.00 20.00     0.391 C 
HETATM   10  F10 UNL     1     -34.022  12.561  -4.974  1.00 20.00    -0.171 F 
HETATM   11  F11 UNL     1     -35.873  13.354  -4.130  1.00 20.00    -0.171 F 
HETATM   12  F12 UNL     1     -35.275  13.900  -6.156  1.00 20.00    -0.171 F 
ENDBRANCH   6   9
TORSDOF 1
ENDMDL
MODEL 7
REMARK VINA RESULT:      -4.7     12.497     13.913
REMARK  1 active torsions:
REMARK  status: ('A' for Active; 'I' for Inactive)
REMARK    1  A    between atoms: C6_6  and  C8_8 
ROOT
HETATM    1  C1  UNL     1     -34.589  16.170  -6.332  1.00 20.00     0.016 C 
HETATM    2  C2  UNL     1     -33.499  16.367  -4.052  1.00 20.00     0.016 C 
HETATM    3  C3  UNL     1     -34.437  14.650  -6.277  1.00 20.00     0.041 C 
HETATM    4  C4  UNL     1     -33.344  14.847  -3.992  1.00 20.00     0.041 C 
HETATM    5  C5  UNL     1     -35.578  13.517  -4.220  1.00 20.00     0.207 A 
HETATM    6  C6  UNL     1     -33.499  16.877  -5.506  1.00 20.00     0.093 C 
HETATM    7  C7  UNL     1     -34.382  14.190  -4.851  1.00 20.00     0.082 A 
HETATM    8  O9  UNL     1     -34.451  12.766  -4.695  1.00 20.00    -0.375 OA
ENDROOT
BRANCH   6   9
HETATM    9  C8  UNL     1     -33.694  18.391  -5.544  1.00 20.00     0.391 C 
HETATM   10  F10 UNL     1     -33.271  18.880  -6.720  1.00 20.00    -0.171 F 
HETATM   11  F11 UNL     1     -34.992  18.692  -5.388  1.00 20.00    -0.171 F 
HETATM   12  F12 UNL     1     -32.993  18.969  -4.557  1.00 20.00    -0.171 F 
ENDBRANCH   6   9
TORSDOF 1
ENDMDL
MODEL 8
REMARK VINA RESULT:      -4.6     11.744     12.318
REMARK  1 active torsions:
REMARK  status: ('A' for Active; 'I' for Inactive)
REMARK    1  A    between atoms: C6_6  and  C8_8 
ROOT
HETATM    1  C1  UNL     1     -33.399  15.497  -3.235  1.00 20.00     0.016 C 
HETATM    2  C2  UNL     1     -35.916  15.207  -3.202  1.00 20.00     0.016 C 
HETATM    3  C3  UNL     1     -33.548  16.895  -2.634  1.00 20.00     0.041 C 
HETATM    4  C4  UNL     1     -36.072  16.604  -2.601  1.00 20.00     0.041 C 
HETATM    5  C5  UNL     1     -34.806  16.965  -0.347  1.00 20.00     0.207 A 
HETATM    6  C6  UNL     1     -34.639  15.100  -4.056  1.00 20.00     0.093 C 
HETATM    7  C7  UNL     1     -34.828  16.986  -1.858  1.00 20.00     0.082 A 
HETATM    8  O9  UNL     1     -34.956  18.187  -1.085  1.00 20.00    -0.375 OA
ENDROOT
BRANCH   6   9
HETATM    9  C8  UNL     1     -34.483  13.686  -4.614  1.00 20.00     0.391 C 
HETATM   10  F10 UNL     1     -34.506  13.717  -5.955  1.00 20.00    -0.171 F 
HETATM   11  F11 UNL     1     -33.318  13.159  -4.210  1.00 20.00    -0.171 F 
HETATM   12  F12 UNL     1     -35.486  12.909  -4.180  1.00 20.00    -0.171 F 
ENDBRANCH   6   9
TORSDOF 1
ENDMDL
MODEL 9
REMARK VINA RESULT:      -4.5     12.199     13.984
REMARK  1 active torsions:
REMARK  status: ('A' for Active; 'I' for Inactive)
REMARK    1  A    between atoms: C6_6  and  C8_8 
ROOT
HETATM    1  C1  UNL     1     -33.854  16.284  -4.541  1.00 20.00     0.016 C 
HETATM    2  C2  UNL     1     -34.783  14.487  -6.068  1.00 20.00     0.016 C 
HETATM    3  C3  UNL     1     -33.659  17.209  -5.742  1.00 20.00     0.041 C 
HETATM    4  C4  UNL     1     -34.590  15.407  -7.273  1.00 20.00     0.041 C 
HETATM    5  C5  UNL     1     -35.833  17.696  -7.103  1.00 20.00     0.207 A 
HETATM    6  C6  UNL     1     -33.772  14.802  -4.950  1.00 20.00     0.093 C 
HETATM    7  C7  UNL     1     -34.617  16.841  -6.835  1.00 20.00     0.082 A 
HETATM    8  O9  UNL     1     -34.655  17.780  -7.918  1.00 20.00    -0.375 OA
ENDROOT
BRANCH   6   9
HETATM    9  C8  UNL     1     -34.008  13.898  -3.741  1.00 20.00     0.391 C 
HETATM   10  F10 UNL     1     -34.365  14.636  -2.679  1.00 20.00    -0.171 F 
HETATM   11  F11 UNL     1     -34.983  13.018  -4.009  1.00 20.00    -0.171 F 
HETATM   12  F12 UNL     1     -32.885  13.226  -3.445  1.00 20.00    -0.171 F 
ENDBRANCH   6   9
TORSDOF 1
ENDMDL
