MODEL 1
REMARK VINA RESULT:      -5.1      0.000      0.000
REMARK  4 active torsions:
REMARK  status: ('A' for Active; 'I' for Inactive)
REMARK    1  A    between atoms: C2_2  and  C7_7 
REMARK    2  A    between atoms: C3_3  and  C8_8 
REMARK    3  A    between atoms: C7_7  and  C9_9 
REMARK    4  A    between atoms: C8_8  and  C9_9 
ROOT
HETATM    1  C1  UNL     1     -32.254   8.502   1.867  1.00 20.00    -0.111 C 
HETATM    2  C2  UNL     1     -32.197   7.490   2.512  1.00 20.00    -0.107 C 
HETATM    3  C4  UNL     1     -32.322   9.735   1.085  1.00 20.00     0.112 C 
ENDROOT
BRANCH   2   4
HETATM    4  C7  UNL     1     -32.127   6.248   3.297  1.00 20.00     0.098 C 
BRANCH   4   5
HETATM    5  C9  UNL     1     -33.500   5.584   3.527  1.00 20.00    -0.001 C 
HETATM    6  C6  UNL     1     -34.199   5.266   2.200  1.00 20.00     0.011 C 
BRANCH   5   7
HETATM    7  C8  UNL     1     -34.397   6.433   4.446  1.00 20.00     0.083 C 
BRANCH   7   8
HETATM    8  C3  UNL     1     -34.316   6.045   5.915  1.00 20.00     0.123 C 
HETATM    9  C5  UNL     1     -34.799   4.659   6.261  1.00 20.00     0.091 C 
HETATM   10  O10 UNL     1     -33.915   6.810   6.790  1.00 20.00    -0.298 OA
ENDBRANCH   7   8
ENDBRANCH   5   7
ENDBRANCH   4   5
ENDBRANCH   2   4
TORSDOF 4
ENDMDL
MODEL 2
REMARK VINA RESULT:      -4.8      0.789      1.092
REMARK  4 active torsions:
REMARK  status: ('A' for Active; 'I' for Inactive)
REMARK    1  A    between atoms: C2_2  and  C7_7 
REMARK    2  A    between atoms: C3_3  and  C8_8 
REMARK    3  A    between atoms: C7_7  and  C9_9 
REMARK    4  A    between atoms: C8_8  and  C9_9 
ROOT
HETATM    1  C1  UNL     1     -32.246   8.455   1.883  1.00 20.00    -0.111 C 
HETATM    2  C2  UNL     1     -32.201   7.457   2.550  1.00 20.00    -0.107 C 
HETATM    3  C4  UNL     1     -32.303   9.668   1.068  1.00 20.00     0.112 C 
ENDROOT
BRANCH   2   4
HETATM    4  C7  UNL     1     -32.145   6.239   3.373  1.00 20.00     0.098 C 
BRANCH   4   5
HETATM    5  C9  UNL     1     -33.521   5.584   3.603  1.00 20.00    -0.001 C 
HETATM    6  C6  UNL     1     -34.214   5.252   2.276  1.00 20.00     0.011 C 
BRANCH   5   7
HETATM    7  C8  UNL     1     -34.420   6.449   4.505  1.00 20.00     0.083 C 
BRANCH   7   8
HETATM    8  C3  UNL     1     -34.248   6.173   5.992  1.00 20.00     0.123 C 
HETATM    9  C5  UNL     1     -33.470   7.204   6.770  1.00 20.00     0.091 C 
HETATM   10  O10 UNL     1     -34.680   5.162   6.541  1.00 20.00    -0.298 OA
ENDBRANCH   7   8
ENDBRANCH   5   7
ENDBRANCH   4   5
ENDBRANCH   2   4
TORSDOF 4
ENDMDL
MODEL 3
REMARK VINA RESULT:      -4.5     10.944     11.815
REMARK  4 active torsions:
REMARK  status: ('A' for Active; 'I' for Inactive)
REMARK    1  A    between atoms: C2_2  and  C7_7 
REMARK    2  A    between atoms: C3_3  and  C8_8 
REMARK    3  A    between atoms: C7_7  and  C9_9 
REMARK    4  A    between atoms: C8_8  and  C9_9 
ROOT
HETATM    1  C1  UNL     1     -34.711  17.013  -0.342  1.00 20.00    -0.111 C 
HETATM    2  C2  UNL     1     -34.753  16.362  -1.349  1.00 20.00    -0.107 C 
HETATM    3  C4  UNL     1     -34.663  17.807   0.886  1.00 20.00     0.112 C 
ENDROOT
BRANCH   2   4
HETATM    4  C7  UNL     1     -34.798  15.562  -2.583  1.00 20.00     0.098 C 
BRANCH   4   5
HETATM    5  C9  UNL     1     -33.443  15.473  -3.313  1.00 20.00    -0.001 C 
HETATM    6  C6  UNL     1     -33.291  16.591  -4.352  1.00 20.00     0.011 C 
BRANCH   5   7
HETATM    7  C8  UNL     1     -33.225  14.086  -3.944  1.00 20.00     0.083 C 
BRANCH   7   8
HETATM    8  C3  UNL     1     -34.446  13.543  -4.674  1.00 20.00     0.123 C 
HETATM    9  C5  UNL     1     -34.788  14.214  -5.980  1.00 20.00     0.091 C 
HETATM   10  O10 UNL     1     -35.145  12.635  -4.228  1.00 20.00    -0.298 OA
ENDBRANCH   7   8
ENDBRANCH   5   7
ENDBRANCH   4   5
ENDBRANCH   2   4
TORSDOF 4
ENDMDL
MODEL 4
REMARK VINA RESULT:      -4.5      1.759      2.592
REMARK  4 active torsions:
REMARK  status: ('A' for Active; 'I' for Inactive)
REMARK    1  A    between atoms: C2_2  and  C7_7 
REMARK    2  A    between atoms: C3_3  and  C8_8 
REMARK    3  A    between atoms: C7_7  and  C9_9 
REMARK    4  A    between atoms: C8_8  and  C9_9 
ROOT
HETATM    1  C1  UNL     1     -32.233   7.834   2.429  1.00 20.00    -0.111 C 
HETATM    2  C2  UNL     1     -32.424   7.090   3.352  1.00 20.00    -0.107 C 
HETATM    3  C4  UNL     1     -31.997   8.740   1.306  1.00 20.00     0.112 C 
ENDROOT
BRANCH   2   4
HETATM    4  C7  UNL     1     -32.663   6.177   4.480  1.00 20.00     0.098 C 
BRANCH   4   5
HETATM    5  C9  UNL     1     -33.739   6.677   5.465  1.00 20.00    -0.001 C 
HETATM    6  C6  UNL     1     -33.113   7.425   6.648  1.00 20.00     0.011 C 
BRANCH   5   7
HETATM    7  C8  UNL     1     -34.650   5.532   5.943  1.00 20.00     0.083 C 
BRANCH   7   8
HETATM    8  C3  UNL     1     -35.180   4.656   4.817  1.00 20.00     0.123 C 
HETATM    9  C5  UNL     1     -35.821   5.380   3.661  1.00 20.00     0.091 C 
HETATM   10  O10 UNL     1     -35.130   3.428   4.843  1.00 20.00    -0.298 OA
ENDBRANCH   7   8
ENDBRANCH   5   7
ENDBRANCH   4   5
ENDBRANCH   2   4
TORSDOF 4
ENDMDL
MODEL 5
REMARK VINA RESULT:      -4.4     10.757     11.770
REMARK  4 active torsions:
REMARK  status: ('A' for Active; 'I' for Inactive)
REMARK    1  A    between atoms: C2_2  and  C7_7 
REMARK    2  A    between atoms: C3_3  and  C8_8 
REMARK    3  A    between atoms: C7_7  and  C9_9 
REMARK    4  A    between atoms: C8_8  and  C9_9 
ROOT
HETATM    1  C1  UNL     1     -34.674  16.920  -0.496  1.00 20.00    -0.111 C 
HETATM    2  C2  UNL     1     -34.282  16.489  -1.547  1.00 20.00    -0.107 C 
HETATM    3  C4  UNL     1     -35.152  17.443   0.783  1.00 20.00     0.112 C 
ENDROOT
BRANCH   2   4
HETATM    4  C7  UNL     1     -33.799  15.966  -2.834  1.00 20.00     0.098 C 
BRANCH   4   5
HETATM    5  C9  UNL     1     -34.574  14.727  -3.328  1.00 20.00    -0.001 C 
HETATM    6  C6  UNL     1     -33.623  13.645  -3.854  1.00 20.00     0.011 C 
BRANCH   5   7
HETATM    7  C8  UNL     1     -35.636  15.101  -4.378  1.00 20.00     0.083 C 
BRANCH   7   8
HETATM    8  C3  UNL     1     -37.053  15.157  -3.826  1.00 20.00     0.123 C 
HETATM    9  C5  UNL     1     -37.526  16.507  -3.351  1.00 20.00     0.091 C 
HETATM   10  O10 UNL     1     -37.776  14.166  -3.734  1.00 20.00    -0.298 OA
ENDBRANCH   7   8
ENDBRANCH   5   7
ENDBRANCH   4   5
ENDBRANCH   2   4
TORSDOF 4
ENDMDL
MODEL 6
REMARK VINA RESULT:      -4.1     11.349     12.086
REMARK  4 active torsions:
REMARK  status: ('A' for Active; 'I' for Inactive)
REMARK    1  A    between atoms: C2_2  and  C7_7 
REMARK    2  A    between atoms: C3_3  and  C8_8 
REMARK    3  A    between atoms: C7_7  and  C9_9 
REMARK    4  A    between atoms: C8_8  and  C9_9 
ROOT
HETATM    1  C1  UNL     1     -34.194  16.460  -1.665  1.00 20.00    -0.111 C 
HETATM    2  C2  UNL     1     -33.718  15.944  -2.640  1.00 20.00    -0.107 C 
HETATM    3  C4  UNL     1     -34.770  17.090  -0.478  1.00 20.00     0.112 C 
ENDROOT
BRANCH   2   4
HETATM    4  C7  UNL     1     -33.141  15.311  -3.835  1.00 20.00     0.098 C 
BRANCH   4   5
HETATM    5  C9  UNL     1     -33.781  15.785  -5.156  1.00 20.00    -0.001 C 
HETATM    6  C6  UNL     1     -34.517  17.118  -4.976  1.00 20.00     0.011 C 
BRANCH   5   7
HETATM    7  C8  UNL     1     -34.703  14.711  -5.761  1.00 20.00     0.083 C 
BRANCH   7   8
HETATM    8  C3  UNL     1     -35.364  13.813  -4.724  1.00 20.00     0.123 C 
HETATM    9  C5  UNL     1     -36.612  14.358  -4.077  1.00 20.00     0.091 C 
HETATM   10  O10 UNL     1     -34.907  12.720  -4.395  1.00 20.00    -0.298 OA
ENDBRANCH   7   8
ENDBRANCH   5   7
ENDBRANCH   4   5
ENDBRANCH   2   4
TORSDOF 4
ENDMDL
MODEL 7
REMARK VINA RESULT:      -4.1     10.970     12.329
REMARK  4 active torsions:
REMARK  status: ('A' for Active; 'I' for Inactive)
REMARK    1  A    between atoms: C2_2  and  C7_7 
REMARK    2  A    between atoms: C3_3  and  C8_8 
REMARK    3  A    between atoms: C7_7  and  C9_9 
REMARK    4  A    between atoms: C8_8  and  C9_9 
ROOT
HETATM    1  C1  UNL     1     -34.653  16.955  -0.463  1.00 20.00    -0.111 C 
HETATM    2  C2  UNL     1     -34.239  16.539  -1.511  1.00 20.00    -0.107 C 
HETATM    3  C4  UNL     1     -35.155  17.458   0.815  1.00 20.00     0.112 C 
ENDROOT
BRANCH   2   4
HETATM    4  C7  UNL     1     -33.734  16.037  -2.798  1.00 20.00     0.098 C 
BRANCH   4   5
HETATM    5  C9  UNL     1     -34.473  14.782  -3.305  1.00 20.00    -0.001 C 
HETATM    6  C6  UNL     1     -33.489  13.704  -3.777  1.00 20.00     0.011 C 
BRANCH   5   7
HETATM    7  C8  UNL     1     -35.496  15.127  -4.402  1.00 20.00     0.083 C 
BRANCH   7   8
HETATM    8  C3  UNL     1     -34.966  14.946  -5.817  1.00 20.00     0.123 C 
HETATM    9  C5  UNL     1     -34.146  16.084  -6.368  1.00 20.00     0.091 C 
HETATM   10  O10 UNL     1     -35.207  13.953  -6.501  1.00 20.00    -0.298 OA
ENDBRANCH   7   8
ENDBRANCH   5   7
ENDBRANCH   4   5
ENDBRANCH   2   4
TORSDOF 4
ENDMDL
MODEL 8
REMARK VINA RESULT:      -4.0      2.204      5.110
REMARK  4 active torsions:
REMARK  status: ('A' for Active; 'I' for Inactive)
REMARK    1  A    between atoms: C2_2  and  C7_7 
REMARK    2  A    between atoms: C3_3  and  C8_8 
REMARK    3  A    between atoms: C7_7  and  C9_9 
REMARK    4  A    between atoms: C8_8  and  C9_9 
ROOT
HETATM    1  C1  UNL     1     -34.591   5.102   5.264  1.00 20.00    -0.111 C 
HETATM    2  C2  UNL     1     -34.170   6.072   4.695  1.00 20.00    -0.107 C 
HETATM    3  C4  UNL     1     -35.107   3.921   5.955  1.00 20.00     0.112 C 
ENDROOT
BRANCH   2   4
HETATM    4  C7  UNL     1     -33.648   7.259   4.000  1.00 20.00     0.098 C 
BRANCH   4   5
HETATM    5  C9  UNL     1     -32.755   6.924   2.789  1.00 20.00    -0.001 C 
HETATM    6  C6  UNL     1     -32.041   5.579   2.973  1.00 20.00     0.011 C 
BRANCH   5   7
HETATM    7  C8  UNL     1     -31.754   8.055   2.489  1.00 20.00     0.083 C 
BRANCH   7   8
HETATM    8  C3  UNL     1     -32.289   9.114   1.536  1.00 20.00     0.123 C 
HETATM    9  C5  UNL     1     -32.262   8.760   0.070  1.00 20.00     0.091 C 
HETATM   10  O10 UNL     1     -32.694  10.212   1.913  1.00 20.00    -0.298 OA
ENDBRANCH   7   8
ENDBRANCH   5   7
ENDBRANCH   4   5
ENDBRANCH   2   4
TORSDOF 4
ENDMDL
MODEL 9
REMARK VINA RESULT:      -3.9     10.924     12.277
REMARK  4 active torsions:
REMARK  status: ('A' for Active; 'I' for Inactive)
REMARK    1  A    between atoms: C2_2  and  C7_7 
REMARK    2  A    between atoms: C3_3  and  C8_8 
REMARK    3  A    between atoms: C7_7  and  C9_9 
REMARK    4  A    between atoms: C8_8  and  C9_9 
ROOT
HETATM    1  C1  UNL     1     -33.455  17.168  -5.339  1.00 20.00    -0.111 C 
HETATM    2  C2  UNL     1     -33.298  16.224  -4.614  1.00 20.00    -0.107 C 
HETATM    3  C4  UNL     1     -33.650  18.318  -6.222  1.00 20.00     0.112 C 
ENDROOT
BRANCH   2   4
HETATM    4  C7  UNL     1     -33.099  15.069  -3.726  1.00 20.00     0.098 C 
BRANCH   4   5
HETATM    5  C9  UNL     1     -34.387  14.262  -3.462  1.00 20.00    -0.001 C 
HETATM    6  C6  UNL     1     -34.704  13.314  -4.625  1.00 20.00     0.011 C 
BRANCH   5   7
HETATM    7  C8  UNL     1     -35.581  15.182  -3.146  1.00 20.00     0.083 C 
BRANCH   7   8
HETATM    8  C3  UNL     1     -36.805  14.920  -4.010  1.00 20.00     0.123 C 
HETATM    9  C5  UNL     1     -36.906  15.732  -5.277  1.00 20.00     0.091 C 
HETATM   10  O10 UNL     1     -37.689  14.124  -3.699  1.00 20.00    -0.298 OA
ENDBRANCH   7   8
ENDBRANCH   5   7
ENDBRANCH   4   5
ENDBRANCH   2   4
TORSDOF 4
ENDMDL
