MODEL 1
REMARK VINA RESULT:      -4.6      0.000      0.000
REMARK  3 active torsions:
REMARK  status: ('A' for Active; 'I' for Inactive)
REMARK    1  A    between atoms: C5_5  and  C7_7 
REMARK    2  A    between atoms: C6_6  and  C7_7 
REMARK    3  A    between atoms: C6_6  and  C8_8 
ROOT
HETATM    1  C1  UNL     1     -32.166   8.757   1.126  1.00 20.00     0.012 C 
HETATM    2  C2  UNL     1     -32.021   8.216   2.187  1.00 20.00    -0.117 C 
HETATM    3  C5  UNL     1     -31.837   7.558   3.490  1.00 20.00     0.097 C 
ENDROOT
BRANCH   3   4
HETATM    4  C7  UNL     1     -32.666   6.269   3.655  1.00 20.00    -0.006 C 
HETATM    5  C3  UNL     1     -32.420   5.297   2.494  1.00 20.00     0.011 C 
BRANCH   4   6
HETATM    6  C6  UNL     1     -34.185   6.507   3.822  1.00 20.00     0.025 C 
BRANCH   6   7
HETATM    7  C8  UNL     1     -34.838   5.845   5.046  1.00 20.00     0.078 C 
HETATM    8  C4  UNL     1     -34.038   6.135   6.312  1.00 20.00     0.026 C 
HETATM    9 CL9  UNL     1     -34.958   4.073   4.834  1.00 20.00    -0.125 Cl
ENDBRANCH   6   7
ENDBRANCH   4   6
ENDBRANCH   3   4
TORSDOF 3
ENDMDL
MODEL 2
REMARK VINA RESULT:      -4.4      2.262      4.433
REMARK  3 active torsions:
REMARK  status: ('A' for Active; 'I' for Inactive)
REMARK    1  A    between atoms: C5_5  and  C7_7 
REMARK    2  A    between atoms: C6_6  and  C7_7 
REMARK    3  A    between atoms: C6_6  and  C8_8 
ROOT
HETATM    1  C1  UNL     1     -35.131   4.067   6.286  1.00 20.00     0.012 C 
HETATM    2  C2  UNL     1     -34.609   5.079   5.909  1.00 20.00    -0.117 C 
HETATM    3  C5  UNL     1     -33.968   6.323   5.454  1.00 20.00     0.097 C 
ENDROOT
BRANCH   3   4
HETATM    4  C7  UNL     1     -33.917   6.468   3.921  1.00 20.00    -0.006 C 
HETATM    5  C3  UNL     1     -35.045   5.675   3.248  1.00 20.00     0.011 C 
BRANCH   4   6
HETATM    6  C6  UNL     1     -32.559   6.078   3.291  1.00 20.00     0.025 C 
BRANCH   6   7
HETATM    7  C8  UNL     1     -31.605   7.241   2.975  1.00 20.00     0.078 C 
HETATM    8  C4  UNL     1     -31.189   7.964   4.252  1.00 20.00     0.026 C 
HETATM    9 CL9  UNL     1     -32.370   8.420   1.870  1.00 20.00    -0.125 Cl
ENDBRANCH   6   7
ENDBRANCH   4   6
ENDBRANCH   3   4
TORSDOF 3
ENDMDL
MODEL 3
REMARK VINA RESULT:      -4.3      2.221      4.611
REMARK  3 active torsions:
REMARK  status: ('A' for Active; 'I' for Inactive)
REMARK    1  A    between atoms: C5_5  and  C7_7 
REMARK    2  A    between atoms: C6_6  and  C7_7 
REMARK    3  A    between atoms: C6_6  and  C8_8 
ROOT
HETATM    1  C1  UNL     1     -35.158   4.306   6.558  1.00 20.00     0.012 C 
HETATM    2  C2  UNL     1     -34.594   5.213   6.011  1.00 20.00    -0.117 C 
HETATM    3  C5  UNL     1     -33.899   6.328   5.349  1.00 20.00     0.097 C 
ENDROOT
BRANCH   3   4
HETATM    4  C7  UNL     1     -34.173   6.415   3.835  1.00 20.00    -0.006 C 
HETATM    5  C3  UNL     1     -35.018   5.229   3.352  1.00 20.00     0.011 C 
BRANCH   4   6
HETATM    6  C6  UNL     1     -32.900   6.536   2.964  1.00 20.00     0.025 C 
BRANCH   6   7
HETATM    7  C8  UNL     1     -32.239   7.923   2.928  1.00 20.00     0.078 C 
HETATM    8  C4  UNL     1     -31.808   8.282   1.510  1.00 20.00     0.026 C 
HETATM    9 CL9  UNL     1     -30.808   7.984   3.998  1.00 20.00    -0.125 Cl
ENDBRANCH   6   7
ENDBRANCH   4   6
ENDBRANCH   3   4
TORSDOF 3
ENDMDL
MODEL 4
REMARK VINA RESULT:      -4.1      2.521      4.719
REMARK  3 active torsions:
REMARK  status: ('A' for Active; 'I' for Inactive)
REMARK    1  A    between atoms: C5_5  and  C7_7 
REMARK    2  A    between atoms: C6_6  and  C7_7 
REMARK    3  A    between atoms: C6_6  and  C8_8 
ROOT
HETATM    1  C1  UNL     1     -35.088   4.590   5.834  1.00 20.00     0.012 C 
HETATM    2  C2  UNL     1     -34.332   5.439   5.449  1.00 20.00    -0.117 C 
HETATM    3  C5  UNL     1     -33.404   6.481   4.985  1.00 20.00     0.097 C 
ENDROOT
BRANCH   3   4
HETATM    4  C7  UNL     1     -33.460   6.728   3.465  1.00 20.00    -0.006 C 
HETATM    5  C3  UNL     1     -33.616   5.412   2.692  1.00 20.00     0.011 C 
BRANCH   4   6
HETATM    6  C6  UNL     1     -32.255   7.521   2.905  1.00 20.00     0.025 C 
BRANCH   6   7
HETATM    7  C8  UNL     1     -32.562   8.474   1.738  1.00 20.00     0.078 C 
HETATM    8  C4  UNL     1     -31.454   8.424   0.691  1.00 20.00     0.026 C 
HETATM    9 CL9  UNL     1     -32.737  10.159   2.311  1.00 20.00    -0.125 Cl
ENDBRANCH   6   7
ENDBRANCH   4   6
ENDBRANCH   3   4
TORSDOF 3
ENDMDL
MODEL 5
REMARK VINA RESULT:      -4.1      0.803      1.443
REMARK  3 active torsions:
REMARK  status: ('A' for Active; 'I' for Inactive)
REMARK    1  A    between atoms: C5_5  and  C7_7 
REMARK    2  A    between atoms: C6_6  and  C7_7 
REMARK    3  A    between atoms: C6_6  and  C8_8 
ROOT
HETATM    1  C1  UNL     1     -32.229   9.900   0.913  1.00 20.00     0.012 C 
HETATM    2  C2  UNL     1     -32.194   8.781   1.347  1.00 20.00    -0.117 C 
HETATM    3  C5  UNL     1     -32.150   7.408   1.871  1.00 20.00     0.097 C 
ENDROOT
BRANCH   3   4
HETATM    4  C7  UNL     1     -32.456   7.310   3.379  1.00 20.00    -0.006 C 
HETATM    5  C3  UNL     1     -31.222   7.660   4.222  1.00 20.00     0.011 C 
BRANCH   4   6
HETATM    6  C6  UNL     1     -33.020   5.941   3.826  1.00 20.00     0.025 C 
BRANCH   6   7
HETATM    7  C8  UNL     1     -34.302   5.986   4.673  1.00 20.00     0.078 C 
HETATM    8  C4  UNL     1     -33.987   6.376   6.113  1.00 20.00     0.026 C 
HETATM    9 CL9  UNL     1     -35.130   4.401   4.673  1.00 20.00    -0.125 Cl
ENDBRANCH   6   7
ENDBRANCH   4   6
ENDBRANCH   3   4
TORSDOF 3
ENDMDL
MODEL 6
REMARK VINA RESULT:      -4.0      1.608      4.426
REMARK  3 active torsions:
REMARK  status: ('A' for Active; 'I' for Inactive)
REMARK    1  A    between atoms: C5_5  and  C7_7 
REMARK    2  A    between atoms: C6_6  and  C7_7 
REMARK    3  A    between atoms: C6_6  and  C8_8 
ROOT
HETATM    1  C1  UNL     1     -35.177   3.508   4.985  1.00 20.00     0.012 C 
HETATM    2  C2  UNL     1     -34.922   4.427   5.714  1.00 20.00    -0.117 C 
HETATM    3  C5  UNL     1     -34.616   5.550   6.613  1.00 20.00     0.097 C 
ENDROOT
BRANCH   3   4
HETATM    4  C7  UNL     1     -33.512   6.485   6.082  1.00 20.00    -0.006 C 
HETATM    5  C3  UNL     1     -33.308   7.691   7.009  1.00 20.00     0.011 C 
BRANCH   4   6
HETATM    6  C6  UNL     1     -33.737   6.976   4.632  1.00 20.00     0.025 C 
BRANCH   6   7
HETATM    7  C8  UNL     1     -32.815   6.364   3.564  1.00 20.00     0.078 C 
HETATM    8  C4  UNL     1     -32.104   7.456   2.771  1.00 20.00     0.026 C 
HETATM    9 CL9  UNL     1     -33.738   5.336   2.428  1.00 20.00    -0.125 Cl
ENDBRANCH   6   7
ENDBRANCH   4   6
ENDBRANCH   3   4
TORSDOF 3
ENDMDL
MODEL 7
REMARK VINA RESULT:      -4.0     11.397     12.266
REMARK  3 active torsions:
REMARK  status: ('A' for Active; 'I' for Inactive)
REMARK    1  A    between atoms: C5_5  and  C7_7 
REMARK    2  A    between atoms: C6_6  and  C7_7 
REMARK    3  A    between atoms: C6_6  and  C8_8 
ROOT
HETATM    1  C1  UNL     1     -34.781  17.372   0.237  1.00 20.00     0.012 C 
HETATM    2  C2  UNL     1     -34.735  16.705  -0.760  1.00 20.00    -0.117 C 
HETATM    3  C5  UNL     1     -34.685  15.884  -1.979  1.00 20.00     0.097 C 
ENDROOT
BRANCH   3   4
HETATM    4  C7  UNL     1     -33.558  16.284  -2.950  1.00 20.00    -0.006 C 
HETATM    5  C3  UNL     1     -33.831  17.654  -3.586  1.00 20.00     0.011 C 
BRANCH   4   6
HETATM    6  C6  UNL     1     -33.273  15.244  -4.059  1.00 20.00     0.025 C 
BRANCH   6   7
HETATM    7  C8  UNL     1     -34.497  14.751  -4.849  1.00 20.00     0.078 C 
HETATM    8  C4  UNL     1     -34.701  13.253  -4.654  1.00 20.00     0.026 C 
HETATM    9 CL9  UNL     1     -34.313  15.085  -6.596  1.00 20.00    -0.125 Cl
ENDBRANCH   6   7
ENDBRANCH   4   6
ENDBRANCH   3   4
TORSDOF 3
ENDMDL
MODEL 8
REMARK VINA RESULT:      -4.0     11.014     12.101
REMARK  3 active torsions:
REMARK  status: ('A' for Active; 'I' for Inactive)
REMARK    1  A    between atoms: C5_5  and  C7_7 
REMARK    2  A    between atoms: C6_6  and  C7_7 
REMARK    3  A    between atoms: C6_6  and  C8_8 
ROOT
HETATM    1  C1  UNL     1     -34.372  15.652  -6.969  1.00 20.00     0.012 C 
HETATM    2  C2  UNL     1     -34.554  14.693  -6.272  1.00 20.00    -0.117 C 
HETATM    3  C5  UNL     1     -34.776  13.511  -5.425  1.00 20.00     0.097 C 
ENDROOT
BRANCH   3   4
HETATM    4  C7  UNL     1     -35.239  13.853  -3.995  1.00 20.00    -0.006 C 
HETATM    5  C3  UNL     1     -36.610  14.542  -4.003  1.00 20.00     0.011 C 
BRANCH   4   6
HETATM    6  C6  UNL     1     -34.233  14.707  -3.188  1.00 20.00     0.025 C 
BRANCH   6   7
HETATM    7  C8  UNL     1     -34.697  16.126  -2.822  1.00 20.00     0.078 C 
HETATM    8  C4  UNL     1     -33.824  17.175  -3.503  1.00 20.00     0.026 C 
HETATM    9 CL9  UNL     1     -34.637  16.387  -1.053  1.00 20.00    -0.125 Cl
ENDBRANCH   6   7
ENDBRANCH   4   6
ENDBRANCH   3   4
TORSDOF 3
ENDMDL
MODEL 9
REMARK VINA RESULT:      -3.9      1.772      3.929
REMARK  3 active torsions:
REMARK  status: ('A' for Active; 'I' for Inactive)
REMARK    1  A    between atoms: C5_5  and  C7_7 
REMARK    2  A    between atoms: C6_6  and  C7_7 
REMARK    3  A    between atoms: C6_6  and  C8_8 
ROOT
HETATM    1  C1  UNL     1     -33.269   7.532   6.806  1.00 20.00     0.012 C 
HETATM    2  C2  UNL     1     -33.954   6.553   6.696  1.00 20.00    -0.117 C 
HETATM    3  C5  UNL     1     -34.794   5.353   6.568  1.00 20.00     0.097 C 
ENDROOT
BRANCH   3   4
HETATM    4  C7  UNL     1     -35.215   5.042   5.119  1.00 20.00    -0.006 C 
HETATM    5  C3  UNL     1     -34.803   3.621   4.711  1.00 20.00     0.011 C 
BRANCH   4   6
HETATM    6  C6  UNL     1     -34.691   6.056   4.074  1.00 20.00     0.025 C 
BRANCH   6   7
HETATM    7  C8  UNL     1     -33.419   5.643   3.316  1.00 20.00     0.078 C 
HETATM    8  C4  UNL     1     -32.466   6.825   3.171  1.00 20.00     0.026 C 
HETATM    9 CL9  UNL     1     -33.814   5.019   1.687  1.00 20.00    -0.125 Cl
ENDBRANCH   6   7
ENDBRANCH   4   6
ENDBRANCH   3   4
TORSDOF 3
ENDMDL
