MODEL 1
REMARK VINA RESULT:      -5.3      0.000      0.000
REMARK  3 active torsions:
REMARK  status: ('A' for Active; 'I' for Inactive)
REMARK    1  A    between atoms: C1_1  and  C12_12 
REMARK    2  A    between atoms: C5_5  and  C11_11 
REMARK    3  A    between atoms: C11_11  and  C12_12 
ROOT
HETATM    1  C2  UNL     1     -34.897  16.616  -0.757  1.00 20.00     0.005 C 
HETATM    2  C3  UNL     1     -35.229  17.513   0.439  1.00 20.00     0.005 C 
HETATM    3  C4  UNL     1     -33.500  18.594  -1.475  1.00 20.00     0.009 C 
HETATM    4  C5  UNL     1     -33.655  17.072  -1.540  1.00 20.00    -0.013 C 
HETATM    5  C6  UNL     1     -33.980  18.181   1.023  1.00 20.00    -0.015 C 
HETATM    6  C7  UNL     1     -33.301  19.098  -0.029  1.00 20.00    -0.015 C 
HETATM    7  C8  UNL     1     -34.339  18.958   2.291  1.00 20.00     0.010 C 
HETATM    8  C9  UNL     1     -31.808  19.262   0.280  1.00 20.00     0.010 C 
ENDROOT
BRANCH   4   9
HETATM    9  C11 UNL     1     -33.717  16.582  -2.985  1.00 20.00     0.015 C 
BRANCH   9  10
HETATM   10  C12 UNL     1     -34.320  15.178  -3.100  1.00 20.00     0.043 C 
HETATM   11  C10 UNL     1     -35.602  15.214  -3.928  1.00 20.00     0.017 C 
BRANCH  10  12
HETATM   12  C1  UNL     1     -33.379  14.178  -3.748  1.00 20.00     0.235 C 
HETATM   13  O13 UNL     1     -33.688  13.041  -4.090  1.00 20.00    -0.306 OA
ENDBRANCH  10  12
ENDBRANCH   9  10
ENDBRANCH   4   9
TORSDOF 3
ENDMDL
MODEL 2
REMARK VINA RESULT:      -5.0      2.539      5.828
REMARK  3 active torsions:
REMARK  status: ('A' for Active; 'I' for Inactive)
REMARK    1  A    between atoms: C1_1  and  C12_12 
REMARK    2  A    between atoms: C5_5  and  C11_11 
REMARK    3  A    between atoms: C11_11  and  C12_12 
ROOT
HETATM    1  C2  UNL     1     -33.679  17.181  -3.547  1.00 20.00     0.005 C 
HETATM    2  C3  UNL     1     -34.040  16.932  -5.014  1.00 20.00     0.005 C 
HETATM    3  C4  UNL     1     -35.454  15.435  -3.122  1.00 20.00     0.009 C 
HETATM    4  C5  UNL     1     -34.163  16.071  -2.600  1.00 20.00    -0.013 C 
HETATM    5  C6  UNL     1     -34.140  15.438  -5.338  1.00 20.00    -0.015 C 
HETATM    6  C7  UNL     1     -35.257  14.764  -4.498  1.00 20.00    -0.015 C 
HETATM    7  C8  UNL     1     -34.371  15.236  -6.838  1.00 20.00     0.010 C 
HETATM    8  C9  UNL     1     -34.976  13.266  -4.328  1.00 20.00     0.010 C 
ENDROOT
BRANCH   4   9
HETATM    9  C11 UNL     1     -34.345  16.612  -1.183  1.00 20.00     0.015 C 
BRANCH   9  10
HETATM   10  C12 UNL     1     -34.129  18.126  -1.104  1.00 20.00     0.043 C 
HETATM   11  C10 UNL     1     -35.394  18.821  -0.608  1.00 20.00     0.017 C 
BRANCH  10  12
HETATM   12  C1  UNL     1     -32.992  18.517  -0.176  1.00 20.00     0.235 C 
HETATM   13  O13 UNL     1     -32.061  19.259  -0.476  1.00 20.00    -0.306 OA
ENDBRANCH  10  12
ENDBRANCH   9  10
ENDBRANCH   4   9
TORSDOF 3
ENDMDL
MODEL 3
REMARK VINA RESULT:      -4.9      1.636      2.784
REMARK  3 active torsions:
REMARK  status: ('A' for Active; 'I' for Inactive)
REMARK    1  A    between atoms: C1_1  and  C12_12 
REMARK    2  A    between atoms: C5_5  and  C11_11 
REMARK    3  A    between atoms: C11_11  and  C12_12 
ROOT
HETATM    1  C2  UNL     1     -34.867  15.589  -2.260  1.00 20.00     0.005 C 
HETATM    2  C3  UNL     1     -34.439  16.585  -1.179  1.00 20.00     0.005 C 
HETATM    3  C4  UNL     1     -35.476  17.683  -3.533  1.00 20.00     0.009 C 
HETATM    4  C5  UNL     1     -35.030  16.224  -3.650  1.00 20.00    -0.013 C 
HETATM    5  C6  UNL     1     -33.612  17.740  -1.755  1.00 20.00    -0.015 C 
HETATM    6  C7  UNL     1     -34.439  18.551  -2.786  1.00 20.00    -0.015 C 
HETATM    7  C8  UNL     1     -33.096  18.635  -0.626  1.00 20.00     0.010 C 
HETATM    8  C9  UNL     1     -33.515  19.258  -3.785  1.00 20.00     0.010 C 
ENDROOT
BRANCH   4   9
HETATM    9  C11 UNL     1     -36.003  15.414  -4.504  1.00 20.00     0.015 C 
BRANCH   9  10
HETATM   10  C12 UNL     1     -35.298  14.665  -5.641  1.00 20.00     0.043 C 
HETATM   11  C10 UNL     1     -34.250  15.559  -6.300  1.00 20.00     0.017 C 
BRANCH  10  12
HETATM   12  C1  UNL     1     -34.600  13.399  -5.175  1.00 20.00     0.235 C 
HETATM   13  O13 UNL     1     -35.062  12.596  -4.371  1.00 20.00    -0.306 OA
ENDBRANCH  10  12
ENDBRANCH   9  10
ENDBRANCH   4   9
TORSDOF 3
ENDMDL
MODEL 4
REMARK VINA RESULT:      -4.9      2.698      5.972
REMARK  3 active torsions:
REMARK  status: ('A' for Active; 'I' for Inactive)
REMARK    1  A    between atoms: C1_1  and  C12_12 
REMARK    2  A    between atoms: C5_5  and  C11_11 
REMARK    3  A    between atoms: C11_11  and  C12_12 
ROOT
HETATM    1  C2  UNL     1     -34.643  14.407  -3.763  1.00 20.00     0.005 C 
HETATM    2  C3  UNL     1     -34.694  13.893  -5.205  1.00 20.00     0.005 C 
HETATM    3  C4  UNL     1     -33.371  16.324  -4.806  1.00 20.00     0.009 C 
HETATM    4  C5  UNL     1     -34.289  15.899  -3.657  1.00 20.00    -0.013 C 
HETATM    5  C6  UNL     1     -35.085  14.994  -6.196  1.00 20.00    -0.015 C 
HETATM    6  C7  UNL     1     -34.042  16.142  -6.185  1.00 20.00    -0.015 C 
HETATM    7  C8  UNL     1     -35.252  14.407  -7.600  1.00 20.00     0.010 C 
HETATM    8  C9  UNL     1     -34.681  17.457  -6.646  1.00 20.00     0.010 C 
ENDROOT
BRANCH   4   9
HETATM    9  C11 UNL     1     -33.660  16.210  -2.300  1.00 20.00     0.015 C 
BRANCH   9  10
HETATM   10  C12 UNL     1     -34.316  17.413  -1.615  1.00 20.00     0.043 C 
HETATM   11  C10 UNL     1     -34.818  17.027  -0.226  1.00 20.00     0.017 C 
BRANCH  10  12
HETATM   12  C1  UNL     1     -33.374  18.593  -1.455  1.00 20.00     0.235 C 
HETATM   13  O13 UNL     1     -32.922  19.262  -2.379  1.00 20.00    -0.306 OA
ENDBRANCH  10  12
ENDBRANCH   9  10
ENDBRANCH   4   9
TORSDOF 3
ENDMDL
MODEL 5
REMARK VINA RESULT:      -4.8      2.573      6.024
REMARK  3 active torsions:
REMARK  status: ('A' for Active; 'I' for Inactive)
REMARK    1  A    between atoms: C1_1  and  C12_12 
REMARK    2  A    between atoms: C5_5  and  C11_11 
REMARK    3  A    between atoms: C11_11  and  C12_12 
ROOT
HETATM    1  C2  UNL     1     -33.538  17.165  -4.736  1.00 20.00     0.005 C 
HETATM    2  C3  UNL     1     -34.223  16.742  -6.038  1.00 20.00     0.005 C 
HETATM    3  C4  UNL     1     -35.004  15.373  -3.729  1.00 20.00     0.009 C 
HETATM    4  C5  UNL     1     -33.683  16.136  -3.604  1.00 20.00    -0.013 C 
HETATM    5  C6  UNL     1     -34.274  15.219  -6.195  1.00 20.00    -0.015 C 
HETATM    6  C7  UNL     1     -35.093  14.573  -5.046  1.00 20.00    -0.015 C 
HETATM    7  C8  UNL     1     -34.845  14.846  -7.565  1.00 20.00     0.010 C 
HETATM    8  C9  UNL     1     -34.655  13.120  -4.821  1.00 20.00     0.010 C 
ENDROOT
BRANCH   4   9
HETATM    9  C11 UNL     1     -33.559  16.811  -2.240  1.00 20.00     0.015 C 
BRANCH   9  10
HETATM   10  C12 UNL     1     -34.924  17.100  -1.606  1.00 20.00     0.043 C 
HETATM   11  C10 UNL     1     -34.830  17.036  -0.084  1.00 20.00     0.017 C 
BRANCH  10  12
HETATM   12  C1  UNL     1     -35.475  18.465  -1.978  1.00 20.00     0.235 C 
HETATM   13  O13 UNL     1     -36.283  18.676  -2.878  1.00 20.00    -0.306 OA
ENDBRANCH  10  12
ENDBRANCH   9  10
ENDBRANCH   4   9
TORSDOF 3
ENDMDL
MODEL 6
REMARK VINA RESULT:      -4.7      2.744      5.688
REMARK  3 active torsions:
REMARK  status: ('A' for Active; 'I' for Inactive)
REMARK    1  A    between atoms: C1_1  and  C12_12 
REMARK    2  A    between atoms: C5_5  and  C11_11 
REMARK    3  A    between atoms: C11_11  and  C12_12 
ROOT
HETATM    1  C2  UNL     1     -35.248  14.618  -3.530  1.00 20.00     0.005 C 
HETATM    2  C3  UNL     1     -34.856  14.222  -4.956  1.00 20.00     0.005 C 
HETATM    3  C4  UNL     1     -33.382  16.297  -3.800  1.00 20.00     0.009 C 
HETATM    4  C5  UNL     1     -34.713  15.995  -3.107  1.00 20.00    -0.013 C 
HETATM    5  C6  UNL     1     -34.668  15.443  -5.863  1.00 20.00    -0.015 C 
HETATM    6  C7  UNL     1     -33.524  16.349  -5.337  1.00 20.00    -0.015 C 
HETATM    7  C8  UNL     1     -34.408  14.997  -7.304  1.00 20.00     0.010 C 
HETATM    8  C9  UNL     1     -33.720  17.795  -5.808  1.00 20.00     0.010 C 
ENDROOT
BRANCH   4   9
HETATM    9  C11 UNL     1     -34.579  16.080  -1.588  1.00 20.00     0.015 C 
BRANCH   9  10
HETATM   10  C12 UNL     1     -34.884  17.483  -1.053  1.00 20.00     0.043 C 
HETATM   11  C10 UNL     1     -36.139  18.045  -1.715  1.00 20.00     0.017 C 
BRANCH  10  12
HETATM   12  C1  UNL     1     -35.100  17.511   0.450  1.00 20.00     0.235 C 
HETATM   13  O13 UNL     1     -34.337  18.026   1.261  1.00 20.00    -0.306 OA
ENDBRANCH  10  12
ENDBRANCH   9  10
ENDBRANCH   4   9
TORSDOF 3
ENDMDL
MODEL 7
REMARK VINA RESULT:      -4.7     10.199     11.472
REMARK  3 active torsions:
REMARK  status: ('A' for Active; 'I' for Inactive)
REMARK    1  A    between atoms: C1_1  and  C12_12 
REMARK    2  A    between atoms: C5_5  and  C11_11 
REMARK    3  A    between atoms: C11_11  and  C12_12 
ROOT
HETATM    1  C2  UNL     1     -32.923   5.748   2.495  1.00 20.00     0.005 C 
HETATM    2  C3  UNL     1     -34.150   5.010   3.039  1.00 20.00     0.005 C 
HETATM    3  C4  UNL     1     -33.598   7.501   4.183  1.00 20.00     0.009 C 
HETATM    4  C5  UNL     1     -32.431   6.878   3.413  1.00 20.00    -0.013 C 
HETATM    5  C6  UNL     1     -34.200   5.026   4.570  1.00 20.00    -0.015 C 
HETATM    6  C7  UNL     1     -34.299   6.479   5.104  1.00 20.00    -0.015 C 
HETATM    7  C8  UNL     1     -35.364   4.167   5.071  1.00 20.00     0.010 C 
HETATM    8  C9  UNL     1     -33.740   6.571   6.529  1.00 20.00     0.010 C 
ENDROOT
BRANCH   4   9
HETATM    9  C11 UNL     1     -31.670   7.933   2.612  1.00 20.00     0.015 C 
BRANCH   9  10
HETATM   10  C12 UNL     1     -32.584   8.719   1.667  1.00 20.00     0.043 C 
HETATM   11  C10 UNL     1     -32.683  10.177   2.110  1.00 20.00     0.017 C 
BRANCH  10  12
HETATM   12  C1  UNL     1     -32.104   8.705   0.226  1.00 20.00     0.235 C 
HETATM   13  O13 UNL     1     -32.829   8.804  -0.759  1.00 20.00    -0.306 OA
ENDBRANCH  10  12
ENDBRANCH   9  10
ENDBRANCH   4   9
TORSDOF 3
ENDMDL
MODEL 8
REMARK VINA RESULT:      -4.7      0.853      2.057
REMARK  3 active torsions:
REMARK  status: ('A' for Active; 'I' for Inactive)
REMARK    1  A    between atoms: C1_1  and  C12_12 
REMARK    2  A    between atoms: C5_5  and  C11_11 
REMARK    3  A    between atoms: C11_11  and  C12_12 
ROOT
HETATM    1  C2  UNL     1     -32.904  18.406  -1.165  1.00 20.00     0.005 C 
HETATM    2  C3  UNL     1     -32.665  18.639   0.329  1.00 20.00     0.005 C 
HETATM    3  C4  UNL     1     -34.742  16.888  -0.332  1.00 20.00     0.009 C 
HETATM    4  C5  UNL     1     -34.277  17.790  -1.478  1.00 20.00    -0.013 C 
HETATM    5  C6  UNL     1     -33.970  18.893   1.089  1.00 20.00    -0.015 C 
HETATM    6  C7  UNL     1     -34.915  17.666   0.990  1.00 20.00    -0.015 C 
HETATM    7  C8  UNL     1     -33.673  19.250   2.548  1.00 20.00     0.010 C 
HETATM    8  C9  UNL     1     -36.377  18.094   1.171  1.00 20.00     0.010 C 
ENDROOT
BRANCH   4   9
HETATM    9  C11 UNL     1     -34.240  17.031  -2.802  1.00 20.00     0.015 C 
BRANCH   9  10
HETATM   10  C12 UNL     1     -34.772  15.600  -2.669  1.00 20.00     0.043 C 
HETATM   11  C10 UNL     1     -36.186  15.501  -3.234  1.00 20.00     0.017 C 
BRANCH  10  12
HETATM   12  C1  UNL     1     -33.912  14.578  -3.392  1.00 20.00     0.235 C 
HETATM   13  O13 UNL     1     -34.107  13.366  -3.388  1.00 20.00    -0.306 OA
ENDBRANCH  10  12
ENDBRANCH   9  10
ENDBRANCH   4   9
TORSDOF 3
ENDMDL
MODEL 9
REMARK VINA RESULT:      -4.7      1.929      2.703
REMARK  3 active torsions:
REMARK  status: ('A' for Active; 'I' for Inactive)
REMARK    1  A    between atoms: C1_1  and  C12_12 
REMARK    2  A    between atoms: C5_5  and  C11_11 
REMARK    3  A    between atoms: C11_11  and  C12_12 
ROOT
HETATM    1  C2  UNL     1     -34.171  15.498  -3.045  1.00 20.00     0.005 C 
HETATM    2  C3  UNL     1     -34.913  15.883  -1.761  1.00 20.00     0.005 C 
HETATM    3  C4  UNL     1     -34.165  17.993  -3.437  1.00 20.00     0.009 C 
HETATM    4  C5  UNL     1     -33.433  16.674  -3.703  1.00 20.00    -0.013 C 
HETATM    5  C6  UNL     1     -34.243  17.056  -1.038  1.00 20.00    -0.015 C 
HETATM    6  C7  UNL     1     -34.238  18.324  -1.931  1.00 20.00    -0.015 C 
HETATM    7  C8  UNL     1     -34.937  17.318   0.300  1.00 20.00     0.010 C 
HETATM    8  C9  UNL     1     -33.091  19.261  -1.533  1.00 20.00     0.010 C 
ENDROOT
BRANCH   4   9
HETATM    9  C11 UNL     1     -33.255  16.431  -5.200  1.00 20.00     0.015 C 
BRANCH   9  10
HETATM   10  C12 UNL     1     -34.590  16.417  -5.952  1.00 20.00     0.043 C 
HETATM   11  C10 UNL     1     -34.614  17.511  -7.016  1.00 20.00     0.017 C 
BRANCH  10  12
HETATM   12  C1  UNL     1     -34.869  15.093  -6.642  1.00 20.00     0.235 C 
HETATM   13  O13 UNL     1     -34.709  13.988  -6.134  1.00 20.00    -0.306 OA
ENDBRANCH  10  12
ENDBRANCH   9  10
ENDBRANCH   4   9
TORSDOF 3
ENDMDL
