MODEL 1
REMARK VINA RESULT:      -4.6      0.000      0.000
REMARK  1 active torsions:
REMARK  status: ('A' for Active; 'I' for Inactive)
REMARK    1  A    between atoms: C5_5  and  C7_7 
ROOT
HETATM    1  C1  UNL     1     -35.586  14.623  -4.664  1.00 20.00     0.002 C 
HETATM    2  C2  UNL     1     -35.729  15.478  -3.413  1.00 20.00     0.013 C 
HETATM    3  C3  UNL     1     -34.473  15.106  -5.597  1.00 20.00     0.020 C 
HETATM    4  C4  UNL     1     -33.157  15.480  -3.454  1.00 20.00     0.033 C 
HETATM    5  C5  UNL     1     -34.435  15.486  -2.587  1.00 20.00     0.095 C 
HETATM    6  C6  UNL     1     -33.364  15.909  -4.907  1.00 20.00     0.083 C 
HETATM    7 CL11 UNL     1     -33.703  17.667  -5.003  1.00 20.00    -0.125 Cl
ENDROOT
BRANCH   5   8
HETATM    8  C7  UNL     1     -34.444  16.641  -1.584  1.00 20.00     0.391 C 
HETATM    9  F8  UNL     1     -34.846  16.201  -0.381  1.00 20.00    -0.171 F 
HETATM   10  F9  UNL     1     -33.212  17.158  -1.467  1.00 20.00    -0.171 F 
HETATM   11  F10 UNL     1     -35.282  17.602  -1.997  1.00 20.00    -0.171 F 
ENDBRANCH   5   8
TORSDOF 1
ENDMDL
MODEL 2
REMARK VINA RESULT:      -4.6      2.855      3.573
REMARK  1 active torsions:
REMARK  status: ('A' for Active; 'I' for Inactive)
REMARK    1  A    between atoms: C5_5  and  C7_7 
ROOT
HETATM    1  C1  UNL     1     -33.544  17.753  -4.812  1.00 20.00     0.002 C 
HETATM    2  C2  UNL     1     -33.474  16.251  -5.048  1.00 20.00     0.013 C 
HETATM    3  C3  UNL     1     -34.701  18.162  -3.897  1.00 20.00     0.020 C 
HETATM    4  C4  UNL     1     -34.054  16.108  -2.547  1.00 20.00     0.033 C 
HETATM    5  C5  UNL     1     -33.287  15.484  -3.732  1.00 20.00     0.095 C 
HETATM    6  C6  UNL     1     -35.181  17.064  -2.942  1.00 20.00     0.083 C 
HETATM    7 CL11 UNL     1     -36.553  16.158  -3.658  1.00 20.00    -0.125 Cl
ENDROOT
BRANCH   5   8
HETATM    8  C7  UNL     1     -33.624  14.003  -3.920  1.00 20.00     0.391 C 
HETATM    9  F8  UNL     1     -33.971  13.769  -5.195  1.00 20.00    -0.171 F 
HETATM   10  F9  UNL     1     -32.559  13.247  -3.613  1.00 20.00    -0.171 F 
HETATM   11  F10 UNL     1     -34.645  13.660  -3.122  1.00 20.00    -0.171 F 
ENDBRANCH   5   8
TORSDOF 1
ENDMDL
MODEL 3
REMARK VINA RESULT:      -4.6      3.015      3.461
REMARK  1 active torsions:
REMARK  status: ('A' for Active; 'I' for Inactive)
REMARK    1  A    between atoms: C5_5  and  C7_7 
ROOT
HETATM    1  C1  UNL     1     -35.757  16.912  -4.992  1.00 20.00     0.002 C 
HETATM    2  C2  UNL     1     -35.579  15.420  -4.748  1.00 20.00     0.013 C 
HETATM    3  C3  UNL     1     -35.030  17.779  -3.962  1.00 20.00     0.020 C 
HETATM    4  C4  UNL     1     -33.155  16.079  -4.199  1.00 20.00     0.033 C 
HETATM    5  C5  UNL     1     -34.099  15.016  -4.798  1.00 20.00     0.095 C 
HETATM    6  C6  UNL     1     -33.834  17.101  -3.285  1.00 20.00     0.083 C 
HETATM    7 CL11 UNL     1     -34.331  16.333  -1.742  1.00 20.00    -0.125 Cl
ENDROOT
BRANCH   5   8
HETATM    8  C7  UNL     1     -33.895  13.640  -4.161  1.00 20.00     0.391 C 
HETATM    9  F8  UNL     1     -34.763  13.468  -3.151  1.00 20.00    -0.171 F 
HETATM   10  F9  UNL     1     -34.094  12.677  -5.073  1.00 20.00    -0.171 F 
HETATM   11  F10 UNL     1     -32.647  13.536  -3.682  1.00 20.00    -0.171 F 
ENDBRANCH   5   8
TORSDOF 1
ENDMDL
MODEL 4
REMARK VINA RESULT:      -4.5      3.489      4.280
REMARK  1 active torsions:
REMARK  status: ('A' for Active; 'I' for Inactive)
REMARK    1  A    between atoms: C5_5  and  C7_7 
ROOT
HETATM    1  C1  UNL     1     -35.752  15.825  -2.888  1.00 20.00     0.002 C 
HETATM    2  C2  UNL     1     -36.016  14.992  -4.134  1.00 20.00     0.013 C 
HETATM    3  C3  UNL     1     -34.288  15.795  -2.446  1.00 20.00     0.020 C 
HETATM    4  C4  UNL     1     -33.776  15.972  -4.930  1.00 20.00     0.033 C 
HETATM    5  C5  UNL     1     -35.185  15.486  -5.327  1.00 20.00     0.095 C 
HETATM    6  C6  UNL     1     -33.288  15.483  -3.565  1.00 20.00     0.083 C 
HETATM    7 CL11 UNL     1     -32.924  13.728  -3.617  1.00 20.00    -0.125 Cl
ENDROOT
BRANCH   5   8
HETATM    8  C7  UNL     1     -35.140  14.425  -6.428  1.00 20.00     0.391 C 
HETATM    9  F8  UNL     1     -35.040  13.202  -5.884  1.00 20.00    -0.171 F 
HETATM   10  F9  UNL     1     -36.257  14.482  -7.167  1.00 20.00    -0.171 F 
HETATM   11  F10 UNL     1     -34.080  14.634  -7.223  1.00 20.00    -0.171 F 
ENDBRANCH   5   8
TORSDOF 1
ENDMDL
MODEL 5
REMARK VINA RESULT:      -4.5      1.894      2.783
REMARK  1 active torsions:
REMARK  status: ('A' for Active; 'I' for Inactive)
REMARK    1  A    between atoms: C5_5  and  C7_7 
ROOT
HETATM    1  C1  UNL     1     -34.100  16.148  -6.666  1.00 20.00     0.002 C 
HETATM    2  C2  UNL     1     -33.449  16.322  -5.302  1.00 20.00     0.013 C 
HETATM    3  C3  UNL     1     -34.923  14.863  -6.779  1.00 20.00     0.020 C 
HETATM    4  C4  UNL     1     -35.692  15.424  -4.422  1.00 20.00     0.033 C 
HETATM    5  C5  UNL     1     -34.496  16.370  -4.181  1.00 20.00     0.095 C 
HETATM    6  C6  UNL     1     -35.439  14.315  -5.444  1.00 20.00     0.083 C 
HETATM    7 CL11 UNL     1     -34.305  13.094  -4.780  1.00 20.00    -0.125 Cl
ENDROOT
BRANCH   5   8
HETATM    8  C7  UNL     1     -33.840  16.133  -2.820  1.00 20.00     0.391 C 
HETATM    9  F8  UNL     1     -33.470  17.304  -2.278  1.00 20.00    -0.171 F 
HETATM   10  F9  UNL     1     -34.703  15.524  -1.993  1.00 20.00    -0.171 F 
HETATM   11  F10 UNL     1     -32.754  15.358  -2.962  1.00 20.00    -0.171 F 
ENDBRANCH   5   8
TORSDOF 1
ENDMDL
MODEL 6
REMARK VINA RESULT:      -4.5      2.394      3.534
REMARK  1 active torsions:
REMARK  status: ('A' for Active; 'I' for Inactive)
REMARK    1  A    between atoms: C5_5  and  C7_7 
ROOT
HETATM    1  C1  UNL     1     -35.011  16.967  -1.425  1.00 20.00     0.002 C 
HETATM    2  C2  UNL     1     -33.894  16.293  -2.208  1.00 20.00     0.013 C 
HETATM    3  C3  UNL     1     -36.201  17.365  -2.301  1.00 20.00     0.020 C 
HETATM    4  C4  UNL     1     -35.830  15.115  -3.424  1.00 20.00     0.033 C 
HETATM    5  C5  UNL     1     -34.384  15.010  -2.894  1.00 20.00     0.095 C 
HETATM    6  C6  UNL     1     -36.353  16.543  -3.585  1.00 20.00     0.083 C 
HETATM    7 CL11 UNL     1     -35.541  17.360  -4.959  1.00 20.00    -0.125 Cl
ENDROOT
BRANCH   5   8
HETATM    8  C7  UNL     1     -33.402  14.574  -3.983  1.00 20.00     0.391 C 
HETATM    9  F8  UNL     1     -34.055  14.385  -5.141  1.00 20.00    -0.171 F 
HETATM   10  F9  UNL     1     -32.464  15.516  -4.161  1.00 20.00    -0.171 F 
HETATM   11  F10 UNL     1     -32.805  13.426  -3.630  1.00 20.00    -0.171 F 
ENDBRANCH   5   8
TORSDOF 1
ENDMDL
MODEL 7
REMARK VINA RESULT:      -4.4      2.535      3.117
REMARK  1 active torsions:
REMARK  status: ('A' for Active; 'I' for Inactive)
REMARK    1  A    between atoms: C5_5  and  C7_7 
ROOT
HETATM    1  C1  UNL     1     -35.462  14.469  -6.876  1.00 20.00     0.002 C 
HETATM    2  C2  UNL     1     -34.594  13.989  -5.721  1.00 20.00     0.013 C 
HETATM    3  C3  UNL     1     -36.713  15.218  -6.413  1.00 20.00     0.020 C 
HETATM    4  C4  UNL     1     -35.163  16.279  -4.700  1.00 20.00     0.033 C 
HETATM    5  C5  UNL     1     -34.111  15.160  -4.855  1.00 20.00     0.095 C 
HETATM    6  C6  UNL     1     -36.598  15.862  -5.027  1.00 20.00     0.083 C 
HETATM    7 CL11 UNL     1     -37.238  14.762  -3.764  1.00 20.00    -0.125 Cl
ENDROOT
BRANCH   5   8
HETATM    8  C7  UNL     1     -33.603  14.657  -3.503  1.00 20.00     0.391 C 
HETATM    9  F8  UNL     1     -34.176  13.480  -3.206  1.00 20.00    -0.171 F 
HETATM   10  F9  UNL     1     -32.272  14.494  -3.545  1.00 20.00    -0.171 F 
HETATM   11  F10 UNL     1     -33.904  15.541  -2.541  1.00 20.00    -0.171 F 
ENDBRANCH   5   8
TORSDOF 1
ENDMDL
MODEL 8
REMARK VINA RESULT:      -4.4      1.916      2.628
REMARK  1 active torsions:
REMARK  status: ('A' for Active; 'I' for Inactive)
REMARK    1  A    between atoms: C5_5  and  C7_7 
ROOT
HETATM    1  C1  UNL     1     -36.792  14.493  -4.051  1.00 20.00     0.002 C 
HETATM    2  C2  UNL     1     -35.484  14.851  -3.360  1.00 20.00     0.013 C 
HETATM    3  C3  UNL     1     -36.984  15.222  -5.383  1.00 20.00     0.020 C 
HETATM    4  C4  UNL     1     -34.513  14.739  -5.738  1.00 20.00     0.033 C 
HETATM    5  C5  UNL     1     -34.272  14.499  -4.233  1.00 20.00     0.095 C 
HETATM    6  C6  UNL     1     -35.684  15.669  -6.061  1.00 20.00     0.083 C 
HETATM    7 CL11 UNL     1     -35.287  17.360  -5.615  1.00 20.00    -0.125 Cl
ENDROOT
BRANCH   5   8
HETATM    8  C7  UNL     1     -33.019  15.217  -3.729  1.00 20.00     0.391 C 
HETATM    9  F8  UNL     1     -33.304  15.914  -2.617  1.00 20.00    -0.171 F 
HETATM   10  F9  UNL     1     -32.058  14.324  -3.448  1.00 20.00    -0.171 F 
HETATM   11  F10 UNL     1     -32.566  16.063  -4.666  1.00 20.00    -0.171 F 
ENDBRANCH   5   8
TORSDOF 1
ENDMDL
MODEL 9
REMARK VINA RESULT:      -4.4      1.913      2.815
REMARK  1 active torsions:
REMARK  status: ('A' for Active; 'I' for Inactive)
REMARK    1  A    between atoms: C5_5  and  C7_7 
ROOT
HETATM    1  C1  UNL     1     -36.819  14.604  -3.912  1.00 20.00     0.002 C 
HETATM    2  C2  UNL     1     -35.500  15.014  -3.274  1.00 20.00     0.013 C 
HETATM    3  C3  UNL     1     -36.982  15.126  -5.340  1.00 20.00     0.020 C 
HETATM    4  C4  UNL     1     -34.532  14.503  -5.601  1.00 20.00     0.033 C 
HETATM    5  C5  UNL     1     -34.301  14.487  -4.075  1.00 20.00     0.095 C 
HETATM    6  C6  UNL     1     -35.666  15.415  -6.070  1.00 20.00     0.083 C 
HETATM    7 CL11 UNL     1     -35.206  17.139  -5.886  1.00 20.00    -0.125 Cl
ENDROOT
BRANCH   5   8
HETATM    8  C7  UNL     1     -33.022  15.227  -3.679  1.00 20.00     0.391 C 
HETATM    9  F8  UNL     1     -32.644  16.053  -4.667  1.00 20.00    -0.171 F 
HETATM   10  F9  UNL     1     -33.234  15.948  -2.567  1.00 20.00    -0.171 F 
HETATM   11  F10 UNL     1     -32.036  14.348  -3.446  1.00 20.00    -0.171 F 
ENDBRANCH   5   8
TORSDOF 1
ENDMDL
