MODEL 1
REMARK VINA RESULT:      -4.3      0.000      0.000
REMARK  4 active torsions:
REMARK  status: ('A' for Active; 'I' for Inactive)
REMARK    1  A    between atoms: C2_2  and  C6_6 
REMARK    2  A    between atoms: C6_6  and  C8_8 
REMARK    3  A    between atoms: C7_7  and  C8_8 
REMARK    4  A    between atoms: C7_7  and  C9_9 
ROOT
HETATM    1  C1  UNL     1     -34.677  16.947  -0.533  1.00 20.00    -0.111 C 
HETATM    2  C2  UNL     1     -34.752  16.306  -1.545  1.00 20.00    -0.107 C 
HETATM    3  C3  UNL     1     -34.585  17.723   0.703  1.00 20.00     0.112 C 
ENDROOT
BRANCH   2   4
HETATM    4  C6  UNL     1     -34.850  15.524  -2.786  1.00 20.00     0.098 C 
BRANCH   4   5
HETATM    5  C8  UNL     1     -33.484  15.145  -3.389  1.00 20.00    -0.006 C 
HETATM    6  C4  UNL     1     -33.453  13.665  -3.798  1.00 20.00     0.011 C 
BRANCH   5   7
HETATM    7  C7  UNL     1     -33.040  16.023  -4.584  1.00 20.00     0.020 C 
BRANCH   7   8
HETATM    8  C9  UNL     1     -34.159  16.514  -5.510  1.00 20.00     0.054 C 
HETATM    9  C5  UNL     1     -34.207  15.706  -6.801  1.00 20.00     0.022 C 
HETATM   10 BR10 UNL     1     -33.867  18.391  -5.991  1.00 20.00    -0.092 Br
ENDBRANCH   7   8
ENDBRANCH   5   7
ENDBRANCH   4   5
ENDBRANCH   2   4
TORSDOF 4
ENDMDL
MODEL 2
REMARK VINA RESULT:      -4.2      1.540      4.557
REMARK  4 active torsions:
REMARK  status: ('A' for Active; 'I' for Inactive)
REMARK    1  A    between atoms: C2_2  and  C6_6 
REMARK    2  A    between atoms: C6_6  and  C8_8 
REMARK    3  A    between atoms: C7_7  and  C8_8 
REMARK    4  A    between atoms: C7_7  and  C9_9 
ROOT
HETATM    1  C1  UNL     1     -34.809  15.312  -6.812  1.00 20.00    -0.111 C 
HETATM    2  C2  UNL     1     -34.794  14.418  -6.011  1.00 20.00    -0.107 C 
HETATM    3  C3  UNL     1     -34.824  16.399  -7.790  1.00 20.00     0.112 C 
ENDROOT
BRANCH   2   4
HETATM    4  C6  UNL     1     -34.774  13.328  -5.025  1.00 20.00     0.098 C 
BRANCH   4   5
HETATM    5  C8  UNL     1     -34.344  13.776  -3.615  1.00 20.00    -0.006 C 
HETATM    6  C4  UNL     1     -32.818  13.931  -3.528  1.00 20.00     0.011 C 
BRANCH   5   7
HETATM    7  C7  UNL     1     -35.026  15.072  -3.114  1.00 20.00     0.020 C 
BRANCH   7   8
HETATM    8  C9  UNL     1     -34.097  16.130  -2.507  1.00 20.00     0.054 C 
HETATM    9  C5  UNL     1     -34.594  16.586  -1.140  1.00 20.00     0.022 C 
HETATM   10 BR10 UNL     1     -34.012  17.705  -3.668  1.00 20.00    -0.092 Br
ENDBRANCH   7   8
ENDBRANCH   5   7
ENDBRANCH   4   5
ENDBRANCH   2   4
TORSDOF 4
ENDMDL
MODEL 3
REMARK VINA RESULT:      -4.1      1.801      2.091
REMARK  4 active torsions:
REMARK  status: ('A' for Active; 'I' for Inactive)
REMARK    1  A    between atoms: C2_2  and  C6_6 
REMARK    2  A    between atoms: C6_6  and  C8_8 
REMARK    3  A    between atoms: C7_7  and  C8_8 
REMARK    4  A    between atoms: C7_7  and  C9_9 
ROOT
HETATM    1  C1  UNL     1     -34.533  16.570  -1.421  1.00 20.00    -0.111 C 
HETATM    2  C2  UNL     1     -34.954  15.837  -2.275  1.00 20.00    -0.107 C 
HETATM    3  C3  UNL     1     -34.018  17.462  -0.384  1.00 20.00     0.112 C 
ENDROOT
BRANCH   2   4
HETATM    4  C6  UNL     1     -35.468  14.935  -3.316  1.00 20.00     0.098 C 
BRANCH   4   5
HETATM    5  C8  UNL     1     -34.409  14.523  -4.355  1.00 20.00    -0.006 C 
HETATM    6  C4  UNL     1     -33.273  13.725  -3.697  1.00 20.00     0.011 C 
BRANCH   5   7
HETATM    7  C7  UNL     1     -34.965  13.732  -5.564  1.00 20.00     0.020 C 
BRANCH   7   8
HETATM    8  C9  UNL     1     -35.164  14.532  -6.857  1.00 20.00     0.054 C 
HETATM    9  C5  UNL     1     -34.197  15.707  -6.937  1.00 20.00     0.022 C 
HETATM   10 BR10 UNL     1     -36.985  15.251  -6.937  1.00 20.00    -0.092 Br
ENDBRANCH   7   8
ENDBRANCH   5   7
ENDBRANCH   4   5
ENDBRANCH   2   4
TORSDOF 4
ENDMDL
MODEL 4
REMARK VINA RESULT:      -4.1      1.172      1.660
REMARK  4 active torsions:
REMARK  status: ('A' for Active; 'I' for Inactive)
REMARK    1  A    between atoms: C2_2  and  C6_6 
REMARK    2  A    between atoms: C6_6  and  C8_8 
REMARK    3  A    between atoms: C7_7  and  C8_8 
REMARK    4  A    between atoms: C7_7  and  C9_9 
ROOT
HETATM    1  C1  UNL     1     -34.259  16.422  -1.696  1.00 20.00    -0.111 C 
HETATM    2  C2  UNL     1     -33.795  15.916  -2.680  1.00 20.00    -0.107 C 
HETATM    3  C3  UNL     1     -34.825  17.035  -0.495  1.00 20.00     0.112 C 
ENDROOT
BRANCH   2   4
HETATM    4  C6  UNL     1     -33.232  15.298  -3.890  1.00 20.00     0.098 C 
BRANCH   4   5
HETATM    5  C8  UNL     1     -34.283  14.604  -4.777  1.00 20.00    -0.006 C 
HETATM    6  C4  UNL     1     -34.834  13.343  -4.095  1.00 20.00     0.011 C 
BRANCH   5   7
HETATM    7  C7  UNL     1     -35.458  15.511  -5.215  1.00 20.00     0.020 C 
BRANCH   7   8
HETATM    8  C9  UNL     1     -35.421  16.006  -6.665  1.00 20.00     0.054 C 
HETATM    9  C5  UNL     1     -34.774  14.979  -7.586  1.00 20.00     0.022 C 
HETATM   10 BR10 UNL     1     -34.381  17.662  -6.792  1.00 20.00    -0.092 Br
ENDBRANCH   7   8
ENDBRANCH   5   7
ENDBRANCH   4   5
ENDBRANCH   2   4
TORSDOF 4
ENDMDL
MODEL 5
REMARK VINA RESULT:      -4.1      1.312      1.719
REMARK  4 active torsions:
REMARK  status: ('A' for Active; 'I' for Inactive)
REMARK    1  A    between atoms: C2_2  and  C6_6 
REMARK    2  A    between atoms: C6_6  and  C8_8 
REMARK    3  A    between atoms: C7_7  and  C8_8 
REMARK    4  A    between atoms: C7_7  and  C9_9 
ROOT
HETATM    1  C1  UNL     1     -34.611  16.767  -0.735  1.00 20.00    -0.111 C 
HETATM    2  C2  UNL     1     -34.234  16.283  -1.767  1.00 20.00    -0.107 C 
HETATM    3  C3  UNL     1     -35.066  17.360   0.521  1.00 20.00     0.112 C 
ENDROOT
BRANCH   2   4
HETATM    4  C6  UNL     1     -33.771  15.684  -3.028  1.00 20.00     0.098 C 
BRANCH   4   5
HETATM    5  C8  UNL     1     -34.750  14.652  -3.618  1.00 20.00    -0.006 C 
HETATM    6  C4  UNL     1     -36.206  15.104  -3.432  1.00 20.00     0.011 C 
BRANCH   5   7
HETATM    7  C7  UNL     1     -34.502  14.304  -5.106  1.00 20.00     0.020 C 
BRANCH   7   8
HETATM    8  C9  UNL     1     -35.305  15.115  -6.130  1.00 20.00     0.054 C 
HETATM    9  C5  UNL     1     -35.447  14.361  -7.447  1.00 20.00     0.022 C 
HETATM   10 BR10 UNL     1     -34.405  16.813  -6.508  1.00 20.00    -0.092 Br
ENDBRANCH   7   8
ENDBRANCH   5   7
ENDBRANCH   4   5
ENDBRANCH   2   4
TORSDOF 4
ENDMDL
MODEL 6
REMARK VINA RESULT:      -4.1     11.255     12.812
REMARK  4 active torsions:
REMARK  status: ('A' for Active; 'I' for Inactive)
REMARK    1  A    between atoms: C2_2  and  C6_6 
REMARK    2  A    between atoms: C6_6  and  C8_8 
REMARK    3  A    between atoms: C7_7  and  C8_8 
REMARK    4  A    between atoms: C7_7  and  C9_9 
ROOT
HETATM    1  C1  UNL     1     -32.165   8.627   1.673  1.00 20.00    -0.111 C 
HETATM    2  C2  UNL     1     -32.424   7.676   2.358  1.00 20.00    -0.107 C 
HETATM    3  C3  UNL     1     -31.851   9.788   0.841  1.00 20.00     0.112 C 
ENDROOT
BRANCH   2   4
HETATM    4  C6  UNL     1     -32.745   6.508   3.192  1.00 20.00     0.098 C 
BRANCH   4   5
HETATM    5  C8  UNL     1     -34.114   5.879   2.874  1.00 20.00    -0.006 C 
HETATM    6  C4  UNL     1     -33.953   4.604   2.033  1.00 20.00     0.011 C 
BRANCH   5   7
HETATM    7  C7  UNL     1     -34.988   5.573   4.115  1.00 20.00     0.020 C 
BRANCH   7   8
HETATM    8  C9  UNL     1     -34.234   5.159   5.384  1.00 20.00     0.054 C 
HETATM    9  C5  UNL     1     -35.032   4.149   6.199  1.00 20.00     0.022 C 
HETATM   10 BR10 UNL     1     -33.909   6.721   6.521  1.00 20.00    -0.092 Br
ENDBRANCH   7   8
ENDBRANCH   5   7
ENDBRANCH   4   5
ENDBRANCH   2   4
TORSDOF 4
ENDMDL
MODEL 7
REMARK VINA RESULT:      -4.0      2.110      2.495
REMARK  4 active torsions:
REMARK  status: ('A' for Active; 'I' for Inactive)
REMARK    1  A    between atoms: C2_2  and  C6_6 
REMARK    2  A    between atoms: C6_6  and  C8_8 
REMARK    3  A    between atoms: C7_7  and  C8_8 
REMARK    4  A    between atoms: C7_7  and  C9_9 
ROOT
HETATM    1  C1  UNL     1     -34.805  17.096  -0.075  1.00 20.00    -0.111 C 
HETATM    2  C2  UNL     1     -34.426  16.713  -1.148  1.00 20.00    -0.107 C 
HETATM    3  C3  UNL     1     -35.268  17.558   1.233  1.00 20.00     0.112 C 
ENDROOT
BRANCH   2   4
HETATM    4  C6  UNL     1     -33.966  16.248  -2.464  1.00 20.00     0.098 C 
BRANCH   4   5
HETATM    5  C8  UNL     1     -34.619  16.991  -3.645  1.00 20.00    -0.006 C 
HETATM    6  C4  UNL     1     -33.621  17.950  -4.312  1.00 20.00     0.011 C 
BRANCH   5   7
HETATM    7  C7  UNL     1     -35.249  16.070  -4.719  1.00 20.00     0.020 C 
BRANCH   7   8
HETATM    8  C9  UNL     1     -34.298  15.075  -5.393  1.00 20.00     0.054 C 
HETATM    9  C5  UNL     1     -34.463  15.089  -6.908  1.00 20.00     0.022 C 
HETATM   10 BR10 UNL     1     -34.666  13.254  -4.769  1.00 20.00    -0.092 Br
ENDBRANCH   7   8
ENDBRANCH   5   7
ENDBRANCH   4   5
ENDBRANCH   2   4
TORSDOF 4
ENDMDL
MODEL 8
REMARK VINA RESULT:      -4.0      1.839      2.102
REMARK  4 active torsions:
REMARK  status: ('A' for Active; 'I' for Inactive)
REMARK    1  A    between atoms: C2_2  and  C6_6 
REMARK    2  A    between atoms: C6_6  and  C8_8 
REMARK    3  A    between atoms: C7_7  and  C8_8 
REMARK    4  A    between atoms: C7_7  and  C9_9 
ROOT
HETATM    1  C1  UNL     1     -34.331  16.729  -1.328  1.00 20.00    -0.111 C 
HETATM    2  C2  UNL     1     -33.928  16.380  -2.404  1.00 20.00    -0.107 C 
HETATM    3  C3  UNL     1     -34.825  17.150  -0.018  1.00 20.00     0.112 C 
ENDROOT
BRANCH   2   4
HETATM    4  C6  UNL     1     -33.436  15.959  -3.724  1.00 20.00     0.098 C 
BRANCH   4   5
HETATM    5  C8  UNL     1     -34.054  14.640  -4.222  1.00 20.00    -0.006 C 
HETATM    6  C4  UNL     1     -33.259  13.430  -3.709  1.00 20.00     0.011 C 
BRANCH   5   7
HETATM    7  C7  UNL     1     -35.553  14.458  -3.879  1.00 20.00     0.020 C 
BRANCH   7   8
HETATM    8  C9  UNL     1     -36.549  14.928  -4.945  1.00 20.00     0.054 C 
HETATM    9  C5  UNL     1     -35.936  14.874  -6.340  1.00 20.00     0.022 C 
HETATM   10 BR10 UNL     1     -37.089  16.779  -4.602  1.00 20.00    -0.092 Br
ENDBRANCH   7   8
ENDBRANCH   5   7
ENDBRANCH   4   5
ENDBRANCH   2   4
TORSDOF 4
ENDMDL
MODEL 9
REMARK VINA RESULT:      -4.0      2.309      2.820
REMARK  4 active torsions:
REMARK  status: ('A' for Active; 'I' for Inactive)
REMARK    1  A    between atoms: C2_2  and  C6_6 
REMARK    2  A    between atoms: C6_6  and  C8_8 
REMARK    3  A    between atoms: C7_7  and  C8_8 
REMARK    4  A    between atoms: C7_7  and  C9_9 
ROOT
HETATM    1  C1  UNL     1     -33.115  18.219  -0.456  1.00 20.00    -0.111 C 
HETATM    2  C2  UNL     1     -33.861  17.362  -0.845  1.00 20.00    -0.107 C 
HETATM    3  C3  UNL     1     -32.209  19.263   0.022  1.00 20.00     0.112 C 
ENDROOT
BRANCH   2   4
HETATM    4  C6  UNL     1     -34.775  16.316  -1.326  1.00 20.00     0.098 C 
BRANCH   4   5
HETATM    5  C8  UNL     1     -34.697  16.077  -2.845  1.00 20.00    -0.006 C 
HETATM    6  C4  UNL     1     -33.717  17.057  -3.508  1.00 20.00     0.011 C 
BRANCH   5   7
HETATM    7  C7  UNL     1     -34.335  14.628  -3.253  1.00 20.00     0.020 C 
BRANCH   7   8
HETATM    8  C9  UNL     1     -35.324  13.927  -4.192  1.00 20.00     0.054 C 
HETATM    9  C5  UNL     1     -34.894  14.057  -5.648  1.00 20.00     0.022 C 
HETATM   10 BR10 UNL     1     -37.105  14.724  -4.020  1.00 20.00    -0.092 Br
ENDBRANCH   7   8
ENDBRANCH   5   7
ENDBRANCH   4   5
ENDBRANCH   2   4
TORSDOF 4
ENDMDL
