MODEL 1
REMARK VINA RESULT:      -3.9      0.000      0.000
REMARK  3 active torsions:
REMARK  status: ('A' for Active; 'I' for Inactive)
REMARK    1  A    between atoms: C6_6  and  C7_7 
REMARK    2  A    between atoms: C6_6  and  C8_8 
REMARK    3  A    between atoms: C7_7  and  C9_9 
ROOT
HETATM    1  C1  UNL     1     -34.469  16.490  -1.293  1.00 20.00     0.011 C 
HETATM    2  C7  UNL     1     -34.245  16.065  -2.755  1.00 20.00    -0.010 C 
ENDROOT
BRANCH   2   3
HETATM    3  C6  UNL     1     -35.249  14.942  -3.148  1.00 20.00     0.024 C 
BRANCH   3   4
HETATM    4  C8  UNL     1     -34.650  13.694  -3.824  1.00 20.00     0.078 C 
HETATM    5  C2  UNL     1     -34.964  13.681  -5.316  1.00 20.00     0.026 C 
HETATM    6 CL10 UNL     1     -32.875  13.631  -3.611  1.00 20.00    -0.125 Cl
ENDBRANCH   3   4
ENDBRANCH   2   3
BRANCH   2   7
HETATM    7  C9  UNL     1     -34.259  17.287  -3.757  1.00 20.00    -0.048 C 
HETATM    8  C3  UNL     1     -33.374  17.045  -4.994  1.00 20.00     0.015 C 
HETATM    9  C4  UNL     1     -35.699  17.567  -4.244  1.00 20.00     0.015 C 
HETATM   10  C5  UNL     1     -33.767  18.573  -3.056  1.00 20.00     0.015 C 
ENDBRANCH   2   7
TORSDOF 3
ENDMDL
MODEL 2
REMARK VINA RESULT:      -3.7      1.943      3.839
REMARK  3 active torsions:
REMARK  status: ('A' for Active; 'I' for Inactive)
REMARK    1  A    between atoms: C6_6  and  C7_7 
REMARK    2  A    between atoms: C6_6  and  C8_8 
REMARK    3  A    between atoms: C7_7  and  C9_9 
ROOT
HETATM    1  C1  UNL     1     -32.680  14.263  -3.502  1.00 20.00     0.011 C 
HETATM    2  C7  UNL     1     -33.972  15.085  -3.347  1.00 20.00    -0.010 C 
ENDROOT
BRANCH   2   3
HETATM    3  C6  UNL     1     -33.651  16.607  -3.413  1.00 20.00     0.024 C 
BRANCH   3   4
HETATM    4  C8  UNL     1     -34.232  17.479  -2.284  1.00 20.00     0.078 C 
HETATM    5  C2  UNL     1     -35.492  18.202  -2.748  1.00 20.00     0.026 C 
HETATM    6 CL10 UNL     1     -34.634  16.493  -0.846  1.00 20.00    -0.125 Cl
ENDBRANCH   3   4
ENDBRANCH   2   3
BRANCH   2   7
HETATM    7  C9  UNL     1     -35.103  14.646  -4.359  1.00 20.00    -0.048 C 
HETATM    8  C3  UNL     1     -36.509  14.697  -3.730  1.00 20.00     0.015 C 
HETATM    9  C4  UNL     1     -35.099  15.564  -5.602  1.00 20.00     0.015 C 
HETATM   10  C5  UNL     1     -34.854  13.207  -4.865  1.00 20.00     0.015 C 
ENDBRANCH   2   7
TORSDOF 3
ENDMDL
MODEL 3
REMARK VINA RESULT:      -3.7      1.958      3.682
REMARK  3 active torsions:
REMARK  status: ('A' for Active; 'I' for Inactive)
REMARK    1  A    between atoms: C6_6  and  C7_7 
REMARK    2  A    between atoms: C6_6  and  C8_8 
REMARK    3  A    between atoms: C7_7  and  C9_9 
ROOT
HETATM    1  C1  UNL     1     -32.585  14.436  -3.506  1.00 20.00     0.011 C 
HETATM    2  C7  UNL     1     -33.918  15.185  -3.327  1.00 20.00    -0.010 C 
ENDROOT
BRANCH   2   3
HETATM    3  C6  UNL     1     -33.685  16.722  -3.405  1.00 20.00     0.024 C 
BRANCH   3   4
HETATM    4  C8  UNL     1     -34.240  17.560  -2.238  1.00 20.00     0.078 C 
HETATM    5  C2  UNL     1     -35.504  18.305  -2.656  1.00 20.00     0.026 C 
HETATM    6 CL10 UNL     1     -34.623  16.528  -0.827  1.00 20.00    -0.125 Cl
ENDBRANCH   3   4
ENDBRANCH   2   3
BRANCH   2   7
HETATM    7  C9  UNL     1     -35.044  14.677  -4.313  1.00 20.00    -0.048 C 
HETATM    8  C3  UNL     1     -34.828  13.216  -4.751  1.00 20.00     0.015 C 
HETATM    9  C4  UNL     1     -36.432  14.777  -3.641  1.00 20.00     0.015 C 
HETATM   10  C5  UNL     1     -35.096  15.559  -5.581  1.00 20.00     0.015 C 
ENDBRANCH   2   7
TORSDOF 3
ENDMDL
MODEL 4
REMARK VINA RESULT:      -3.7      1.868      4.064
REMARK  3 active torsions:
REMARK  status: ('A' for Active; 'I' for Inactive)
REMARK    1  A    between atoms: C6_6  and  C7_7 
REMARK    2  A    between atoms: C6_6  and  C8_8 
REMARK    3  A    between atoms: C7_7  and  C9_9 
ROOT
HETATM    1  C1  UNL     1     -33.326  16.921  -5.443  1.00 20.00     0.011 C 
HETATM    2  C7  UNL     1     -33.591  16.169  -4.127  1.00 20.00    -0.010 C 
ENDROOT
BRANCH   2   3
HETATM    3  C6  UNL     1     -34.342  17.091  -3.122  1.00 20.00     0.024 C 
BRANCH   3   4
HETATM    4  C8  UNL     1     -33.677  17.292  -1.748  1.00 20.00     0.078 C 
HETATM    5  C2  UNL     1     -33.392  18.769  -1.493  1.00 20.00     0.026 C 
HETATM    6 CL10 UNL     1     -34.717  16.674  -0.429  1.00 20.00    -0.125 Cl
ENDBRANCH   3   4
ENDBRANCH   2   3
BRANCH   2   7
HETATM    7  C9  UNL     1     -34.310  14.779  -4.349  1.00 20.00    -0.048 C 
HETATM    8  C3  UNL     1     -34.572  14.482  -5.837  1.00 20.00     0.015 C 
HETATM    9  C4  UNL     1     -33.449  13.630  -3.774  1.00 20.00     0.015 C 
HETATM   10  C5  UNL     1     -35.663  14.740  -3.604  1.00 20.00     0.015 C 
ENDBRANCH   2   7
TORSDOF 3
ENDMDL
MODEL 5
REMARK VINA RESULT:      -3.7      2.141      3.834
REMARK  3 active torsions:
REMARK  status: ('A' for Active; 'I' for Inactive)
REMARK    1  A    between atoms: C6_6  and  C7_7 
REMARK    2  A    between atoms: C6_6  and  C8_8 
REMARK    3  A    between atoms: C7_7  and  C9_9 
ROOT
HETATM    1  C1  UNL     1     -36.711  15.121  -3.513  1.00 20.00     0.011 C 
HETATM    2  C7  UNL     1     -35.287  15.704  -3.460  1.00 20.00    -0.010 C 
ENDROOT
BRANCH   2   3
HETATM    3  C6  UNL     1     -34.837  15.889  -1.982  1.00 20.00     0.024 C 
BRANCH   3   4
HETATM    4  C8  UNL     1     -34.876  17.326  -1.428  1.00 20.00     0.078 C 
HETATM    5  C2  UNL     1     -34.718  17.328   0.089  1.00 20.00     0.026 C 
HETATM    6 CL10 UNL     1     -33.579  18.330  -2.142  1.00 20.00    -0.125 Cl
ENDBRANCH   3   4
ENDBRANCH   2   3
BRANCH   2   7
HETATM    7  C9  UNL     1     -34.254  14.878  -4.324  1.00 20.00    -0.048 C 
HETATM    8  C3  UNL     1     -34.628  13.386  -4.423  1.00 20.00     0.015 C 
HETATM    9  C4  UNL     1     -34.174  15.449  -5.759  1.00 20.00     0.015 C 
HETATM   10  C5  UNL     1     -32.835  14.980  -3.723  1.00 20.00     0.015 C 
ENDBRANCH   2   7
TORSDOF 3
ENDMDL
MODEL 6
REMARK VINA RESULT:      -3.7      1.786      3.778
REMARK  3 active torsions:
REMARK  status: ('A' for Active; 'I' for Inactive)
REMARK    1  A    between atoms: C6_6  and  C7_7 
REMARK    2  A    between atoms: C6_6  and  C8_8 
REMARK    3  A    between atoms: C7_7  and  C9_9 
ROOT
HETATM    1  C1  UNL     1     -34.578  14.937  -7.313  1.00 20.00     0.011 C 
HETATM    2  C7  UNL     1     -34.809  15.038  -5.795  1.00 20.00    -0.010 C 
ENDROOT
BRANCH   2   3
HETATM    3  C6  UNL     1     -33.733  15.958  -5.148  1.00 20.00     0.024 C 
BRANCH   3   4
HETATM    4  C8  UNL     1     -33.085  15.447  -3.848  1.00 20.00     0.078 C 
HETATM    5  C2  UNL     1     -33.740  16.085  -2.627  1.00 20.00     0.026 C 
HETATM    6 CL10 UNL     1     -33.227  13.669  -3.710  1.00 20.00    -0.125 Cl
ENDBRANCH   3   4
ENDBRANCH   2   3
BRANCH   2   7
HETATM    7  C9  UNL     1     -36.287  15.458  -5.426  1.00 20.00    -0.048 C 
HETATM    8  C3  UNL     1     -36.838  14.674  -4.219  1.00 20.00     0.015 C 
HETATM    9  C4  UNL     1     -36.350  16.965  -5.089  1.00 20.00     0.015 C 
HETATM   10  C5  UNL     1     -37.235  15.227  -6.624  1.00 20.00     0.015 C 
ENDBRANCH   2   7
TORSDOF 3
ENDMDL
MODEL 7
REMARK VINA RESULT:      -3.6      2.012      3.409
REMARK  3 active torsions:
REMARK  status: ('A' for Active; 'I' for Inactive)
REMARK    1  A    between atoms: C6_6  and  C7_7 
REMARK    2  A    between atoms: C6_6  and  C8_8 
REMARK    3  A    between atoms: C7_7  and  C9_9 
ROOT
HETATM    1  C1  UNL     1     -35.025  13.528  -4.169  1.00 20.00     0.011 C 
HETATM    2  C7  UNL     1     -35.004  15.061  -4.032  1.00 20.00    -0.010 C 
ENDROOT
BRANCH   2   3
HETATM    3  C6  UNL     1     -34.081  15.483  -2.853  1.00 20.00     0.024 C 
BRANCH   3   4
HETATM    4  C8  UNL     1     -34.742  16.289  -1.719  1.00 20.00     0.078 C 
HETATM    5  C2  UNL     1     -33.757  17.283  -1.112  1.00 20.00     0.026 C 
HETATM    6 CL10 UNL     1     -36.171  17.188  -2.313  1.00 20.00    -0.125 Cl
ENDBRANCH   3   4
ENDBRANCH   2   3
BRANCH   2   7
HETATM    7  C9  UNL     1     -34.651  15.792  -5.388  1.00 20.00    -0.048 C 
HETATM    8  C3  UNL     1     -34.467  14.807  -6.558  1.00 20.00     0.015 C 
HETATM    9  C4  UNL     1     -35.770  16.788  -5.770  1.00 20.00     0.015 C 
HETATM   10  C5  UNL     1     -33.351  16.615  -5.242  1.00 20.00     0.015 C 
ENDBRANCH   2   7
TORSDOF 3
ENDMDL
MODEL 8
REMARK VINA RESULT:      -3.6      1.933      3.711
REMARK  3 active torsions:
REMARK  status: ('A' for Active; 'I' for Inactive)
REMARK    1  A    between atoms: C6_6  and  C7_7 
REMARK    2  A    between atoms: C6_6  and  C8_8 
REMARK    3  A    between atoms: C7_7  and  C9_9 
ROOT
HETATM    1  C1  UNL     1     -36.837  15.125  -3.437  1.00 20.00     0.011 C 
HETATM    2  C7  UNL     1     -35.477  15.570  -4.004  1.00 20.00    -0.010 C 
ENDROOT
BRANCH   2   3
HETATM    3  C6  UNL     1     -34.344  15.276  -2.978  1.00 20.00     0.024 C 
BRANCH   3   4
HETATM    4  C8  UNL     1     -33.816  16.481  -2.177  1.00 20.00     0.078 C 
HETATM    5  C2  UNL     1     -33.988  17.776  -2.965  1.00 20.00     0.026 C 
HETATM    6 CL10 UNL     1     -34.671  16.644  -0.614  1.00 20.00    -0.125 Cl
ENDBRANCH   3   4
ENDBRANCH   2   3
BRANCH   2   7
HETATM    7  C9  UNL     1     -35.186  14.971  -5.437  1.00 20.00    -0.048 C 
HETATM    8  C3  UNL     1     -36.421  15.014  -6.356  1.00 20.00     0.015 C 
HETATM    9  C4  UNL     1     -34.046  15.756  -6.127  1.00 20.00     0.015 C 
HETATM   10  C5  UNL     1     -34.715  13.503  -5.330  1.00 20.00     0.015 C 
ENDBRANCH   2   7
TORSDOF 3
ENDMDL
MODEL 9
REMARK VINA RESULT:      -3.6      2.193      3.651
REMARK  3 active torsions:
REMARK  status: ('A' for Active; 'I' for Inactive)
REMARK    1  A    between atoms: C6_6  and  C7_7 
REMARK    2  A    between atoms: C6_6  and  C8_8 
REMARK    3  A    between atoms: C7_7  and  C9_9 
ROOT
HETATM    1  C1  UNL     1     -36.575  15.127  -3.535  1.00 20.00     0.011 C 
HETATM    2  C7  UNL     1     -35.192  15.794  -3.420  1.00 20.00    -0.010 C 
ENDROOT
BRANCH   2   3
HETATM    3  C6  UNL     1     -34.709  15.780  -1.941  1.00 20.00     0.024 C 
BRANCH   3   4
HETATM    4  C8  UNL     1     -34.270  17.133  -1.350  1.00 20.00     0.078 C 
HETATM    5  C2  UNL     1     -34.811  18.290  -2.183  1.00 20.00     0.026 C 
HETATM    6 CL10 UNL     1     -34.845  17.320   0.334  1.00 20.00    -0.125 Cl
ENDBRANCH   3   4
ENDBRANCH   2   3
BRANCH   2   7
HETATM    7  C9  UNL     1     -34.133  15.185  -4.424  1.00 20.00    -0.048 C 
HETATM    8  C3  UNL     1     -33.307  14.050  -3.791  1.00 20.00     0.015 C 
HETATM    9  C4  UNL     1     -34.842  14.623  -5.677  1.00 20.00     0.015 C 
HETATM   10  C5  UNL     1     -33.157  16.277  -4.914  1.00 20.00     0.015 C 
ENDBRANCH   2   7
TORSDOF 3
ENDMDL
