MODEL 1
REMARK VINA RESULT:      -5.2      0.000      0.000
REMARK  1 active torsions:
REMARK  status: ('A' for Active; 'I' for Inactive)
REMARK    1  A    between atoms: C7_7  and  C8_8 
ROOT
HETATM    1  C1  UNL     1     -32.354   7.678   2.774  1.00 20.00     0.064 C 
HETATM    2  C2  UNL     1     -33.950   5.044   2.417  1.00 20.00     0.002 C 
HETATM    3  C3  UNL     1     -32.510   5.211   2.910  1.00 20.00     0.019 C 
HETATM    4  C4  UNL     1     -34.978   5.861   3.200  1.00 20.00     0.013 C 
HETATM    5  C5  UNL     1     -33.224   6.659   4.872  1.00 20.00     0.032 C 
HETATM    6  C6  UNL     1     -32.267   6.512   3.676  1.00 20.00     0.093 C 
HETATM    7  C7  UNL     1     -34.622   6.034   4.677  1.00 20.00     0.095 C 
HETATM    8  N9  UNL     1     -32.422   8.593   2.065  1.00 20.00    -0.197 NA
ENDROOT
BRANCH   7   9
HETATM    9  C8  UNL     1     -34.756   4.711   5.440  1.00 20.00     0.391 C 
HETATM   10  F10 UNL     1     -35.244   3.763   4.627  1.00 20.00    -0.171 F 
HETATM   11  F11 UNL     1     -33.556   4.324   5.894  1.00 20.00    -0.171 F 
HETATM   12  F12 UNL     1     -35.588   4.867   6.480  1.00 20.00    -0.171 F 
ENDBRANCH   7   9
TORSDOF 1
ENDMDL
MODEL 2
REMARK VINA RESULT:      -4.8     12.463     13.659
REMARK  1 active torsions:
REMARK  status: ('A' for Active; 'I' for Inactive)
REMARK    1  A    between atoms: C7_7  and  C8_8 
ROOT
HETATM    1  C1  UNL     1     -37.538  14.610  -4.196  1.00 20.00     0.064 C 
HETATM    2  C2  UNL     1     -34.565  13.994  -3.567  1.00 20.00     0.002 C 
HETATM    3  C3  UNL     1     -35.323  13.733  -4.871  1.00 20.00     0.019 C 
HETATM    4  C4  UNL     1     -34.634  15.442  -3.081  1.00 20.00     0.013 C 
HETATM    5  C5  UNL     1     -35.885  16.192  -5.174  1.00 20.00     0.032 C 
HETATM    6  C6  UNL     1     -36.426  14.752  -5.158  1.00 20.00     0.093 C 
HETATM    7  C7  UNL     1     -34.703  16.463  -4.218  1.00 20.00     0.095 C 
HETATM    8  N9  UNL     1     -38.410  14.497  -3.441  1.00 20.00    -0.197 NA
ENDROOT
BRANCH   7   9
HETATM    9  C8  UNL     1     -33.374  16.541  -4.978  1.00 20.00     0.391 C 
HETATM   10  F10 UNL     1     -32.988  17.820  -5.092  1.00 20.00    -0.171 F 
HETATM   11  F11 UNL     1     -32.431  15.857  -4.316  1.00 20.00    -0.171 F 
HETATM   12  F12 UNL     1     -33.517  16.015  -6.203  1.00 20.00    -0.171 F 
ENDBRANCH   7   9
TORSDOF 1
ENDMDL
MODEL 3
REMARK VINA RESULT:      -4.8     12.086     13.336
REMARK  1 active torsions:
REMARK  status: ('A' for Active; 'I' for Inactive)
REMARK    1  A    between atoms: C7_7  and  C8_8 
ROOT
HETATM    1  C1  UNL     1     -34.683  15.999  -2.024  1.00 20.00     0.064 C 
HETATM    2  C2  UNL     1     -33.156  16.209  -4.715  1.00 20.00     0.002 C 
HETATM    3  C3  UNL     1     -33.126  15.060  -3.703  1.00 20.00     0.019 C 
HETATM    4  C4  UNL     1     -34.560  16.589  -5.187  1.00 20.00     0.013 C 
HETATM    5  C5  UNL     1     -35.627  14.663  -3.900  1.00 20.00     0.032 C 
HETATM    6  C6  UNL     1     -34.439  14.870  -2.944  1.00 20.00     0.093 C 
HETATM    7  C7  UNL     1     -35.524  15.403  -5.250  1.00 20.00     0.095 C 
HETATM    8  N9  UNL     1     -34.874  16.885  -1.301  1.00 20.00    -0.197 NA
ENDROOT
BRANCH   7   9
HETATM    9  C8  UNL     1     -35.153  14.445  -6.388  1.00 20.00     0.391 C 
HETATM   10  F10 UNL     1     -34.072  14.903  -7.035  1.00 20.00    -0.171 F 
HETATM   11  F11 UNL     1     -34.884  13.230  -5.891  1.00 20.00    -0.171 F 
HETATM   12  F12 UNL     1     -36.173  14.349  -7.253  1.00 20.00    -0.171 F 
ENDBRANCH   7   9
TORSDOF 1
ENDMDL
MODEL 4
REMARK VINA RESULT:      -4.8     12.005     13.153
REMARK  1 active torsions:
REMARK  status: ('A' for Active; 'I' for Inactive)
REMARK    1  A    between atoms: C7_7  and  C8_8 
ROOT
HETATM    1  C1  UNL     1     -35.507  14.880  -5.794  1.00 20.00     0.064 C 
HETATM    2  C2  UNL     1     -33.322  16.687  -4.538  1.00 20.00     0.002 C 
HETATM    3  C3  UNL     1     -34.730  17.087  -4.988  1.00 20.00     0.019 C 
HETATM    4  C4  UNL     1     -33.290  15.521  -3.549  1.00 20.00     0.013 C 
HETATM    5  C5  UNL     1     -35.835  15.447  -3.393  1.00 20.00     0.032 C 
HETATM    6  C6  UNL     1     -35.767  15.974  -4.838  1.00 20.00     0.093 C 
HETATM    7  C7  UNL     1     -34.501  15.479  -2.617  1.00 20.00     0.095 C 
HETATM    8  N9  UNL     1     -35.302  14.021  -6.547  1.00 20.00    -0.197 NA
ENDROOT
BRANCH   7   9
HETATM    9  C8  UNL     1     -34.467  16.634  -1.608  1.00 20.00     0.391 C 
HETATM   10  F10 UNL     1     -34.832  16.192  -0.397  1.00 20.00    -0.171 F 
HETATM   11  F11 UNL     1     -33.228  17.139  -1.536  1.00 20.00    -0.171 F 
HETATM   12  F12 UNL     1     -35.312  17.601  -1.995  1.00 20.00    -0.171 F 
ENDBRANCH   7   9
TORSDOF 1
ENDMDL
MODEL 5
REMARK VINA RESULT:      -4.8     11.904     12.850
REMARK  1 active torsions:
REMARK  status: ('A' for Active; 'I' for Inactive)
REMARK    1  A    between atoms: C7_7  and  C8_8 
ROOT
HETATM    1  C1  UNL     1     -34.381  16.578  -1.404  1.00 20.00     0.064 C 
HETATM    2  C2  UNL     1     -36.186  16.693  -3.923  1.00 20.00     0.002 C 
HETATM    3  C3  UNL     1     -34.728  17.143  -3.789  1.00 20.00     0.019 C 
HETATM    4  C4  UNL     1     -36.437  15.247  -3.495  1.00 20.00     0.013 C 
HETATM    5  C5  UNL     1     -33.951  14.821  -3.113  1.00 20.00     0.032 C 
HETATM    6  C6  UNL     1     -33.920  16.324  -2.783  1.00 20.00     0.093 C 
HETATM    7  C7  UNL     1     -35.254  14.317  -3.769  1.00 20.00     0.095 C 
HETATM    8  N9  UNL     1     -34.744  16.780  -0.321  1.00 20.00    -0.197 NA
ENDROOT
BRANCH   7   9
HETATM    9  C8  UNL     1     -35.069  14.080  -5.273  1.00 20.00     0.391 C 
HETATM   10  F10 UNL     1     -34.028  14.794  -5.722  1.00 20.00    -0.171 F 
HETATM   11  F11 UNL     1     -34.843  12.780  -5.505  1.00 20.00    -0.171 F 
HETATM   12  F12 UNL     1     -36.175  14.456  -5.932  1.00 20.00    -0.171 F 
ENDBRANCH   7   9
TORSDOF 1
ENDMDL
MODEL 6
REMARK VINA RESULT:      -4.7     11.855     12.920
REMARK  1 active torsions:
REMARK  status: ('A' for Active; 'I' for Inactive)
REMARK    1  A    between atoms: C7_7  and  C8_8 
ROOT
HETATM    1  C1  UNL     1     -37.813  14.874  -4.232  1.00 20.00     0.064 C 
HETATM    2  C2  UNL     1     -35.081  13.948  -5.370  1.00 20.00     0.002 C 
HETATM    3  C3  UNL     1     -35.818  15.262  -5.645  1.00 20.00     0.019 C 
HETATM    4  C4  UNL     1     -34.851  13.659  -3.886  1.00 20.00     0.013 C 
HETATM    5  C5  UNL     1     -35.808  15.919  -3.191  1.00 20.00     0.032 C 
HETATM    6  C6  UNL     1     -36.654  15.759  -4.467  1.00 20.00     0.093 C 
HETATM    7  C7  UNL     1     -34.641  14.919  -3.045  1.00 20.00     0.095 C 
HETATM    8  N9  UNL     1     -38.722  14.178  -4.049  1.00 20.00    -0.197 NA
ENDROOT
BRANCH   7   9
HETATM    9  C8  UNL     1     -33.294  15.580  -3.360  1.00 20.00     0.391 C 
HETATM   10  F10 UNL     1     -32.377  14.640  -3.627  1.00 20.00    -0.171 F 
HETATM   11  F11 UNL     1     -33.419  16.386  -4.423  1.00 20.00    -0.171 F 
HETATM   12  F12 UNL     1     -32.885  16.304  -2.307  1.00 20.00    -0.171 F 
ENDBRANCH   7   9
TORSDOF 1
ENDMDL
MODEL 7
REMARK VINA RESULT:      -4.7     12.276     13.370
REMARK  1 active torsions:
REMARK  status: ('A' for Active; 'I' for Inactive)
REMARK    1  A    between atoms: C7_7  and  C8_8 
ROOT
HETATM    1  C1  UNL     1     -35.184  13.496  -4.444  1.00 20.00     0.064 C 
HETATM    2  C2  UNL     1     -34.482  16.344  -5.451  1.00 20.00     0.002 C 
HETATM    3  C3  UNL     1     -35.820  15.845  -4.900  1.00 20.00     0.019 C 
HETATM    4  C4  UNL     1     -33.293  16.101  -4.521  1.00 20.00     0.013 C 
HETATM    5  C5  UNL     1     -34.794  15.196  -2.668  1.00 20.00     0.032 C 
HETATM    6  C6  UNL     1     -35.683  14.749  -3.843  1.00 20.00     0.093 C 
HETATM    7  C7  UNL     1     -33.656  16.171  -3.037  1.00 20.00     0.095 C 
HETATM    8  N9  UNL     1     -34.792  12.513  -4.918  1.00 20.00    -0.197 NA
ENDROOT
BRANCH   7   9
HETATM    9  C8  UNL     1     -33.988  17.606  -2.612  1.00 20.00     0.391 C 
HETATM   10  F10 UNL     1     -33.525  18.471  -3.525  1.00 20.00    -0.171 F 
HETATM   11  F11 UNL     1     -35.315  17.753  -2.502  1.00 20.00    -0.171 F 
HETATM   12  F12 UNL     1     -33.418  17.874  -1.427  1.00 20.00    -0.171 F 
ENDBRANCH   7   9
TORSDOF 1
ENDMDL
MODEL 8
REMARK VINA RESULT:      -4.7     12.106     13.196
REMARK  1 active torsions:
REMARK  status: ('A' for Active; 'I' for Inactive)
REMARK    1  A    between atoms: C7_7  and  C8_8 
ROOT
HETATM    1  C1  UNL     1     -35.611  14.758  -7.076  1.00 20.00     0.064 C 
HETATM    2  C2  UNL     1     -35.625  13.751  -4.143  1.00 20.00     0.002 C 
HETATM    3  C3  UNL     1     -34.517  13.591  -5.187  1.00 20.00     0.019 C 
HETATM    4  C4  UNL     1     -36.069  15.197  -3.919  1.00 20.00     0.013 C 
HETATM    5  C5  UNL     1     -34.261  16.102  -5.474  1.00 20.00     0.032 C 
HETATM    6  C6  UNL     1     -34.435  14.747  -6.183  1.00 20.00     0.093 C 
HETATM    7  C7  UNL     1     -34.940  16.215  -4.093  1.00 20.00     0.095 C 
HETATM    8  N9  UNL     1     -36.535  14.765  -7.777  1.00 20.00    -0.197 NA
ENDROOT
BRANCH   7   9
HETATM    9  C8  UNL     1     -33.918  16.111  -2.955  1.00 20.00     0.391 C 
HETATM   10  F10 UNL     1     -32.880  15.356  -3.341  1.00 20.00    -0.171 F 
HETATM   11  F11 UNL     1     -33.474  17.333  -2.629  1.00 20.00    -0.171 F 
HETATM   12  F12 UNL     1     -34.490  15.553  -1.878  1.00 20.00    -0.171 F 
ENDBRANCH   7   9
TORSDOF 1
ENDMDL
MODEL 9
REMARK VINA RESULT:      -4.7     11.795     13.041
REMARK  1 active torsions:
REMARK  status: ('A' for Active; 'I' for Inactive)
REMARK    1  A    between atoms: C7_7  and  C8_8 
ROOT
HETATM    1  C1  UNL     1     -33.848  18.388  -3.727  1.00 20.00     0.064 C 
HETATM    2  C2  UNL     1     -35.887  16.096  -3.273  1.00 20.00     0.002 C 
HETATM    3  C3  UNL     1     -35.538  16.797  -4.589  1.00 20.00     0.019 C 
HETATM    4  C4  UNL     1     -34.681  15.516  -2.534  1.00 20.00     0.013 C 
HETATM    5  C5  UNL     1     -33.093  16.125  -4.436  1.00 20.00     0.032 C 
HETATM    6  C6  UNL     1     -34.088  17.275  -4.668  1.00 20.00     0.093 C 
HETATM    7  C7  UNL     1     -33.574  15.023  -3.468  1.00 20.00     0.095 C 
HETATM    8  N9  UNL     1     -33.661  19.262  -2.989  1.00 20.00    -0.197 NA
ENDROOT
BRANCH   7   9
HETATM    9  C8  UNL     1     -34.006  13.761  -4.225  1.00 20.00     0.391 C 
HETATM   10  F10 UNL     1     -35.147  13.287  -3.707  1.00 20.00    -0.171 F 
HETATM   11  F11 UNL     1     -34.199  14.051  -5.519  1.00 20.00    -0.171 F 
HETATM   12  F12 UNL     1     -33.054  12.821  -4.124  1.00 20.00    -0.171 F 
ENDBRANCH   7   9
TORSDOF 1
ENDMDL
