MODEL 1
REMARK VINA RESULT:      -5.1      0.000      0.000
REMARK  2 active torsions:
REMARK  status: ('A' for Active; 'I' for Inactive)
REMARK    1  A    between atoms: C1_1  and  C10_10 
REMARK    2  A    between atoms: C5_5  and  C10_10 
ROOT
HETATM    1  C2  UNL     1     -32.653   7.099   4.864  1.00 20.00     0.005 C 
HETATM    2  C3  UNL     1     -33.761   6.518   5.741  1.00 20.00     0.005 C 
HETATM    3  C4  UNL     1     -33.443   5.678   2.929  1.00 20.00     0.009 C 
HETATM    4  C5  UNL     1     -33.032   7.088   3.378  1.00 20.00    -0.008 C 
HETATM    5  C6  UNL     1     -34.168   5.109   5.285  1.00 20.00    -0.015 C 
HETATM    6  C7  UNL     1     -34.567   5.075   3.790  1.00 20.00    -0.015 C 
HETATM    7  C8  UNL     1     -35.251   4.542   6.204  1.00 20.00     0.010 C 
HETATM    8  C9  UNL     1     -35.910   5.751   3.488  1.00 20.00     0.010 C 
ENDROOT
BRANCH   4   9
HETATM    9  C10 UNL     1     -31.875   7.608   2.525  1.00 20.00     0.074 C 
BRANCH   9  10
HETATM   10  C1  UNL     1     -32.312   8.671   1.556  1.00 20.00     0.231 C 
HETATM   11  O11 UNL     1     -32.612   9.821   1.857  1.00 20.00    -0.307 OA
ENDBRANCH   9  10
ENDBRANCH   4   9
TORSDOF 2
ENDMDL
MODEL 2
REMARK VINA RESULT:      -4.7     10.661     12.267
REMARK  2 active torsions:
REMARK  status: ('A' for Active; 'I' for Inactive)
REMARK    1  A    between atoms: C1_1  and  C10_10 
REMARK    2  A    between atoms: C5_5  and  C10_10 
ROOT
HETATM    1  C2  UNL     1     -33.605  17.352  -3.840  1.00 20.00     0.005 C 
HETATM    2  C3  UNL     1     -33.550  16.511  -5.114  1.00 20.00     0.005 C 
HETATM    3  C4  UNL     1     -34.748  15.449  -2.634  1.00 20.00     0.009 C 
HETATM    4  C5  UNL     1     -33.614  16.483  -2.577  1.00 20.00    -0.008 C 
HETATM    5  C6  UNL     1     -34.685  15.478  -5.163  1.00 20.00    -0.015 C 
HETATM    6  C7  UNL     1     -34.708  14.579  -3.904  1.00 20.00    -0.015 C 
HETATM    7  C8  UNL     1     -34.624  14.677  -6.465  1.00 20.00     0.010 C 
HETATM    8  C9  UNL     1     -33.556  13.569  -3.838  1.00 20.00     0.010 C 
ENDROOT
BRANCH   4   9
HETATM    9  C10 UNL     1     -33.742  17.353  -1.327  1.00 20.00     0.074 C 
BRANCH   9  10
HETATM   10  C1  UNL     1     -34.822  16.866  -0.401  1.00 20.00     0.231 C 
HETATM   11  O11 UNL     1     -35.007  17.269   0.742  1.00 20.00    -0.307 OA
ENDBRANCH   9  10
ENDBRANCH   4   9
TORSDOF 2
ENDMDL
MODEL 3
REMARK VINA RESULT:      -4.7     11.159     12.496
REMARK  2 active torsions:
REMARK  status: ('A' for Active; 'I' for Inactive)
REMARK    1  A    between atoms: C1_1  and  C10_10 
REMARK    2  A    between atoms: C5_5  and  C10_10 
ROOT
HETATM    1  C2  UNL     1     -35.788  16.871  -4.146  1.00 20.00     0.005 C 
HETATM    2  C3  UNL     1     -35.304  18.121  -3.414  1.00 20.00     0.005 C 
HETATM    3  C4  UNL     1     -34.392  15.431  -2.610  1.00 20.00     0.009 C 
HETATM    4  C5  UNL     1     -35.778  15.634  -3.241  1.00 20.00    -0.008 C 
HETATM    5  C6  UNL     1     -33.920  17.910  -2.783  1.00 20.00    -0.015 C 
HETATM    6  C7  UNL     1     -33.886  16.673  -1.854  1.00 20.00    -0.015 C 
HETATM    7  C8  UNL     1     -33.448  19.189  -2.089  1.00 20.00     0.010 C 
HETATM    8  C9  UNL     1     -34.650  16.861  -0.538  1.00 20.00     0.010 C 
ENDROOT
BRANCH   4   9
HETATM    9  C10 UNL     1     -36.198  14.391  -4.025  1.00 20.00     0.074 C 
BRANCH   9  10
HETATM   10  C1  UNL     1     -35.035  13.728  -4.710  1.00 20.00     0.231 C 
HETATM   11  O11 UNL     1     -34.823  12.521  -4.733  1.00 20.00    -0.307 OA
ENDBRANCH   9  10
ENDBRANCH   4   9
TORSDOF 2
ENDMDL
MODEL 4
REMARK VINA RESULT:      -4.6      9.717     11.508
REMARK  2 active torsions:
REMARK  status: ('A' for Active; 'I' for Inactive)
REMARK    1  A    between atoms: C1_1  and  C10_10 
REMARK    2  A    between atoms: C5_5  and  C10_10 
ROOT
HETATM    1  C2  UNL     1     -43.013   4.637  -3.204  1.00 20.00     0.005 C 
HETATM    2  C3  UNL     1     -43.057   5.924  -2.382  1.00 20.00     0.005 C 
HETATM    3  C4  UNL     1     -40.972   3.887  -1.916  1.00 20.00     0.009 C 
HETATM    4  C5  UNL     1     -42.363   3.484  -2.431  1.00 20.00    -0.008 C 
HETATM    5  C6  UNL     1     -41.665   6.320  -1.869  1.00 20.00    -0.015 C 
HETATM    6  C7  UNL     1     -40.991   5.176  -1.074  1.00 20.00    -0.015 C 
HETATM    7  C8  UNL     1     -41.737   7.630  -1.083  1.00 20.00     0.010 C 
HETATM    8  C9  UNL     1     -41.618   4.921   0.302  1.00 20.00     0.010 C 
ENDROOT
BRANCH   4   9
HETATM    9  C10 UNL     1     -42.270   2.235  -3.307  1.00 20.00     0.074 C 
BRANCH   9  10
HETATM   10  C1  UNL     1     -43.135   2.332  -4.533  1.00 20.00     0.231 C 
HETATM   11  O11 UNL     1     -42.789   2.021  -5.667  1.00 20.00    -0.307 OA
ENDBRANCH   9  10
ENDBRANCH   4   9
TORSDOF 2
ENDMDL
MODEL 5
REMARK VINA RESULT:      -4.5     10.916     12.200
REMARK  2 active torsions:
REMARK  status: ('A' for Active; 'I' for Inactive)
REMARK    1  A    between atoms: C1_1  and  C10_10 
REMARK    2  A    between atoms: C5_5  and  C10_10 
ROOT
HETATM    1  C2  UNL     1     -35.759  15.717  -3.642  1.00 20.00     0.005 C 
HETATM    2  C3  UNL     1     -36.549  16.794  -2.900  1.00 20.00     0.005 C 
HETATM    3  C4  UNL     1     -33.663  16.407  -2.411  1.00 20.00     0.009 C 
HETATM    4  C5  UNL     1     -34.553  15.228  -2.832  1.00 20.00    -0.008 C 
HETATM    5  C6  UNL     1     -35.654  17.968  -2.479  1.00 20.00    -0.015 C 
HETATM    6  C7  UNL     1     -34.434  17.501  -1.648  1.00 20.00    -0.015 C 
HETATM    7  C8  UNL     1     -36.480  19.043  -1.771  1.00 20.00     0.010 C 
HETATM    8  C9  UNL     1     -34.787  17.034  -0.231  1.00 20.00     0.010 C 
ENDROOT
BRANCH   4   9
HETATM    9  C10 UNL     1     -33.746  14.207  -3.635  1.00 20.00     0.074 C 
BRANCH   9  10
HETATM   10  C1  UNL     1     -34.527  13.640  -4.788  1.00 20.00     0.231 C 
HETATM   11  O11 UNL     1     -34.880  12.471  -4.895  1.00 20.00    -0.307 OA
ENDBRANCH   9  10
ENDBRANCH   4   9
TORSDOF 2
ENDMDL
MODEL 6
REMARK VINA RESULT:      -4.5     11.383     12.059
REMARK  2 active torsions:
REMARK  status: ('A' for Active; 'I' for Inactive)
REMARK    1  A    between atoms: C1_1  and  C10_10 
REMARK    2  A    between atoms: C5_5  and  C10_10 
ROOT
HETATM    1  C2  UNL     1     -33.355  15.624  -3.488  1.00 20.00     0.005 C 
HETATM    2  C3  UNL     1     -33.455  16.513  -2.250  1.00 20.00     0.005 C 
HETATM    3  C4  UNL     1     -35.870  15.672  -3.725  1.00 20.00     0.009 C 
HETATM    4  C5  UNL     1     -34.527  15.845  -4.451  1.00 20.00    -0.008 C 
HETATM    5  C6  UNL     1     -34.800  16.337  -1.530  1.00 20.00    -0.015 C 
HETATM    6  C7  UNL     1     -36.001  16.567  -2.479  1.00 20.00    -0.015 C 
HETATM    7  C8  UNL     1     -34.854  17.212  -0.277  1.00 20.00     0.010 C 
HETATM    8  C9  UNL     1     -36.207  18.033  -2.878  1.00 20.00     0.010 C 
ENDROOT
BRANCH   4   9
HETATM    9  C10 UNL     1     -34.433  14.890  -5.641  1.00 20.00     0.074 C 
BRANCH   9  10
HETATM   10  C1  UNL     1     -35.103  13.571  -5.368  1.00 20.00     0.231 C 
HETATM   11  O11 UNL     1     -34.577  12.615  -4.809  1.00 20.00    -0.307 OA
ENDBRANCH   9  10
ENDBRANCH   4   9
TORSDOF 2
ENDMDL
MODEL 7
REMARK VINA RESULT:      -4.3     11.305     12.821
REMARK  2 active torsions:
REMARK  status: ('A' for Active; 'I' for Inactive)
REMARK    1  A    between atoms: C1_1  and  C10_10 
REMARK    2  A    between atoms: C5_5  and  C10_10 
ROOT
HETATM    1  C2  UNL     1     -35.675  15.130  -3.496  1.00 20.00     0.005 C 
HETATM    2  C3  UNL     1     -35.737  15.098  -5.022  1.00 20.00     0.005 C 
HETATM    3  C4  UNL     1     -33.389  16.200  -3.612  1.00 20.00     0.009 C 
HETATM    4  C5  UNL     1     -34.788  16.268  -2.980  1.00 20.00    -0.008 C 
HETATM    5  C6  UNL     1     -34.336  15.032  -5.647  1.00 20.00    -0.015 C 
HETATM    6  C7  UNL     1     -33.424  16.180  -5.151  1.00 20.00    -0.015 C 
HETATM    7  C8  UNL     1     -34.433  14.966  -7.172  1.00 20.00     0.010 C 
HETATM    8  C9  UNL     1     -33.798  17.559  -5.708  1.00 20.00     0.010 C 
ENDROOT
BRANCH   4   9
HETATM    9  C10 UNL     1     -34.690  16.225  -1.455  1.00 20.00     0.074 C 
BRANCH   9  10
HETATM   10  C1  UNL     1     -33.915  17.388  -0.899  1.00 20.00     0.231 C 
HETATM   11  O11 UNL     1     -33.986  17.796   0.255  1.00 20.00    -0.307 OA
ENDBRANCH   9  10
ENDBRANCH   4   9
TORSDOF 2
ENDMDL
MODEL 8
REMARK VINA RESULT:      -4.3     11.458     12.895
REMARK  2 active torsions:
REMARK  status: ('A' for Active; 'I' for Inactive)
REMARK    1  A    between atoms: C1_1  and  C10_10 
REMARK    2  A    between atoms: C5_5  and  C10_10 
ROOT
HETATM    1  C2  UNL     1     -33.833  18.550  -2.730  1.00 20.00     0.005 C 
HETATM    2  C3  UNL     1     -33.781  17.993  -4.152  1.00 20.00     0.005 C 
HETATM    3  C4  UNL     1     -34.375  16.245  -1.849  1.00 20.00     0.009 C 
HETATM    4  C5  UNL     1     -33.484  17.485  -1.684  1.00 20.00    -0.008 C 
HETATM    5  C6  UNL     1     -34.672  16.752  -4.310  1.00 20.00    -0.015 C 
HETATM    6  C7  UNL     1     -34.331  15.657  -3.272  1.00 20.00    -0.015 C 
HETATM    7  C8  UNL     1     -34.627  16.241  -5.751  1.00 20.00     0.010 C 
HETATM    8  C9  UNL     1     -32.997  14.947  -3.529  1.00 20.00     0.010 C 
ENDROOT
BRANCH   4   9
HETATM    9  C10 UNL     1     -33.616  18.056  -0.272  1.00 20.00     0.074 C 
BRANCH   9  10
HETATM   10  C1  UNL     1     -32.717  19.241  -0.049  1.00 20.00     0.231 C 
HETATM   11  O11 UNL     1     -31.491  19.211  -0.072  1.00 20.00    -0.307 OA
ENDBRANCH   9  10
ENDBRANCH   4   9
TORSDOF 2
ENDMDL
MODEL 9
REMARK VINA RESULT:      -4.3     11.539     12.766
REMARK  2 active torsions:
REMARK  status: ('A' for Active; 'I' for Inactive)
REMARK    1  A    between atoms: C1_1  and  C10_10 
REMARK    2  A    between atoms: C5_5  and  C10_10 
ROOT
HETATM    1  C2  UNL     1     -33.459  16.721  -5.272  1.00 20.00     0.005 C 
HETATM    2  C3  UNL     1     -33.745  17.243  -3.865  1.00 20.00     0.005 C 
HETATM    3  C4  UNL     1     -34.498  14.501  -4.660  1.00 20.00     0.009 C 
HETATM    4  C5  UNL     1     -34.454  15.635  -5.695  1.00 20.00    -0.008 C 
HETATM    5  C6  UNL     1     -33.791  16.105  -2.835  1.00 20.00    -0.015 C 
HETATM    6  C7  UNL     1     -34.798  15.000  -3.234  1.00 20.00    -0.015 C 
HETATM    7  C8  UNL     1     -34.042  16.663  -1.433  1.00 20.00     0.010 C 
HETATM    8  C9  UNL     1     -36.267  15.417  -3.098  1.00 20.00     0.010 C 
ENDROOT
BRANCH   4   9
HETATM    9  C10 UNL     1     -34.094  15.086  -7.076  1.00 20.00     0.074 C 
BRANCH   9  10
HETATM   10  C1  UNL     1     -35.311  14.816  -7.918  1.00 20.00     0.231 C 
HETATM   11  O11 UNL     1     -36.466  14.804  -7.507  1.00 20.00    -0.307 OA
ENDBRANCH   9  10
ENDBRANCH   4   9
TORSDOF 2
ENDMDL
