MODEL 1
REMARK VINA RESULT:      -4.7      0.000      0.000
REMARK  4 active torsions:
REMARK  status: ('A' for Active; 'I' for Inactive)
REMARK    1  A    between atoms: C5_5  and  C6_6 
REMARK    2  A    between atoms: C6_6  and  C8_8 
REMARK    3  A    between atoms: C7_7  and  C8_8 
REMARK    4  A    between atoms: C7_7  and  C9_9 
ROOT
HETATM    1  C1  UNL     1     -32.155   8.989   0.839  1.00 20.00     0.012 C 
HETATM    2  C2  UNL     1     -32.082   8.407   1.887  1.00 20.00    -0.117 C 
HETATM    3  C5  UNL     1     -31.995   7.698   3.171  1.00 20.00     0.093 C 
ENDROOT
BRANCH   3   4
HETATM    4  C6  UNL     1     -32.135   6.181   3.013  1.00 20.00     0.016 C 
BRANCH   4   5
HETATM    5  C8  UNL     1     -33.458   5.567   3.533  1.00 20.00    -0.016 C 
HETATM    6  C3  UNL     1     -34.268   5.060   2.332  1.00 20.00     0.010 C 
BRANCH   5   7
HETATM    7  C7  UNL     1     -34.263   6.581   4.379  1.00 20.00     0.024 C 
BRANCH   7   8
HETATM    8  C9  UNL     1     -34.518   6.190   5.844  1.00 20.00     0.078 C 
HETATM    9  C4  UNL     1     -33.559   6.923   6.777  1.00 20.00     0.026 C 
HETATM   10 CL10 UNL     1     -34.320   4.429   6.082  1.00 20.00    -0.125 Cl
ENDBRANCH   7   8
ENDBRANCH   5   7
ENDBRANCH   4   5
ENDBRANCH   3   4
TORSDOF 4
ENDMDL
MODEL 2
REMARK VINA RESULT:      -4.3     11.066     12.399
REMARK  4 active torsions:
REMARK  status: ('A' for Active; 'I' for Inactive)
REMARK    1  A    between atoms: C5_5  and  C6_6 
REMARK    2  A    between atoms: C6_6  and  C8_8 
REMARK    3  A    between atoms: C7_7  and  C8_8 
REMARK    4  A    between atoms: C7_7  and  C9_9 
ROOT
HETATM    1  C1  UNL     1     -34.784  16.989  -0.197  1.00 20.00     0.012 C 
HETATM    2  C2  UNL     1     -34.482  16.563  -1.279  1.00 20.00    -0.117 C 
HETATM    3  C5  UNL     1     -34.108  16.043  -2.601  1.00 20.00     0.093 C 
ENDROOT
BRANCH   3   4
HETATM    4  C6  UNL     1     -35.144  15.062  -3.158  1.00 20.00     0.016 C 
BRANCH   4   5
HETATM    5  C8  UNL     1     -34.575  13.773  -3.801  1.00 20.00    -0.016 C 
HETATM    6  C3  UNL     1     -33.053  13.760  -3.611  1.00 20.00     0.010 C 
BRANCH   5   7
HETATM    7  C7  UNL     1     -34.967  13.659  -5.293  1.00 20.00     0.024 C 
BRANCH   7   8
HETATM    8  C9  UNL     1     -35.324  14.976  -6.002  1.00 20.00     0.078 C 
HETATM    9  C4  UNL     1     -36.070  14.707  -7.305  1.00 20.00     0.026 C 
HETATM   10 CL10 UNL     1     -33.853  15.928  -6.365  1.00 20.00    -0.125 Cl
ENDBRANCH   7   8
ENDBRANCH   5   7
ENDBRANCH   4   5
ENDBRANCH   3   4
TORSDOF 4
ENDMDL
MODEL 3
REMARK VINA RESULT:      -4.3      1.860      4.256
REMARK  4 active torsions:
REMARK  status: ('A' for Active; 'I' for Inactive)
REMARK    1  A    between atoms: C5_5  and  C6_6 
REMARK    2  A    between atoms: C6_6  and  C8_8 
REMARK    3  A    between atoms: C7_7  and  C8_8 
REMARK    4  A    between atoms: C7_7  and  C9_9 
ROOT
HETATM    1  C1  UNL     1     -33.525   7.538   6.986  1.00 20.00     0.012 C 
HETATM    2  C2  UNL     1     -34.009   6.485   6.668  1.00 20.00    -0.117 C 
HETATM    3  C5  UNL     1     -34.604   5.199   6.281  1.00 20.00     0.093 C 
ENDROOT
BRANCH   3   4
HETATM    4  C6  UNL     1     -34.343   4.851   4.813  1.00 20.00     0.016 C 
BRANCH   4   5
HETATM    5  C8  UNL     1     -34.373   6.040   3.821  1.00 20.00    -0.016 C 
HETATM    6  C3  UNL     1     -35.539   5.834   2.846  1.00 20.00     0.010 C 
BRANCH   5   7
HETATM    7  C7  UNL     1     -33.026   6.197   3.079  1.00 20.00     0.024 C 
BRANCH   7   8
HETATM    8  C9  UNL     1     -32.425   7.612   3.055  1.00 20.00     0.078 C 
HETATM    9  C4  UNL     1     -31.953   7.978   1.651  1.00 20.00     0.026 C 
HETATM   10 CL10 UNL     1     -31.042   7.742   4.181  1.00 20.00    -0.125 Cl
ENDBRANCH   7   8
ENDBRANCH   5   7
ENDBRANCH   4   5
ENDBRANCH   3   4
TORSDOF 4
ENDMDL
MODEL 4
REMARK VINA RESULT:      -4.2      2.513      4.980
REMARK  4 active torsions:
REMARK  status: ('A' for Active; 'I' for Inactive)
REMARK    1  A    between atoms: C5_5  and  C6_6 
REMARK    2  A    between atoms: C6_6  and  C8_8 
REMARK    3  A    between atoms: C7_7  and  C8_8 
REMARK    4  A    between atoms: C7_7  and  C9_9 
ROOT
HETATM    1  C1  UNL     1     -35.179   4.073   5.995  1.00 20.00     0.012 C 
HETATM    2  C2  UNL     1     -34.690   5.169   5.950  1.00 20.00    -0.117 C 
HETATM    3  C5  UNL     1     -34.094   6.511   5.900  1.00 20.00     0.093 C 
ENDROOT
BRANCH   3   4
HETATM    4  C6  UNL     1     -32.912   6.589   4.929  1.00 20.00     0.016 C 
BRANCH   4   5
HETATM    5  C8  UNL     1     -33.269   6.895   3.453  1.00 20.00    -0.016 C 
HETATM    6  C3  UNL     1     -33.687   5.588   2.769  1.00 20.00     0.010 C 
BRANCH   5   7
HETATM    7  C7  UNL     1     -32.096   7.580   2.714  1.00 20.00     0.024 C 
BRANCH   7   8
HETATM    8  C9  UNL     1     -32.481   8.541   1.577  1.00 20.00     0.078 C 
HETATM    9  C4  UNL     1     -31.393   8.580   0.507  1.00 20.00     0.026 C 
HETATM   10 CL10 UNL     1     -32.739  10.199   2.197  1.00 20.00    -0.125 Cl
ENDBRANCH   7   8
ENDBRANCH   5   7
ENDBRANCH   4   5
ENDBRANCH   3   4
TORSDOF 4
ENDMDL
MODEL 5
REMARK VINA RESULT:      -4.1     11.127     12.689
REMARK  4 active torsions:
REMARK  status: ('A' for Active; 'I' for Inactive)
REMARK    1  A    between atoms: C5_5  and  C6_6 
REMARK    2  A    between atoms: C6_6  and  C8_8 
REMARK    3  A    between atoms: C7_7  and  C8_8 
REMARK    4  A    between atoms: C7_7  and  C9_9 
ROOT
HETATM    1  C1  UNL     1     -35.126  17.467   0.703  1.00 20.00     0.012 C 
HETATM    2  C2  UNL     1     -34.668  17.086  -0.340  1.00 20.00    -0.117 C 
HETATM    3  C5  UNL     1     -34.105  16.621  -1.614  1.00 20.00     0.093 C 
ENDROOT
BRANCH   3   4
HETATM    4  C6  UNL     1     -35.013  15.610  -2.322  1.00 20.00     0.016 C 
BRANCH   4   5
HETATM    5  C8  UNL     1     -34.535  15.134  -3.716  1.00 20.00    -0.016 C 
HETATM    6  C3  UNL     1     -34.434  13.604  -3.703  1.00 20.00     0.010 C 
BRANCH   5   7
HETATM    7  C7  UNL     1     -33.195  15.794  -4.115  1.00 20.00     0.024 C 
BRANCH   7   8
HETATM    8  C9  UNL     1     -33.221  16.674  -5.376  1.00 20.00     0.078 C 
HETATM    9  C4  UNL     1     -33.648  18.098  -5.036  1.00 20.00     0.026 C 
HETATM   10 CL10 UNL     1     -34.346  16.011  -6.598  1.00 20.00    -0.125 Cl
ENDBRANCH   7   8
ENDBRANCH   5   7
ENDBRANCH   4   5
ENDBRANCH   3   4
TORSDOF 4
ENDMDL
MODEL 6
REMARK VINA RESULT:      -4.1     11.604     12.780
REMARK  4 active torsions:
REMARK  status: ('A' for Active; 'I' for Inactive)
REMARK    1  A    between atoms: C5_5  and  C6_6 
REMARK    2  A    between atoms: C6_6  and  C8_8 
REMARK    3  A    between atoms: C7_7  and  C8_8 
REMARK    4  A    between atoms: C7_7  and  C9_9 
ROOT
HETATM    1  C1  UNL     1     -34.726  17.401   0.091  1.00 20.00     0.012 C 
HETATM    2  C2  UNL     1     -34.715  16.690  -0.877  1.00 20.00    -0.117 C 
HETATM    3  C5  UNL     1     -34.706  15.821  -2.062  1.00 20.00     0.093 C 
ENDROOT
BRANCH   3   4
HETATM    4  C6  UNL     1     -33.493  16.073  -2.963  1.00 20.00     0.016 C 
BRANCH   4   5
HETATM    5  C8  UNL     1     -33.798  16.245  -4.472  1.00 20.00    -0.016 C 
HETATM    6  C3  UNL     1     -33.610  17.721  -4.844  1.00 20.00     0.010 C 
BRANCH   5   7
HETATM    7  C7  UNL     1     -35.215  15.739  -4.828  1.00 20.00     0.024 C 
BRANCH   7   8
HETATM    8  C9  UNL     1     -35.285  14.533  -5.780  1.00 20.00     0.078 C 
HETATM    9  C4  UNL     1     -34.709  13.285  -5.120  1.00 20.00     0.026 C 
HETATM   10 CL10 UNL     1     -34.384  14.855  -7.291  1.00 20.00    -0.125 Cl
ENDBRANCH   7   8
ENDBRANCH   5   7
ENDBRANCH   4   5
ENDBRANCH   3   4
TORSDOF 4
ENDMDL
MODEL 7
REMARK VINA RESULT:      -4.0     10.740     12.067
REMARK  4 active torsions:
REMARK  status: ('A' for Active; 'I' for Inactive)
REMARK    1  A    between atoms: C5_5  and  C6_6 
REMARK    2  A    between atoms: C6_6  and  C8_8 
REMARK    3  A    between atoms: C7_7  and  C8_8 
REMARK    4  A    between atoms: C7_7  and  C9_9 
ROOT
HETATM    1  C1  UNL     1     -34.663  18.201   1.407  1.00 20.00     0.012 C 
HETATM    2  C2  UNL     1     -34.710  17.512   0.425  1.00 20.00    -0.117 C 
HETATM    3  C5  UNL     1     -34.772  16.668  -0.776  1.00 20.00     0.093 C 
ENDROOT
BRANCH   3   4
HETATM    4  C6  UNL     1     -33.675  17.012  -1.790  1.00 20.00     0.016 C 
BRANCH   4   5
HETATM    5  C8  UNL     1     -33.725  16.233  -3.127  1.00 20.00    -0.016 C 
HETATM    6  C3  UNL     1     -33.658  17.239  -4.283  1.00 20.00     0.010 C 
BRANCH   5   7
HETATM    7  C7  UNL     1     -34.982  15.337  -3.219  1.00 20.00     0.024 C 
BRANCH   7   8
HETATM    8  C9  UNL     1     -34.795  13.973  -3.905  1.00 20.00     0.078 C 
HETATM    9  C4  UNL     1     -33.364  13.472  -3.736  1.00 20.00     0.026 C 
HETATM   10 CL10 UNL     1     -35.168  14.077  -5.651  1.00 20.00    -0.125 Cl
ENDBRANCH   7   8
ENDBRANCH   5   7
ENDBRANCH   4   5
ENDBRANCH   3   4
TORSDOF 4
ENDMDL
MODEL 8
REMARK VINA RESULT:      -3.9      1.125      2.227
REMARK  4 active torsions:
REMARK  status: ('A' for Active; 'I' for Inactive)
REMARK    1  A    between atoms: C5_5  and  C6_6 
REMARK    2  A    between atoms: C6_6  and  C8_8 
REMARK    3  A    between atoms: C7_7  and  C8_8 
REMARK    4  A    between atoms: C7_7  and  C9_9 
ROOT
HETATM    1  C1  UNL     1     -32.368   9.535   1.179  1.00 20.00     0.012 C 
HETATM    2  C2  UNL     1     -32.182   8.513   1.782  1.00 20.00    -0.117 C 
HETATM    3  C5  UNL     1     -31.952   7.262   2.517  1.00 20.00     0.093 C 
ENDROOT
BRANCH   3   4
HETATM    4  C6  UNL     1     -32.165   7.422   4.026  1.00 20.00     0.016 C 
BRANCH   4   5
HETATM    5  C8  UNL     1     -33.440   6.756   4.601  1.00 20.00    -0.016 C 
HETATM    6  C3  UNL     1     -33.421   6.901   6.129  1.00 20.00     0.010 C 
BRANCH   5   7
HETATM    7  C7  UNL     1     -33.555   5.276   4.167  1.00 20.00     0.024 C 
BRANCH   7   8
HETATM    8  C9  UNL     1     -34.954   4.647   4.267  1.00 20.00     0.078 C 
HETATM    9  C4  UNL     1     -36.028   5.636   3.825  1.00 20.00     0.026 C 
HETATM   10 CL10 UNL     1     -35.305   4.126   5.942  1.00 20.00    -0.125 Cl
ENDBRANCH   7   8
ENDBRANCH   5   7
ENDBRANCH   4   5
ENDBRANCH   3   4
TORSDOF 4
ENDMDL
MODEL 9
REMARK VINA RESULT:      -3.8     11.393     12.086
REMARK  4 active torsions:
REMARK  status: ('A' for Active; 'I' for Inactive)
REMARK    1  A    between atoms: C5_5  and  C6_6 
REMARK    2  A    between atoms: C6_6  and  C8_8 
REMARK    3  A    between atoms: C7_7  and  C8_8 
REMARK    4  A    between atoms: C7_7  and  C9_9 
ROOT
HETATM    1  C1  UNL     1     -34.451  15.158  -7.196  1.00 20.00     0.012 C 
HETATM    2  C2  UNL     1     -34.496  14.529  -6.174  1.00 20.00    -0.117 C 
HETATM    3  C5  UNL     1     -34.553  13.756  -4.926  1.00 20.00     0.093 C 
ENDROOT
BRANCH   3   4
HETATM    4  C6  UNL     1     -33.772  14.423  -3.789  1.00 20.00     0.016 C 
BRANCH   4   5
HETATM    5  C8  UNL     1     -34.610  15.271  -2.801  1.00 20.00    -0.016 C 
HETATM    6  C3  UNL     1     -36.078  15.230  -3.244  1.00 20.00     0.010 C 
BRANCH   5   7
HETATM    7  C7  UNL     1     -34.080  16.720  -2.704  1.00 20.00     0.024 C 
BRANCH   7   8
HETATM    8  C9  UNL     1     -33.650  17.193  -1.305  1.00 20.00     0.078 C 
HETATM    9  C4  UNL     1     -34.785  17.019  -0.300  1.00 20.00     0.026 C 
HETATM   10 CL10 UNL     1     -33.161  18.913  -1.331  1.00 20.00    -0.125 Cl
ENDBRANCH   7   8
ENDBRANCH   5   7
ENDBRANCH   4   5
ENDBRANCH   3   4
TORSDOF 4
ENDMDL
