MODEL 1
REMARK VINA RESULT:      -4.1      0.000      0.000
REMARK  5 active torsions:
REMARK  status: ('A' for Active; 'I' for Inactive)
REMARK    1  A    between atoms: C6_6  and  C7_7 
REMARK    2  A    between atoms: C6_6  and  C9_9 
REMARK    3  A    between atoms: C7_7  and  C11_11 
REMARK    4  A    between atoms: C8_8  and  C9_9 
REMARK    5  A    between atoms: C8_8  and  C10_10 
ROOT
HETATM    1  C6  UNL     1     -35.391  15.789  -2.573  1.00 20.00     0.005 C 
ENDROOT
BRANCH   1   2
HETATM    2  C7  UNL     1     -34.402  16.208  -1.474  1.00 20.00     0.008 C 
BRANCH   2   3
HETATM    3  C11 UNL     1     -34.660  17.597  -0.829  1.00 20.00    -0.051 C 
HETATM    4  C3  UNL     1     -35.102  17.460   0.638  1.00 20.00     0.014 C 
HETATM    5  C4  UNL     1     -35.725  18.384  -1.608  1.00 20.00     0.014 C 
HETATM    6  C5  UNL     1     -33.340  18.394  -0.864  1.00 20.00     0.014 C 
ENDBRANCH   2   3
ENDBRANCH   1   2
BRANCH   1   7
HETATM    7  C9  UNL     1     -34.709  15.207  -3.831  1.00 20.00    -0.017 C 
HETATM    8  C1  UNL     1     -34.521  13.687  -3.727  1.00 20.00     0.010 C 
BRANCH   7   9
HETATM    9  C8  UNL     1     -33.328  15.858  -4.092  1.00 20.00     0.024 C 
BRANCH   9  10
HETATM   10  C10 UNL     1     -33.243  16.830  -5.279  1.00 20.00     0.078 C 
HETATM   11  C2  UNL     1     -33.655  18.238  -4.858  1.00 20.00     0.026 C 
HETATM   12 CL12 UNL     1     -34.293  16.300  -6.624  1.00 20.00    -0.125 Cl
ENDBRANCH   9  10
ENDBRANCH   7   9
ENDBRANCH   1   7
TORSDOF 5
ENDMDL
MODEL 2
REMARK VINA RESULT:      -4.1      2.333      4.797
REMARK  5 active torsions:
REMARK  status: ('A' for Active; 'I' for Inactive)
REMARK    1  A    between atoms: C6_6  and  C7_7 
REMARK    2  A    between atoms: C6_6  and  C9_9 
REMARK    3  A    between atoms: C7_7  and  C11_11 
REMARK    4  A    between atoms: C8_8  and  C9_9 
REMARK    5  A    between atoms: C8_8  and  C10_10 
ROOT
HETATM    1  C6  UNL     1     -33.211  16.176  -4.870  1.00 20.00     0.005 C 
ENDROOT
BRANCH   1   2
HETATM    2  C7  UNL     1     -34.591  16.733  -5.254  1.00 20.00     0.008 C 
BRANCH   2   3
HETATM    3  C11 UNL     1     -35.327  15.981  -6.397  1.00 20.00    -0.051 C 
HETATM    4  C3  UNL     1     -34.369  15.050  -7.161  1.00 20.00     0.014 C 
HETATM    5  C4  UNL     1     -35.973  16.965  -7.386  1.00 20.00     0.014 C 
HETATM    6  C5  UNL     1     -36.439  15.120  -5.766  1.00 20.00     0.014 C 
ENDBRANCH   2   3
ENDBRANCH   1   2
BRANCH   1   7
HETATM    7  C9  UNL     1     -33.209  15.390  -3.540  1.00 20.00    -0.017 C 
HETATM    8  C1  UNL     1     -33.458  13.892  -3.761  1.00 20.00     0.010 C 
BRANCH   7   9
HETATM    9  C8  UNL     1     -34.274  15.927  -2.551  1.00 20.00     0.024 C 
BRANCH   9  10
HETATM   10  C10 UNL     1     -33.782  16.918  -1.486  1.00 20.00     0.078 C 
HETATM   11  C2  UNL     1     -34.758  16.987  -0.316  1.00 20.00     0.026 C 
HETATM   12 CL12 UNL     1     -33.588  18.558  -2.171  1.00 20.00    -0.125 Cl
ENDBRANCH   9  10
ENDBRANCH   7   9
ENDBRANCH   1   7
TORSDOF 5
ENDMDL
MODEL 3
REMARK VINA RESULT:      -4.1      0.943      2.355
REMARK  5 active torsions:
REMARK  status: ('A' for Active; 'I' for Inactive)
REMARK    1  A    between atoms: C6_6  and  C7_7 
REMARK    2  A    between atoms: C6_6  and  C9_9 
REMARK    3  A    between atoms: C7_7  and  C11_11 
REMARK    4  A    between atoms: C8_8  and  C9_9 
REMARK    5  A    between atoms: C8_8  and  C10_10 
ROOT
HETATM    1  C6  UNL     1     -33.509  16.108  -2.530  1.00 20.00     0.005 C 
ENDROOT
BRANCH   1   2
HETATM    2  C7  UNL     1     -34.704  16.325  -1.588  1.00 20.00     0.008 C 
BRANCH   2   3
HETATM    3  C11 UNL     1     -34.668  17.628  -0.742  1.00 20.00    -0.051 C 
HETATM    4  C3  UNL     1     -35.125  17.369   0.704  1.00 20.00     0.014 C 
HETATM    5  C4  UNL     1     -35.550  18.721  -1.366  1.00 20.00     0.014 C 
HETATM    6  C5  UNL     1     -33.212  18.135  -0.707  1.00 20.00     0.014 C 
ENDBRANCH   2   3
ENDBRANCH   1   2
BRANCH   1   7
HETATM    7  C9  UNL     1     -33.867  16.245  -4.026  1.00 20.00    -0.017 C 
HETATM    8  C1  UNL     1     -33.698  17.687  -4.524  1.00 20.00     0.010 C 
BRANCH   7   9
HETATM    9  C8  UNL     1     -35.319  15.790  -4.316  1.00 20.00     0.024 C 
BRANCH   9  10
HETATM   10  C10 UNL     1     -35.483  14.552  -5.210  1.00 20.00     0.078 C 
HETATM   11  C2  UNL     1     -35.032  13.291  -4.478  1.00 20.00     0.026 C 
HETATM   12 CL12 UNL     1     -34.536  14.713  -6.717  1.00 20.00    -0.125 Cl
ENDBRANCH   9  10
ENDBRANCH   7   9
ENDBRANCH   1   7
TORSDOF 5
ENDMDL
MODEL 4
REMARK VINA RESULT:      -4.0      1.180      1.840
REMARK  5 active torsions:
REMARK  status: ('A' for Active; 'I' for Inactive)
REMARK    1  A    between atoms: C6_6  and  C7_7 
REMARK    2  A    between atoms: C6_6  and  C9_9 
REMARK    3  A    between atoms: C7_7  and  C11_11 
REMARK    4  A    between atoms: C8_8  and  C9_9 
REMARK    5  A    between atoms: C8_8  and  C10_10 
ROOT
HETATM    1  C6  UNL     1     -33.616  16.065  -2.561  1.00 20.00     0.005 C 
ENDROOT
BRANCH   1   2
HETATM    2  C7  UNL     1     -34.711  16.272  -1.502  1.00 20.00     0.008 C 
BRANCH   2   3
HETATM    3  C11 UNL     1     -34.616  17.590  -0.685  1.00 20.00    -0.051 C 
HETATM    4  C3  UNL     1     -33.173  18.122  -0.646  1.00 20.00     0.014 C 
HETATM    5  C4  UNL     1     -35.123  17.392   0.752  1.00 20.00     0.014 C 
HETATM    6  C5  UNL     1     -35.502  18.646  -1.376  1.00 20.00     0.014 C 
ENDBRANCH   2   3
ENDBRANCH   1   2
BRANCH   1   7
HETATM    7  C9  UNL     1     -34.110  15.326  -3.825  1.00 20.00    -0.017 C 
HETATM    8  C1  UNL     1     -33.654  13.861  -3.846  1.00 20.00     0.010 C 
BRANCH   7   9
HETATM    9  C8  UNL     1     -33.619  16.013  -5.124  1.00 20.00     0.024 C 
BRANCH   9  10
HETATM   10  C10 UNL     1     -34.650  16.159  -6.253  1.00 20.00     0.078 C 
HETATM   11  C2  UNL     1     -36.071  16.132  -5.698  1.00 20.00     0.026 C 
HETATM   12 CL12 UNL     1     -34.478  14.849  -7.458  1.00 20.00    -0.125 Cl
ENDBRANCH   9  10
ENDBRANCH   7   9
ENDBRANCH   1   7
TORSDOF 5
ENDMDL
MODEL 5
REMARK VINA RESULT:      -4.0      2.733      5.186
REMARK  5 active torsions:
REMARK  status: ('A' for Active; 'I' for Inactive)
REMARK    1  A    between atoms: C6_6  and  C7_7 
REMARK    2  A    between atoms: C6_6  and  C9_9 
REMARK    3  A    between atoms: C7_7  and  C11_11 
REMARK    4  A    between atoms: C8_8  and  C9_9 
REMARK    5  A    between atoms: C8_8  and  C10_10 
ROOT
HETATM    1  C6  UNL     1     -34.645  15.961  -1.925  1.00 20.00     0.005 C 
ENDROOT
BRANCH   1   2
HETATM    2  C7  UNL     1     -35.237  15.604  -3.297  1.00 20.00     0.008 C 
BRANCH   2   3
HETATM    3  C11 UNL     1     -34.333  14.737  -4.216  1.00 20.00    -0.051 C 
HETATM    4  C3  UNL     1     -32.909  14.615  -3.646  1.00 20.00     0.014 C 
HETATM    5  C4  UNL     1     -34.262  15.318  -5.637  1.00 20.00     0.014 C 
HETATM    6  C5  UNL     1     -34.946  13.324  -4.295  1.00 20.00     0.014 C 
ENDBRANCH   2   3
ENDBRANCH   1   2
BRANCH   1   7
HETATM    7  C9  UNL     1     -34.497  17.480  -1.690  1.00 20.00    -0.017 C 
HETATM    8  C1  UNL     1     -34.038  18.212  -2.959  1.00 20.00     0.010 C 
BRANCH   7   9
HETATM    9  C8  UNL     1     -33.495  17.793  -0.551  1.00 20.00     0.024 C 
BRANCH   9  10
HETATM   10  C10 UNL     1     -34.069  18.485   0.695  1.00 20.00     0.078 C 
HETATM   11  C2  UNL     1     -32.964  18.790   1.703  1.00 20.00     0.026 C 
HETATM   12 CL12 UNL     1     -35.306  17.467   1.487  1.00 20.00    -0.125 Cl
ENDBRANCH   9  10
ENDBRANCH   7   9
ENDBRANCH   1   7
TORSDOF 5
ENDMDL
MODEL 6
REMARK VINA RESULT:      -4.0      1.563      2.191
REMARK  5 active torsions:
REMARK  status: ('A' for Active; 'I' for Inactive)
REMARK    1  A    between atoms: C6_6  and  C7_7 
REMARK    2  A    between atoms: C6_6  and  C9_9 
REMARK    3  A    between atoms: C7_7  and  C11_11 
REMARK    4  A    between atoms: C8_8  and  C9_9 
REMARK    5  A    between atoms: C8_8  and  C10_10 
ROOT
HETATM    1  C6  UNL     1     -35.227  15.039  -3.127  1.00 20.00     0.005 C 
ENDROOT
BRANCH   1   2
HETATM    2  C7  UNL     1     -34.187  15.843  -2.331  1.00 20.00     0.008 C 
BRANCH   2   3
HETATM    3  C11 UNL     1     -34.678  17.202  -1.760  1.00 20.00    -0.051 C 
HETATM    4  C3  UNL     1     -36.055  17.584  -2.332  1.00 20.00     0.014 C 
HETATM    5  C4  UNL     1     -33.675  18.327  -2.060  1.00 20.00     0.014 C 
HETATM    6  C5  UNL     1     -34.812  17.059  -0.231  1.00 20.00     0.014 C 
ENDBRANCH   2   3
ENDBRANCH   1   2
BRANCH   1   7
HETATM    7  C9  UNL     1     -34.622  13.862  -3.923  1.00 20.00    -0.017 C 
HETATM    8  C1  UNL     1     -33.124  13.690  -3.640  1.00 20.00     0.010 C 
BRANCH   7   9
HETATM    9  C8  UNL     1     -34.818  14.036  -5.450  1.00 20.00     0.024 C 
BRANCH   9  10
HETATM   10  C10 UNL     1     -35.132  15.457  -5.942  1.00 20.00     0.078 C 
HETATM   11  C2  UNL     1     -35.671  15.430  -7.369  1.00 20.00     0.026 C 
HETATM   12 CL12 UNL     1     -33.676  16.494  -5.896  1.00 20.00    -0.125 Cl
ENDBRANCH   9  10
ENDBRANCH   7   9
ENDBRANCH   1   7
TORSDOF 5
ENDMDL
MODEL 7
REMARK VINA RESULT:      -3.9      2.715      5.024
REMARK  5 active torsions:
REMARK  status: ('A' for Active; 'I' for Inactive)
REMARK    1  A    between atoms: C6_6  and  C7_7 
REMARK    2  A    between atoms: C6_6  and  C9_9 
REMARK    3  A    between atoms: C7_7  and  C11_11 
REMARK    4  A    between atoms: C8_8  and  C9_9 
REMARK    5  A    between atoms: C8_8  and  C10_10 
ROOT
HETATM    1  C6  UNL     1     -34.734  15.918  -1.853  1.00 20.00     0.005 C 
ENDROOT
BRANCH   1   2
HETATM    2  C7  UNL     1     -35.264  15.528  -3.242  1.00 20.00     0.008 C 
BRANCH   2   3
HETATM    3  C11 UNL     1     -34.246  14.819  -4.177  1.00 20.00    -0.051 C 
HETATM    4  C3  UNL     1     -34.635  13.350  -4.416  1.00 20.00     0.014 C 
HETATM    5  C4  UNL     1     -32.823  14.880  -3.599  1.00 20.00     0.014 C 
HETATM    6  C5  UNL     1     -34.256  15.549  -5.535  1.00 20.00     0.014 C 
ENDBRANCH   2   3
ENDBRANCH   1   2
BRANCH   1   7
HETATM    7  C9  UNL     1     -34.723  17.441  -1.599  1.00 20.00    -0.017 C 
HETATM    8  C1  UNL     1     -35.119  18.232  -2.853  1.00 20.00     0.010 C 
BRANCH   7   9
HETATM    9  C8  UNL     1     -33.335  17.937  -1.122  1.00 20.00     0.024 C 
BRANCH   9  10
HETATM   10  C10 UNL     1     -33.320  18.827   0.130  1.00 20.00     0.078 C 
HETATM   11  C2  UNL     1     -31.898  19.001   0.655  1.00 20.00     0.026 C 
HETATM   12 CL12 UNL     1     -34.333  18.133   1.430  1.00 20.00    -0.125 Cl
ENDBRANCH   9  10
ENDBRANCH   7   9
ENDBRANCH   1   7
TORSDOF 5
ENDMDL
MODEL 8
REMARK VINA RESULT:      -3.9      2.817      5.335
REMARK  5 active torsions:
REMARK  status: ('A' for Active; 'I' for Inactive)
REMARK    1  A    between atoms: C6_6  and  C7_7 
REMARK    2  A    between atoms: C6_6  and  C9_9 
REMARK    3  A    between atoms: C7_7  and  C11_11 
REMARK    4  A    between atoms: C8_8  and  C9_9 
REMARK    5  A    between atoms: C8_8  and  C10_10 
ROOT
HETATM    1  C6  UNL     1     -34.452  16.363  -1.550  1.00 20.00     0.005 C 
ENDROOT
BRANCH   1   2
HETATM    2  C7  UNL     1     -33.647  15.923  -2.784  1.00 20.00     0.008 C 
BRANCH   2   3
HETATM    3  C11 UNL     1     -34.423  15.071  -3.826  1.00 20.00    -0.051 C 
HETATM    4  C3  UNL     1     -34.258  15.638  -5.247  1.00 20.00     0.014 C 
HETATM    5  C4  UNL     1     -35.919  14.995  -3.480  1.00 20.00     0.014 C 
HETATM    6  C5  UNL     1     -33.842  13.643  -3.804  1.00 20.00     0.014 C 
ENDBRANCH   2   3
ENDBRANCH   1   2
BRANCH   1   7
HETATM    7  C9  UNL     1     -34.322  17.868  -1.231  1.00 20.00    -0.017 C 
HETATM    8  C1  UNL     1     -33.780  18.662  -2.427  1.00 20.00     0.010 C 
BRANCH   7   9
HETATM    9  C8  UNL     1     -33.398  18.122  -0.013  1.00 20.00     0.024 C 
BRANCH   9  10
HETATM   10  C10 UNL     1     -34.083  18.596   1.278  1.00 20.00     0.078 C 
HETATM   11  C2  UNL     1     -33.066  18.750   2.406  1.00 20.00     0.026 C 
HETATM   12 CL12 UNL     1     -35.350  17.447   1.798  1.00 20.00    -0.125 Cl
ENDBRANCH   9  10
ENDBRANCH   7   9
ENDBRANCH   1   7
TORSDOF 5
ENDMDL
MODEL 9
REMARK VINA RESULT:      -3.8     10.454     11.975
REMARK  5 active torsions:
REMARK  status: ('A' for Active; 'I' for Inactive)
REMARK    1  A    between atoms: C6_6  and  C7_7 
REMARK    2  A    between atoms: C6_6  and  C9_9 
REMARK    3  A    between atoms: C7_7  and  C11_11 
REMARK    4  A    between atoms: C8_8  and  C9_9 
REMARK    5  A    between atoms: C8_8  and  C10_10 
ROOT
HETATM    1  C6  UNL     1     -33.179   6.620   3.105  1.00 20.00     0.005 C 
ENDROOT
BRANCH   1   2
HETATM    2  C7  UNL     1     -33.332   5.318   3.907  1.00 20.00     0.008 C 
BRANCH   2   3
HETATM    3  C11 UNL     1     -34.551   5.258   4.869  1.00 20.00    -0.051 C 
HETATM    4  C3  UNL     1     -34.391   6.247   6.036  1.00 20.00     0.014 C 
HETATM    5  C4  UNL     1     -34.750   3.840   5.428  1.00 20.00     0.014 C 
HETATM    6  C5  UNL     1     -35.810   5.651   4.070  1.00 20.00     0.014 C 
ENDBRANCH   2   3
ENDBRANCH   1   2
BRANCH   1   7
HETATM    7  C9  UNL     1     -31.728   7.146   3.052  1.00 20.00    -0.017 C 
HETATM    8  C1  UNL     1     -31.344   7.896   4.335  1.00 20.00     0.010 C 
BRANCH   7   9
HETATM    9  C8  UNL     1     -31.500   8.089   1.844  1.00 20.00     0.024 C 
BRANCH   9  10
HETATM   10  C10 UNL     1     -32.701   8.940   1.404  1.00 20.00     0.078 C 
HETATM   11  C2  UNL     1     -32.688   9.158  -0.107  1.00 20.00     0.026 C 
HETATM   12 CL12 UNL     1     -32.695  10.533   2.215  1.00 20.00    -0.125 Cl
ENDBRANCH   9  10
ENDBRANCH   7   9
ENDBRANCH   1   7
TORSDOF 5
ENDMDL
