MODEL 1
REMARK VINA RESULT:      -4.2      0.000      0.000
REMARK  3 active torsions:
REMARK  status: ('A' for Active; 'I' for Inactive)
REMARK    1  A    between atoms: C2_2  and  C3_3 
REMARK    2  A    between atoms: C2_2  and  S8_8 
REMARK    3  A    between atoms: C3_3  and  C4_4 
ROOT
HETATM    1  C3  UNL     1     -33.992   6.351   4.121  1.00 20.00     0.174 C 
HETATM    2 BR9  UNL     1     -34.005   6.221   6.090  1.00 20.00    -0.081 Br
ENDROOT
BRANCH   1   3
HETATM    3  C2  UNL     1     -32.545   6.181   3.659  1.00 20.00     0.098 C 
BRANCH   3   4
HETATM    4  S8  UNL     1     -31.633   7.754   3.602  1.00 20.00    -0.172 SA
HETATM    5  C1  UNL     1     -32.084   8.253   1.925  1.00 20.00     0.089 C 
ENDBRANCH   3   4
ENDBRANCH   1   3
BRANCH   1   6
HETATM    6  C4  UNL     1     -34.962   5.312   3.587  1.00 20.00     0.401 C 
HETATM    7  F5  UNL     1     -35.060   4.244   4.409  1.00 20.00    -0.170 F 
HETATM    8  F6  UNL     1     -34.579   4.861   2.370  1.00 20.00    -0.170 F 
HETATM    9  F7  UNL     1     -36.204   5.824   3.438  1.00 20.00    -0.170 F 
ENDBRANCH   1   6
TORSDOF 3
ENDMDL
MODEL 2
REMARK VINA RESULT:      -4.2      1.638      2.376
REMARK  3 active torsions:
REMARK  status: ('A' for Active; 'I' for Inactive)
REMARK    1  A    between atoms: C2_2  and  C3_3 
REMARK    2  A    between atoms: C2_2  and  S8_8 
REMARK    3  A    between atoms: C3_3  and  C4_4 
ROOT
HETATM    1  C3  UNL     1     -34.792   5.783   5.071  1.00 20.00     0.174 C 
HETATM    2 BR9  UNL     1     -33.650   6.810   6.310  1.00 20.00    -0.081 Br
ENDROOT
BRANCH   1   3
HETATM    3  C2  UNL     1     -34.228   5.972   3.662  1.00 20.00     0.098 C 
BRANCH   3   4
HETATM    4  S8  UNL     1     -32.427   6.227   3.653  1.00 20.00    -0.172 SA
HETATM    5  C1  UNL     1     -32.371   7.638   2.526  1.00 20.00     0.089 C 
ENDBRANCH   3   4
ENDBRANCH   1   3
BRANCH   1   6
HETATM    6  C4  UNL     1     -34.823   4.345   5.561  1.00 20.00     0.401 C 
HETATM    7  F5  UNL     1     -35.167   3.485   4.578  1.00 20.00    -0.170 F 
HETATM    8  F6  UNL     1     -35.708   4.191   6.573  1.00 20.00    -0.170 F 
HETATM    9  F7  UNL     1     -33.619   3.958   6.036  1.00 20.00    -0.170 F 
ENDBRANCH   1   6
TORSDOF 3
ENDMDL
MODEL 3
REMARK VINA RESULT:      -4.1      2.322      2.704
REMARK  3 active torsions:
REMARK  status: ('A' for Active; 'I' for Inactive)
REMARK    1  A    between atoms: C2_2  and  C3_3 
REMARK    2  A    between atoms: C2_2  and  S8_8 
REMARK    3  A    between atoms: C3_3  and  C4_4 
ROOT
HETATM    1  C3  UNL     1     -34.045   5.391   4.806  1.00 20.00     0.174 C 
HETATM    2 BR9  UNL     1     -35.695   5.454   3.725  1.00 20.00    -0.081 Br
ENDROOT
BRANCH   1   3
HETATM    3  C2  UNL     1     -33.211   6.620   4.443  1.00 20.00     0.098 C 
BRANCH   3   4
HETATM    4  S8  UNL     1     -32.136   6.341   3.003  1.00 20.00    -0.172 SA
HETATM    5  C1  UNL     1     -32.126   8.029   2.357  1.00 20.00     0.089 C 
ENDBRANCH   3   4
ENDBRANCH   1   3
BRANCH   1   6
HETATM    6  C4  UNL     1     -34.457   5.303   6.265  1.00 20.00     0.401 C 
HETATM    7  F5  UNL     1     -34.477   6.517   6.857  1.00 20.00    -0.170 F 
HETATM    8  F6  UNL     1     -33.610   4.516   6.968  1.00 20.00    -0.170 F 
HETATM    9  F7  UNL     1     -35.690   4.766   6.401  1.00 20.00    -0.170 F 
ENDBRANCH   1   6
TORSDOF 3
ENDMDL
MODEL 4
REMARK VINA RESULT:      -3.7     11.440     12.028
REMARK  3 active torsions:
REMARK  status: ('A' for Active; 'I' for Inactive)
REMARK    1  A    between atoms: C2_2  and  C3_3 
REMARK    2  A    between atoms: C2_2  and  S8_8 
REMARK    3  A    between atoms: C3_3  and  C4_4 
ROOT
HETATM    1  C3  UNL     1     -34.021  15.102  -4.849  1.00 20.00     0.174 C 
HETATM    2 BR9  UNL     1     -34.828  14.815  -6.627  1.00 20.00    -0.081 Br
ENDROOT
BRANCH   1   3
HETATM    3  C2  UNL     1     -34.898  16.109  -4.104  1.00 20.00     0.098 C 
BRANCH   3   4
HETATM    4  S8  UNL     1     -33.960  17.115  -2.914  1.00 20.00    -0.172 SA
HETATM    5  C1  UNL     1     -34.625  16.401  -1.392  1.00 20.00     0.089 C 
ENDBRANCH   3   4
ENDBRANCH   1   3
BRANCH   1   6
HETATM    6  C4  UNL     1     -33.894  13.745  -4.179  1.00 20.00     0.401 C 
HETATM    7  F5  UNL     1     -34.123  12.733  -5.044  1.00 20.00    -0.170 F 
HETATM    8  F6  UNL     1     -34.769  13.618  -3.155  1.00 20.00    -0.170 F 
HETATM    9  F7  UNL     1     -32.659  13.562  -3.661  1.00 20.00    -0.170 F 
ENDBRANCH   1   6
TORSDOF 3
ENDMDL
MODEL 5
REMARK VINA RESULT:      -3.7     11.450     11.984
REMARK  3 active torsions:
REMARK  status: ('A' for Active; 'I' for Inactive)
REMARK    1  A    between atoms: C2_2  and  C3_3 
REMARK    2  A    between atoms: C2_2  and  S8_8 
REMARK    3  A    between atoms: C3_3  and  C4_4 
ROOT
HETATM    1  C3  UNL     1     -34.016  15.087  -4.878  1.00 20.00     0.174 C 
HETATM    2 BR9  UNL     1     -34.808  14.797  -6.662  1.00 20.00    -0.081 Br
ENDROOT
BRANCH   1   3
HETATM    3  C2  UNL     1     -34.893  16.102  -4.145  1.00 20.00     0.098 C 
BRANCH   3   4
HETATM    4  S8  UNL     1     -33.962  17.102  -2.945  1.00 20.00    -0.172 SA
HETATM    5  C1  UNL     1     -34.640  16.388  -1.431  1.00 20.00     0.089 C 
ENDBRANCH   3   4
ENDBRANCH   1   3
BRANCH   1   6
HETATM    6  C4  UNL     1     -33.901  13.732  -4.202  1.00 20.00     0.401 C 
HETATM    7  F5  UNL     1     -32.671  13.530  -3.681  1.00 20.00    -0.170 F 
HETATM    8  F6  UNL     1     -34.151  12.726  -5.072  1.00 20.00    -0.170 F 
HETATM    9  F7  UNL     1     -34.794  13.604  -3.194  1.00 20.00    -0.170 F 
ENDBRANCH   1   6
TORSDOF 3
ENDMDL
MODEL 6
REMARK VINA RESULT:      -3.6     11.396     11.971
REMARK  3 active torsions:
REMARK  status: ('A' for Active; 'I' for Inactive)
REMARK    1  A    between atoms: C2_2  and  C3_3 
REMARK    2  A    between atoms: C2_2  and  S8_8 
REMARK    3  A    between atoms: C3_3  and  C4_4 
ROOT
HETATM    1  C3  UNL     1     -33.666  15.383  -3.349  1.00 20.00     0.174 C 
HETATM    2 BR9  UNL     1     -33.460  16.596  -4.891  1.00 20.00    -0.081 Br
ENDROOT
BRANCH   1   3
HETATM    3  C2  UNL     1     -34.915  15.821  -2.583  1.00 20.00     0.098 C 
BRANCH   3   4
HETATM    4  S8  UNL     1     -36.190  16.537  -3.665  1.00 20.00    -0.172 SA
HETATM    5  C1  UNL     1     -37.344  15.146  -3.660  1.00 20.00     0.089 C 
ENDBRANCH   3   4
ENDBRANCH   1   3
BRANCH   1   6
HETATM    6  C4  UNL     1     -33.709  13.962  -3.885  1.00 20.00     0.401 C 
HETATM    7  F5  UNL     1     -32.560  13.296  -3.638  1.00 20.00    -0.170 F 
HETATM    8  F6  UNL     1     -33.914  13.949  -5.223  1.00 20.00    -0.170 F 
HETATM    9  F7  UNL     1     -34.717  13.253  -3.330  1.00 20.00    -0.170 F 
ENDBRANCH   1   6
TORSDOF 3
ENDMDL
MODEL 7
REMARK VINA RESULT:      -3.5      9.107      9.959
REMARK  3 active torsions:
REMARK  status: ('A' for Active; 'I' for Inactive)
REMARK    1  A    between atoms: C2_2  and  C3_3 
REMARK    2  A    between atoms: C2_2  and  S8_8 
REMARK    3  A    between atoms: C3_3  and  C4_4 
ROOT
HETATM    1  C3  UNL     1     -42.228   5.433  -1.292  1.00 20.00     0.174 C 
HETATM    2 BR9  UNL     1     -42.029   7.348  -1.724  1.00 20.00    -0.081 Br
ENDROOT
BRANCH   1   3
HETATM    3  C2  UNL     1     -42.323   4.672  -2.614  1.00 20.00     0.098 C 
BRANCH   3   4
HETATM    4  S8  UNL     1     -42.956   2.979  -2.408  1.00 20.00    -0.172 SA
HETATM    5  C1  UNL     1     -41.704   2.114  -3.383  1.00 20.00     0.089 C 
ENDBRANCH   3   4
ENDBRANCH   1   3
BRANCH   1   6
HETATM    6  C4  UNL     1     -41.058   5.039  -0.407  1.00 20.00     0.401 C 
HETATM    7  F5  UNL     1     -40.409   6.119   0.080  1.00 20.00    -0.170 F 
HETATM    8  F6  UNL     1     -40.159   4.289  -1.086  1.00 20.00    -0.170 F 
HETATM    9  F7  UNL     1     -41.463   4.299   0.649  1.00 20.00    -0.170 F 
ENDBRANCH   1   6
TORSDOF 3
ENDMDL
MODEL 8
REMARK VINA RESULT:      -3.5     11.373     12.362
REMARK  3 active torsions:
REMARK  status: ('A' for Active; 'I' for Inactive)
REMARK    1  A    between atoms: C2_2  and  C3_3 
REMARK    2  A    between atoms: C2_2  and  S8_8 
REMARK    3  A    between atoms: C3_3  and  C4_4 
ROOT
HETATM    1  C3  UNL     1     -34.272  15.517  -4.056  1.00 20.00     0.174 C 
HETATM    2 BR9  UNL     1     -34.530  16.035  -2.169  1.00 20.00    -0.081 Br
ENDROOT
BRANCH   1   3
HETATM    3  C2  UNL     1     -33.219  16.454  -4.649  1.00 20.00     0.098 C 
BRANCH   3   4
HETATM    4  S8  UNL     1     -33.928  17.676  -5.795  1.00 20.00    -0.172 SA
HETATM    5  C1  UNL     1     -34.509  16.531  -7.067  1.00 20.00     0.089 C 
ENDBRANCH   3   4
ENDBRANCH   1   3
BRANCH   1   6
HETATM    6  C4  UNL     1     -33.905  14.043  -4.080  1.00 20.00     0.401 C 
HETATM    7  F5  UNL     1     -32.633  13.834  -3.679  1.00 20.00    -0.170 F 
HETATM    8  F6  UNL     1     -34.037  13.525  -5.323  1.00 20.00    -0.170 F 
HETATM    9  F7  UNL     1     -34.710  13.320  -3.271  1.00 20.00    -0.170 F 
ENDBRANCH   1   6
TORSDOF 3
ENDMDL
MODEL 9
REMARK VINA RESULT:      -3.5     11.603     12.279
REMARK  3 active torsions:
REMARK  status: ('A' for Active; 'I' for Inactive)
REMARK    1  A    between atoms: C2_2  and  C3_3 
REMARK    2  A    between atoms: C2_2  and  S8_8 
REMARK    3  A    between atoms: C3_3  and  C4_4 
ROOT
HETATM    1  C3  UNL     1     -34.050  15.211  -4.775  1.00 20.00     0.174 C 
HETATM    2 BR9  UNL     1     -34.610  14.819  -6.626  1.00 20.00    -0.081 Br
ENDROOT
BRANCH   1   3
HETATM    3  C2  UNL     1     -35.143  16.069  -4.137  1.00 20.00     0.098 C 
BRANCH   3   4
HETATM    4  S8  UNL     1     -36.728  15.965  -5.023  1.00 20.00    -0.172 SA
HETATM    5  C1  UNL     1     -37.582  14.840  -3.896  1.00 20.00     0.089 C 
ENDBRANCH   3   4
ENDBRANCH   1   3
BRANCH   1   6
HETATM    6  C4  UNL     1     -33.791  13.883  -4.084  1.00 20.00     0.401 C 
HETATM    7  F5  UNL     1     -34.577  13.719  -2.997  1.00 20.00    -0.170 F 
HETATM    8  F6  UNL     1     -32.503  13.782  -3.681  1.00 20.00    -0.170 F 
HETATM    9  F7  UNL     1     -34.022  12.841  -4.912  1.00 20.00    -0.170 F 
ENDBRANCH   1   6
TORSDOF 3
ENDMDL
