MODEL 1
REMARK VINA RESULT:      -5.0      0.000      0.000
REMARK  2 active torsions:
REMARK  status: ('A' for Active; 'I' for Inactive)
REMARK    1  A    between atoms: C4_4  and  C9_9 
REMARK    2  A    between atoms: C9_9  and  C10_10 
ROOT
HETATM    1  C1  UNL     1     -32.740   7.162   5.530  1.00 20.00     0.005 C 
HETATM    2  C2  UNL     1     -33.948   6.449   6.147  1.00 20.00     0.005 C 
HETATM    3  C3  UNL     1     -33.778   6.473   3.340  1.00 20.00     0.009 C 
HETATM    4  C4  UNL     1     -32.466   6.759   4.072  1.00 20.00    -0.013 C 
HETATM    5  C5  UNL     1     -34.228   5.102   5.472  1.00 20.00    -0.015 C 
HETATM    6  C6  UNL     1     -34.555   5.291   3.965  1.00 20.00    -0.015 C 
HETATM    7  C7  UNL     1     -35.281   4.313   6.248  1.00 20.00     0.010 C 
HETATM    8  C8  UNL     1     -36.046   5.453   3.648  1.00 20.00     0.010 C 
ENDROOT
BRANCH   4   9
HETATM    9  C9  UNL     1     -31.655   7.837   3.357  1.00 20.00     0.020 C 
BRANCH   9  10
HETATM   10  C10 UNL     1     -32.097   8.067   1.919  1.00 20.00     0.115 C 
HETATM   11 CL11 UNL     1     -32.456   9.778   1.594  1.00 20.00    -0.130 Cl
ENDBRANCH   9  10
ENDBRANCH   4   9
TORSDOF 2
ENDMDL
MODEL 2
REMARK VINA RESULT:      -4.6     11.299     12.603
REMARK  2 active torsions:
REMARK  status: ('A' for Active; 'I' for Inactive)
REMARK    1  A    between atoms: C4_4  and  C9_9 
REMARK    2  A    between atoms: C9_9  and  C10_10 
ROOT
HETATM    1  C1  UNL     1     -33.646  16.994  -3.461  1.00 20.00     0.005 C 
HETATM    2  C2  UNL     1     -33.361  16.385  -4.838  1.00 20.00     0.005 C 
HETATM    3  C3  UNL     1     -34.794  14.796  -3.012  1.00 20.00     0.009 C 
HETATM    4  C4  UNL     1     -34.785  16.294  -2.702  1.00 20.00    -0.013 C 
HETATM    5  C5  UNL     1     -34.590  15.680  -5.422  1.00 20.00    -0.015 C 
HETATM    6  C6  UNL     1     -35.046  14.507  -4.510  1.00 20.00    -0.015 C 
HETATM    7  C7  UNL     1     -34.352  15.285  -6.878  1.00 20.00     0.010 C 
HETATM    8  C8  UNL     1     -34.434  13.147  -4.863  1.00 20.00     0.010 C 
ENDROOT
BRANCH   4   9
HETATM    9  C9  UNL     1     -34.671  16.550  -1.201  1.00 20.00     0.020 C 
BRANCH   9  10
HETATM   10  C10 UNL     1     -33.658  17.630  -0.851  1.00 20.00     0.115 C 
HETATM   11 CL11 UNL     1     -33.839  18.203   0.823  1.00 20.00    -0.130 Cl
ENDBRANCH   9  10
ENDBRANCH   4   9
TORSDOF 2
ENDMDL
MODEL 3
REMARK VINA RESULT:      -4.6     11.538     12.219
REMARK  2 active torsions:
REMARK  status: ('A' for Active; 'I' for Inactive)
REMARK    1  A    between atoms: C4_4  and  C9_9 
REMARK    2  A    between atoms: C9_9  and  C10_10 
ROOT
HETATM    1  C1  UNL     1     -33.403  14.890  -3.632  1.00 20.00     0.005 C 
HETATM    2  C2  UNL     1     -33.478  16.116  -2.716  1.00 20.00     0.005 C 
HETATM    3  C3  UNL     1     -35.880  15.261  -3.902  1.00 20.00     0.009 C 
HETATM    4  C4  UNL     1     -34.764  14.216  -3.871  1.00 20.00    -0.013 C 
HETATM    5  C5  UNL     1     -34.679  16.054  -1.767  1.00 20.00    -0.015 C 
HETATM    6  C6  UNL     1     -36.015  16.017  -2.561  1.00 20.00    -0.015 C 
HETATM    7  C7  UNL     1     -34.603  17.162  -0.718  1.00 20.00     0.010 C 
HETATM    8  C8  UNL     1     -36.640  17.392  -2.826  1.00 20.00     0.010 C 
ENDROOT
BRANCH   4   9
HETATM    9  C9  UNL     1     -34.739  13.391  -5.156  1.00 20.00     0.020 C 
BRANCH   9  10
HETATM   10  C10 UNL     1     -35.338  14.120  -6.350  1.00 20.00     0.115 C 
HETATM   11 CL11 UNL     1     -34.164  15.204  -7.131  1.00 20.00    -0.130 Cl
ENDBRANCH   9  10
ENDBRANCH   4   9
TORSDOF 2
ENDMDL
MODEL 4
REMARK VINA RESULT:      -4.5     11.337     12.479
REMARK  2 active torsions:
REMARK  status: ('A' for Active; 'I' for Inactive)
REMARK    1  A    between atoms: C4_4  and  C9_9 
REMARK    2  A    between atoms: C9_9  and  C10_10 
ROOT
HETATM    1  C1  UNL     1     -34.802  16.211  -1.710  1.00 20.00     0.005 C 
HETATM    2  C2  UNL     1     -35.060  15.100  -2.734  1.00 20.00     0.005 C 
HETATM    3  C3  UNL     1     -33.613  17.343  -3.621  1.00 20.00     0.009 C 
HETATM    4  C4  UNL     1     -33.657  17.158  -2.103  1.00 20.00    -0.013 C 
HETATM    5  C5  UNL     1     -33.810  14.777  -3.559  1.00 20.00    -0.015 C 
HETATM    6  C6  UNL     1     -33.339  16.017  -4.367  1.00 20.00    -0.015 C 
HETATM    7  C7  UNL     1     -34.024  13.522  -4.404  1.00 20.00     0.010 C 
HETATM    8  C8  UNL     1     -33.918  16.116  -5.783  1.00 20.00     0.010 C 
ENDROOT
BRANCH   4   9
HETATM    9  C9  UNL     1     -33.792  18.498  -1.384  1.00 20.00     0.020 C 
BRANCH   9  10
HETATM   10  C10 UNL     1     -33.458  18.420   0.099  1.00 20.00     0.115 C 
HETATM   11 CL11 UNL     1     -31.760  18.832   0.426  1.00 20.00    -0.130 Cl
ENDBRANCH   9  10
ENDBRANCH   4   9
TORSDOF 2
ENDMDL
MODEL 5
REMARK VINA RESULT:      -4.4     11.527     13.115
REMARK  2 active torsions:
REMARK  status: ('A' for Active; 'I' for Inactive)
REMARK    1  A    between atoms: C4_4  and  C9_9 
REMARK    2  A    between atoms: C9_9  and  C10_10 
ROOT
HETATM    1  C1  UNL     1     -35.614  15.270  -3.246  1.00 20.00     0.005 C 
HETATM    2  C2  UNL     1     -35.658  15.271  -4.778  1.00 20.00     0.005 C 
HETATM    3  C3  UNL     1     -33.891  17.083  -3.552  1.00 20.00     0.009 C 
HETATM    4  C4  UNL     1     -34.348  15.923  -2.667  1.00 20.00    -0.013 C 
HETATM    5  C5  UNL     1     -34.256  15.323  -5.395  1.00 20.00    -0.015 C 
HETATM    6  C6  UNL     1     -33.511  16.621  -4.977  1.00 20.00    -0.015 C 
HETATM    7  C7  UNL     1     -34.316  15.091  -6.904  1.00 20.00     0.010 C 
HETATM    8  C8  UNL     1     -33.685  17.798  -5.944  1.00 20.00     0.010 C 
ENDROOT
BRANCH   4   9
HETATM    9  C9  UNL     1     -34.586  16.381  -1.229  1.00 20.00     0.020 C 
BRANCH   9  10
HETATM   10  C10 UNL     1     -33.722  17.567  -0.826  1.00 20.00     0.115 C 
HETATM   11 CL11 UNL     1     -34.076  18.123   0.826  1.00 20.00    -0.130 Cl
ENDBRANCH   9  10
ENDBRANCH   4   9
TORSDOF 2
ENDMDL
MODEL 6
REMARK VINA RESULT:      -4.3     11.619     12.593
REMARK  2 active torsions:
REMARK  status: ('A' for Active; 'I' for Inactive)
REMARK    1  A    between atoms: C4_4  and  C9_9 
REMARK    2  A    between atoms: C9_9  and  C10_10 
ROOT
HETATM    1  C1  UNL     1     -33.757  17.984  -3.262  1.00 20.00     0.005 C 
HETATM    2  C2  UNL     1     -33.502  18.855  -2.027  1.00 20.00     0.005 C 
HETATM    3  C3  UNL     1     -35.075  16.551  -1.663  1.00 20.00     0.009 C 
HETATM    4  C4  UNL     1     -34.212  16.555  -2.925  1.00 20.00    -0.013 C 
HETATM    5  C5  UNL     1     -33.143  18.016  -0.796  1.00 20.00    -0.015 C 
HETATM    6  C6  UNL     1     -34.302  17.051  -0.421  1.00 20.00    -0.015 C 
HETATM    7  C7  UNL     1     -32.672  18.907   0.352  1.00 20.00     0.010 C 
HETATM    8  C8  UNL     1     -35.303  17.617   0.593  1.00 20.00     0.010 C 
ENDROOT
BRANCH   4   9
HETATM    9  C9  UNL     1     -34.952  15.931  -4.106  1.00 20.00     0.020 C 
BRANCH   9  10
HETATM   10  C10 UNL     1     -34.116  14.914  -4.870  1.00 20.00     0.115 C 
HETATM   11 CL11 UNL     1     -33.346  13.732  -3.789  1.00 20.00    -0.130 Cl
ENDBRANCH   9  10
ENDBRANCH   4   9
TORSDOF 2
ENDMDL
MODEL 7
REMARK VINA RESULT:      -4.2     11.410     12.204
REMARK  2 active torsions:
REMARK  status: ('A' for Active; 'I' for Inactive)
REMARK    1  A    between atoms: C4_4  and  C9_9 
REMARK    2  A    between atoms: C9_9  and  C10_10 
ROOT
HETATM    1  C1  UNL     1     -35.616  17.603  -2.265  1.00 20.00     0.005 C 
HETATM    2  C2  UNL     1     -36.303  16.816  -3.386  1.00 20.00     0.005 C 
HETATM    3  C3  UNL     1     -33.754  15.936  -2.585  1.00 20.00     0.009 C 
HETATM    4  C4  UNL     1     -34.478  16.831  -1.578  1.00 20.00    -0.013 C 
HETATM    5  C5  UNL     1     -36.176  15.302  -3.188  1.00 20.00    -0.015 C 
HETATM    6  C6  UNL     1     -34.686  14.862  -3.193  1.00 20.00    -0.015 C 
HETATM    7  C7  UNL     1     -37.056  14.547  -4.182  1.00 20.00     0.010 C 
HETATM    8  C8  UNL     1     -34.143  14.455  -4.568  1.00 20.00     0.010 C 
ENDROOT
BRANCH   4   9
HETATM    9  C9  UNL     1     -33.509  17.792  -0.892  1.00 20.00     0.020 C 
BRANCH   9  10
HETATM   10  C10 UNL     1     -34.089  18.440   0.357  1.00 20.00     0.115 C 
HETATM   11 CL11 UNL     1     -35.215  17.361   1.211  1.00 20.00    -0.130 Cl
ENDBRANCH   9  10
ENDBRANCH   4   9
TORSDOF 2
ENDMDL
MODEL 8
REMARK VINA RESULT:      -4.1     11.679     13.287
REMARK  2 active torsions:
REMARK  status: ('A' for Active; 'I' for Inactive)
REMARK    1  A    between atoms: C4_4  and  C9_9 
REMARK    2  A    between atoms: C9_9  and  C10_10 
ROOT
HETATM    1  C1  UNL     1     -34.086  14.343  -4.754  1.00 20.00     0.005 C 
HETATM    2  C2  UNL     1     -33.859  14.866  -3.332  1.00 20.00     0.005 C 
HETATM    3  C3  UNL     1     -34.302  16.783  -5.341  1.00 20.00     0.009 C 
HETATM    4  C4  UNL     1     -34.757  15.364  -5.686  1.00 20.00    -0.013 C 
HETATM    5  C5  UNL     1     -34.852  15.973  -2.960  1.00 20.00    -0.015 C 
HETATM    6  C6  UNL     1     -34.702  17.196  -3.906  1.00 20.00    -0.015 C 
HETATM    7  C7  UNL     1     -34.757  16.313  -1.474  1.00 20.00     0.010 C 
HETATM    8  C8  UNL     1     -33.732  18.274  -3.410  1.00 20.00     0.010 C 
ENDROOT
BRANCH   4   9
HETATM    9  C9  UNL     1     -34.472  15.030  -7.149  1.00 20.00     0.020 C 
BRANCH   9  10
HETATM   10  C10 UNL     1     -35.669  14.431  -7.873  1.00 20.00     0.115 C 
HETATM   11 CL11 UNL     1     -37.209  15.101  -7.289  1.00 20.00    -0.130 Cl
ENDBRANCH   9  10
ENDBRANCH   4   9
TORSDOF 2
ENDMDL
MODEL 9
REMARK VINA RESULT:      -4.1     11.519     12.213
REMARK  2 active torsions:
REMARK  status: ('A' for Active; 'I' for Inactive)
REMARK    1  A    between atoms: C4_4  and  C9_9 
REMARK    2  A    between atoms: C9_9  and  C10_10 
ROOT
HETATM    1  C1  UNL     1     -32.991  18.635  -0.690  1.00 20.00     0.005 C 
HETATM    2  C2  UNL     1     -33.339  19.263   0.665  1.00 20.00     0.005 C 
HETATM    3  C3  UNL     1     -35.196  17.447  -0.415  1.00 20.00     0.009 C 
HETATM    4  C4  UNL     1     -33.785  17.355  -0.997  1.00 20.00    -0.013 C 
HETATM    5  C5  UNL     1     -33.882  18.228   1.656  1.00 20.00    -0.015 C 
HETATM    6  C6  UNL     1     -35.189  17.580   1.125  1.00 20.00    -0.015 C 
HETATM    7  C7  UNL     1     -34.002  18.827   3.057  1.00 20.00     0.010 C 
HETATM    8  C8  UNL     1     -36.478  18.282   1.569  1.00 20.00     0.010 C 
ENDROOT
BRANCH   4   9
HETATM    9  C9  UNL     1     -33.820  17.089  -2.500  1.00 20.00     0.020 C 
BRANCH   9  10
HETATM   10  C10 UNL     1     -34.124  15.638  -2.846  1.00 20.00     0.115 C 
HETATM   11 CL11 UNL     1     -32.737  14.826  -3.606  1.00 20.00    -0.130 Cl
ENDBRANCH   9  10
ENDBRANCH   4   9
TORSDOF 2
ENDMDL
