MODEL 1
REMARK VINA RESULT:      -5.0      0.000      0.000
REMARK  5 active torsions:
REMARK  status: ('A' for Active; 'I' for Inactive)
REMARK    1  A    between atoms: C6_6  and  C7_7 
REMARK    2  A    between atoms: C7_7  and  C10_10 
REMARK    3  A    between atoms: C8_8  and  C9_9 
REMARK    4  A    between atoms: C8_8  and  C10_10 
REMARK    5  A    between atoms: C9_9  and  O11_11 
ROOT
HETATM    1  C1  UNL     1     -34.721  17.736   0.783  1.00 20.00     0.012 C 
HETATM    2  C2  UNL     1     -34.748  17.069  -0.214  1.00 20.00    -0.117 C 
HETATM    3  C6  UNL     1     -34.781  16.249  -1.436  1.00 20.00     0.093 C 
ENDROOT
BRANCH   3   4
HETATM    4  C7  UNL     1     -33.628  16.624  -2.377  1.00 20.00     0.021 C 
BRANCH   4   5
HETATM    5  C10 UNL     1     -33.503  15.772  -3.673  1.00 20.00    -0.045 C 
HETATM    6  C4  UNL     1     -32.288  14.820  -3.574  1.00 20.00     0.015 C 
HETATM    7  C5  UNL     1     -33.297  16.680  -4.898  1.00 20.00     0.015 C 
BRANCH   5   8
HETATM    8  C8  UNL     1     -34.771  14.870  -3.841  1.00 20.00     0.040 C 
BRANCH   8   9
HETATM    9  C9  UNL     1     -34.653  13.642  -4.759  1.00 20.00     0.114 C 
HETATM   10  C3  UNL     1     -35.222  13.947  -6.142  1.00 20.00     0.039 C 
BRANCH   9  11
HETATM   11  O11 UNL     1     -35.387  12.554  -4.210  1.00 20.00    -0.396 OA
HETATM   12  H29 UNL     1     -34.744  11.857  -4.008  1.00 20.00     0.210 HD
ENDBRANCH   9  11
ENDBRANCH   8   9
ENDBRANCH   5   8
ENDBRANCH   4   5
ENDBRANCH   3   4
TORSDOF 5
ENDMDL
MODEL 2
REMARK VINA RESULT:      -4.6      1.273      1.783
REMARK  5 active torsions:
REMARK  status: ('A' for Active; 'I' for Inactive)
REMARK    1  A    between atoms: C6_6  and  C7_7 
REMARK    2  A    between atoms: C7_7  and  C10_10 
REMARK    3  A    between atoms: C8_8  and  C9_9 
REMARK    4  A    between atoms: C8_8  and  C10_10 
REMARK    5  A    between atoms: C9_9  and  O11_11 
ROOT
HETATM    1  C1  UNL     1     -35.114  17.429   0.750  1.00 20.00     0.012 C 
HETATM    2  C2  UNL     1     -34.703  17.049  -0.311  1.00 20.00    -0.117 C 
HETATM    3  C6  UNL     1     -34.196  16.584  -1.613  1.00 20.00     0.093 C 
ENDROOT
BRANCH   3   4
HETATM    4  C7  UNL     1     -35.353  16.205  -2.546  1.00 20.00     0.021 C 
BRANCH   4   5
HETATM    5  C10 UNL     1     -35.067  16.331  -4.070  1.00 20.00    -0.045 C 
HETATM    6  C4  UNL     1     -33.714  17.041  -4.306  1.00 20.00     0.015 C 
HETATM    7  C5  UNL     1     -36.165  17.162  -4.758  1.00 20.00     0.015 C 
BRANCH   5   8
HETATM    8  C8  UNL     1     -34.947  14.908  -4.709  1.00 20.00     0.040 C 
BRANCH   8   9
HETATM    9  C9  UNL     1     -34.672  13.726  -3.765  1.00 20.00     0.114 C 
HETATM   10  C3  UNL     1     -33.179  13.418  -3.710  1.00 20.00     0.039 C 
BRANCH   9  11
HETATM   11  O11 UNL     1     -35.345  12.564  -4.234  1.00 20.00    -0.396 OA
HETATM   12  H29 UNL     1     -36.188  12.518  -3.758  1.00 20.00     0.210 HD
ENDBRANCH   9  11
ENDBRANCH   8   9
ENDBRANCH   5   8
ENDBRANCH   4   5
ENDBRANCH   3   4
TORSDOF 5
ENDMDL
MODEL 3
REMARK VINA RESULT:      -4.5      1.668      2.233
REMARK  5 active torsions:
REMARK  status: ('A' for Active; 'I' for Inactive)
REMARK    1  A    between atoms: C6_6  and  C7_7 
REMARK    2  A    between atoms: C7_7  and  C10_10 
REMARK    3  A    between atoms: C8_8  and  C9_9 
REMARK    4  A    between atoms: C8_8  and  C10_10 
REMARK    5  A    between atoms: C9_9  and  O11_11 
ROOT
HETATM    1  C1  UNL     1     -35.130  17.377   0.645  1.00 20.00     0.012 C 
HETATM    2  C2  UNL     1     -34.621  17.040  -0.388  1.00 20.00    -0.117 C 
HETATM    3  C6  UNL     1     -33.995  16.629  -1.656  1.00 20.00     0.093 C 
ENDROOT
BRANCH   3   4
HETATM    4  C7  UNL     1     -34.930  15.711  -2.453  1.00 20.00     0.021 C 
BRANCH   4   5
HETATM    5  C10 UNL     1     -34.323  15.072  -3.736  1.00 20.00    -0.045 C 
HETATM    6  C4  UNL     1     -34.682  13.570  -3.810  1.00 20.00     0.015 C 
HETATM    7  C5  UNL     1     -32.788  15.193  -3.725  1.00 20.00     0.015 C 
BRANCH   5   8
HETATM    8  C8  UNL     1     -34.936  15.745  -5.008  1.00 20.00     0.040 C 
BRANCH   8   9
HETATM    9  C9  UNL     1     -33.985  16.061  -6.174  1.00 20.00     0.114 C 
HETATM   10  C3  UNL     1     -34.478  17.274  -6.957  1.00 20.00     0.039 C 
BRANCH   9  11
HETATM   11  O11 UNL     1     -33.926  14.955  -7.065  1.00 20.00    -0.396 OA
HETATM   12  H29 UNL     1     -33.164  14.420  -6.796  1.00 20.00     0.210 HD
ENDBRANCH   9  11
ENDBRANCH   8   9
ENDBRANCH   5   8
ENDBRANCH   4   5
ENDBRANCH   3   4
TORSDOF 5
ENDMDL
MODEL 4
REMARK VINA RESULT:      -4.5      1.254      1.511
REMARK  5 active torsions:
REMARK  status: ('A' for Active; 'I' for Inactive)
REMARK    1  A    between atoms: C6_6  and  C7_7 
REMARK    2  A    between atoms: C7_7  and  C10_10 
REMARK    3  A    between atoms: C8_8  and  C9_9 
REMARK    4  A    between atoms: C8_8  and  C10_10 
REMARK    5  A    between atoms: C9_9  and  O11_11 
ROOT
HETATM    1  C1  UNL     1     -32.595  18.656  -0.083  1.00 20.00     0.012 C 
HETATM    2  C2  UNL     1     -33.621  18.123  -0.403  1.00 20.00    -0.117 C 
HETATM    3  C6  UNL     1     -34.881  17.469  -0.792  1.00 20.00     0.093 C 
ENDROOT
BRANCH   3   4
HETATM    4  C7  UNL     1     -34.609  16.131  -1.491  1.00 20.00     0.021 C 
BRANCH   4   5
HETATM    5  C10 UNL     1     -34.739  16.134  -3.042  1.00 20.00    -0.045 C 
HETATM    6  C4  UNL     1     -33.341  16.054  -3.698  1.00 20.00     0.015 C 
HETATM    7  C5  UNL     1     -35.415  17.430  -3.523  1.00 20.00     0.015 C 
BRANCH   5   8
HETATM    8  C8  UNL     1     -35.533  14.871  -3.513  1.00 20.00     0.040 C 
BRANCH   8   9
HETATM    9  C9  UNL     1     -34.819  13.897  -4.464  1.00 20.00     0.114 C 
HETATM   10  C3  UNL     1     -35.258  14.134  -5.906  1.00 20.00     0.039 C 
BRANCH   9  11
HETATM   11  O11 UNL     1     -35.145  12.556  -4.120  1.00 20.00    -0.396 OA
HETATM   12  H29 UNL     1     -34.671  12.356  -3.298  1.00 20.00     0.210 HD
ENDBRANCH   9  11
ENDBRANCH   8   9
ENDBRANCH   5   8
ENDBRANCH   4   5
ENDBRANCH   3   4
TORSDOF 5
ENDMDL
MODEL 5
REMARK VINA RESULT:      -4.5      1.464      2.803
REMARK  5 active torsions:
REMARK  status: ('A' for Active; 'I' for Inactive)
REMARK    1  A    between atoms: C6_6  and  C7_7 
REMARK    2  A    between atoms: C7_7  and  C10_10 
REMARK    3  A    between atoms: C8_8  and  C9_9 
REMARK    4  A    between atoms: C8_8  and  C10_10 
REMARK    5  A    between atoms: C9_9  and  O11_11 
ROOT
HETATM    1  C1  UNL     1     -33.909  16.711  -1.752  1.00 20.00     0.012 C 
HETATM    2  C2  UNL     1     -33.966  17.153  -2.866  1.00 20.00    -0.117 C 
HETATM    3  C6  UNL     1     -34.039  17.696  -4.232  1.00 20.00     0.093 C 
ENDROOT
BRANCH   3   4
HETATM    4  C7  UNL     1     -33.597  16.648  -5.261  1.00 20.00     0.021 C 
BRANCH   4   5
HETATM    5  C10 UNL     1     -34.740  15.833  -5.934  1.00 20.00    -0.045 C 
HETATM    6  C4  UNL     1     -34.720  16.044  -7.466  1.00 20.00     0.015 C 
HETATM    7  C5  UNL     1     -36.111  16.292  -5.409  1.00 20.00     0.015 C 
BRANCH   5   8
HETATM    8  C8  UNL     1     -34.520  14.304  -5.686  1.00 20.00     0.040 C 
BRANCH   8   9
HETATM    9  C9  UNL     1     -34.650  13.792  -4.242  1.00 20.00     0.114 C 
HETATM   10  C3  UNL     1     -33.273  13.546  -3.632  1.00 20.00     0.039 C 
BRANCH   9  11
HETATM   11  O11 UNL     1     -35.365  12.562  -4.225  1.00 20.00    -0.396 OA
HETATM   12  H29 UNL     1     -36.243  12.745  -4.594  1.00 20.00     0.210 HD
ENDBRANCH   9  11
ENDBRANCH   8   9
ENDBRANCH   5   8
ENDBRANCH   4   5
ENDBRANCH   3   4
TORSDOF 5
ENDMDL
MODEL 6
REMARK VINA RESULT:      -4.5      1.325      3.589
REMARK  5 active torsions:
REMARK  status: ('A' for Active; 'I' for Inactive)
REMARK    1  A    between atoms: C6_6  and  C7_7 
REMARK    2  A    between atoms: C7_7  and  C10_10 
REMARK    3  A    between atoms: C8_8  and  C9_9 
REMARK    4  A    between atoms: C8_8  and  C10_10 
REMARK    5  A    between atoms: C9_9  and  O11_11 
ROOT
HETATM    1  C1  UNL     1     -34.583  17.507  -7.424  1.00 20.00     0.012 C 
HETATM    2  C2  UNL     1     -34.167  17.617  -6.304  1.00 20.00    -0.117 C 
HETATM    3  C6  UNL     1     -33.655  17.750  -4.930  1.00 20.00     0.093 C 
ENDROOT
BRANCH   3   4
HETATM    4  C7  UNL     1     -34.713  17.314  -3.908  1.00 20.00     0.021 C 
BRANCH   4   5
HETATM    5  C10 UNL     1     -34.408  15.999  -3.134  1.00 20.00    -0.045 C 
HETATM    6  C4  UNL     1     -34.649  16.198  -1.620  1.00 20.00     0.015 C 
HETATM    7  C5  UNL     1     -32.939  15.585  -3.331  1.00 20.00     0.015 C 
BRANCH   5   8
HETATM    8  C8  UNL     1     -35.383  14.868  -3.602  1.00 20.00     0.040 C 
BRANCH   8   9
HETATM    9  C9  UNL     1     -34.801  13.741  -4.470  1.00 20.00     0.114 C 
HETATM   10  C3  UNL     1     -35.069  14.007  -5.948  1.00 20.00     0.039 C 
BRANCH   9  11
HETATM   11  O11 UNL     1     -35.409  12.501  -4.128  1.00 20.00    -0.396 OA
HETATM   12  H29 UNL     1     -36.341  12.690  -3.939  1.00 20.00     0.210 HD
ENDBRANCH   9  11
ENDBRANCH   8   9
ENDBRANCH   5   8
ENDBRANCH   4   5
ENDBRANCH   3   4
TORSDOF 5
ENDMDL
MODEL 7
REMARK VINA RESULT:      -4.4      2.018      2.465
REMARK  5 active torsions:
REMARK  status: ('A' for Active; 'I' for Inactive)
REMARK    1  A    between atoms: C6_6  and  C7_7 
REMARK    2  A    between atoms: C7_7  and  C10_10 
REMARK    3  A    between atoms: C8_8  and  C9_9 
REMARK    4  A    between atoms: C8_8  and  C10_10 
REMARK    5  A    between atoms: C9_9  and  O11_11 
ROOT
HETATM    1  C1  UNL     1     -34.769  17.025  -0.137  1.00 20.00     0.012 C 
HETATM    2  C2  UNL     1     -34.344  16.824  -1.241  1.00 20.00    -0.117 C 
HETATM    3  C6  UNL     1     -33.824  16.580  -2.596  1.00 20.00     0.093 C 
ENDROOT
BRANCH   3   4
HETATM    4  C7  UNL     1     -33.998  15.108  -2.991  1.00 20.00     0.021 C 
BRANCH   4   5
HETATM    5  C10 UNL     1     -34.906  14.838  -4.226  1.00 20.00    -0.045 C 
HETATM    6  C4  UNL     1     -35.227  13.330  -4.337  1.00 20.00     0.015 C 
HETATM    7  C5  UNL     1     -34.197  15.270  -5.521  1.00 20.00     0.015 C 
BRANCH   5   8
HETATM    8  C8  UNL     1     -36.273  15.579  -4.053  1.00 20.00     0.040 C 
BRANCH   8   9
HETATM    9  C9  UNL     1     -37.552  14.726  -4.080  1.00 20.00     0.114 C 
HETATM   10  C3  UNL     1     -38.479  15.181  -5.204  1.00 20.00     0.039 C 
BRANCH   9  11
HETATM   11  O11 UNL     1     -38.253  14.862  -2.850  1.00 20.00    -0.396 OA
HETATM   12  H29 UNL     1     -39.198  14.869  -3.066  1.00 20.00     0.210 HD
ENDBRANCH   9  11
ENDBRANCH   8   9
ENDBRANCH   5   8
ENDBRANCH   4   5
ENDBRANCH   3   4
TORSDOF 5
ENDMDL
MODEL 8
REMARK VINA RESULT:      -4.4      1.505      3.963
REMARK  5 active torsions:
REMARK  status: ('A' for Active; 'I' for Inactive)
REMARK    1  A    between atoms: C6_6  and  C7_7 
REMARK    2  A    between atoms: C7_7  and  C10_10 
REMARK    3  A    between atoms: C8_8  and  C9_9 
REMARK    4  A    between atoms: C8_8  and  C10_10 
REMARK    5  A    between atoms: C9_9  and  O11_11 
ROOT
HETATM    1  C1  UNL     1     -34.677  15.111  -7.516  1.00 20.00     0.012 C 
HETATM    2  C2  UNL     1     -34.138  15.813  -6.705  1.00 20.00    -0.117 C 
HETATM    3  C6  UNL     1     -33.475  16.673  -5.711  1.00 20.00     0.093 C 
ENDROOT
BRANCH   3   4
HETATM    4  C7  UNL     1     -34.360  16.856  -4.471  1.00 20.00     0.021 C 
BRANCH   4   5
HETATM    5  C10 UNL     1     -34.045  15.922  -3.268  1.00 20.00    -0.045 C 
HETATM    6  C4  UNL     1     -33.755  16.758  -2.000  1.00 20.00     0.015 C 
HETATM    7  C5  UNL     1     -32.803  15.062  -3.563  1.00 20.00     0.015 C 
BRANCH   5   8
HETATM    8  C8  UNL     1     -35.289  15.030  -2.946  1.00 20.00     0.040 C 
BRANCH   8   9
HETATM    9  C9  UNL     1     -36.009  14.361  -4.128  1.00 20.00     0.114 C 
HETATM   10  C3  UNL     1     -37.517  14.575  -4.031  1.00 20.00     0.039 C 
BRANCH   9  11
HETATM   11  O11 UNL     1     -35.762  12.960  -4.117  1.00 20.00    -0.396 OA
HETATM   12  H29 UNL     1     -34.891  12.828  -4.522  1.00 20.00     0.210 HD
ENDBRANCH   9  11
ENDBRANCH   8   9
ENDBRANCH   5   8
ENDBRANCH   4   5
ENDBRANCH   3   4
TORSDOF 5
ENDMDL
MODEL 9
REMARK VINA RESULT:      -4.3      1.907      2.900
REMARK  5 active torsions:
REMARK  status: ('A' for Active; 'I' for Inactive)
REMARK    1  A    between atoms: C6_6  and  C7_7 
REMARK    2  A    between atoms: C7_7  and  C10_10 
REMARK    3  A    between atoms: C8_8  and  C9_9 
REMARK    4  A    between atoms: C8_8  and  C10_10 
REMARK    5  A    between atoms: C9_9  and  O11_11 
ROOT
HETATM    1  C1  UNL     1     -34.991  17.347   0.509  1.00 20.00     0.012 C 
HETATM    2  C2  UNL     1     -34.682  16.828  -0.528  1.00 20.00    -0.117 C 
HETATM    3  C6  UNL     1     -34.301  16.193  -1.800  1.00 20.00     0.093 C 
ENDROOT
BRANCH   3   4
HETATM    4  C7  UNL     1     -35.488  16.160  -2.771  1.00 20.00     0.021 C 
BRANCH   4   5
HETATM    5  C10 UNL     1     -35.435  15.061  -3.872  1.00 20.00    -0.045 C 
HETATM    6  C4  UNL     1     -36.841  14.458  -4.098  1.00 20.00     0.015 C 
HETATM    7  C5  UNL     1     -34.491  13.920  -3.451  1.00 20.00     0.015 C 
BRANCH   5   8
HETATM    8  C8  UNL     1     -34.991  15.692  -5.233  1.00 20.00     0.040 C 
BRANCH   8   9
HETATM    9  C9  UNL     1     -33.941  16.815  -5.187  1.00 20.00     0.114 C 
HETATM   10  C3  UNL     1     -34.065  17.718  -6.411  1.00 20.00     0.039 C 
BRANCH   9  11
HETATM   11  O11 UNL     1     -32.633  16.256  -5.182  1.00 20.00    -0.396 OA
HETATM   12  H29 UNL     1     -32.323  16.280  -4.264  1.00 20.00     0.210 HD
ENDBRANCH   9  11
ENDBRANCH   8   9
ENDBRANCH   5   8
ENDBRANCH   4   5
ENDBRANCH   3   4
TORSDOF 5
ENDMDL
