MODEL 1
REMARK VINA RESULT:      -5.4      0.000      0.000
REMARK  2 active torsions:
REMARK  status: ('A' for Active; 'I' for Inactive)
REMARK    1  A    between atoms: C8_8  and  C11_11 
REMARK    2  A    between atoms: C8_8  and  O12_12 
ROOT
HETATM    1  C1  UNL     1     -34.729  14.766  -7.495  1.00 20.00     0.012 C 
HETATM    2  C2  UNL     1     -34.786  14.467  -6.334  1.00 20.00    -0.115 C 
HETATM    3  C11 UNL     1     -34.868  14.094  -4.921  1.00 20.00     0.131 C 
ENDROOT
BRANCH   3   4
HETATM    4  C8  UNL     1     -33.869  14.901  -4.084  1.00 20.00     0.069 C 
HETATM    5  C4  UNL     1     -33.321  16.105  -4.877  1.00 20.00     0.043 C 
HETATM    6  C6  UNL     1     -34.109  17.386  -4.591  1.00 20.00    -0.015 C 
HETATM    7  C3  UNL     1     -34.007  17.772  -3.104  1.00 20.00     0.008 C 
HETATM    8  C9  UNL     1     -33.643  18.535  -5.482  1.00 20.00     0.010 C 
HETATM    9  C7  UNL     1     -33.838  16.564  -2.163  1.00 20.00    -0.015 C 
HETATM   10  C5  UNL     1     -34.515  15.318  -2.746  1.00 20.00     0.043 C 
HETATM   11  C10 UNL     1     -34.374  16.885  -0.769  1.00 20.00     0.010 C 
BRANCH   4  12
HETATM   12  O12 UNL     1     -32.752  14.046  -3.811  1.00 20.00    -0.389 OA
HETATM   13  H30 UNL     1     -32.783  13.851  -2.862  1.00 20.00     0.210 HD
ENDBRANCH   4  12
ENDBRANCH   3   4
TORSDOF 2
ENDMDL
MODEL 2
REMARK VINA RESULT:      -5.1      1.017      3.884
REMARK  2 active torsions:
REMARK  status: ('A' for Active; 'I' for Inactive)
REMARK    1  A    between atoms: C8_8  and  C11_11 
REMARK    2  A    between atoms: C8_8  and  O12_12 
ROOT
HETATM    1  C1  UNL     1     -34.476  16.659  -1.035  1.00 20.00     0.012 C 
HETATM    2  C2  UNL     1     -34.631  15.934  -1.979  1.00 20.00    -0.115 C 
HETATM    3  C11 UNL     1     -34.829  15.041  -3.122  1.00 20.00     0.131 C 
ENDROOT
BRANCH   3   4
HETATM    4  C8  UNL     1     -33.935  15.451  -4.297  1.00 20.00     0.069 C 
HETATM    5  C4  UNL     1     -34.271  14.638  -5.564  1.00 20.00     0.043 C 
HETATM    6  C6  UNL     1     -35.259  15.375  -6.472  1.00 20.00    -0.015 C 
HETATM    7  C3  UNL     1     -34.663  16.707  -6.965  1.00 20.00     0.008 C 
HETATM    8  C9  UNL     1     -35.685  14.503  -7.651  1.00 20.00     0.010 C 
HETATM    9  C7  UNL     1     -33.672  17.344  -5.972  1.00 20.00    -0.015 C 
HETATM   10  C5  UNL     1     -34.030  16.974  -4.528  1.00 20.00     0.043 C 
HETATM   11  C10 UNL     1     -33.617  18.859  -6.160  1.00 20.00     0.010 C 
BRANCH   4  12
HETATM   12  O12 UNL     1     -32.587  15.122  -3.942  1.00 20.00    -0.389 OA
HETATM   13  H30 UNL     1     -32.368  15.662  -3.168  1.00 20.00     0.210 HD
ENDBRANCH   4  12
ENDBRANCH   3   4
TORSDOF 2
ENDMDL
MODEL 3
REMARK VINA RESULT:      -5.1      1.317      4.492
REMARK  2 active torsions:
REMARK  status: ('A' for Active; 'I' for Inactive)
REMARK    1  A    between atoms: C8_8  and  C11_11 
REMARK    2  A    between atoms: C8_8  and  O12_12 
ROOT
HETATM    1  C1  UNL     1     -34.506  16.662  -0.836  1.00 20.00     0.012 C 
HETATM    2  C2  UNL     1     -34.099  16.719  -1.964  1.00 20.00    -0.115 C 
HETATM    3  C11 UNL     1     -33.600  16.805  -3.337  1.00 20.00     0.131 C 
ENDROOT
BRANCH   3   4
HETATM    4  C8  UNL     1     -33.901  15.516  -4.109  1.00 20.00     0.069 C 
HETATM    5  C4  UNL     1     -35.193  14.847  -3.596  1.00 20.00     0.043 C 
HETATM    6  C6  UNL     1     -36.415  15.252  -4.425  1.00 20.00    -0.015 C 
HETATM    7  C3  UNL     1     -36.256  14.806  -5.891  1.00 20.00     0.008 C 
HETATM    8  C9  UNL     1     -37.702  14.691  -3.825  1.00 20.00     0.010 C 
HETATM    9  C7  UNL     1     -34.791  14.765  -6.368  1.00 20.00    -0.015 C 
HETATM   10  C5  UNL     1     -33.945  15.804  -5.625  1.00 20.00     0.043 C 
HETATM   11  C10 UNL     1     -34.710  14.960  -7.880  1.00 20.00     0.010 C 
BRANCH   4  12
HETATM   12  O12 UNL     1     -32.831  14.600  -3.845  1.00 20.00    -0.389 OA
HETATM   13  H30 UNL     1     -32.011  15.113  -3.904  1.00 20.00     0.210 HD
ENDBRANCH   4  12
ENDBRANCH   3   4
TORSDOF 2
ENDMDL
MODEL 4
REMARK VINA RESULT:      -5.1      1.978      2.853
REMARK  2 active torsions:
REMARK  status: ('A' for Active; 'I' for Inactive)
REMARK    1  A    between atoms: C8_8  and  C11_11 
REMARK    2  A    between atoms: C8_8  and  O12_12 
ROOT
HETATM    1  C1  UNL     1     -34.466  16.217  -6.990  1.00 20.00     0.012 C 
HETATM    2  C2  UNL     1     -34.466  15.150  -6.441  1.00 20.00    -0.115 C 
HETATM    3  C11 UNL     1     -34.459  13.842  -5.784  1.00 20.00     0.131 C 
ENDROOT
BRANCH   3   4
HETATM    4  C8  UNL     1     -35.245  13.887  -4.469  1.00 20.00     0.069 C 
HETATM    5  C4  UNL     1     -34.407  14.521  -3.340  1.00 20.00     0.043 C 
HETATM    6  C6  UNL     1     -34.688  16.019  -3.190  1.00 20.00    -0.015 C 
HETATM    7  C3  UNL     1     -36.162  16.266  -2.819  1.00 20.00     0.008 C 
HETATM    8  C9  UNL     1     -33.756  16.659  -2.164  1.00 20.00     0.010 C 
HETATM    9  C7  UNL     1     -37.125  15.198  -3.371  1.00 20.00    -0.015 C 
HETATM   10  C5  UNL     1     -36.593  14.608  -4.682  1.00 20.00     0.043 C 
HETATM   11  C10 UNL     1     -38.528  15.776  -3.552  1.00 20.00     0.010 C 
BRANCH   4  12
HETATM   12  O12 UNL     1     -35.502  12.533  -4.078  1.00 20.00    -0.389 OA
HETATM   13  H30 UNL     1     -35.831  12.078  -4.868  1.00 20.00     0.210 HD
ENDBRANCH   4  12
ENDBRANCH   3   4
TORSDOF 2
ENDMDL
MODEL 5
REMARK VINA RESULT:      -5.0      1.661      4.283
REMARK  2 active torsions:
REMARK  status: ('A' for Active; 'I' for Inactive)
REMARK    1  A    between atoms: C8_8  and  C11_11 
REMARK    2  A    between atoms: C8_8  and  O12_12 
ROOT
HETATM    1  C1  UNL     1     -35.164  17.391   0.723  1.00 20.00     0.012 C 
HETATM    2  C2  UNL     1     -34.562  17.194  -0.296  1.00 20.00    -0.115 C 
HETATM    3  C11 UNL     1     -33.815  16.961  -1.533  1.00 20.00     0.131 C 
ENDROOT
BRANCH   3   4
HETATM    4  C8  UNL     1     -34.741  16.453  -2.643  1.00 20.00     0.069 C 
HETATM    5  C4  UNL     1     -34.764  17.426  -3.839  1.00 20.00     0.043 C 
HETATM    6  C6  UNL     1     -33.764  17.021  -4.926  1.00 20.00    -0.015 C 
HETATM    7  C3  UNL     1     -34.107  15.632  -5.498  1.00 20.00     0.008 C 
HETATM    8  C9  UNL     1     -33.701  18.064  -6.039  1.00 20.00     0.010 C 
HETATM    9  C7  UNL     1     -34.793  14.699  -4.482  1.00 20.00    -0.015 C 
HETATM   10  C5  UNL     1     -34.340  15.020  -3.053  1.00 20.00     0.043 C 
HETATM   11  C10 UNL     1     -34.533  13.235  -4.831  1.00 20.00     0.010 C 
BRANCH   4  12
HETATM   12  O12 UNL     1     -36.071  16.425  -2.110  1.00 20.00    -0.389 OA
HETATM   13  H30 UNL     1     -36.285  15.493  -1.958  1.00 20.00     0.210 HD
ENDBRANCH   4  12
ENDBRANCH   3   4
TORSDOF 2
ENDMDL
MODEL 6
REMARK VINA RESULT:      -4.9      1.241      1.335
REMARK  2 active torsions:
REMARK  status: ('A' for Active; 'I' for Inactive)
REMARK    1  A    between atoms: C8_8  and  C11_11 
REMARK    2  A    between atoms: C8_8  and  O12_12 
ROOT
HETATM    1  C1  UNL     1     -34.884  14.824  -7.669  1.00 20.00     0.012 C 
HETATM    2  C2  UNL     1     -34.642  14.604  -6.514  1.00 20.00    -0.115 C 
HETATM    3  C11 UNL     1     -34.353  14.320  -5.108  1.00 20.00     0.131 C 
ENDROOT
BRANCH   3   4
HETATM    4  C8  UNL     1     -33.920  15.592  -4.372  1.00 20.00     0.069 C 
HETATM    5  C4  UNL     1     -34.556  16.847  -5.006  1.00 20.00     0.043 C 
HETATM    6  C6  UNL     1     -35.848  17.256  -4.294  1.00 20.00    -0.015 C 
HETATM    7  C3  UNL     1     -35.575  17.614  -2.822  1.00 20.00     0.008 C 
HETATM    8  C9  UNL     1     -36.535  18.414  -5.015  1.00 20.00     0.010 C 
HETATM    9  C7  UNL     1     -34.390  16.842  -2.209  1.00 20.00    -0.015 C 
HETATM   10  C5  UNL     1     -34.236  15.466  -2.866  1.00 20.00     0.043 C 
HETATM   11  C10 UNL     1     -34.549  16.720  -0.695  1.00 20.00     0.010 C 
BRANCH   4  12
HETATM   12  O12 UNL     1     -32.503  15.721  -4.537  1.00 20.00    -0.389 OA
HETATM   13  H30 UNL     1     -32.350  15.859  -5.484  1.00 20.00     0.210 HD
ENDBRANCH   4  12
ENDBRANCH   3   4
TORSDOF 2
ENDMDL
MODEL 7
REMARK VINA RESULT:      -4.9      1.886      4.237
REMARK  2 active torsions:
REMARK  status: ('A' for Active; 'I' for Inactive)
REMARK    1  A    between atoms: C8_8  and  C11_11 
REMARK    2  A    between atoms: C8_8  and  O12_12 
ROOT
HETATM    1  C1  UNL     1     -33.782  16.584  -2.616  1.00 20.00     0.012 C 
HETATM    2  C2  UNL     1     -33.850  15.435  -2.958  1.00 20.00    -0.115 C 
HETATM    3  C11 UNL     1     -33.921  14.031  -3.364  1.00 20.00     0.131 C 
ENDROOT
BRANCH   3   4
HETATM    4  C8  UNL     1     -34.889  13.850  -4.538  1.00 20.00     0.069 C 
HETATM    5  C4  UNL     1     -36.344  14.134  -4.112  1.00 20.00     0.043 C 
HETATM    6  C6  UNL     1     -36.756  15.579  -4.407  1.00 20.00    -0.015 C 
HETATM    7  C3  UNL     1     -36.689  15.870  -5.918  1.00 20.00     0.008 C 
HETATM    8  C9  UNL     1     -38.149  15.881  -3.858  1.00 20.00     0.010 C 
HETATM    9  C7  UNL     1     -35.618  15.048  -6.658  1.00 20.00    -0.015 C 
HETATM   10  C5  UNL     1     -34.441  14.722  -5.731  1.00 20.00     0.043 C 
HETATM   11  C10 UNL     1     -35.148  15.778  -7.915  1.00 20.00     0.010 C 
BRANCH   4  12
HETATM   12  O12 UNL     1     -34.835  12.473  -4.928  1.00 20.00    -0.389 OA
HETATM   13  H30 UNL     1     -35.469  12.369  -5.654  1.00 20.00     0.210 HD
ENDBRANCH   4  12
ENDBRANCH   3   4
TORSDOF 2
ENDMDL
MODEL 8
REMARK VINA RESULT:      -4.8      1.561      4.140
REMARK  2 active torsions:
REMARK  status: ('A' for Active; 'I' for Inactive)
REMARK    1  A    between atoms: C8_8  and  C11_11 
REMARK    2  A    between atoms: C8_8  and  O12_12 
ROOT
HETATM    1  C1  UNL     1     -34.733  16.964  -0.557  1.00 20.00     0.012 C 
HETATM    2  C2  UNL     1     -34.536  16.276  -1.520  1.00 20.00    -0.115 C 
HETATM    3  C11 UNL     1     -34.283  15.429  -2.687  1.00 20.00     0.131 C 
ENDROOT
BRANCH   3   4
HETATM    4  C8  UNL     1     -35.191  15.826  -3.856  1.00 20.00     0.069 C 
HETATM    5  C4  UNL     1     -34.931  17.282  -4.295  1.00 20.00     0.043 C 
HETATM    6  C6  UNL     1     -33.936  17.361  -5.456  1.00 20.00    -0.015 C 
HETATM    7  C3  UNL     1     -34.482  16.631  -6.697  1.00 20.00     0.008 C 
HETATM    8  C9  UNL     1     -33.586  18.810  -5.789  1.00 20.00     0.010 C 
HETATM    9  C7  UNL     1     -35.413  15.451  -6.360  1.00 20.00    -0.015 C 
HETATM   10  C5  UNL     1     -35.031  14.820  -5.016  1.00 20.00     0.043 C 
HETATM   11  C10 UNL     1     -35.401  14.415  -7.482  1.00 20.00     0.010 C 
BRANCH   4  12
HETATM   12  O12 UNL     1     -36.543  15.774  -3.384  1.00 20.00    -0.389 OA
HETATM   13  H30 UNL     1     -37.020  16.480  -3.844  1.00 20.00     0.210 HD
ENDBRANCH   4  12
ENDBRANCH   3   4
TORSDOF 2
ENDMDL
MODEL 9
REMARK VINA RESULT:      -4.7      1.956      3.374
REMARK  2 active torsions:
REMARK  status: ('A' for Active; 'I' for Inactive)
REMARK    1  A    between atoms: C8_8  and  C11_11 
REMARK    2  A    between atoms: C8_8  and  O12_12 
ROOT
HETATM    1  C1  UNL     1     -33.245  13.312  -3.774  1.00 20.00     0.012 C 
HETATM    2  C2  UNL     1     -34.371  13.662  -3.997  1.00 20.00    -0.115 C 
HETATM    3  C11 UNL     1     -35.749  14.073  -4.273  1.00 20.00     0.131 C 
ENDROOT
BRANCH   3   4
HETATM    4  C8  UNL     1     -35.900  15.593  -4.146  1.00 20.00     0.069 C 
HETATM    5  C4  UNL     1     -35.937  16.029  -2.667  1.00 20.00     0.043 C 
HETATM    6  C6  UNL     1     -34.554  16.444  -2.158  1.00 20.00    -0.015 C 
HETATM    7  C3  UNL     1     -34.019  17.653  -2.946  1.00 20.00     0.008 C 
HETATM    8  C9  UNL     1     -34.581  16.743  -0.660  1.00 20.00     0.010 C 
HETATM    9  C7  UNL     1     -34.520  17.712  -4.402  1.00 20.00    -0.015 C 
HETATM   10  C5  UNL     1     -34.787  16.304  -4.946  1.00 20.00     0.043 C 
HETATM   11  C10 UNL     1     -33.531  18.470  -5.285  1.00 20.00     0.010 C 
BRANCH   4  12
HETATM   12  O12 UNL     1     -37.169  15.944  -4.711  1.00 20.00    -0.389 OA
HETATM   13  H30 UNL     1     -37.842  15.602  -4.104  1.00 20.00     0.210 HD
ENDBRANCH   4  12
ENDBRANCH   3   4
TORSDOF 2
ENDMDL
