MODEL 1
REMARK VINA RESULT:      -4.6      0.000      0.000
REMARK  4 active torsions:
REMARK  status: ('A' for Active; 'I' for Inactive)
REMARK    1  A    between atoms: C5_5  and  C7_7 
REMARK    2  A    between atoms: C6_6  and  C8_8 
REMARK    3  A    between atoms: C7_7  and  C8_8 
REMARK    4  A    between atoms: C8_8  and  O9_9 
ROOT
HETATM    1  C8  UNL     1     -34.698   5.666   3.822  1.00 20.00     0.122 C 
ENDROOT
BRANCH   1   2
HETATM    2  C6  UNL     1     -34.231   4.907   5.057  1.00 20.00     0.014 A 
HETATM    3  C3  UNL     1     -34.476   5.470   6.429  1.00 20.00     0.007 A 
HETATM    4  C4  UNL     1     -35.233   4.256   5.969  1.00 20.00     0.007 A 
ENDBRANCH   1   2
BRANCH   1   5
HETATM    5  C7  UNL     1     -33.974   7.008   3.690  1.00 20.00     0.036 C 
BRANCH   5   6
HETATM    6  C5  UNL     1     -32.617   6.867   3.014  1.00 20.00    -0.012 A 
HETATM    7  C1  UNL     1     -32.037   8.012   2.231  1.00 20.00     0.005 A 
HETATM    8  C2  UNL     1     -31.425   7.615   3.545  1.00 20.00     0.005 A 
ENDBRANCH   5   6
ENDBRANCH   1   5
BRANCH   1   9
HETATM    9  O9  UNL     1     -34.428   4.875   2.667  1.00 20.00    -0.395 OA
HETATM   10  H23 UNL     1     -35.271   4.477   2.402  1.00 20.00     0.210 HD
ENDBRANCH   1   9
TORSDOF 4
ENDMDL
MODEL 2
REMARK VINA RESULT:      -4.5      1.752      1.952
REMARK  4 active torsions:
REMARK  status: ('A' for Active; 'I' for Inactive)
REMARK    1  A    between atoms: C5_5  and  C7_7 
REMARK    2  A    between atoms: C6_6  and  C8_8 
REMARK    3  A    between atoms: C7_7  and  C8_8 
REMARK    4  A    between atoms: C8_8  and  O9_9 
ROOT
HETATM    1  C8  UNL     1     -33.768   6.179   5.684  1.00 20.00     0.122 C 
ENDROOT
BRANCH   1   2
HETATM    2  C6  UNL     1     -34.903   5.182   5.872  1.00 20.00     0.014 A 
HETATM    3  C3  UNL     1     -35.392   4.362   4.710  1.00 20.00     0.007 A 
HETATM    4  C4  UNL     1     -34.629   3.704   5.825  1.00 20.00     0.007 A 
ENDBRANCH   1   2
BRANCH   1   5
HETATM    5  C7  UNL     1     -33.838   6.845   4.308  1.00 20.00     0.036 C 
BRANCH   5   6
HETATM    6  C5  UNL     1     -32.562   6.642   3.503  1.00 20.00    -0.012 A 
HETATM    7  C1  UNL     1     -32.204   7.593   2.395  1.00 20.00     0.005 A 
HETATM    8  C2  UNL     1     -31.404   7.587   3.667  1.00 20.00     0.005 A 
ENDBRANCH   5   6
ENDBRANCH   1   5
BRANCH   1   9
HETATM    9  O9  UNL     1     -33.865   7.182   6.692  1.00 20.00    -0.395 OA
HETATM   10  H23 UNL     1     -34.598   6.921   7.271  1.00 20.00     0.210 HD
ENDBRANCH   1   9
TORSDOF 4
ENDMDL
MODEL 3
REMARK VINA RESULT:      -4.3     11.739     12.341
REMARK  4 active torsions:
REMARK  status: ('A' for Active; 'I' for Inactive)
REMARK    1  A    between atoms: C5_5  and  C7_7 
REMARK    2  A    between atoms: C6_6  and  C8_8 
REMARK    3  A    between atoms: C7_7  and  C8_8 
REMARK    4  A    between atoms: C8_8  and  O9_9 
ROOT
HETATM    1  C8  UNL     1     -33.671  15.594  -4.469  1.00 20.00     0.122 C 
ENDROOT
BRANCH   1   2
HETATM    2  C6  UNL     1     -34.158  14.248  -3.947  1.00 20.00     0.014 A 
HETATM    3  C3  UNL     1     -35.618  13.897  -4.005  1.00 20.00     0.007 A 
HETATM    4  C4  UNL     1     -34.640  13.195  -4.905  1.00 20.00     0.007 A 
ENDBRANCH   1   2
BRANCH   1   5
HETATM    5  C7  UNL     1     -34.091  16.733  -3.537  1.00 20.00     0.036 C 
BRANCH   5   6
HETATM    6  C5  UNL     1     -33.707  16.465  -2.088  1.00 20.00    -0.012 A 
HETATM    7  C1  UNL     1     -33.669  17.591  -1.092  1.00 20.00     0.005 A 
HETATM    8  C2  UNL     1     -34.744  16.545  -1.002  1.00 20.00     0.005 A 
ENDBRANCH   5   6
ENDBRANCH   1   5
BRANCH   1   9
HETATM    9  O9  UNL     1     -32.249  15.565  -4.557  1.00 20.00    -0.395 OA
HETATM   10  H23 UNL     1     -31.945  14.911  -3.909  1.00 20.00     0.210 HD
ENDBRANCH   1   9
TORSDOF 4
ENDMDL
MODEL 4
REMARK VINA RESULT:      -4.2     11.342     12.624
REMARK  4 active torsions:
REMARK  status: ('A' for Active; 'I' for Inactive)
REMARK    1  A    between atoms: C5_5  and  C7_7 
REMARK    2  A    between atoms: C6_6  and  C8_8 
REMARK    3  A    between atoms: C7_7  and  C8_8 
REMARK    4  A    between atoms: C8_8  and  O9_9 
ROOT
HETATM    1  C8  UNL     1     -34.316  13.640  -4.663  1.00 20.00     0.122 C 
ENDROOT
BRANCH   1   2
HETATM    2  C6  UNL     1     -35.079  14.570  -5.596  1.00 20.00     0.014 A 
HETATM    3  C3  UNL     1     -34.342  15.391  -6.618  1.00 20.00     0.007 A 
HETATM    4  C4  UNL     1     -35.203  14.241  -7.058  1.00 20.00     0.007 A 
ENDBRANCH   1   2
BRANCH   1   5
HETATM    5  C7  UNL     1     -33.734  14.407  -3.472  1.00 20.00     0.036 C 
BRANCH   5   6
HETATM    6  C5  UNL     1     -34.632  15.556  -3.033  1.00 20.00    -0.012 A 
HETATM    7  C1  UNL     1     -34.475  16.161  -1.665  1.00 20.00     0.005 A 
HETATM    8  C2  UNL     1     -34.069  16.942  -2.884  1.00 20.00     0.005 A 
ENDBRANCH   5   6
ENDBRANCH   1   5
BRANCH   1   9
HETATM    9  O9  UNL     1     -35.208  12.639  -4.181  1.00 20.00    -0.395 OA
HETATM   10  H23 UNL     1     -35.235  11.945  -4.857  1.00 20.00     0.210 HD
ENDBRANCH   1   9
TORSDOF 4
ENDMDL
MODEL 5
REMARK VINA RESULT:      -4.2      1.660      2.415
REMARK  4 active torsions:
REMARK  status: ('A' for Active; 'I' for Inactive)
REMARK    1  A    between atoms: C5_5  and  C7_7 
REMARK    2  A    between atoms: C6_6  and  C8_8 
REMARK    3  A    between atoms: C7_7  and  C8_8 
REMARK    4  A    between atoms: C8_8  and  O9_9 
ROOT
HETATM    1  C8  UNL     1     -32.610   6.472   3.728  1.00 20.00     0.122 C 
ENDROOT
BRANCH   1   2
HETATM    2  C6  UNL     1     -34.013   6.384   4.314  1.00 20.00     0.014 A 
HETATM    3  C3  UNL     1     -34.997   5.382   3.777  1.00 20.00     0.007 A 
HETATM    4  C4  UNL     1     -34.412   5.199   5.149  1.00 20.00     0.007 A 
ENDBRANCH   1   2
BRANCH   1   5
HETATM    5  C7  UNL     1     -32.649   6.926   2.266  1.00 20.00     0.036 C 
BRANCH   5   6
HETATM    6  C5  UNL     1     -31.905   8.237   2.050  1.00 20.00    -0.012 A 
HETATM    7  C1  UNL     1     -31.769   8.813   0.668  1.00 20.00     0.005 A 
HETATM    8  C2  UNL     1     -32.661   9.482   1.675  1.00 20.00     0.005 A 
ENDBRANCH   5   6
ENDBRANCH   1   5
BRANCH   1   9
HETATM    9  O9  UNL     1     -31.853   7.411   4.487  1.00 20.00    -0.395 OA
HETATM   10  H23 UNL     1     -31.019   6.972   4.716  1.00 20.00     0.210 HD
ENDBRANCH   1   9
TORSDOF 4
ENDMDL
MODEL 6
REMARK VINA RESULT:      -4.1      1.249      4.542
REMARK  4 active torsions:
REMARK  status: ('A' for Active; 'I' for Inactive)
REMARK    1  A    between atoms: C5_5  and  C7_7 
REMARK    2  A    between atoms: C6_6  and  C8_8 
REMARK    3  A    between atoms: C7_7  and  C8_8 
REMARK    4  A    between atoms: C8_8  and  O9_9 
ROOT
HETATM    1  C8  UNL     1     -32.475   7.120   3.247  1.00 20.00     0.122 C 
ENDROOT
BRANCH   1   2
HETATM    2  C6  UNL     1     -32.702   7.896   1.956  1.00 20.00     0.014 A 
HETATM    3  C3  UNL     1     -32.630   9.397   1.952  1.00 20.00     0.007 A 
HETATM    4  C4  UNL     1     -31.555   8.592   1.279  1.00 20.00     0.007 A 
ENDBRANCH   1   2
BRANCH   1   5
HETATM    5  C7  UNL     1     -33.781   6.945   4.025  1.00 20.00     0.036 C 
BRANCH   5   6
HETATM    6  C5  UNL     1     -33.933   5.538   4.588  1.00 20.00    -0.012 A 
HETATM    7  C1  UNL     1     -34.590   5.322   5.923  1.00 20.00     0.005 A 
HETATM    8  C2  UNL     1     -35.291   4.896   4.664  1.00 20.00     0.005 A 
ENDBRANCH   5   6
ENDBRANCH   1   5
BRANCH   1   9
HETATM    9  O9  UNL     1     -31.949   5.835   2.924  1.00 20.00    -0.395 OA
HETATM   10  H23 UNL     1     -31.630   5.889   2.011  1.00 20.00     0.210 HD
ENDBRANCH   1   9
TORSDOF 4
ENDMDL
MODEL 7
REMARK VINA RESULT:      -4.0     11.265     12.791
REMARK  4 active torsions:
REMARK  status: ('A' for Active; 'I' for Inactive)
REMARK    1  A    between atoms: C5_5  and  C7_7 
REMARK    2  A    between atoms: C6_6  and  C8_8 
REMARK    3  A    between atoms: C7_7  and  C8_8 
REMARK    4  A    between atoms: C8_8  and  O9_9 
ROOT
HETATM    1  C8  UNL     1     -35.165  13.912  -4.364  1.00 20.00     0.122 C 
ENDROOT
BRANCH   1   2
HETATM    2  C6  UNL     1     -34.200  14.434  -3.308  1.00 20.00     0.014 A 
HETATM    3  C3  UNL     1     -33.414  15.692  -3.554  1.00 20.00     0.007 A 
HETATM    4  C4  UNL     1     -34.522  15.685  -2.539  1.00 20.00     0.007 A 
ENDBRANCH   1   2
BRANCH   1   5
HETATM    5  C7  UNL     1     -34.591  14.087  -5.772  1.00 20.00     0.036 C 
BRANCH   5   6
HETATM    6  C5  UNL     1     -35.478  14.959  -6.652  1.00 20.00    -0.012 A 
HETATM    7  C1  UNL     1     -36.110  16.204  -6.095  1.00 20.00     0.005 A 
HETATM    8  C2  UNL     1     -35.001  16.312  -7.103  1.00 20.00     0.005 A 
ENDBRANCH   5   6
ENDBRANCH   1   5
BRANCH   1   9
HETATM    9  O9  UNL     1     -35.403  12.527  -4.126  1.00 20.00    -0.395 OA
HETATM   10  H23 UNL     1     -36.348  12.440  -3.927  1.00 20.00     0.210 HD
ENDBRANCH   1   9
TORSDOF 4
ENDMDL
MODEL 8
REMARK VINA RESULT:      -3.9     11.317     12.061
REMARK  4 active torsions:
REMARK  status: ('A' for Active; 'I' for Inactive)
REMARK    1  A    between atoms: C5_5  and  C7_7 
REMARK    2  A    between atoms: C6_6  and  C8_8 
REMARK    3  A    between atoms: C7_7  and  C8_8 
REMARK    4  A    between atoms: C8_8  and  O9_9 
ROOT
HETATM    1  C8  UNL     1     -35.624  16.422  -2.803  1.00 20.00     0.122 C 
ENDROOT
BRANCH   1   2
HETATM    2  C6  UNL     1     -34.812  16.263  -1.524  1.00 20.00     0.014 A 
HETATM    3  C3  UNL     1     -33.657  17.183  -1.241  1.00 20.00     0.007 A 
HETATM    4  C4  UNL     1     -34.917  17.287  -0.429  1.00 20.00     0.007 A 
ENDBRANCH   1   2
BRANCH   1   5
HETATM    5  C7  UNL     1     -34.969  15.679  -3.970  1.00 20.00     0.036 C 
BRANCH   5   6
HETATM    6  C5  UNL     1     -34.703  14.215  -3.646  1.00 20.00    -0.012 A 
HETATM    7  C1  UNL     1     -34.426  13.232  -4.749  1.00 20.00     0.005 A 
HETATM    8  C2  UNL     1     -33.324  13.641  -3.812  1.00 20.00     0.005 A 
ENDBRANCH   5   6
ENDBRANCH   1   5
BRANCH   1   9
HETATM    9  O9  UNL     1     -36.929  15.891  -2.587  1.00 20.00    -0.395 OA
HETATM   10  H23 UNL     1     -37.003  15.717  -1.637  1.00 20.00     0.210 HD
ENDBRANCH   1   9
TORSDOF 4
ENDMDL
MODEL 9
REMARK VINA RESULT:      -3.9      0.892      4.270
REMARK  4 active torsions:
REMARK  status: ('A' for Active; 'I' for Inactive)
REMARK    1  A    between atoms: C5_5  and  C7_7 
REMARK    2  A    between atoms: C6_6  and  C8_8 
REMARK    3  A    between atoms: C7_7  and  C8_8 
REMARK    4  A    between atoms: C8_8  and  O9_9 
ROOT
HETATM    1  C8  UNL     1     -33.084   6.060   3.380  1.00 20.00     0.122 C 
ENDROOT
BRANCH   1   2
HETATM    2  C6  UNL     1     -32.860   7.482   2.883  1.00 20.00     0.014 A 
HETATM    3  C3  UNL     1     -31.556   8.181   3.149  1.00 20.00     0.007 A 
HETATM    4  C4  UNL     1     -31.905   7.748   1.753  1.00 20.00     0.007 A 
ENDBRANCH   1   2
BRANCH   1   5
HETATM    5  C7  UNL     1     -33.527   6.049   4.845  1.00 20.00     0.036 C 
BRANCH   5   6
HETATM    6  C5  UNL     1     -34.815   5.263   5.052  1.00 20.00    -0.012 A 
HETATM    7  C1  UNL     1     -34.764   3.804   5.411  1.00 20.00     0.005 A 
HETATM    8  C2  UNL     1     -35.214   4.813   6.430  1.00 20.00     0.005 A 
ENDBRANCH   5   6
ENDBRANCH   1   5
BRANCH   1   9
HETATM    9  O9  UNL     1     -34.095   5.449   2.582  1.00 20.00    -0.395 OA
HETATM   10  H23 UNL     1     -33.764   5.445   1.672  1.00 20.00     0.210 HD
ENDBRANCH   1   9
TORSDOF 4
ENDMDL
