MODEL 1
REMARK VINA RESULT:      -4.9      0.000      0.000
REMARK  2 active torsions:
REMARK  status: ('A' for Active; 'I' for Inactive)
REMARK    1  A    between atoms: C5_5  and  C6_6 
REMARK    2  A    between atoms: C6_6  and  C7_7 
ROOT
HETATM    1  C1  UNL     1     -33.958   5.249   6.208  1.00 20.00     0.027 C 
HETATM    2  C2  UNL     1     -33.755   6.560   5.463  1.00 20.00     0.009 C 
HETATM    3  C3  UNL     1     -35.280   4.590   5.812  1.00 20.00     0.167 C 
HETATM    4  C4  UNL     1     -34.634   5.092   3.585  1.00 20.00     0.172 C 
HETATM    5  C5  UNL     1     -33.830   6.349   3.941  1.00 20.00     0.010 C 
HETATM    6  O8  UNL     1     -35.717   4.935   4.497  1.00 20.00    -0.391 OA
ENDROOT
BRANCH   5   7
HETATM    7  C6  UNL     1     -32.444   6.292   3.304  1.00 20.00     0.021 C 
BRANCH   7   8
HETATM    8  C7  UNL     1     -31.763   7.652   3.217  1.00 20.00     0.115 C 
HETATM    9 CL9  UNL     1     -32.013   8.425   1.634  1.00 20.00    -0.130 Cl
ENDBRANCH   7   8
ENDBRANCH   5   7
TORSDOF 2
ENDMDL
MODEL 2
REMARK VINA RESULT:      -4.0      1.088      1.792
REMARK  2 active torsions:
REMARK  status: ('A' for Active; 'I' for Inactive)
REMARK    1  A    between atoms: C5_5  and  C6_6 
REMARK    2  A    between atoms: C6_6  and  C7_7 
ROOT
HETATM    1  C1  UNL     1     -35.509   5.032   4.191  1.00 20.00     0.027 C 
HETATM    2  C2  UNL     1     -34.214   5.041   3.393  1.00 20.00     0.009 C 
HETATM    3  C3  UNL     1     -35.233   4.865   5.686  1.00 20.00     0.167 C 
HETATM    4  C4  UNL     1     -33.556   6.511   5.358  1.00 20.00     0.172 C 
HETATM    5  C5  UNL     1     -33.258   6.134   3.901  1.00 20.00     0.010 C 
HETATM    6  O8  UNL     1     -33.951   5.353   6.087  1.00 20.00    -0.391 OA
ENDROOT
BRANCH   5   7
HETATM    7  C6  UNL     1     -33.289   7.376   3.014  1.00 20.00     0.021 C 
BRANCH   7   8
HETATM    8  C7  UNL     1     -31.909   7.809   2.533  1.00 20.00     0.115 C 
HETATM    9 CL9  UNL     1     -31.994   8.793   1.054  1.00 20.00    -0.130 Cl
ENDBRANCH   7   8
ENDBRANCH   5   7
TORSDOF 2
ENDMDL
MODEL 3
REMARK VINA RESULT:      -4.0     11.280     12.448
REMARK  2 active torsions:
REMARK  status: ('A' for Active; 'I' for Inactive)
REMARK    1  A    between atoms: C5_5  and  C6_6 
REMARK    2  A    between atoms: C6_6  and  C7_7 
ROOT
HETATM    1  C1  UNL     1     -34.940  15.122  -5.667  1.00 20.00     0.027 C 
HETATM    2  C2  UNL     1     -33.616  15.720  -5.211  1.00 20.00     0.009 C 
HETATM    3  C3  UNL     1     -34.925  13.598  -5.546  1.00 20.00     0.167 C 
HETATM    4  C4  UNL     1     -33.982  13.974  -3.402  1.00 20.00     0.172 C 
HETATM    5  C5  UNL     1     -33.277  15.285  -3.775  1.00 20.00     0.010 C 
HETATM    6  O8  UNL     1     -34.038  13.114  -4.536  1.00 20.00    -0.391 OA
ENDROOT
BRANCH   5   7
HETATM    7  C6  UNL     1     -33.605  16.374  -2.757  1.00 20.00     0.021 C 
BRANCH   7   8
HETATM    8  C7  UNL     1     -34.826  16.055  -1.904  1.00 20.00     0.115 C 
HETATM    9 CL9  UNL     1     -34.746  16.829  -0.305  1.00 20.00    -0.130 Cl
ENDBRANCH   7   8
ENDBRANCH   5   7
TORSDOF 2
ENDMDL
MODEL 4
REMARK VINA RESULT:      -3.9      9.488     10.717
REMARK  2 active torsions:
REMARK  status: ('A' for Active; 'I' for Inactive)
REMARK    1  A    between atoms: C5_5  and  C6_6 
REMARK    2  A    between atoms: C6_6  and  C7_7 
ROOT
HETATM    1  C1  UNL     1     -41.069   5.852  -0.078  1.00 20.00     0.027 C 
HETATM    2  C2  UNL     1     -40.732   4.620  -0.905  1.00 20.00     0.009 C 
HETATM    3  C3  UNL     1     -41.051   7.114  -0.941  1.00 20.00     0.167 C 
HETATM    4  C4  UNL     1     -42.298   5.830  -2.497  1.00 20.00     0.172 C 
HETATM    5  C5  UNL     1     -41.684   4.480  -2.105  1.00 20.00     0.010 C 
HETATM    6  O8  UNL     1     -41.340   6.868  -2.318  1.00 20.00    -0.391 OA
ENDROOT
BRANCH   5   7
HETATM    7  C6  UNL     1     -42.782   3.452  -1.845  1.00 20.00     0.021 C 
BRANCH   7   8
HETATM    8  C7  UNL     1     -42.871   2.378  -2.922  1.00 20.00     0.115 C 
HETATM    9 CL9  UNL     1     -41.290   2.040  -3.662  1.00 20.00    -0.130 Cl
ENDBRANCH   7   8
ENDBRANCH   5   7
TORSDOF 2
ENDMDL
MODEL 5
REMARK VINA RESULT:      -3.8     11.818     12.518
REMARK  2 active torsions:
REMARK  status: ('A' for Active; 'I' for Inactive)
REMARK    1  A    between atoms: C5_5  and  C6_6 
REMARK    2  A    between atoms: C6_6  and  C7_7 
ROOT
HETATM    1  C1  UNL     1     -33.443  15.643  -3.488  1.00 20.00     0.027 C 
HETATM    2  C2  UNL     1     -34.869  15.292  -3.089  1.00 20.00     0.009 C 
HETATM    3  C3  UNL     1     -32.555  14.398  -3.508  1.00 20.00     0.167 C 
HETATM    4  C4  UNL     1     -34.349  13.379  -4.678  1.00 20.00     0.172 C 
HETATM    5  C5  UNL     1     -35.454  14.213  -4.016  1.00 20.00     0.010 C 
HETATM    6  O8  UNL     1     -33.272  13.190  -3.766  1.00 20.00    -0.391 OA
ENDROOT
BRANCH   5   7
HETATM    7  C6  UNL     1     -36.376  14.811  -5.076  1.00 20.00     0.021 C 
BRANCH   7   8
HETATM    8  C7  UNL     1     -35.793  14.758  -6.483  1.00 20.00     0.115 C 
HETATM    9 CL9  UNL     1     -34.827  16.202  -6.862  1.00 20.00    -0.130 Cl
ENDBRANCH   7   8
ENDBRANCH   5   7
TORSDOF 2
ENDMDL
MODEL 6
REMARK VINA RESULT:      -3.8      9.313     10.075
REMARK  2 active torsions:
REMARK  status: ('A' for Active; 'I' for Inactive)
REMARK    1  A    between atoms: C5_5  and  C6_6 
REMARK    2  A    between atoms: C6_6  and  C7_7 
ROOT
HETATM    1  C1  UNL     1     -41.990   4.022  -2.020  1.00 20.00     0.027 C 
HETATM    2  C2  UNL     1     -40.816   4.539  -1.202  1.00 20.00     0.009 C 
HETATM    3  C3  UNL     1     -43.112   3.517  -1.113  1.00 20.00     0.167 C 
HETATM    4  C4  UNL     1     -42.759   5.520   0.107  1.00 20.00     0.172 C 
HETATM    5  C5  UNL     1     -41.265   5.635  -0.220  1.00 20.00     0.010 C 
HETATM    6  O8  UNL     1     -43.138   4.149   0.168  1.00 20.00    -0.391 OA
ENDROOT
BRANCH   5   7
HETATM    7  C6  UNL     1     -40.940   7.034  -0.739  1.00 20.00     0.021 C 
BRANCH   7   8
HETATM    8  C7  UNL     1     -42.138   7.741  -1.359  1.00 20.00     0.115 C 
HETATM    9 CL9  UNL     1     -42.212   7.509  -3.121  1.00 20.00    -0.130 Cl
ENDBRANCH   7   8
ENDBRANCH   5   7
TORSDOF 2
ENDMDL
MODEL 7
REMARK VINA RESULT:      -3.7     11.918     13.131
REMARK  2 active torsions:
REMARK  status: ('A' for Active; 'I' for Inactive)
REMARK    1  A    between atoms: C5_5  and  C6_6 
REMARK    2  A    between atoms: C6_6  and  C7_7 
ROOT
HETATM    1  C1  UNL     1     -34.795  17.100  -3.027  1.00 20.00     0.027 C 
HETATM    2  C2  UNL     1     -33.730  16.144  -2.511  1.00 20.00     0.009 C 
HETATM    3  C3  UNL     1     -34.229  18.019  -4.111  1.00 20.00     0.167 C 
HETATM    4  C4  UNL     1     -33.269  16.043  -5.007  1.00 20.00     0.172 C 
HETATM    5  C5  UNL     1     -33.115  15.326  -3.659  1.00 20.00     0.010 C 
HETATM    6  O8  UNL     1     -33.132  17.449  -4.826  1.00 20.00    -0.391 OA
ENDROOT
BRANCH   5   7
HETATM    7  C6  UNL     1     -33.702  13.919  -3.736  1.00 20.00     0.021 C 
BRANCH   7   8
HETATM    8  C7  UNL     1     -34.776  13.770  -4.806  1.00 20.00     0.115 C 
HETATM    9 CL9  UNL     1     -36.404  14.107  -4.172  1.00 20.00    -0.130 Cl
ENDBRANCH   7   8
ENDBRANCH   5   7
TORSDOF 2
ENDMDL
MODEL 8
REMARK VINA RESULT:      -3.6     11.848     12.462
REMARK  2 active torsions:
REMARK  status: ('A' for Active; 'I' for Inactive)
REMARK    1  A    between atoms: C5_5  and  C6_6 
REMARK    2  A    between atoms: C6_6  and  C7_7 
ROOT
HETATM    1  C1  UNL     1     -33.716  15.580  -4.960  1.00 20.00     0.027 C 
HETATM    2  C2  UNL     1     -33.447  15.414  -3.472  1.00 20.00     0.009 C 
HETATM    3  C3  UNL     1     -34.614  14.459  -5.485  1.00 20.00     0.167 C 
HETATM    4  C4  UNL     1     -35.929  14.878  -3.556  1.00 20.00     0.172 C 
HETATM    5  C5  UNL     1     -34.762  15.343  -2.676  1.00 20.00     0.010 C 
HETATM    6  O8  UNL     1     -35.474  13.903  -4.489  1.00 20.00    -0.391 OA
ENDROOT
BRANCH   5   7
HETATM    7  C6  UNL     1     -35.097  16.675  -2.009  1.00 20.00     0.021 C 
BRANCH   7   8
HETATM    8  C7  UNL     1     -34.637  16.757  -0.559  1.00 20.00     0.115 C 
HETATM    9 CL9  UNL     1     -33.454  18.061  -0.305  1.00 20.00    -0.130 Cl
ENDBRANCH   7   8
ENDBRANCH   5   7
TORSDOF 2
ENDMDL
MODEL 9
REMARK VINA RESULT:      -3.6     11.846     12.868
REMARK  2 active torsions:
REMARK  status: ('A' for Active; 'I' for Inactive)
REMARK    1  A    between atoms: C5_5  and  C6_6 
REMARK    2  A    between atoms: C6_6  and  C7_7 
ROOT
HETATM    1  C1  UNL     1     -35.353  17.888  -1.055  1.00 20.00     0.027 C 
HETATM    2  C2  UNL     1     -34.492  16.637  -0.955  1.00 20.00     0.009 C 
HETATM    3  C3  UNL     1     -34.560  19.055  -1.644  1.00 20.00     0.167 C 
HETATM    4  C4  UNL     1     -33.818  17.480  -3.255  1.00 20.00     0.172 C 
HETATM    5  C5  UNL     1     -33.897  16.263  -2.324  1.00 20.00     0.010 C 
HETATM    6  O8  UNL     1     -33.495  18.645  -2.503  1.00 20.00    -0.391 OA
ENDROOT
BRANCH   5   7
HETATM    7  C6  UNL     1     -34.674  15.132  -2.993  1.00 20.00     0.021 C 
BRANCH   7   8
HETATM    8  C7  UNL     1     -33.776  14.080  -3.632  1.00 20.00     0.115 C 
HETATM    9 CL9  UNL     1     -34.625  13.152  -4.891  1.00 20.00    -0.130 Cl
ENDBRANCH   7   8
ENDBRANCH   5   7
TORSDOF 2
ENDMDL
