MODEL 1
REMARK VINA RESULT:      -4.7      0.000      0.000
REMARK  5 active torsions:
REMARK  status: ('A' for Active; 'I' for Inactive)
REMARK    1  A    between atoms: C3_3  and  C5_5 
REMARK    2  A    between atoms: C5_5  and  C8_8 
REMARK    3  A    between atoms: C6_6  and  C7_7 
REMARK    4  A    between atoms: C7_7  and  C8_8 
REMARK    5  A    between atoms: C8_8  and  O9_9 
ROOT
HETATM    1  C8  UNL     1     -34.845   5.538   3.917  1.00 20.00     0.118 C 
ENDROOT
BRANCH   1   2
HETATM    2  C5  UNL     1     -33.877   5.420   2.735  1.00 20.00     0.036 C 
BRANCH   2   3
HETATM    3  C3  UNL     1     -32.509   6.030   2.996  1.00 20.00    -0.012 A 
HETATM    4  C1  UNL     1     -32.182   7.405   2.484  1.00 20.00     0.005 A 
HETATM    5  C2  UNL     1     -32.362   7.176   3.958  1.00 20.00     0.005 A 
ENDBRANCH   2   3
ENDBRANCH   1   2
BRANCH   1   6
HETATM    6  C7  UNL     1     -34.954   4.247   4.739  1.00 20.00     0.031 C 
BRANCH   6   7
HETATM    7  C6  UNL     1     -34.869   4.510   6.246  1.00 20.00    -0.002 C 
HETATM    8  C4  UNL     1     -34.407   5.930   6.536  1.00 20.00     0.005 C 
ENDBRANCH   6   7
ENDBRANCH   1   6
BRANCH   1   9
HETATM    9  O9  UNL     1     -36.140   5.852   3.400  1.00 20.00    -0.396 OA
HETATM   10  H25 UNL     1     -36.732   5.145   3.697  1.00 20.00     0.210 HD
ENDBRANCH   1   9
TORSDOF 5
ENDMDL
MODEL 2
REMARK VINA RESULT:      -4.6      1.766      4.404
REMARK  5 active torsions:
REMARK  status: ('A' for Active; 'I' for Inactive)
REMARK    1  A    between atoms: C3_3  and  C5_5 
REMARK    2  A    between atoms: C5_5  and  C8_8 
REMARK    3  A    between atoms: C6_6  and  C7_7 
REMARK    4  A    between atoms: C7_7  and  C8_8 
REMARK    5  A    between atoms: C8_8  and  O9_9 
ROOT
HETATM    1  C8  UNL     1     -33.105   6.381   3.673  1.00 20.00     0.118 C 
ENDROOT
BRANCH   1   2
HETATM    2  C5  UNL     1     -34.299   5.436   3.493  1.00 20.00     0.036 C 
BRANCH   2   3
HETATM    3  C3  UNL     1     -35.136   5.255   4.750  1.00 20.00    -0.012 A 
HETATM    4  C1  UNL     1     -34.932   4.054   5.630  1.00 20.00     0.005 A 
HETATM    5  C2  UNL     1     -34.509   5.415   6.106  1.00 20.00     0.005 A 
ENDBRANCH   2   3
ENDBRANCH   1   2
BRANCH   1   6
HETATM    6  C7  UNL     1     -33.249   7.690   2.886  1.00 20.00     0.031 C 
BRANCH   6   7
HETATM    7  C6  UNL     1     -31.975   8.042   2.110  1.00 20.00    -0.002 C 
HETATM    8  C4  UNL     1     -32.209   9.204   1.157  1.00 20.00     0.005 C 
ENDBRANCH   6   7
ENDBRANCH   1   6
BRANCH   1   9
HETATM    9  O9  UNL     1     -31.932   5.706   3.214  1.00 20.00    -0.396 OA
HETATM   10  H25 UNL     1     -31.963   5.732   2.246  1.00 20.00     0.210 HD
ENDBRANCH   1   9
TORSDOF 5
ENDMDL
MODEL 3
REMARK VINA RESULT:      -4.4      1.542      4.460
REMARK  5 active torsions:
REMARK  status: ('A' for Active; 'I' for Inactive)
REMARK    1  A    between atoms: C3_3  and  C5_5 
REMARK    2  A    between atoms: C5_5  and  C8_8 
REMARK    3  A    between atoms: C6_6  and  C7_7 
REMARK    4  A    between atoms: C7_7  and  C8_8 
REMARK    5  A    between atoms: C8_8  and  O9_9 
ROOT
HETATM    1  C8  UNL     1     -32.623   6.307   3.592  1.00 20.00     0.118 C 
ENDROOT
BRANCH   1   2
HETATM    2  C5  UNL     1     -33.689   6.412   4.689  1.00 20.00     0.036 C 
BRANCH   2   3
HETATM    3  C3  UNL     1     -33.979   5.096   5.393  1.00 20.00    -0.012 A 
HETATM    4  C1  UNL     1     -35.167   4.971   6.306  1.00 20.00     0.005 A 
HETATM    5  C2  UNL     1     -35.160   4.262   4.981  1.00 20.00     0.005 A 
ENDBRANCH   2   3
ENDBRANCH   1   2
BRANCH   1   6
HETATM    6  C7  UNL     1     -31.938   7.646   3.287  1.00 20.00     0.031 C 
BRANCH   6   7
HETATM    7  C6  UNL     1     -32.010   8.009   1.800  1.00 20.00    -0.002 C 
HETATM    8  C4  UNL     1     -32.429   9.457   1.603  1.00 20.00     0.005 C 
ENDBRANCH   6   7
ENDBRANCH   1   6
BRANCH   1   9
HETATM    9  O9  UNL     1     -33.260   5.846   2.398  1.00 20.00    -0.396 OA
HETATM   10  H25 UNL     1     -34.171   6.171   2.431  1.00 20.00     0.210 HD
ENDBRANCH   1   9
TORSDOF 5
ENDMDL
MODEL 4
REMARK VINA RESULT:      -4.3      2.207      4.688
REMARK  5 active torsions:
REMARK  status: ('A' for Active; 'I' for Inactive)
REMARK    1  A    between atoms: C3_3  and  C5_5 
REMARK    2  A    between atoms: C5_5  and  C8_8 
REMARK    3  A    between atoms: C6_6  and  C7_7 
REMARK    4  A    between atoms: C7_7  and  C8_8 
REMARK    5  A    between atoms: C8_8  and  O9_9 
ROOT
HETATM    1  C8  UNL     1     -32.376   7.542   2.949  1.00 20.00     0.118 C 
ENDROOT
BRANCH   1   2
HETATM    2  C5  UNL     1     -33.073   6.189   3.132  1.00 20.00     0.036 C 
BRANCH   2   3
HETATM    3  C3  UNL     1     -34.304   6.245   4.021  1.00 20.00    -0.012 A 
HETATM    4  C1  UNL     1     -35.046   4.985   4.370  1.00 20.00     0.005 A 
HETATM    5  C2  UNL     1     -34.251   5.706   5.422  1.00 20.00     0.005 A 
ENDBRANCH   2   3
ENDBRANCH   1   2
BRANCH   1   6
HETATM    6  C7  UNL     1     -31.795   7.736   1.542  1.00 20.00     0.031 C 
BRANCH   6   7
HETATM    7  C6  UNL     1     -32.162   9.100   0.948  1.00 20.00    -0.002 C 
HETATM    8  C4  UNL     1     -32.780  10.014   1.994  1.00 20.00     0.005 C 
ENDBRANCH   6   7
ENDBRANCH   1   6
BRANCH   1   9
HETATM    9  O9  UNL     1     -31.305   7.620   3.893  1.00 20.00    -0.396 OA
HETATM   10  H25 UNL     1     -31.380   6.836   4.457  1.00 20.00     0.210 HD
ENDBRANCH   1   9
TORSDOF 5
ENDMDL
MODEL 5
REMARK VINA RESULT:      -4.3      1.392      2.078
REMARK  5 active torsions:
REMARK  status: ('A' for Active; 'I' for Inactive)
REMARK    1  A    between atoms: C3_3  and  C5_5 
REMARK    2  A    between atoms: C5_5  and  C8_8 
REMARK    3  A    between atoms: C6_6  and  C7_7 
REMARK    4  A    between atoms: C7_7  and  C8_8 
REMARK    5  A    between atoms: C8_8  and  O9_9 
ROOT
HETATM    1  C8  UNL     1     -33.639   6.477   3.315  1.00 20.00     0.118 C 
ENDROOT
BRANCH   1   2
HETATM    2  C5  UNL     1     -32.148   6.682   3.024  1.00 20.00     0.036 C 
BRANCH   2   3
HETATM    3  C3  UNL     1     -31.792   8.096   2.596  1.00 20.00    -0.012 A 
HETATM    4  C1  UNL     1     -31.700   8.446   1.137  1.00 20.00     0.005 A 
HETATM    5  C2  UNL     1     -32.832   8.981   1.968  1.00 20.00     0.005 A 
ENDBRANCH   2   3
ENDBRANCH   1   2
BRANCH   1   6
HETATM    6  C7  UNL     1     -33.929   6.170   4.790  1.00 20.00     0.031 C 
BRANCH   6   7
HETATM    7  C6  UNL     1     -35.108   5.205   4.961  1.00 20.00    -0.002 C 
HETATM    8  C4  UNL     1     -34.775   4.090   5.940  1.00 20.00     0.005 C 
ENDBRANCH   6   7
ENDBRANCH   1   6
BRANCH   1   9
HETATM    9  O9  UNL     1     -34.097   5.376   2.528  1.00 20.00    -0.396 OA
HETATM   10  H25 UNL     1     -35.011   5.580   2.279  1.00 20.00     0.210 HD
ENDBRANCH   1   9
TORSDOF 5
ENDMDL
MODEL 6
REMARK VINA RESULT:      -4.2     11.460     12.928
REMARK  5 active torsions:
REMARK  status: ('A' for Active; 'I' for Inactive)
REMARK    1  A    between atoms: C3_3  and  C5_5 
REMARK    2  A    between atoms: C5_5  and  C8_8 
REMARK    3  A    between atoms: C6_6  and  C7_7 
REMARK    4  A    between atoms: C7_7  and  C8_8 
REMARK    5  A    between atoms: C8_8  and  O9_9 
ROOT
HETATM    1  C8  UNL     1     -34.511  13.506  -4.646  1.00 20.00     0.118 C 
ENDROOT
BRANCH   1   2
HETATM    2  C5  UNL     1     -33.908  14.262  -3.457  1.00 20.00     0.036 C 
BRANCH   2   3
HETATM    3  C3  UNL     1     -34.633  15.554  -3.117  1.00 20.00    -0.012 A 
HETATM    4  C1  UNL     1     -34.528  16.141  -1.737  1.00 20.00     0.005 A 
HETATM    5  C2  UNL     1     -33.856  16.821  -2.896  1.00 20.00     0.005 A 
ENDBRANCH   2   3
ENDBRANCH   1   2
BRANCH   1   6
HETATM    6  C7  UNL     1     -35.305  14.412  -5.597  1.00 20.00     0.031 C 
BRANCH   6   7
HETATM    7  C6  UNL     1     -34.454  14.908  -6.771  1.00 20.00    -0.002 C 
HETATM    8  C4  UNL     1     -34.306  16.421  -6.749  1.00 20.00     0.005 C 
ENDBRANCH   6   7
ENDBRANCH   1   6
BRANCH   1   9
HETATM    9  O9  UNL     1     -35.396  12.506  -4.135  1.00 20.00    -0.396 OA
HETATM   10  H25 UNL     1     -35.479  11.835  -4.828  1.00 20.00     0.210 HD
ENDBRANCH   1   9
TORSDOF 5
ENDMDL
MODEL 7
REMARK VINA RESULT:      -4.2      1.071      3.981
REMARK  5 active torsions:
REMARK  status: ('A' for Active; 'I' for Inactive)
REMARK    1  A    between atoms: C3_3  and  C5_5 
REMARK    2  A    between atoms: C5_5  and  C8_8 
REMARK    3  A    between atoms: C6_6  and  C7_7 
REMARK    4  A    between atoms: C7_7  and  C8_8 
REMARK    5  A    between atoms: C8_8  and  O9_9 
ROOT
HETATM    1  C8  UNL     1     -33.827   6.165   3.108  1.00 20.00     0.118 C 
ENDROOT
BRANCH   1   2
HETATM    2  C5  UNL     1     -34.435   4.883   3.687  1.00 20.00     0.036 C 
BRANCH   2   3
HETATM    3  C3  UNL     1     -35.179   5.091   4.996  1.00 20.00    -0.012 A 
HETATM    4  C1  UNL     1     -35.069   4.076   6.100  1.00 20.00     0.005 A 
HETATM    5  C2  UNL     1     -34.424   5.424   6.251  1.00 20.00     0.005 A 
ENDBRANCH   2   3
ENDBRANCH   1   2
BRANCH   1   6
HETATM    6  C7  UNL     1     -32.295   6.194   3.185  1.00 20.00     0.031 C 
BRANCH   6   7
HETATM    7  C6  UNL     1     -31.739   7.622   3.147  1.00 20.00    -0.002 C 
HETATM    8  C4  UNL     1     -31.946   8.261   1.783  1.00 20.00     0.005 C 
ENDBRANCH   6   7
ENDBRANCH   1   6
BRANCH   1   9
HETATM    9  O9  UNL     1     -34.336   7.273   3.853  1.00 20.00    -0.396 OA
HETATM   10  H25 UNL     1     -35.242   7.041   4.104  1.00 20.00     0.210 HD
ENDBRANCH   1   9
TORSDOF 5
ENDMDL
MODEL 8
REMARK VINA RESULT:      -4.1     11.576     12.849
REMARK  5 active torsions:
REMARK  status: ('A' for Active; 'I' for Inactive)
REMARK    1  A    between atoms: C3_3  and  C5_5 
REMARK    2  A    between atoms: C5_5  and  C8_8 
REMARK    3  A    between atoms: C6_6  and  C7_7 
REMARK    4  A    between atoms: C7_7  and  C8_8 
REMARK    5  A    between atoms: C8_8  and  O9_9 
ROOT
HETATM    1  C8  UNL     1     -35.175  13.984  -3.923  1.00 20.00     0.118 C 
ENDROOT
BRANCH   1   2
HETATM    2  C5  UNL     1     -35.696  14.629  -5.213  1.00 20.00     0.036 C 
BRANCH   2   3
HETATM    3  C3  UNL     1     -34.733  14.527  -6.385  1.00 20.00    -0.012 A 
HETATM    4  C1  UNL     1     -35.225  14.730  -7.790  1.00 20.00     0.005 A 
HETATM    5  C2  UNL     1     -34.337  15.758  -7.149  1.00 20.00     0.005 A 
ENDBRANCH   2   3
ENDBRANCH   1   2
BRANCH   1   6
HETATM    6  C7  UNL     1     -33.754  14.431  -3.556  1.00 20.00     0.031 C 
BRANCH   6   7
HETATM    7  C6  UNL     1     -33.715  15.877  -3.047  1.00 20.00    -0.002 C 
HETATM    8  C4  UNL     1     -34.663  16.079  -1.876  1.00 20.00     0.005 C 
ENDBRANCH   6   7
ENDBRANCH   1   6
BRANCH   1   9
HETATM    9  O9  UNL     1     -35.167  12.567  -4.108  1.00 20.00    -0.396 OA
HETATM   10  H25 UNL     1     -34.463  12.379  -4.746  1.00 20.00     0.210 HD
ENDBRANCH   1   9
TORSDOF 5
ENDMDL
MODEL 9
REMARK VINA RESULT:      -4.1     11.809     12.549
REMARK  5 active torsions:
REMARK  status: ('A' for Active; 'I' for Inactive)
REMARK    1  A    between atoms: C3_3  and  C5_5 
REMARK    2  A    between atoms: C5_5  and  C8_8 
REMARK    3  A    between atoms: C6_6  and  C7_7 
REMARK    4  A    between atoms: C7_7  and  C8_8 
REMARK    5  A    between atoms: C8_8  and  O9_9 
ROOT
HETATM    1  C8  UNL     1     -33.625  15.501  -3.942  1.00 20.00     0.118 C 
ENDROOT
BRANCH   1   2
HETATM    2  C5  UNL     1     -33.454  16.267  -2.625  1.00 20.00     0.036 C 
BRANCH   2   3
HETATM    3  C3  UNL     1     -34.673  16.214  -1.719  1.00 20.00    -0.012 A 
HETATM    4  C1  UNL     1     -34.671  16.939  -0.402  1.00 20.00     0.005 A 
HETATM    5  C2  UNL     1     -35.530  17.434  -1.531  1.00 20.00     0.005 A 
ENDBRANCH   2   3
ENDBRANCH   1   2
BRANCH   1   6
HETATM    6  C7  UNL     1     -33.637  13.978  -3.758  1.00 20.00     0.031 C 
BRANCH   6   7
HETATM    7  C6  UNL     1     -34.830  13.318  -4.458  1.00 20.00    -0.002 C 
HETATM    8  C4  UNL     1     -36.108  14.113  -4.242  1.00 20.00     0.005 C 
ENDBRANCH   6   7
ENDBRANCH   1   6
BRANCH   1   9
HETATM    9  O9  UNL     1     -32.534  15.843  -4.799  1.00 20.00    -0.396 OA
HETATM   10  H25 UNL     1     -31.774  15.327  -4.492  1.00 20.00     0.210 HD
ENDBRANCH   1   9
TORSDOF 5
ENDMDL
