MODEL 1
REMARK VINA RESULT:      -4.4      0.000      0.000
REMARK  4 active torsions:
REMARK  status: ('A' for Active; 'I' for Inactive)
REMARK    1  A    between atoms: C1_1  and  C8_8 
REMARK    2  A    between atoms: C1_1  and  C9_9 
REMARK    3  A    between atoms: C4_4  and  C8_8 
REMARK    4  A    between atoms: C9_9  and  C10_10 
ROOT
HETATM    1  C1  UNL     1     -36.793  15.191  -4.036  1.00 20.00     0.128 C 
HETATM    2  O11 UNL     1     -37.450  14.236  -3.622  1.00 20.00    -0.298 OA
ENDROOT
BRANCH   1   3
HETATM    3  C8  UNL     1     -36.227  16.249  -3.108  1.00 20.00     0.082 C 
BRANCH   3   4
HETATM    4  C4  UNL     1     -35.066  15.775  -2.293  1.00 20.00    -0.008 A 
HETATM    5  C2  UNL     1     -33.785  16.562  -2.268  1.00 20.00     0.005 A 
HETATM    6  C3  UNL     1     -34.661  16.516  -1.048  1.00 20.00     0.005 A 
ENDBRANCH   3   4
ENDBRANCH   1   3
BRANCH   1   7
HETATM    7  C9  UNL     1     -36.525  15.374  -5.523  1.00 20.00     0.086 C 
BRANCH   7   8
HETATM    8  C10 UNL     1     -35.182  14.794  -6.023  1.00 20.00    -0.045 C 
HETATM    9  C5  UNL     1     -34.769  13.557  -5.209  1.00 20.00     0.015 C 
HETATM   10  C6  UNL     1     -34.061  15.844  -5.955  1.00 20.00     0.015 C 
HETATM   11  C7  UNL     1     -35.365  14.369  -7.493  1.00 20.00     0.015 C 
ENDBRANCH   7   8
ENDBRANCH   1   7
TORSDOF 4
ENDMDL
MODEL 2
REMARK VINA RESULT:      -4.4      1.375      1.997
REMARK  4 active torsions:
REMARK  status: ('A' for Active; 'I' for Inactive)
REMARK    1  A    between atoms: C1_1  and  C8_8 
REMARK    2  A    between atoms: C1_1  and  C9_9 
REMARK    3  A    between atoms: C4_4  and  C8_8 
REMARK    4  A    between atoms: C9_9  and  C10_10 
ROOT
HETATM    1  C1  UNL     1     -34.986  13.809  -4.434  1.00 20.00     0.128 C 
HETATM    2  O11 UNL     1     -34.748  12.661  -4.811  1.00 20.00    -0.298 OA
ENDROOT
BRANCH   1   3
HETATM    3  C8  UNL     1     -34.320  14.417  -3.214  1.00 20.00     0.082 C 
BRANCH   3   4
HETATM    4  C4  UNL     1     -34.947  15.699  -2.763  1.00 20.00    -0.008 A 
HETATM    5  C2  UNL     1     -34.589  16.288  -1.427  1.00 20.00     0.005 A 
HETATM    6  C3  UNL     1     -34.127  16.958  -2.691  1.00 20.00     0.005 A 
ENDBRANCH   3   4
ENDBRANCH   1   3
BRANCH   1   7
HETATM    7  C9  UNL     1     -35.988  14.685  -5.171  1.00 20.00     0.086 C 
BRANCH   7   8
HETATM    8  C10 UNL     1     -35.461  15.333  -6.472  1.00 20.00    -0.045 C 
HETATM    9  C5  UNL     1     -35.616  14.385  -7.673  1.00 20.00     0.015 C 
HETATM   10  C6  UNL     1     -33.985  15.739  -6.334  1.00 20.00     0.015 C 
HETATM   11  C7  UNL     1     -36.292  16.602  -6.744  1.00 20.00     0.015 C 
ENDBRANCH   7   8
ENDBRANCH   1   7
TORSDOF 4
ENDMDL
MODEL 3
REMARK VINA RESULT:      -4.3      1.509      4.255
REMARK  4 active torsions:
REMARK  status: ('A' for Active; 'I' for Inactive)
REMARK    1  A    between atoms: C1_1  and  C8_8 
REMARK    2  A    between atoms: C1_1  and  C9_9 
REMARK    3  A    between atoms: C4_4  and  C8_8 
REMARK    4  A    between atoms: C9_9  and  C10_10 
ROOT
HETATM    1  C1  UNL     1     -34.724  13.693  -3.976  1.00 20.00     0.128 C 
HETATM    2  O11 UNL     1     -33.918  13.060  -3.294  1.00 20.00    -0.298 OA
ENDROOT
BRANCH   1   3
HETATM    3  C8  UNL     1     -34.956  13.391  -5.445  1.00 20.00     0.082 C 
BRANCH   3   4
HETATM    4  C4  UNL     1     -35.365  14.586  -6.247  1.00 20.00    -0.008 A 
HETATM    5  C2  UNL     1     -34.349  15.334  -7.064  1.00 20.00     0.005 A 
HETATM    6  C3  UNL     1     -35.406  14.512  -7.749  1.00 20.00     0.005 A 
ENDBRANCH   3   4
ENDBRANCH   1   3
BRANCH   1   7
HETATM    7  C9  UNL     1     -35.526  14.841  -3.381  1.00 20.00     0.086 C 
BRANCH   7   8
HETATM    8  C10 UNL     1     -34.701  16.093  -3.008  1.00 20.00    -0.045 C 
HETATM    9  C5  UNL     1     -33.270  16.007  -3.563  1.00 20.00     0.015 C 
HETATM   10  C6  UNL     1     -34.644  16.290  -1.485  1.00 20.00     0.015 C 
HETATM   11  C7  UNL     1     -35.391  17.322  -3.633  1.00 20.00     0.015 C 
ENDBRANCH   7   8
ENDBRANCH   1   7
TORSDOF 4
ENDMDL
MODEL 4
REMARK VINA RESULT:      -4.3      0.096      1.304
REMARK  4 active torsions:
REMARK  status: ('A' for Active; 'I' for Inactive)
REMARK    1  A    between atoms: C1_1  and  C8_8 
REMARK    2  A    between atoms: C1_1  and  C9_9 
REMARK    3  A    between atoms: C4_4  and  C8_8 
REMARK    4  A    between atoms: C9_9  and  C10_10 
ROOT
HETATM    1  C1  UNL     1     -36.773  15.194  -4.085  1.00 20.00     0.128 C 
HETATM    2  O11 UNL     1     -37.407  14.199  -3.732  1.00 20.00    -0.298 OA
ENDROOT
BRANCH   1   3
HETATM    3  C8  UNL     1     -36.244  16.213  -3.093  1.00 20.00     0.082 C 
BRANCH   3   4
HETATM    4  C4  UNL     1     -35.076  15.725  -2.296  1.00 20.00    -0.008 A 
HETATM    5  C2  UNL     1     -33.759  16.447  -2.363  1.00 20.00     0.005 A 
HETATM    6  C3  UNL     1     -34.587  16.512  -1.110  1.00 20.00     0.005 A 
ENDBRANCH   3   4
ENDBRANCH   1   3
BRANCH   1   7
HETATM    7  C9  UNL     1     -36.498  15.468  -5.556  1.00 20.00     0.086 C 
BRANCH   7   8
HETATM    8  C10 UNL     1     -35.206  14.825  -6.112  1.00 20.00    -0.045 C 
HETATM    9  C5  UNL     1     -35.384  14.387  -7.575  1.00 20.00     0.015 C 
HETATM   10  C6  UNL     1     -34.778  13.614  -5.268  1.00 20.00     0.015 C 
HETATM   11  C7  UNL     1     -34.085  15.882  -6.054  1.00 20.00     0.015 C 
ENDBRANCH   7   8
ENDBRANCH   1   7
TORSDOF 4
ENDMDL
MODEL 5
REMARK VINA RESULT:      -4.2      0.822      1.687
REMARK  4 active torsions:
REMARK  status: ('A' for Active; 'I' for Inactive)
REMARK    1  A    between atoms: C1_1  and  C8_8 
REMARK    2  A    between atoms: C1_1  and  C9_9 
REMARK    3  A    between atoms: C4_4  and  C8_8 
REMARK    4  A    between atoms: C9_9  and  C10_10 
ROOT
HETATM    1  C1  UNL     1     -35.631  14.121  -4.130  1.00 20.00     0.128 C 
HETATM    2  O11 UNL     1     -36.806  13.867  -3.865  1.00 20.00    -0.298 OA
ENDROOT
BRANCH   1   3
HETATM    3  C8  UNL     1     -34.660  14.641  -3.086  1.00 20.00     0.082 C 
BRANCH   3   4
HETATM    4  C4  UNL     1     -34.988  16.015  -2.593  1.00 20.00    -0.008 A 
HETATM    5  C2  UNL     1     -34.608  16.430  -1.199  1.00 20.00     0.005 A 
HETATM    6  C3  UNL     1     -33.894  17.025  -2.380  1.00 20.00     0.005 A 
ENDBRANCH   3   4
ENDBRANCH   1   3
BRANCH   1   7
HETATM    7  C9  UNL     1     -35.086  13.941  -5.539  1.00 20.00     0.086 C 
BRANCH   7   8
HETATM    8  C10 UNL     1     -35.136  15.206  -6.426  1.00 20.00    -0.045 C 
HETATM    9  C5  UNL     1     -33.895  16.089  -6.213  1.00 20.00     0.015 C 
HETATM   10  C6  UNL     1     -36.401  16.033  -6.148  1.00 20.00     0.015 C 
HETATM   11  C7  UNL     1     -35.162  14.753  -7.900  1.00 20.00     0.015 C 
ENDBRANCH   7   8
ENDBRANCH   1   7
TORSDOF 4
ENDMDL
MODEL 6
REMARK VINA RESULT:      -4.2     11.084     12.315
REMARK  4 active torsions:
REMARK  status: ('A' for Active; 'I' for Inactive)
REMARK    1  A    between atoms: C1_1  and  C8_8 
REMARK    2  A    between atoms: C1_1  and  C9_9 
REMARK    3  A    between atoms: C4_4  and  C8_8 
REMARK    4  A    between atoms: C9_9  and  C10_10 
ROOT
HETATM    1  C1  UNL     1     -32.490   6.716   3.553  1.00 20.00     0.128 C 
HETATM    2  O11 UNL     1     -31.650   7.217   4.302  1.00 20.00    -0.298 OA
ENDROOT
BRANCH   1   3
HETATM    3  C8  UNL     1     -32.969   7.413   2.294  1.00 20.00     0.082 C 
BRANCH   3   4
HETATM    4  C4  UNL     1     -32.035   8.472   1.800  1.00 20.00    -0.008 A 
HETATM    5  C2  UNL     1     -32.199   9.042   0.418  1.00 20.00     0.005 A 
HETATM    6  C3  UNL     1     -32.520   9.885   1.621  1.00 20.00     0.005 A 
ENDBRANCH   3   4
ENDBRANCH   1   3
BRANCH   1   7
HETATM    7  C9  UNL     1     -33.113   5.364   3.865  1.00 20.00     0.086 C 
BRANCH   7   8
HETATM    8  C10 UNL     1     -34.335   5.408   4.810  1.00 20.00    -0.045 C 
HETATM    9  C5  UNL     1     -34.191   6.522   5.861  1.00 20.00     0.015 C 
HETATM   10  C6  UNL     1     -34.539   4.062   5.523  1.00 20.00     0.015 C 
HETATM   11  C7  UNL     1     -35.586   5.704   3.959  1.00 20.00     0.015 C 
ENDBRANCH   7   8
ENDBRANCH   1   7
TORSDOF 4
ENDMDL
MODEL 7
REMARK VINA RESULT:      -4.2      2.063      2.882
REMARK  4 active torsions:
REMARK  status: ('A' for Active; 'I' for Inactive)
REMARK    1  A    between atoms: C1_1  and  C8_8 
REMARK    2  A    between atoms: C1_1  and  C9_9 
REMARK    3  A    between atoms: C4_4  and  C8_8 
REMARK    4  A    between atoms: C9_9  and  C10_10 
ROOT
HETATM    1  C1  UNL     1     -33.596  17.063  -4.478  1.00 20.00     0.128 C 
HETATM    2  O11 UNL     1     -33.357  17.699  -5.504  1.00 20.00    -0.298 OA
ENDROOT
BRANCH   1   3
HETATM    3  C8  UNL     1     -33.999  17.740  -3.180  1.00 20.00     0.082 C 
BRANCH   3   4
HETATM    4  C4  UNL     1     -33.681  16.935  -1.959  1.00 20.00    -0.008 A 
HETATM    5  C2  UNL     1     -33.775  17.560  -0.595  1.00 20.00     0.005 A 
HETATM    6  C3  UNL     1     -34.779  16.524  -1.017  1.00 20.00     0.005 A 
ENDBRANCH   3   4
ENDBRANCH   1   3
BRANCH   1   7
HETATM    7  C9  UNL     1     -33.481  15.546  -4.448  1.00 20.00     0.086 C 
BRANCH   7   8
HETATM    8  C10 UNL     1     -34.666  14.787  -5.086  1.00 20.00    -0.045 C 
HETATM    9  C5  UNL     1     -34.534  14.726  -6.617  1.00 20.00     0.015 C 
HETATM   10  C6  UNL     1     -36.009  15.438  -4.718  1.00 20.00     0.015 C 
HETATM   11  C7  UNL     1     -34.657  13.345  -4.540  1.00 20.00     0.015 C 
ENDBRANCH   7   8
ENDBRANCH   1   7
TORSDOF 4
ENDMDL
MODEL 8
REMARK VINA RESULT:      -4.1      1.597      2.322
REMARK  4 active torsions:
REMARK  status: ('A' for Active; 'I' for Inactive)
REMARK    1  A    between atoms: C1_1  and  C8_8 
REMARK    2  A    between atoms: C1_1  and  C9_9 
REMARK    3  A    between atoms: C4_4  and  C8_8 
REMARK    4  A    between atoms: C9_9  and  C10_10 
ROOT
HETATM    1  C1  UNL     1     -35.963  16.446  -3.515  1.00 20.00     0.128 C 
HETATM    2  O11 UNL     1     -36.471  16.895  -4.542  1.00 20.00    -0.298 OA
ENDROOT
BRANCH   1   3
HETATM    3  C8  UNL     1     -35.842  17.266  -2.245  1.00 20.00     0.082 C 
BRANCH   3   4
HETATM    4  C4  UNL     1     -34.869  16.705  -1.257  1.00 20.00    -0.008 A 
HETATM    5  C2  UNL     1     -33.649  17.491  -0.864  1.00 20.00     0.005 A 
HETATM    6  C3  UNL     1     -34.766  17.294   0.123  1.00 20.00     0.005 A 
ENDBRANCH   3   4
ENDBRANCH   1   3
BRANCH   1   7
HETATM    7  C9  UNL     1     -35.403  15.032  -3.470  1.00 20.00     0.086 C 
BRANCH   7   8
HETATM    8  C10 UNL     1     -34.184  14.780  -4.386  1.00 20.00    -0.045 C 
HETATM    9  C5  UNL     1     -33.296  16.031  -4.493  1.00 20.00     0.015 C 
HETATM   10  C6  UNL     1     -34.624  14.347  -5.793  1.00 20.00     0.015 C 
HETATM   11  C7  UNL     1     -33.347  13.644  -3.764  1.00 20.00     0.015 C 
ENDBRANCH   7   8
ENDBRANCH   1   7
TORSDOF 4
ENDMDL
MODEL 9
REMARK VINA RESULT:      -4.0      0.844      4.148
REMARK  4 active torsions:
REMARK  status: ('A' for Active; 'I' for Inactive)
REMARK    1  A    between atoms: C1_1  and  C8_8 
REMARK    2  A    between atoms: C1_1  and  C9_9 
REMARK    3  A    between atoms: C4_4  and  C8_8 
REMARK    4  A    between atoms: C9_9  and  C10_10 
ROOT
HETATM    1  C1  UNL     1     -36.588  14.715  -4.096  1.00 20.00     0.128 C 
HETATM    2  O11 UNL     1     -37.622  14.242  -3.624  1.00 20.00    -0.298 OA
ENDROOT
BRANCH   1   3
HETATM    3  C8  UNL     1     -36.477  15.132  -5.550  1.00 20.00     0.082 C 
BRANCH   3   4
HETATM    4  C4  UNL     1     -35.366  14.453  -6.287  1.00 20.00    -0.008 A 
HETATM    5  C2  UNL     1     -35.337  14.463  -7.790  1.00 20.00     0.005 A 
HETATM    6  C3  UNL     1     -34.331  15.267  -7.015  1.00 20.00     0.005 A 
ENDBRANCH   3   4
ENDBRANCH   1   3
BRANCH   1   7
HETATM    7  C9  UNL     1     -35.343  14.891  -3.239  1.00 20.00     0.086 C 
BRANCH   7   8
HETATM    8  C10 UNL     1     -35.037  16.347  -2.820  1.00 20.00    -0.045 C 
HETATM    9  C5  UNL     1     -36.283  17.239  -2.942  1.00 20.00     0.015 C 
HETATM   10  C6  UNL     1     -33.901  16.944  -3.666  1.00 20.00     0.015 C 
HETATM   11  C7  UNL     1     -34.592  16.334  -1.344  1.00 20.00     0.015 C 
ENDBRANCH   7   8
ENDBRANCH   1   7
TORSDOF 4
ENDMDL
