MODEL 1
REMARK VINA RESULT:      -5.5      0.000      0.000
REMARK  4 active torsions:
REMARK  status: ('A' for Active; 'I' for Inactive)
REMARK    1  A    between atoms: C3_3  and  C4_4 
REMARK    2  A    between atoms: C4_4  and  C5_5 
REMARK    3  A    between atoms: C5_5  and  C6_6 
REMARK    4  A    between atoms: C5_5  and  O7_7 
ROOT
HETATM    1  C5  UNL     1     -34.507   5.176   4.653  1.00 20.00     0.226 C 
ENDROOT
BRANCH   1   2
HETATM    2  C4  UNL     1     -34.077   6.512   4.044  1.00 20.00     0.045 C 
BRANCH   2   3
HETATM    3  C3  UNL     1     -32.728   6.427   3.391  1.00 20.00    -0.012 A 
HETATM    4  C1  UNL     1     -32.269   7.510   2.455  1.00 20.00     0.005 A 
HETATM    5  C2  UNL     1     -31.627   7.363   3.806  1.00 20.00     0.005 A 
ENDBRANCH   2   3
ENDBRANCH   1   2
BRANCH   1   6
HETATM    6  C6  UNL     1     -34.503   5.225   6.168  1.00 20.00     0.413 C 
HETATM    7  F8  UNL     1     -34.167   6.450   6.626  1.00 20.00    -0.168 F 
HETATM    8  F9  UNL     1     -33.626   4.335   6.681  1.00 20.00    -0.168 F 
HETATM    9  F10 UNL     1     -35.724   4.921   6.661  1.00 20.00    -0.168 F 
ENDBRANCH   1   6
BRANCH   1  10
HETATM   10  O7  UNL     1     -35.831   4.878   4.214  1.00 20.00    -0.387 OA
HETATM   11  H19 UNL     1     -36.055   5.542   3.543  1.00 20.00     0.210 HD
ENDBRANCH   1  10
TORSDOF 4
ENDMDL
MODEL 2
REMARK VINA RESULT:      -5.3      1.540      2.041
REMARK  4 active torsions:
REMARK  status: ('A' for Active; 'I' for Inactive)
REMARK    1  A    between atoms: C3_3  and  C4_4 
REMARK    2  A    between atoms: C4_4  and  C5_5 
REMARK    3  A    between atoms: C5_5  and  C6_6 
REMARK    4  A    between atoms: C5_5  and  O7_7 
ROOT
HETATM    1  C5  UNL     1     -34.825   5.809   5.485  1.00 20.00     0.226 C 
ENDROOT
BRANCH   1   2
HETATM    2  C4  UNL     1     -34.385   6.118   4.053  1.00 20.00     0.045 C 
BRANCH   2   3
HETATM    3  C3  UNL     1     -32.948   6.549   3.984  1.00 20.00    -0.012 A 
HETATM    4  C1  UNL     1     -32.005   5.889   3.015  1.00 20.00     0.005 A 
HETATM    5  C2  UNL     1     -32.443   7.309   2.789  1.00 20.00     0.005 A 
ENDBRANCH   2   3
ENDBRANCH   1   2
BRANCH   1   6
HETATM    6  C6  UNL     1     -34.836   4.318   5.758  1.00 20.00     0.413 C 
HETATM    7  F8  UNL     1     -35.143   3.611   4.648  1.00 20.00    -0.168 F 
HETATM    8  F9  UNL     1     -35.740   4.005   6.712  1.00 20.00    -0.168 F 
HETATM    9  F10 UNL     1     -33.627   3.901   6.191  1.00 20.00    -0.168 F 
ENDBRANCH   1   6
BRANCH   1  10
HETATM   10  O7  UNL     1     -33.911   6.427   6.388  1.00 20.00    -0.387 OA
HETATM   11  H19 UNL     1     -33.601   7.238   5.955  1.00 20.00     0.210 HD
ENDBRANCH   1  10
TORSDOF 4
ENDMDL
MODEL 3
REMARK VINA RESULT:      -5.0      2.678      4.105
REMARK  4 active torsions:
REMARK  status: ('A' for Active; 'I' for Inactive)
REMARK    1  A    between atoms: C3_3  and  C4_4 
REMARK    2  A    between atoms: C4_4  and  C5_5 
REMARK    3  A    between atoms: C5_5  and  C6_6 
REMARK    4  A    between atoms: C5_5  and  O7_7 
ROOT
HETATM    1  C5  UNL     1     -33.692   6.570   3.555  1.00 20.00     0.226 C 
ENDROOT
BRANCH   1   2
HETATM    2  C4  UNL     1     -33.884   6.193   5.025  1.00 20.00     0.045 C 
BRANCH   2   3
HETATM    3  C3  UNL     1     -34.975   5.179   5.210  1.00 20.00    -0.012 A 
HETATM    4  C1  UNL     1     -34.634   3.747   5.520  1.00 20.00     0.005 A 
HETATM    5  C2  UNL     1     -35.262   4.616   6.574  1.00 20.00     0.005 A 
ENDBRANCH   2   3
ENDBRANCH   1   2
BRANCH   1   6
HETATM    6  C6  UNL     1     -32.229   6.789   3.220  1.00 20.00     0.413 C 
HETATM    7  F8  UNL     1     -32.080   7.431   2.041  1.00 20.00    -0.168 F 
HETATM    8  F9  UNL     1     -31.568   5.614   3.139  1.00 20.00    -0.168 F 
HETATM    9  F10 UNL     1     -31.624   7.531   4.173  1.00 20.00    -0.168 F 
ENDBRANCH   1   6
BRANCH   1  10
HETATM   10  O7  UNL     1     -34.188   5.510   2.741  1.00 20.00    -0.387 OA
HETATM   11  H19 UNL     1     -34.280   4.738   3.321  1.00 20.00     0.210 HD
ENDBRANCH   1  10
TORSDOF 4
ENDMDL
MODEL 4
REMARK VINA RESULT:      -5.0      2.683      4.143
REMARK  4 active torsions:
REMARK  status: ('A' for Active; 'I' for Inactive)
REMARK    1  A    between atoms: C3_3  and  C4_4 
REMARK    2  A    between atoms: C4_4  and  C5_5 
REMARK    3  A    between atoms: C5_5  and  C6_6 
REMARK    4  A    between atoms: C5_5  and  O7_7 
ROOT
HETATM    1  C5  UNL     1     -33.712   6.565   3.548  1.00 20.00     0.226 C 
ENDROOT
BRANCH   1   2
HETATM    2  C4  UNL     1     -33.894   6.197   5.022  1.00 20.00     0.045 C 
BRANCH   2   3
HETATM    3  C3  UNL     1     -34.982   5.182   5.220  1.00 20.00    -0.012 A 
HETATM    4  C1  UNL     1     -34.636   3.755   5.548  1.00 20.00     0.005 A 
HETATM    5  C2  UNL     1     -35.266   4.635   6.592  1.00 20.00     0.005 A 
ENDBRANCH   2   3
ENDBRANCH   1   2
BRANCH   1   6
HETATM    6  C6  UNL     1     -32.253   6.797   3.206  1.00 20.00     0.413 C 
HETATM    7  F8  UNL     1     -31.626   7.518   4.160  1.00 20.00    -0.168 F 
HETATM    8  F9  UNL     1     -32.128   7.460   2.036  1.00 20.00    -0.168 F 
HETATM    9  F10 UNL     1     -31.598   5.623   3.079  1.00 20.00    -0.168 F 
ENDBRANCH   1   6
BRANCH   1  10
HETATM   10  O7  UNL     1     -34.199   5.493   2.744  1.00 20.00    -0.387 OA
HETATM   11  H19 UNL     1     -34.679   4.898   3.342  1.00 20.00     0.210 HD
ENDBRANCH   1  10
TORSDOF 4
ENDMDL
MODEL 5
REMARK VINA RESULT:      -4.6      2.321      2.765
REMARK  4 active torsions:
REMARK  status: ('A' for Active; 'I' for Inactive)
REMARK    1  A    between atoms: C3_3  and  C4_4 
REMARK    2  A    between atoms: C4_4  and  C5_5 
REMARK    3  A    between atoms: C5_5  and  C6_6 
REMARK    4  A    between atoms: C5_5  and  O7_7 
ROOT
HETATM    1  C5  UNL     1     -33.782   6.575   3.847  1.00 20.00     0.226 C 
ENDROOT
BRANCH   1   2
HETATM    2  C4  UNL     1     -32.472   6.505   3.061  1.00 20.00     0.045 C 
BRANCH   2   3
HETATM    3  C3  UNL     1     -31.924   7.869   2.753  1.00 20.00    -0.012 A 
HETATM    4  C1  UNL     1     -31.721   8.299   1.327  1.00 20.00     0.005 A 
HETATM    5  C2  UNL     1     -32.813   8.923   2.152  1.00 20.00     0.005 A 
ENDBRANCH   2   3
ENDBRANCH   1   2
BRANCH   1   6
HETATM    6  C6  UNL     1     -34.715   5.436   3.484  1.00 20.00     0.413 C 
HETATM    7  F8  UNL     1     -35.990   5.861   3.353  1.00 20.00    -0.168 F 
HETATM    8  F9  UNL     1     -34.694   4.470   4.427  1.00 20.00    -0.168 F 
HETATM    9  F10 UNL     1     -34.346   4.870   2.314  1.00 20.00    -0.168 F 
ENDBRANCH   1   6
BRANCH   1  10
HETATM   10  O7  UNL     1     -33.485   6.488   5.240  1.00 20.00    -0.387 OA
HETATM   11  H19 UNL     1     -32.544   6.265   5.307  1.00 20.00     0.210 HD
ENDBRANCH   1  10
TORSDOF 4
ENDMDL
MODEL 6
REMARK VINA RESULT:      -4.6     12.221     12.917
REMARK  4 active torsions:
REMARK  status: ('A' for Active; 'I' for Inactive)
REMARK    1  A    between atoms: C3_3  and  C4_4 
REMARK    2  A    between atoms: C4_4  and  C5_5 
REMARK    3  A    between atoms: C5_5  and  C6_6 
REMARK    4  A    between atoms: C5_5  and  O7_7 
ROOT
HETATM    1  C5  UNL     1     -32.999  15.498  -3.723  1.00 20.00     0.226 C 
ENDROOT
BRANCH   1   2
HETATM    2  C4  UNL     1     -34.008  16.470  -3.110  1.00 20.00     0.045 C 
BRANCH   2   3
HETATM    3  C3  UNL     1     -33.671  16.810  -1.687  1.00 20.00    -0.012 A 
HETATM    4  C1  UNL     1     -34.207  18.069  -1.061  1.00 20.00     0.005 A 
HETATM    5  C2  UNL     1     -34.727  16.729  -0.619  1.00 20.00     0.005 A 
ENDBRANCH   2   3
ENDBRANCH   1   2
BRANCH   1   6
HETATM    6  C6  UNL     1     -33.593  14.115  -3.904  1.00 20.00     0.413 C 
HETATM    7  F8  UNL     1     -34.668  13.928  -3.109  1.00 20.00    -0.168 F 
HETATM    8  F9  UNL     1     -32.688  13.156  -3.612  1.00 20.00    -0.168 F 
HETATM    9  F10 UNL     1     -33.986  13.926  -5.183  1.00 20.00    -0.168 F 
ENDBRANCH   1   6
BRANCH   1  10
HETATM   10  O7  UNL     1     -32.606  15.992  -5.003  1.00 20.00    -0.387 OA
HETATM   11  H19 UNL     1     -32.963  15.372  -5.658  1.00 20.00     0.210 HD
ENDBRANCH   1  10
TORSDOF 4
ENDMDL
MODEL 7
REMARK VINA RESULT:      -4.5     11.962     13.242
REMARK  4 active torsions:
REMARK  status: ('A' for Active; 'I' for Inactive)
REMARK    1  A    between atoms: C3_3  and  C4_4 
REMARK    2  A    between atoms: C4_4  and  C5_5 
REMARK    3  A    between atoms: C5_5  and  C6_6 
REMARK    4  A    between atoms: C5_5  and  O7_7 
ROOT
HETATM    1  C5  UNL     1     -34.712  13.612  -4.832  1.00 20.00     0.226 C 
ENDROOT
BRANCH   1   2
HETATM    2  C4  UNL     1     -35.780  14.632  -5.229  1.00 20.00     0.045 C 
BRANCH   2   3
HETATM    3  C3  UNL     1     -35.771  14.915  -6.704  1.00 20.00    -0.012 A 
HETATM    4  C1  UNL     1     -35.199  16.205  -7.224  1.00 20.00     0.005 A 
HETATM    5  C2  UNL     1     -34.476  14.909  -7.467  1.00 20.00     0.005 A 
ENDBRANCH   2   3
ENDBRANCH   1   2
BRANCH   1   6
HETATM    6  C6  UNL     1     -33.685  14.213  -3.893  1.00 20.00     0.413 C 
HETATM    7  F8  UNL     1     -33.090  15.298  -4.435  1.00 20.00    -0.168 F 
HETATM    8  F9  UNL     1     -32.719  13.318  -3.591  1.00 20.00    -0.168 F 
HETATM    9  F10 UNL     1     -34.262  14.594  -2.733  1.00 20.00    -0.168 F 
ENDBRANCH   1   6
BRANCH   1  10
HETATM   10  O7  UNL     1     -35.345  12.520  -4.169  1.00 20.00    -0.387 OA
HETATM   11  H19 UNL     1     -35.877  12.903  -3.454  1.00 20.00     0.210 HD
ENDBRANCH   1  10
TORSDOF 4
ENDMDL
MODEL 8
REMARK VINA RESULT:      -4.5     11.997     13.322
REMARK  4 active torsions:
REMARK  status: ('A' for Active; 'I' for Inactive)
REMARK    1  A    between atoms: C3_3  and  C4_4 
REMARK    2  A    between atoms: C4_4  and  C5_5 
REMARK    3  A    between atoms: C5_5  and  C6_6 
REMARK    4  A    between atoms: C5_5  and  O7_7 
ROOT
HETATM    1  C5  UNL     1     -34.491  13.436  -4.855  1.00 20.00     0.226 C 
ENDROOT
BRANCH   1   2
HETATM    2  C4  UNL     1     -35.376  14.442  -5.594  1.00 20.00     0.045 C 
BRANCH   2   3
HETATM    3  C3  UNL     1     -34.810  14.815  -6.933  1.00 20.00    -0.012 A 
HETATM    4  C1  UNL     1     -35.642  15.589  -7.918  1.00 20.00     0.005 A 
HETATM    5  C2  UNL     1     -34.474  16.249  -7.239  1.00 20.00     0.005 A 
ENDBRANCH   2   3
ENDBRANCH   1   2
BRANCH   1   6
HETATM    6  C6  UNL     1     -33.594  14.118  -3.841  1.00 20.00     0.413 C 
HETATM    7  F8  UNL     1     -34.284  14.499  -2.744  1.00 20.00    -0.168 F 
HETATM    8  F9  UNL     1     -33.012  15.217  -4.368  1.00 20.00    -0.168 F 
HETATM    9  F10 UNL     1     -32.606  13.288  -3.440  1.00 20.00    -0.168 F 
ENDBRANCH   1   6
BRANCH   1  10
HETATM   10  O7  UNL     1     -35.328  12.508  -4.167  1.00 20.00    -0.387 OA
HETATM   11  H19 UNL     1     -35.874  13.030  -3.558  1.00 20.00     0.210 HD
ENDBRANCH   1  10
TORSDOF 4
ENDMDL
MODEL 9
REMARK VINA RESULT:      -4.4     12.719     13.271
REMARK  4 active torsions:
REMARK  status: ('A' for Active; 'I' for Inactive)
REMARK    1  A    between atoms: C3_3  and  C4_4 
REMARK    2  A    between atoms: C4_4  and  C5_5 
REMARK    3  A    between atoms: C5_5  and  C6_6 
REMARK    4  A    between atoms: C5_5  and  O7_7 
ROOT
HETATM    1  C5  UNL     1     -35.363  14.036  -4.138  1.00 20.00     0.226 C 
ENDROOT
BRANCH   1   2
HETATM    2  C4  UNL     1     -34.406  14.652  -3.116  1.00 20.00     0.045 C 
BRANCH   2   3
HETATM    3  C3  UNL     1     -34.892  15.982  -2.617  1.00 20.00    -0.012 A 
HETATM    4  C1  UNL     1     -34.609  16.410  -1.203  1.00 20.00     0.005 A 
HETATM    5  C2  UNL     1     -33.914  17.092  -2.348  1.00 20.00     0.005 A 
ENDBRANCH   2   3
ENDBRANCH   1   2
BRANCH   1   6
HETATM    6  C6  UNL     1     -35.141  14.605  -5.526  1.00 20.00     0.413 C 
HETATM    7  F8  UNL     1     -33.897  15.113  -5.662  1.00 20.00    -0.168 F 
HETATM    8  F9  UNL     1     -36.023  15.591  -5.795  1.00 20.00    -0.168 F 
HETATM    9  F10 UNL     1     -35.301  13.649  -6.467  1.00 20.00    -0.168 F 
ENDBRANCH   1   6
BRANCH   1  10
HETATM   10  O7  UNL     1     -35.139  12.629  -4.185  1.00 20.00    -0.387 OA
HETATM   11  H19 UNL     1     -35.956  12.210  -3.872  1.00 20.00     0.210 HD
ENDBRANCH   1  10
TORSDOF 4
ENDMDL
