MODEL 1
REMARK VINA RESULT:      -4.9      0.000      0.000
REMARK  2 active torsions:
REMARK  status: ('A' for Active; 'I' for Inactive)
REMARK    1  A    between atoms: C5_5  and  C6_6 
REMARK    2  A    between atoms: C6_6  and  C7_7 
ROOT
HETATM    1  C1  UNL     1     -34.312   6.122   6.253  1.00 20.00     0.027 C 
HETATM    2  C2  UNL     1     -33.208   6.394   5.236  1.00 20.00     0.009 C 
HETATM    3  C3  UNL     1     -35.084   4.862   5.885  1.00 20.00     0.167 C 
HETATM    4  C4  UNL     1     -34.573   5.089   3.582  1.00 20.00     0.172 C 
HETATM    5  C5  UNL     1     -33.770   6.372   3.810  1.00 20.00     0.010 C 
HETATM    6  O8  UNL     1     -35.606   4.959   4.560  1.00 20.00    -0.391 OA
ENDROOT
BRANCH   5   7
HETATM    7  C6  UNL     1     -32.658   6.517   2.778  1.00 20.00     0.017 C 
BRANCH   7   8
HETATM    8  C7  UNL     1     -31.943   7.847   2.930  1.00 20.00     0.085 C 
HETATM    9 BR9  UNL     1     -32.108   8.870   1.282  1.00 20.00    -0.096 Br
ENDBRANCH   7   8
ENDBRANCH   5   7
TORSDOF 2
ENDMDL
MODEL 2
REMARK VINA RESULT:      -4.5      1.116      1.798
REMARK  2 active torsions:
REMARK  status: ('A' for Active; 'I' for Inactive)
REMARK    1  A    between atoms: C5_5  and  C6_6 
REMARK    2  A    between atoms: C6_6  and  C7_7 
ROOT
HETATM    1  C1  UNL     1     -35.090   4.058   4.865  1.00 20.00     0.027 C 
HETATM    2  C2  UNL     1     -34.845   5.152   3.832  1.00 20.00     0.009 C 
HETATM    3  C3  UNL     1     -35.197   4.652   6.264  1.00 20.00     0.167 C 
HETATM    4  C4  UNL     1     -33.859   6.522   5.690  1.00 20.00     0.172 C 
HETATM    5  C5  UNL     1     -33.665   6.037   4.251  1.00 20.00     0.010 C 
HETATM    6  O8  UNL     1     -34.034   5.416   6.577  1.00 20.00    -0.391 OA
ENDROOT
BRANCH   5   7
HETATM    7  C6  UNL     1     -33.488   7.209   3.294  1.00 20.00     0.017 C 
BRANCH   7   8
HETATM    8  C7  UNL     1     -32.056   7.301   2.804  1.00 20.00     0.085 C 
HETATM    9 BR9  UNL     1     -31.928   8.649   1.405  1.00 20.00    -0.096 Br
ENDBRANCH   7   8
ENDBRANCH   5   7
TORSDOF 2
ENDMDL
MODEL 3
REMARK VINA RESULT:      -4.0     11.299     11.780
REMARK  2 active torsions:
REMARK  status: ('A' for Active; 'I' for Inactive)
REMARK    1  A    between atoms: C5_5  and  C6_6 
REMARK    2  A    between atoms: C6_6  and  C7_7 
ROOT
HETATM    1  C1  UNL     1     -33.389  13.771  -3.904  1.00 20.00     0.027 C 
HETATM    2  C2  UNL     1     -33.529  15.142  -3.252  1.00 20.00     0.009 C 
HETATM    3  C3  UNL     1     -34.568  13.490  -4.827  1.00 20.00     0.167 C 
HETATM    4  C4  UNL     1     -36.004  14.927  -3.608  1.00 20.00     0.172 C 
HETATM    5  C5  UNL     1     -34.909  15.293  -2.603  1.00 20.00     0.010 C 
HETATM    6  O8  UNL     1     -35.801  13.609  -4.119  1.00 20.00    -0.391 OA
ENDROOT
BRANCH   5   7
HETATM    7  C6  UNL     1     -35.110  16.702  -2.057  1.00 20.00     0.017 C 
BRANCH   7   8
HETATM    8  C7  UNL     1     -34.622  16.807  -0.625  1.00 20.00     0.085 C 
HETATM    9 BR9  UNL     1     -33.311  18.240  -0.483  1.00 20.00    -0.096 Br
ENDBRANCH   7   8
ENDBRANCH   5   7
TORSDOF 2
ENDMDL
MODEL 4
REMARK VINA RESULT:      -4.0     11.082     12.275
REMARK  2 active torsions:
REMARK  status: ('A' for Active; 'I' for Inactive)
REMARK    1  A    between atoms: C5_5  and  C6_6 
REMARK    2  A    between atoms: C6_6  and  C7_7 
ROOT
HETATM    1  C1  UNL     1     -34.393  14.841  -6.185  1.00 20.00     0.027 C 
HETATM    2  C2  UNL     1     -34.300  15.859  -5.054  1.00 20.00     0.009 C 
HETATM    3  C3  UNL     1     -34.927  13.510  -5.671  1.00 20.00     0.167 C 
HETATM    4  C4  UNL     1     -34.126  13.914  -3.477  1.00 20.00     0.172 C 
HETATM    5  C5  UNL     1     -33.537  15.273  -3.861  1.00 20.00     0.010 C 
HETATM    6  O8  UNL     1     -34.122  13.026  -4.597  1.00 20.00    -0.391 OA
ENDROOT
BRANCH   5   7
HETATM    7  C6  UNL     1     -33.545  16.232  -2.677  1.00 20.00     0.017 C 
BRANCH   7   8
HETATM    8  C7  UNL     1     -34.835  16.113  -1.888  1.00 20.00     0.085 C 
HETATM    9 BR9  UNL     1     -34.713  17.185  -0.267  1.00 20.00    -0.096 Br
ENDBRANCH   7   8
ENDBRANCH   5   7
TORSDOF 2
ENDMDL
MODEL 5
REMARK VINA RESULT:      -3.8     11.809     12.574
REMARK  2 active torsions:
REMARK  status: ('A' for Active; 'I' for Inactive)
REMARK    1  A    between atoms: C5_5  and  C6_6 
REMARK    2  A    between atoms: C6_6  and  C7_7 
ROOT
HETATM    1  C1  UNL     1     -33.981  17.921   0.059  1.00 20.00     0.027 C 
HETATM    2  C2  UNL     1     -34.621  16.734  -0.651  1.00 20.00     0.009 C 
HETATM    3  C3  UNL     1     -33.961  19.145  -0.847  1.00 20.00     0.167 C 
HETATM    4  C4  UNL     1     -33.958  17.823  -2.814  1.00 20.00     0.172 C 
HETATM    5  C5  UNL     1     -33.974  16.512  -2.023  1.00 20.00     0.010 C 
HETATM    6  O8  UNL     1     -33.296  18.851  -2.075  1.00 20.00    -0.391 OA
ENDROOT
BRANCH   5   7
HETATM    7  C6  UNL     1     -34.686  15.410  -2.797  1.00 20.00     0.017 C 
BRANCH   7   8
HETATM    8  C7  UNL     1     -33.699  14.573  -3.588  1.00 20.00     0.085 C 
HETATM    9 BR9  UNL     1     -34.664  13.364  -4.770  1.00 20.00    -0.096 Br
ENDBRANCH   7   8
ENDBRANCH   5   7
TORSDOF 2
ENDMDL
MODEL 6
REMARK VINA RESULT:      -3.8      9.625     10.720
REMARK  2 active torsions:
REMARK  status: ('A' for Active; 'I' for Inactive)
REMARK    1  A    between atoms: C5_5  and  C6_6 
REMARK    2  A    between atoms: C6_6  and  C7_7 
ROOT
HETATM    1  C1  UNL     1     -40.732   6.053  -0.052  1.00 20.00     0.027 C 
HETATM    2  C2  UNL     1     -41.605   4.819  -0.250  1.00 20.00     0.009 C 
HETATM    3  C3  UNL     1     -41.220   7.204  -0.923  1.00 20.00     0.167 C 
HETATM    4  C4  UNL     1     -42.181   5.735  -2.515  1.00 20.00     0.172 C 
HETATM    5  C5  UNL     1     -41.745   4.489  -1.740  1.00 20.00     0.010 C 
HETATM    6  O8  UNL     1     -41.270   6.813  -2.294  1.00 20.00    -0.391 OA
ENDROOT
BRANCH   5   7
HETATM    7  C6  UNL     1     -42.716   3.335  -1.961  1.00 20.00     0.017 C 
BRANCH   7   8
HETATM    8  C7  UNL     1     -42.860   3.018  -3.437  1.00 20.00     0.085 C 
HETATM    9 BR9  UNL     1     -41.541   1.680  -3.950  1.00 20.00    -0.096 Br
ENDBRANCH   7   8
ENDBRANCH   5   7
TORSDOF 2
ENDMDL
MODEL 7
REMARK VINA RESULT:      -3.5     11.809     12.895
REMARK  2 active torsions:
REMARK  status: ('A' for Active; 'I' for Inactive)
REMARK    1  A    between atoms: C5_5  and  C6_6 
REMARK    2  A    between atoms: C6_6  and  C7_7 
ROOT
HETATM    1  C1  UNL     1     -33.488  17.341  -4.786  1.00 20.00     0.027 C 
HETATM    2  C2  UNL     1     -34.067  17.553  -3.391  1.00 20.00     0.009 C 
HETATM    3  C3  UNL     1     -34.080  16.095  -5.432  1.00 20.00     0.167 C 
HETATM    4  C4  UNL     1     -34.519  15.084  -3.334  1.00 20.00     0.172 C 
HETATM    5  C5  UNL     1     -33.947  16.272  -2.557  1.00 20.00     0.010 C 
HETATM    6  O8  UNL     1     -33.876  14.952  -4.602  1.00 20.00    -0.391 OA
ENDROOT
BRANCH   5   7
HETATM    7  C6  UNL     1     -34.633  16.429  -1.205  1.00 20.00     0.017 C 
BRANCH   7   8
HETATM    8  C7  UNL     1     -34.063  17.607  -0.438  1.00 20.00     0.085 C 
HETATM    9 BR9  UNL     1     -35.118  17.913   1.170  1.00 20.00    -0.096 Br
ENDBRANCH   7   8
ENDBRANCH   5   7
TORSDOF 2
ENDMDL
MODEL 8
REMARK VINA RESULT:      -3.5     11.768     12.734
REMARK  2 active torsions:
REMARK  status: ('A' for Active; 'I' for Inactive)
REMARK    1  A    between atoms: C5_5  and  C6_6 
REMARK    2  A    between atoms: C6_6  and  C7_7 
ROOT
HETATM    1  C1  UNL     1     -33.811  17.315  -1.646  1.00 20.00     0.027 C 
HETATM    2  C2  UNL     1     -34.490  15.978  -1.925  1.00 20.00     0.009 C 
HETATM    3  C3  UNL     1     -33.907  18.232  -2.857  1.00 20.00     0.167 C 
HETATM    4  C4  UNL     1     -34.068  16.409  -4.362  1.00 20.00     0.172 C 
HETATM    5  C5  UNL     1     -33.976  15.375  -3.237  1.00 20.00     0.010 C 
HETATM    6  O8  UNL     1     -33.361  17.600  -4.013  1.00 20.00    -0.391 OA
ENDROOT
BRANCH   5   7
HETATM    7  C6  UNL     1     -34.736  14.103  -3.594  1.00 20.00     0.017 C 
BRANCH   7   8
HETATM    8  C7  UNL     1     -35.703  14.348  -4.737  1.00 20.00     0.085 C 
HETATM    9 BR9  UNL     1     -37.463  14.781  -4.024  1.00 20.00    -0.096 Br
ENDBRANCH   7   8
ENDBRANCH   5   7
TORSDOF 2
ENDMDL
MODEL 9
REMARK VINA RESULT:      -3.5     11.517     12.346
REMARK  2 active torsions:
REMARK  status: ('A' for Active; 'I' for Inactive)
REMARK    1  A    between atoms: C5_5  and  C6_6 
REMARK    2  A    between atoms: C6_6  and  C7_7 
ROOT
HETATM    1  C1  UNL     1     -33.746  15.570  -3.062  1.00 20.00     0.027 C 
HETATM    2  C2  UNL     1     -35.097  15.844  -3.713  1.00 20.00     0.009 C 
HETATM    3  C3  UNL     1     -33.095  14.334  -3.670  1.00 20.00     0.167 C 
HETATM    4  C4  UNL     1     -35.186  13.400  -4.279  1.00 20.00     0.172 C 
HETATM    5  C5  UNL     1     -35.968  14.582  -3.701  1.00 20.00     0.010 C 
HETATM    6  O8  UNL     1     -33.963  13.206  -3.567  1.00 20.00    -0.391 OA
ENDROOT
BRANCH   5   7
HETATM    7  C6  UNL     1     -37.271  14.805  -4.460  1.00 20.00     0.017 C 
BRANCH   7   8
HETATM    8  C7  UNL     1     -37.133  15.937  -5.460  1.00 20.00     0.085 C 
HETATM    9 BR9  UNL     1     -36.895  15.204  -7.248  1.00 20.00    -0.096 Br
ENDBRANCH   7   8
ENDBRANCH   5   7
TORSDOF 2
ENDMDL
