MODEL 1
REMARK VINA RESULT:      -5.9      0.000      0.000
REMARK  2 active torsions:
REMARK  status: ('A' for Active; 'I' for Inactive)
REMARK    1  A    between atoms: C7_7  and  C10_10 
REMARK    2  A    between atoms: C9_9  and  C10_10 
ROOT
HETATM    1  C1  UNL     1     -32.399   9.499   1.256  1.00 20.00     0.012 C 
HETATM    2  C2  UNL     1     -32.167   8.473   1.833  1.00 20.00    -0.117 C 
HETATM    3  C9  UNL     1     -31.880   7.214   2.536  1.00 20.00     0.093 C 
ENDROOT
BRANCH   3   4
HETATM    4  C10 UNL     1     -32.500   7.239   3.919  1.00 20.00     0.017 C 
BRANCH   4   5
HETATM    5  C7  UNL     1     -33.329   5.985   4.159  1.00 20.00    -0.002 C 
HETATM    6  C5  UNL     1     -34.703   6.052   3.486  1.00 20.00     0.013 C 
HETATM    7  C4  UNL     1     -35.480   4.896   4.101  1.00 20.00     0.079 C 
HETATM    8  C3  UNL     1     -34.904   4.837   5.493  1.00 20.00     0.131 C 
HETATM    9  C6  UNL     1     -33.638   5.661   5.634  1.00 20.00     0.055 C 
HETATM   10  O11 UNL     1     -35.404   4.189   6.404  1.00 20.00    -0.298 OA
HETATM   11  C8  UNL     1     -33.904   6.856   6.538  1.00 20.00     0.018 C 
ENDBRANCH   4   5
ENDBRANCH   3   4
TORSDOF 2
ENDMDL
MODEL 2
REMARK VINA RESULT:      -5.3     10.949     11.936
REMARK  2 active torsions:
REMARK  status: ('A' for Active; 'I' for Inactive)
REMARK    1  A    between atoms: C7_7  and  C10_10 
REMARK    2  A    between atoms: C9_9  and  C10_10 
ROOT
HETATM    1  C1  UNL     1     -35.168  17.422   0.941  1.00 20.00     0.012 C 
HETATM    2  C2  UNL     1     -34.514  17.439  -0.066  1.00 20.00    -0.117 C 
HETATM    3  C9  UNL     1     -33.710  17.462  -1.296  1.00 20.00     0.093 C 
ENDROOT
BRANCH   3   4
HETATM    4  C10 UNL     1     -34.534  16.958  -2.464  1.00 20.00     0.017 C 
BRANCH   4   5
HETATM    5  C7  UNL     1     -34.325  15.463  -2.664  1.00 20.00    -0.002 C 
HETATM    6  C5  UNL     1     -33.026  15.146  -3.408  1.00 20.00     0.013 C 
HETATM    7  C4  UNL     1     -33.160  13.680  -3.793  1.00 20.00     0.079 C 
HETATM    8  C3  UNL     1     -34.646  13.547  -4.006  1.00 20.00     0.131 C 
HETATM    9  C6  UNL     1     -35.418  14.738  -3.472  1.00 20.00     0.055 C 
HETATM   10  O11 UNL     1     -35.168  12.578  -4.545  1.00 20.00    -0.298 OA
HETATM   11  C8  UNL     1     -36.018  15.519  -4.633  1.00 20.00     0.018 C 
ENDBRANCH   4   5
ENDBRANCH   3   4
TORSDOF 2
ENDMDL
MODEL 3
REMARK VINA RESULT:      -5.0     11.359     12.631
REMARK  2 active torsions:
REMARK  status: ('A' for Active; 'I' for Inactive)
REMARK    1  A    between atoms: C7_7  and  C10_10 
REMARK    2  A    between atoms: C9_9  and  C10_10 
ROOT
HETATM    1  C1  UNL     1     -33.820  18.243   0.394  1.00 20.00     0.012 C 
HETATM    2  C2  UNL     1     -34.256  17.390  -0.328  1.00 20.00    -0.117 C 
HETATM    3  C9  UNL     1     -34.794  16.344  -1.209  1.00 20.00     0.093 C 
ENDROOT
BRANCH   3   4
HETATM    4  C10 UNL     1     -33.899  16.174  -2.420  1.00 20.00     0.017 C 
BRANCH   4   5
HETATM    5  C7  UNL     1     -34.559  15.275  -3.455  1.00 20.00    -0.002 C 
HETATM    6  C5  UNL     1     -33.898  13.897  -3.543  1.00 20.00     0.013 C 
HETATM    7  C4  UNL     1     -34.462  13.289  -4.820  1.00 20.00     0.079 C 
HETATM    8  C3  UNL     1     -34.656  14.507  -5.687  1.00 20.00     0.131 C 
HETATM    9  C6  UNL     1     -34.545  15.801  -4.904  1.00 20.00     0.055 C 
HETATM   10  O11 UNL     1     -34.886  14.452  -6.889  1.00 20.00    -0.298 OA
HETATM   11  C8  UNL     1     -33.290  16.549  -5.330  1.00 20.00     0.018 C 
ENDBRANCH   4   5
ENDBRANCH   3   4
TORSDOF 2
ENDMDL
MODEL 4
REMARK VINA RESULT:      -4.9      0.941      1.943
REMARK  2 active torsions:
REMARK  status: ('A' for Active; 'I' for Inactive)
REMARK    1  A    between atoms: C7_7  and  C10_10 
REMARK    2  A    between atoms: C9_9  and  C10_10 
ROOT
HETATM    1  C1  UNL     1     -32.160   8.964   1.474  1.00 20.00     0.012 C 
HETATM    2  C2  UNL     1     -32.169   7.964   2.136  1.00 20.00    -0.117 C 
HETATM    3  C9  UNL     1     -32.176   6.739   2.949  1.00 20.00     0.093 C 
ENDROOT
BRANCH   3   4
HETATM    4  C10 UNL     1     -33.551   6.102   2.917  1.00 20.00     0.017 C 
BRANCH   4   5
HETATM    5  C7  UNL     1     -34.250   6.266   4.259  1.00 20.00    -0.002 C 
HETATM    6  C5  UNL     1     -33.274   6.574   5.396  1.00 20.00     0.013 C 
HETATM    7  C4  UNL     1     -34.095   6.374   6.662  1.00 20.00     0.079 C 
HETATM    8  C3  UNL     1     -35.041   5.275   6.251  1.00 20.00     0.131 C 
HETATM    9  C6  UNL     1     -35.043   5.040   4.753  1.00 20.00     0.055 C 
HETATM   10  O11 UNL     1     -35.736   4.650   7.043  1.00 20.00    -0.298 OA
HETATM   11  C8  UNL     1     -34.428   3.681   4.449  1.00 20.00     0.018 C 
ENDBRANCH   4   5
ENDBRANCH   3   4
TORSDOF 2
ENDMDL
MODEL 5
REMARK VINA RESULT:      -4.7     11.730     12.745
REMARK  2 active torsions:
REMARK  status: ('A' for Active; 'I' for Inactive)
REMARK    1  A    between atoms: C7_7  and  C10_10 
REMARK    2  A    between atoms: C9_9  and  C10_10 
ROOT
HETATM    1  C1  UNL     1     -35.149  17.711   1.319  1.00 20.00     0.012 C 
HETATM    2  C2  UNL     1     -34.645  17.505   0.249  1.00 20.00    -0.117 C 
HETATM    3  C9  UNL     1     -34.025  17.256  -1.060  1.00 20.00     0.093 C 
ENDROOT
BRANCH   3   4
HETATM    4  C10 UNL     1     -34.579  15.981  -1.663  1.00 20.00     0.017 C 
BRANCH   4   5
HETATM    5  C7  UNL     1     -33.926  15.694  -3.007  1.00 20.00    -0.002 C 
HETATM    6  C5  UNL     1     -33.729  16.959  -3.846  1.00 20.00     0.013 C 
HETATM    7  C4  UNL     1     -33.387  16.440  -5.236  1.00 20.00     0.079 C 
HETATM    8  C3  UNL     1     -34.176  15.157  -5.294  1.00 20.00     0.131 C 
HETATM    9  C6  UNL     1     -34.698  14.734  -3.934  1.00 20.00     0.055 C 
HETATM   10  O11 UNL     1     -34.365  14.526  -6.326  1.00 20.00    -0.298 OA
HETATM   11  C8  UNL     1     -36.215  14.858  -3.908  1.00 20.00     0.018 C 
ENDBRANCH   4   5
ENDBRANCH   3   4
TORSDOF 2
ENDMDL
MODEL 6
REMARK VINA RESULT:      -4.7     11.757     13.052
REMARK  2 active torsions:
REMARK  status: ('A' for Active; 'I' for Inactive)
REMARK    1  A    between atoms: C7_7  and  C10_10 
REMARK    2  A    between atoms: C9_9  and  C10_10 
ROOT
HETATM    1  C1  UNL     1     -34.802  16.956  -0.396  1.00 20.00     0.012 C 
HETATM    2  C2  UNL     1     -34.314  16.658  -1.451  1.00 20.00    -0.117 C 
HETATM    3  C9  UNL     1     -33.714  16.298  -2.743  1.00 20.00     0.093 C 
ENDROOT
BRANCH   3   4
HETATM    4  C10 UNL     1     -34.078  14.872  -3.105  1.00 20.00     0.017 C 
BRANCH   4   5
HETATM    5  C7  UNL     1     -34.099  14.688  -4.616  1.00 20.00    -0.002 C 
HETATM    6  C5  UNL     1     -33.756  15.977  -5.368  1.00 20.00     0.013 C 
HETATM    7  C4  UNL     1     -34.146  15.686  -6.810  1.00 20.00     0.079 C 
HETATM    8  C3  UNL     1     -35.320  14.757  -6.636  1.00 20.00     0.131 C 
HETATM    9  C6  UNL     1     -35.445  14.238  -5.216  1.00 20.00     0.055 C 
HETATM   10  O11 UNL     1     -36.081  14.452  -7.546  1.00 20.00    -0.298 OA
HETATM   11  C8  UNL     1     -36.693  14.822  -4.568  1.00 20.00     0.018 C 
ENDBRANCH   4   5
ENDBRANCH   3   4
TORSDOF 2
ENDMDL
MODEL 7
REMARK VINA RESULT:      -4.7     11.254     12.302
REMARK  2 active torsions:
REMARK  status: ('A' for Active; 'I' for Inactive)
REMARK    1  A    between atoms: C7_7  and  C10_10 
REMARK    2  A    between atoms: C9_9  and  C10_10 
ROOT
HETATM    1  C1  UNL     1     -33.816  18.385   0.590  1.00 20.00     0.012 C 
HETATM    2  C2  UNL     1     -34.202  17.533  -0.162  1.00 20.00    -0.117 C 
HETATM    3  C9  UNL     1     -34.678  16.489  -1.080  1.00 20.00     0.093 C 
ENDROOT
BRANCH   3   4
HETATM    4  C10 UNL     1     -33.778  16.418  -2.298  1.00 20.00     0.017 C 
BRANCH   4   5
HETATM    5  C7  UNL     1     -34.577  16.035  -3.535  1.00 20.00    -0.002 C 
HETATM    6  C5  UNL     1     -35.965  15.491  -3.192  1.00 20.00     0.013 C 
HETATM    7  C4  UNL     1     -36.459  14.872  -4.492  1.00 20.00     0.079 C 
HETATM    8  C3  UNL     1     -35.176  14.385  -5.115  1.00 20.00     0.131 C 
HETATM    9  C6  UNL     1     -33.947  14.949  -4.428  1.00 20.00     0.055 C 
HETATM   10  O11 UNL     1     -35.136  13.624  -6.074  1.00 20.00    -0.298 OA
HETATM   11  C8  UNL     1     -33.211  13.832  -3.701  1.00 20.00     0.018 C 
ENDBRANCH   4   5
ENDBRANCH   3   4
TORSDOF 2
ENDMDL
MODEL 8
REMARK VINA RESULT:      -4.6     11.831     13.044
REMARK  2 active torsions:
REMARK  status: ('A' for Active; 'I' for Inactive)
REMARK    1  A    between atoms: C7_7  and  C10_10 
REMARK    2  A    between atoms: C9_9  and  C10_10 
ROOT
HETATM    1  C1  UNL     1     -34.923  14.442  -6.780  1.00 20.00     0.012 C 
HETATM    2  C2  UNL     1     -34.714  14.169  -5.630  1.00 20.00    -0.117 C 
HETATM    3  C9  UNL     1     -34.455  13.830  -4.224  1.00 20.00     0.093 C 
ENDROOT
BRANCH   3   4
HETATM    4  C10 UNL     1     -35.195  14.790  -3.314  1.00 20.00     0.017 C 
BRANCH   4   5
HETATM    5  C7  UNL     1     -34.247  15.841  -2.755  1.00 20.00    -0.002 C 
HETATM    6  C5  UNL     1     -34.621  16.274  -1.335  1.00 20.00     0.013 C 
HETATM    7  C4  UNL     1     -33.790  17.525  -1.092  1.00 20.00     0.079 C 
HETATM    8  C3  UNL     1     -33.713  18.124  -2.473  1.00 20.00     0.131 C 
HETATM    9  C6  UNL     1     -34.167  17.159  -3.551  1.00 20.00     0.055 C 
HETATM   10  O11 UNL     1     -33.320  19.263  -2.695  1.00 20.00    -0.298 OA
HETATM   11  C8  UNL     1     -35.472  17.651  -4.159  1.00 20.00     0.018 C 
ENDBRANCH   4   5
ENDBRANCH   3   4
TORSDOF 2
ENDMDL
MODEL 9
REMARK VINA RESULT:      -4.4     10.939     13.144
REMARK  2 active torsions:
REMARK  status: ('A' for Active; 'I' for Inactive)
REMARK    1  A    between atoms: C7_7  and  C10_10 
REMARK    2  A    between atoms: C9_9  and  C10_10 
ROOT
HETATM    1  C1  UNL     1     -36.675  18.408  -4.138  1.00 20.00     0.012 C 
HETATM    2  C2  UNL     1     -35.475  18.403  -4.119  1.00 20.00    -0.117 C 
HETATM    3  C9  UNL     1     -34.006  18.401  -4.094  1.00 20.00     0.093 C 
ENDROOT
BRANCH   3   4
HETATM    4  C10 UNL     1     -33.473  17.251  -4.925  1.00 20.00     0.017 C 
BRANCH   4   5
HETATM    5  C7  UNL     1     -33.857  15.915  -4.303  1.00 20.00    -0.002 C 
HETATM    6  C5  UNL     1     -32.637  15.092  -3.883  1.00 20.00     0.013 C 
HETATM    7  C4  UNL     1     -33.196  13.704  -3.606  1.00 20.00     0.079 C 
HETATM    8  C3  UNL     1     -34.331  13.620  -4.595  1.00 20.00     0.131 C 
HETATM    9  C6  UNL     1     -34.669  14.967  -5.205  1.00 20.00     0.055 C 
HETATM   10  O11 UNL     1     -34.916  12.579  -4.866  1.00 20.00    -0.298 OA
HETATM   11  C8  UNL     1     -34.296  14.967  -6.681  1.00 20.00     0.018 C 
ENDBRANCH   4   5
ENDBRANCH   3   4
TORSDOF 2
ENDMDL
