MODEL 1
REMARK VINA RESULT:      -4.2      0.000      0.000
REMARK  2 active torsions:
REMARK  status: ('A' for Active; 'I' for Inactive)
REMARK    1  A    between atoms: C4_4  and  C5_5 
REMARK    2  A    between atoms: C5_5  and  C7_7 
ROOT
HETATM    1  C3  UNL     1     -34.834   3.984   4.655  1.00 20.00     0.207 A 
HETATM    2  C5  UNL     1     -34.492   5.418   4.981  1.00 20.00     0.085 A 
HETATM    3  O8  UNL     1     -35.832   5.016   4.662  1.00 20.00    -0.375 OA
ENDROOT
BRANCH   2   4
HETATM    4  C4  UNL     1     -33.840   6.341   3.961  1.00 20.00     0.022 A 
HETATM    5  C1  UNL     1     -32.375   6.281   3.632  1.00 20.00     0.008 A 
HETATM    6  C2  UNL     1     -33.392   5.867   2.607  1.00 20.00     0.008 A 
ENDBRANCH   2   4
BRANCH   2   7
HETATM    7  C7  UNL     1     -34.320   5.788   6.424  1.00 20.00     0.036 C 
HETATM    8  C6  UNL     1     -33.697   7.145   6.604  1.00 20.00     0.008 C 
ENDBRANCH   2   7
TORSDOF 2
ENDMDL
MODEL 2
REMARK VINA RESULT:      -4.2      1.296      2.981
REMARK  2 active torsions:
REMARK  status: ('A' for Active; 'I' for Inactive)
REMARK    1  A    between atoms: C4_4  and  C5_5 
REMARK    2  A    between atoms: C5_5  and  C7_7 
ROOT
HETATM    1  C3  UNL     1     -35.567   5.807   3.198  1.00 20.00     0.207 A 
HETATM    2  C5  UNL     1     -34.240   5.885   3.913  1.00 20.00     0.085 A 
HETATM    3  O8  UNL     1     -34.453   4.987   2.815  1.00 20.00    -0.375 OA
ENDROOT
BRANCH   2   4
HETATM    4  C4  UNL     1     -34.011   5.209   5.259  1.00 20.00     0.022 A 
HETATM    5  C1  UNL     1     -34.360   5.864   6.565  1.00 20.00     0.008 A 
HETATM    6  C2  UNL     1     -35.135   4.666   6.096  1.00 20.00     0.008 A 
ENDBRANCH   2   4
BRANCH   2   7
HETATM    7  C7  UNL     1     -33.323   7.020   3.571  1.00 20.00     0.036 C 
HETATM    8  C6  UNL     1     -31.959   6.555   3.141  1.00 20.00     0.008 C 
ENDBRANCH   2   7
TORSDOF 2
ENDMDL
MODEL 3
REMARK VINA RESULT:      -3.9     12.050     13.300
REMARK  2 active torsions:
REMARK  status: ('A' for Active; 'I' for Inactive)
REMARK    1  A    between atoms: C4_4  and  C5_5 
REMARK    2  A    between atoms: C5_5  and  C7_7 
ROOT
HETATM    1  C3  UNL     1     -33.857  13.506  -4.166  1.00 20.00     0.207 A 
HETATM    2  C5  UNL     1     -35.099  14.100  -4.786  1.00 20.00     0.085 A 
HETATM    3  O8  UNL     1     -35.069  12.750  -4.304  1.00 20.00    -0.375 OA
ENDROOT
BRANCH   2   4
HETATM    4  C4  UNL     1     -35.258  14.239  -6.294  1.00 20.00     0.022 A 
HETATM    5  C1  UNL     1     -35.753  15.500  -6.945  1.00 20.00     0.008 A 
HETATM    6  C2  UNL     1     -34.326  15.066  -7.135  1.00 20.00     0.008 A 
ENDBRANCH   2   4
BRANCH   2   7
HETATM    7  C7  UNL     1     -35.942  15.006  -3.940  1.00 20.00     0.036 C 
HETATM    8  C6  UNL     1     -37.394  14.614  -3.938  1.00 20.00     0.008 C 
ENDBRANCH   2   7
TORSDOF 2
ENDMDL
MODEL 4
REMARK VINA RESULT:      -3.8     12.224     13.368
REMARK  2 active torsions:
REMARK  status: ('A' for Active; 'I' for Inactive)
REMARK    1  A    between atoms: C4_4  and  C5_5 
REMARK    2  A    between atoms: C5_5  and  C7_7 
ROOT
HETATM    1  C3  UNL     1     -33.167  16.483  -5.028  1.00 20.00     0.207 A 
HETATM    2  C5  UNL     1     -33.967  15.883  -3.897  1.00 20.00     0.085 A 
HETATM    3  O8  UNL     1     -34.538  16.095  -5.195  1.00 20.00    -0.375 OA
ENDROOT
BRANCH   2   4
HETATM    4  C4  UNL     1     -34.561  16.742  -2.788  1.00 20.00     0.022 A 
HETATM    5  C1  UNL     1     -34.664  16.271  -1.365  1.00 20.00     0.008 A 
HETATM    6  C2  UNL     1     -33.719  17.384  -1.721  1.00 20.00     0.008 A 
ENDBRANCH   2   4
BRANCH   2   7
HETATM    7  C7  UNL     1     -33.756  14.434  -3.579  1.00 20.00     0.036 C 
HETATM    8  C6  UNL     1     -34.901  13.568  -4.030  1.00 20.00     0.008 C 
ENDBRANCH   2   7
TORSDOF 2
ENDMDL
MODEL 5
REMARK VINA RESULT:      -3.8     12.155     13.061
REMARK  2 active torsions:
REMARK  status: ('A' for Active; 'I' for Inactive)
REMARK    1  A    between atoms: C4_4  and  C5_5 
REMARK    2  A    between atoms: C5_5  and  C7_7 
ROOT
HETATM    1  C3  UNL     1     -37.443  15.344  -3.587  1.00 20.00     0.207 A 
HETATM    2  C5  UNL     1     -35.993  15.098  -3.927  1.00 20.00     0.085 A 
HETATM    3  O8  UNL     1     -36.942  14.025  -3.850  1.00 20.00    -0.375 OA
ENDROOT
BRANCH   2   4
HETATM    4  C4  UNL     1     -34.909  15.073  -2.857  1.00 20.00     0.022 A 
HETATM    5  C1  UNL     1     -33.708  15.974  -2.899  1.00 20.00     0.008 A 
HETATM    6  C2  UNL     1     -34.752  16.163  -1.835  1.00 20.00     0.008 A 
ENDBRANCH   2   4
BRANCH   2   7
HETATM    7  C7  UNL     1     -35.543  15.382  -5.328  1.00 20.00     0.036 C 
HETATM    8  C6  UNL     1     -34.878  14.197  -5.975  1.00 20.00     0.008 C 
ENDBRANCH   2   7
TORSDOF 2
ENDMDL
MODEL 6
REMARK VINA RESULT:      -3.8      1.278      2.406
REMARK  2 active torsions:
REMARK  status: ('A' for Active; 'I' for Inactive)
REMARK    1  A    between atoms: C4_4  and  C5_5 
REMARK    2  A    between atoms: C5_5  and  C7_7 
ROOT
HETATM    1  C3  UNL     1     -34.071   6.911   6.339  1.00 20.00     0.207 A 
HETATM    2  C5  UNL     1     -33.922   6.021   5.128  1.00 20.00     0.085 A 
HETATM    3  O8  UNL     1     -33.542   5.580   6.439  1.00 20.00    -0.375 OA
ENDROOT
BRANCH   2   4
HETATM    4  C4  UNL     1     -32.768   6.184   4.148  1.00 20.00     0.022 A 
HETATM    5  C1  UNL     1     -32.895   5.863   2.685  1.00 20.00     0.008 A 
HETATM    6  C2  UNL     1     -32.719   7.288   3.128  1.00 20.00     0.008 A 
ENDBRANCH   2   4
BRANCH   2   7
HETATM    7  C7  UNL     1     -35.147   5.330   4.610  1.00 20.00     0.036 C 
HETATM    8  C6  UNL     1     -35.220   3.886   5.028  1.00 20.00     0.008 C 
ENDBRANCH   2   7
TORSDOF 2
ENDMDL
MODEL 7
REMARK VINA RESULT:      -3.8     12.074     12.650
REMARK  2 active torsions:
REMARK  status: ('A' for Active; 'I' for Inactive)
REMARK    1  A    between atoms: C4_4  and  C5_5 
REMARK    2  A    between atoms: C5_5  and  C7_7 
ROOT
HETATM    1  C3  UNL     1     -36.863  15.435  -3.462  1.00 20.00     0.207 A 
HETATM    2  C5  UNL     1     -35.362  15.496  -3.307  1.00 20.00     0.085 A 
HETATM    3  O8  UNL     1     -36.101  16.563  -3.916  1.00 20.00    -0.375 OA
ENDROOT
BRANCH   2   4
HETATM    4  C4  UNL     1     -34.425  14.747  -4.245  1.00 20.00     0.022 A 
HETATM    5  C1  UNL     1     -33.444  13.717  -3.761  1.00 20.00     0.008 A 
HETATM    6  C2  UNL     1     -34.619  13.300  -4.601  1.00 20.00     0.008 A 
ENDBRANCH   2   4
BRANCH   2   7
HETATM    7  C7  UNL     1     -34.810  15.859  -1.962  1.00 20.00     0.036 C 
HETATM    8  C6  UNL     1     -33.792  16.965  -2.031  1.00 20.00     0.008 C 
ENDBRANCH   2   7
TORSDOF 2
ENDMDL
MODEL 8
REMARK VINA RESULT:      -3.8     12.094     13.226
REMARK  2 active torsions:
REMARK  status: ('A' for Active; 'I' for Inactive)
REMARK    1  A    between atoms: C4_4  and  C5_5 
REMARK    2  A    between atoms: C5_5  and  C7_7 
ROOT
HETATM    1  C3  UNL     1     -33.727  17.150  -4.911  1.00 20.00     0.207 A 
HETATM    2  C5  UNL     1     -33.867  16.153  -3.786  1.00 20.00     0.085 A 
HETATM    3  O8  UNL     1     -32.704  16.185  -4.624  1.00 20.00    -0.375 OA
ENDROOT
BRANCH   2   4
HETATM    4  C4  UNL     1     -34.722  14.901  -3.922  1.00 20.00     0.022 A 
HETATM    5  C1  UNL     1     -34.581  13.943  -5.071  1.00 20.00     0.008 A 
HETATM    6  C2  UNL     1     -34.180  13.519  -3.686  1.00 20.00     0.008 A 
ENDBRANCH   2   4
BRANCH   2   7
HETATM    7  C7  UNL     1     -33.596  16.628  -2.390  1.00 20.00     0.036 C 
HETATM    8  C6  UNL     1     -34.725  16.325  -1.443  1.00 20.00     0.008 C 
ENDBRANCH   2   7
TORSDOF 2
ENDMDL
MODEL 9
REMARK VINA RESULT:      -3.7      1.654      3.276
REMARK  2 active torsions:
REMARK  status: ('A' for Active; 'I' for Inactive)
REMARK    1  A    between atoms: C4_4  and  C5_5 
REMARK    2  A    between atoms: C5_5  and  C7_7 
ROOT
HETATM    1  C3  UNL     1     -32.363   6.431   3.219  1.00 20.00     0.207 A 
HETATM    2  C5  UNL     1     -33.546   5.938   4.016  1.00 20.00     0.085 A 
HETATM    3  O8  UNL     1     -33.437   7.305   3.598  1.00 20.00    -0.375 OA
ENDROOT
BRANCH   2   4
HETATM    4  C4  UNL     1     -33.468   5.720   5.521  1.00 20.00     0.022 A 
HETATM    5  C1  UNL     1     -33.962   6.732   6.515  1.00 20.00     0.008 A 
HETATM    6  C2  UNL     1     -34.677   5.419   6.362  1.00 20.00     0.008 A 
ENDBRANCH   2   4
BRANCH   2   7
HETATM    7  C7  UNL     1     -34.619   5.186   3.288  1.00 20.00     0.036 C 
HETATM    8  C6  UNL     1     -35.957   5.871   3.356  1.00 20.00     0.008 C 
ENDBRANCH   2   7
TORSDOF 2
ENDMDL
