MODEL 1
REMARK VINA RESULT:      -4.3      0.000      0.000
REMARK  3 active torsions:
REMARK  status: ('A' for Active; 'I' for Inactive)
REMARK    1  A    between atoms: C1_1  and  C4_4 
REMARK    2  A    between atoms: C1_1  and  C6_6 
REMARK    3  A    between atoms: N7_7  and  O8_8 
ROOT
HETATM    1  C1  UNL     1     -33.912   6.163   5.122  1.00 20.00     0.043 C 
HETATM    2  N7  UNL     1     -33.995   6.499   6.373  1.00 20.00    -0.145 NA
ENDROOT
BRANCH   1   3
HETATM    3  C4  UNL     1     -32.790   6.755   4.305  1.00 20.00     0.036 A 
HETATM    4  C2  UNL     1     -32.213   5.931   3.213  1.00 20.00     0.011 A 
HETATM    5  C3  UNL     1     -33.074   7.116   2.894  1.00 20.00     0.011 A 
ENDBRANCH   1   3
BRANCH   1   6
HETATM    6  C6  UNL     1     -34.883   5.244   4.402  1.00 20.00     0.053 C 
HETATM    7  C5  UNL     1     -35.114   3.977   5.203  1.00 20.00     0.011 C 
ENDBRANCH   1   6
BRANCH   2   8
HETATM    8  O8  UNL     1     -32.980   7.385   6.732  1.00 20.00    -0.266 OA
HETATM    9  H19 UNL     1     -32.473   7.449   5.905  1.00 20.00     0.247 HD
ENDBRANCH   2   8
TORSDOF 3
ENDMDL
MODEL 2
REMARK VINA RESULT:      -4.2      0.950      2.968
REMARK  3 active torsions:
REMARK  status: ('A' for Active; 'I' for Inactive)
REMARK    1  A    between atoms: C1_1  and  C4_4 
REMARK    2  A    between atoms: C1_1  and  C6_6 
REMARK    3  A    between atoms: N7_7  and  O8_8 
ROOT
HETATM    1  C1  UNL     1     -33.779   6.238   4.883  1.00 20.00     0.043 C 
HETATM    2  N7  UNL     1     -33.224   7.134   5.639  1.00 20.00    -0.145 NA
ENDROOT
BRANCH   1   3
HETATM    3  C4  UNL     1     -34.859   5.374   5.488  1.00 20.00     0.036 A 
HETATM    4  C2  UNL     1     -35.404   4.264   4.669  1.00 20.00     0.011 A 
HETATM    5  C3  UNL     1     -34.513   3.974   5.839  1.00 20.00     0.011 A 
ENDBRANCH   1   3
BRANCH   1   6
HETATM    6  C6  UNL     1     -33.400   5.961   3.439  1.00 20.00     0.053 C 
HETATM    7  C5  UNL     1     -32.216   6.815   3.024  1.00 20.00     0.011 C 
ENDBRANCH   1   6
BRANCH   2   8
HETATM    8  O8  UNL     1     -33.762   7.122   6.926  1.00 20.00    -0.266 OA
HETATM    9  H19 UNL     1     -33.070   6.655   7.424  1.00 20.00     0.247 HD
ENDBRANCH   2   8
TORSDOF 3
ENDMDL
MODEL 3
REMARK VINA RESULT:      -4.1      2.443      2.648
REMARK  3 active torsions:
REMARK  status: ('A' for Active; 'I' for Inactive)
REMARK    1  A    between atoms: C1_1  and  C4_4 
REMARK    2  A    between atoms: C1_1  and  C6_6 
REMARK    3  A    between atoms: N7_7  and  O8_8 
ROOT
HETATM    1  C1  UNL     1     -33.710   6.045   4.036  1.00 20.00     0.043 C 
HETATM    2  N7  UNL     1     -34.653   5.368   3.457  1.00 20.00    -0.145 NA
ENDROOT
BRANCH   1   3
HETATM    3  C4  UNL     1     -32.460   6.336   3.242  1.00 20.00     0.036 A 
HETATM    4  C2  UNL     1     -32.369   7.640   2.539  1.00 20.00     0.011 A 
HETATM    5  C3  UNL     1     -31.536   7.378   3.758  1.00 20.00     0.011 A 
ENDBRANCH   1   3
BRANCH   1   6
HETATM    6  C6  UNL     1     -33.749   6.540   5.471  1.00 20.00     0.053 C 
HETATM    7  C5  UNL     1     -34.528   5.576   6.347  1.00 20.00     0.011 C 
ENDBRANCH   1   6
BRANCH   2   8
HETATM    8  O8  UNL     1     -34.307   5.026   2.149  1.00 20.00    -0.266 OA
HETATM    9  H19 UNL     1     -34.806   4.201   2.024  1.00 20.00     0.247 HD
ENDBRANCH   2   8
TORSDOF 3
ENDMDL
MODEL 4
REMARK VINA RESULT:      -4.1      2.329      3.581
REMARK  3 active torsions:
REMARK  status: ('A' for Active; 'I' for Inactive)
REMARK    1  A    between atoms: C1_1  and  C4_4 
REMARK    2  A    between atoms: C1_1  and  C6_6 
REMARK    3  A    between atoms: N7_7  and  O8_8 
ROOT
HETATM    1  C1  UNL     1     -33.818   6.083   3.974  1.00 20.00     0.043 C 
HETATM    2  N7  UNL     1     -34.580   5.485   3.111  1.00 20.00    -0.145 NA
ENDROOT
BRANCH   1   3
HETATM    3  C4  UNL     1     -34.422   6.463   5.304  1.00 20.00     0.036 A 
HETATM    4  C2  UNL     1     -34.297   5.500   6.427  1.00 20.00     0.011 A 
HETATM    5  C3  UNL     1     -33.499   6.769   6.425  1.00 20.00     0.011 A 
ENDBRANCH   1   3
BRANCH   1   6
HETATM    6  C6  UNL     1     -32.369   6.469   3.737  1.00 20.00     0.053 C 
HETATM    7  C5  UNL     1     -32.265   7.504   2.633  1.00 20.00     0.011 C 
ENDBRANCH   1   6
BRANCH   2   8
HETATM    8  O8  UNL     1     -35.870   5.300   3.608  1.00 20.00    -0.266 OA
HETATM    9  H19 UNL     1     -35.699   5.176   4.557  1.00 20.00     0.247 HD
ENDBRANCH   2   8
TORSDOF 3
ENDMDL
MODEL 5
REMARK VINA RESULT:      -4.1     12.169     13.044
REMARK  3 active torsions:
REMARK  status: ('A' for Active; 'I' for Inactive)
REMARK    1  A    between atoms: C1_1  and  C4_4 
REMARK    2  A    between atoms: C1_1  and  C6_6 
REMARK    3  A    between atoms: N7_7  and  O8_8 
ROOT
HETATM    1  C1  UNL     1     -34.054  14.369  -4.311  1.00 20.00     0.043 C 
HETATM    2  N7  UNL     1     -34.399  13.358  -3.575  1.00 20.00    -0.145 NA
ENDROOT
BRANCH   1   3
HETATM    3  C4  UNL     1     -34.630  14.457  -5.704  1.00 20.00     0.036 A 
HETATM    4  C2  UNL     1     -35.528  15.596  -6.016  1.00 20.00     0.011 A 
HETATM    5  C3  UNL     1     -34.144  15.545  -6.589  1.00 20.00     0.011 A 
ENDBRANCH   1   3
BRANCH   1   6
HETATM    6  C6  UNL     1     -33.081  15.458  -3.895  1.00 20.00     0.053 C 
HETATM    7  C5  UNL     1     -33.634  16.249  -2.724  1.00 20.00     0.011 C 
ENDBRANCH   1   6
BRANCH   2   8
HETATM    8  O8  UNL     1     -35.278  12.511  -4.248  1.00 20.00    -0.266 OA
HETATM    9  H19 UNL     1     -36.105  13.021  -4.217  1.00 20.00     0.247 HD
ENDBRANCH   2   8
TORSDOF 3
ENDMDL
MODEL 6
REMARK VINA RESULT:      -4.0      2.056      3.094
REMARK  3 active torsions:
REMARK  status: ('A' for Active; 'I' for Inactive)
REMARK    1  A    between atoms: C1_1  and  C4_4 
REMARK    2  A    between atoms: C1_1  and  C6_6 
REMARK    3  A    between atoms: N7_7  and  O8_8 
ROOT
HETATM    1  C1  UNL     1     -33.591   6.243   4.774  1.00 20.00     0.043 C 
HETATM    2  N7  UNL     1     -32.597   6.880   4.236  1.00 20.00    -0.145 NA
ENDROOT
BRANCH   1   3
HETATM    3  C4  UNL     1     -34.379   5.297   3.901  1.00 20.00     0.036 A 
HETATM    4  C2  UNL     1     -35.256   4.302   4.566  1.00 20.00     0.011 A 
HETATM    5  C3  UNL     1     -35.851   5.471   3.840  1.00 20.00     0.011 A 
ENDBRANCH   1   3
BRANCH   1   6
HETATM    6  C6  UNL     1     -34.051   6.403   6.212  1.00 20.00     0.053 C 
HETATM    7  C5  UNL     1     -33.272   7.507   6.903  1.00 20.00     0.011 C 
ENDBRANCH   1   6
BRANCH   2   8
HETATM    8  O8  UNL     1     -32.445   6.548   2.890  1.00 20.00    -0.266 OA
HETATM    9  H19 UNL     1     -33.006   7.214   2.458  1.00 20.00     0.247 HD
ENDBRANCH   2   8
TORSDOF 3
ENDMDL
MODEL 7
REMARK VINA RESULT:      -4.0     12.016     13.045
REMARK  3 active torsions:
REMARK  status: ('A' for Active; 'I' for Inactive)
REMARK    1  A    between atoms: C1_1  and  C4_4 
REMARK    2  A    between atoms: C1_1  and  C6_6 
REMARK    3  A    between atoms: N7_7  and  O8_8 
ROOT
HETATM    1  C1  UNL     1     -34.467  14.490  -4.761  1.00 20.00     0.043 C 
HETATM    2  N7  UNL     1     -34.952  13.359  -5.173  1.00 20.00    -0.145 NA
ENDROOT
BRANCH   1   3
HETATM    3  C4  UNL     1     -34.364  14.712  -3.272  1.00 20.00     0.036 A 
HETATM    4  C2  UNL     1     -33.727  15.965  -2.797  1.00 20.00     0.011 A 
HETATM    5  C3  UNL     1     -35.208  15.774  -2.668  1.00 20.00     0.011 A 
ENDBRANCH   1   3
BRANCH   1   6
HETATM    6  C6  UNL     1     -34.026  15.628  -5.663  1.00 20.00     0.053 C 
HETATM    7  C5  UNL     1     -34.345  15.316  -7.113  1.00 20.00     0.011 C 
ENDBRANCH   1   6
BRANCH   2   8
HETATM    8  O8  UNL     1     -35.299  12.532  -4.105  1.00 20.00    -0.266 OA
HETATM    9  H19 UNL     1     -36.270  12.571  -4.134  1.00 20.00     0.247 HD
ENDBRANCH   2   8
TORSDOF 3
ENDMDL
MODEL 8
REMARK VINA RESULT:      -3.8      2.299      3.472
REMARK  3 active torsions:
REMARK  status: ('A' for Active; 'I' for Inactive)
REMARK    1  A    between atoms: C1_1  and  C4_4 
REMARK    2  A    between atoms: C1_1  and  C6_6 
REMARK    3  A    between atoms: N7_7  and  O8_8 
ROOT
HETATM    1  C1  UNL     1     -34.257   5.515   4.292  1.00 20.00     0.043 C 
HETATM    2  N7  UNL     1     -35.091   4.609   3.883  1.00 20.00    -0.145 NA
ENDROOT
BRANCH   1   3
HETATM    3  C4  UNL     1     -33.806   5.460   5.732  1.00 20.00     0.036 A 
HETATM    4  C2  UNL     1     -33.752   6.731   6.494  1.00 20.00     0.011 A 
HETATM    5  C3  UNL     1     -34.818   5.718   6.787  1.00 20.00     0.011 A 
ENDBRANCH   1   3
BRANCH   1   6
HETATM    6  C6  UNL     1     -33.724   6.655   3.444  1.00 20.00     0.053 C 
HETATM    7  C5  UNL     1     -32.261   6.433   3.109  1.00 20.00     0.011 C 
ENDBRANCH   1   6
BRANCH   2   8
HETATM    8  O8  UNL     1     -35.423   3.719   4.905  1.00 20.00    -0.266 OA
HETATM    9  H19 UNL     1     -34.770   3.952   5.587  1.00 20.00     0.247 HD
ENDBRANCH   2   8
TORSDOF 3
ENDMDL
MODEL 9
REMARK VINA RESULT:      -3.8     11.909     12.445
REMARK  3 active torsions:
REMARK  status: ('A' for Active; 'I' for Inactive)
REMARK    1  A    between atoms: C1_1  and  C4_4 
REMARK    2  A    between atoms: C1_1  and  C6_6 
REMARK    3  A    between atoms: N7_7  and  O8_8 
ROOT
HETATM    1  C1  UNL     1     -35.097  14.041  -3.940  1.00 20.00     0.043 C 
HETATM    2  N7  UNL     1     -34.632  12.994  -4.549  1.00 20.00    -0.145 NA
ENDROOT
BRANCH   1   3
HETATM    3  C4  UNL     1     -34.132  14.874  -3.133  1.00 20.00     0.036 A 
HETATM    4  C2  UNL     1     -33.983  16.308  -3.488  1.00 20.00     0.011 A 
HETATM    5  C3  UNL     1     -34.694  15.910  -2.230  1.00 20.00     0.011 A 
ENDBRANCH   1   3
BRANCH   1   6
HETATM    6  C6  UNL     1     -36.551  14.476  -3.943  1.00 20.00     0.053 C 
HETATM    7  C5  UNL     1     -36.918  15.105  -5.274  1.00 20.00     0.011 C 
ENDBRANCH   1   6
BRANCH   2   8
HETATM    8  O8  UNL     1     -33.263  12.839  -4.328  1.00 20.00    -0.266 OA
HETATM    9  H19 UNL     1     -33.100  13.503  -3.637  1.00 20.00     0.247 HD
ENDBRANCH   2   8
TORSDOF 3
ENDMDL
