MODEL 1
REMARK VINA RESULT:      -5.4      0.000      0.000
REMARK  2 active torsions:
REMARK  status: ('A' for Active; 'I' for Inactive)
REMARK    1  A    between atoms: C2_2  and  C10_10 
REMARK    2  A    between atoms: C7_7  and  C10_10 
ROOT
HETATM    1  C1  UNL     1     -32.191   8.451   1.542  1.00 20.00    -0.111 C 
HETATM    2  C2  UNL     1     -32.134   7.915   2.615  1.00 20.00    -0.107 C 
HETATM    3  C8  UNL     1     -32.259   9.103   0.235  1.00 20.00     0.112 C 
ENDROOT
BRANCH   2   4
HETATM    4  C10 UNL     1     -32.058   7.272   3.929  1.00 20.00     0.099 C 
BRANCH   4   5
HETATM    5  C7  UNL     1     -33.042   6.116   4.025  1.00 20.00     0.008 C 
HETATM    6  C5  UNL     1     -34.353   6.400   3.289  1.00 20.00     0.013 C 
HETATM    7  C4  UNL     1     -35.299   5.307   3.768  1.00 20.00     0.079 C 
HETATM    8  C3  UNL     1     -34.822   5.077   5.178  1.00 20.00     0.131 C 
HETATM    9  C6  UNL     1     -33.479   5.726   5.451  1.00 20.00     0.056 C 
HETATM   10  O11 UNL     1     -35.451   4.430   6.008  1.00 20.00    -0.298 OA
HETATM   11  C9  UNL     1     -33.656   6.874   6.432  1.00 20.00     0.018 C 
ENDBRANCH   4   5
ENDBRANCH   2   4
TORSDOF 2
ENDMDL
MODEL 2
REMARK VINA RESULT:      -5.2     10.659     11.697
REMARK  2 active torsions:
REMARK  status: ('A' for Active; 'I' for Inactive)
REMARK    1  A    between atoms: C2_2  and  C10_10 
REMARK    2  A    between atoms: C7_7  and  C10_10 
ROOT
HETATM    1  C1  UNL     1     -34.864  17.442   0.167  1.00 20.00    -0.111 C 
HETATM    2  C2  UNL     1     -34.628  17.210  -0.987  1.00 20.00    -0.107 C 
HETATM    3  C8  UNL     1     -35.151  17.725   1.573  1.00 20.00     0.112 C 
ENDROOT
BRANCH   2   4
HETATM    4  C10 UNL     1     -34.353  16.928  -2.398  1.00 20.00     0.099 C 
BRANCH   4   5
HETATM    5  C7  UNL     1     -34.193  15.433  -2.631  1.00 20.00     0.008 C 
HETATM    6  C5  UNL     1     -32.924  15.096  -3.418  1.00 20.00     0.013 C 
HETATM    7  C4  UNL     1     -33.110  13.641  -3.827  1.00 20.00     0.079 C 
HETATM    8  C3  UNL     1     -34.604  13.553  -4.000  1.00 20.00     0.131 C 
HETATM    9  C6  UNL     1     -35.327  14.754  -3.423  1.00 20.00     0.056 C 
HETATM   10  O11 UNL     1     -35.167  12.610  -4.543  1.00 20.00    -0.298 OA
HETATM   11  C9  UNL     1     -35.938  15.573  -4.550  1.00 20.00     0.018 C 
ENDBRANCH   4   5
ENDBRANCH   2   4
TORSDOF 2
ENDMDL
MODEL 3
REMARK VINA RESULT:      -5.1     11.079     12.343
REMARK  2 active torsions:
REMARK  status: ('A' for Active; 'I' for Inactive)
REMARK    1  A    between atoms: C2_2  and  C10_10 
REMARK    2  A    between atoms: C7_7  and  C10_10 
ROOT
HETATM    1  C1  UNL     1     -34.637  16.970  -0.516  1.00 20.00    -0.111 C 
HETATM    2  C2  UNL     1     -34.129  16.601  -1.540  1.00 20.00    -0.107 C 
HETATM    3  C8  UNL     1     -35.257  17.420   0.730  1.00 20.00     0.112 C 
ENDROOT
BRANCH   2   4
HETATM    4  C10 UNL     1     -33.497  16.156  -2.784  1.00 20.00     0.099 C 
BRANCH   4   5
HETATM    5  C7  UNL     1     -34.419  15.225  -3.557  1.00 20.00     0.008 C 
HETATM    6  C5  UNL     1     -33.825  13.825  -3.732  1.00 20.00     0.013 C 
HETATM    7  C4  UNL     1     -34.711  13.168  -4.781  1.00 20.00     0.079 C 
HETATM    8  C3  UNL     1     -35.106  14.343  -5.638  1.00 20.00     0.131 C 
HETATM    9  C6  UNL     1     -34.774  15.672  -4.989  1.00 20.00     0.056 C 
HETATM   10  O11 UNL     1     -35.642  14.231  -6.734  1.00 20.00    -0.298 OA
HETATM   11  C9  UNL     1     -33.662  16.358  -5.769  1.00 20.00     0.018 C 
ENDBRANCH   4   5
ENDBRANCH   2   4
TORSDOF 2
ENDMDL
MODEL 4
REMARK VINA RESULT:      -4.5     11.560     12.832
REMARK  2 active torsions:
REMARK  status: ('A' for Active; 'I' for Inactive)
REMARK    1  A    between atoms: C2_2  and  C10_10 
REMARK    2  A    between atoms: C7_7  and  C10_10 
ROOT
HETATM    1  C1  UNL     1     -34.183  17.126  -0.878  1.00 20.00    -0.111 C 
HETATM    2  C2  UNL     1     -34.467  16.266  -1.668  1.00 20.00    -0.107 C 
HETATM    3  C8  UNL     1     -33.837  18.171   0.083  1.00 20.00     0.112 C 
ENDROOT
BRANCH   2   4
HETATM    4  C10 UNL     1     -34.824  15.226  -2.634  1.00 20.00     0.099 C 
BRANCH   4   5
HETATM    5  C7  UNL     1     -34.600  15.708  -4.059  1.00 20.00     0.008 C 
HETATM    6  C5  UNL     1     -35.864  16.305  -4.682  1.00 20.00     0.013 C 
HETATM    7  C4  UNL     1     -35.538  16.416  -6.165  1.00 20.00     0.079 C 
HETATM    8  C3  UNL     1     -34.624  15.236  -6.374  1.00 20.00     0.131 C 
HETATM    9  C6  UNL     1     -34.146  14.633  -5.067  1.00 20.00     0.056 C 
HETATM   10  O11 UNL     1     -34.300  14.818  -7.479  1.00 20.00    -0.298 OA
HETATM   11  C9  UNL     1     -34.756  13.251  -4.888  1.00 20.00     0.018 C 
ENDBRANCH   4   5
ENDBRANCH   2   4
TORSDOF 2
ENDMDL
MODEL 5
REMARK VINA RESULT:      -4.4      9.601     10.823
REMARK  2 active torsions:
REMARK  status: ('A' for Active; 'I' for Inactive)
REMARK    1  A    between atoms: C2_2  and  C10_10 
REMARK    2  A    between atoms: C7_7  and  C10_10 
ROOT
HETATM    1  C1  UNL     1     -42.305   9.343  -4.952  1.00 20.00    -0.111 C 
HETATM    2  C2  UNL     1     -42.680   8.381  -4.339  1.00 20.00    -0.107 C 
HETATM    3  C8  UNL     1     -41.849  10.516  -5.697  1.00 20.00     0.112 C 
ENDROOT
BRANCH   2   4
HETATM    4  C10 UNL     1     -43.140   7.202  -3.603  1.00 20.00     0.099 C 
BRANCH   4   5
HETATM    5  C7  UNL     1     -42.003   6.581  -2.806  1.00 20.00     0.008 C 
HETATM    6  C5  UNL     1     -42.268   5.116  -2.452  1.00 20.00     0.013 C 
HETATM    7  C4  UNL     1     -41.212   4.784  -1.406  1.00 20.00     0.079 C 
HETATM    8  C3  UNL     1     -41.044   6.104  -0.700  1.00 20.00     0.131 C 
HETATM    9  C6  UNL     1     -41.689   7.252  -1.454  1.00 20.00     0.056 C 
HETATM   10  O11 UNL     1     -40.447   6.233   0.362  1.00 20.00    -0.298 OA
HETATM   11  C9  UNL     1     -42.886   7.769  -0.672  1.00 20.00     0.018 C 
ENDBRANCH   4   5
ENDBRANCH   2   4
TORSDOF 2
ENDMDL
MODEL 6
REMARK VINA RESULT:      -4.2      9.377     11.279
REMARK  2 active torsions:
REMARK  status: ('A' for Active; 'I' for Inactive)
REMARK    1  A    between atoms: C2_2  and  C10_10 
REMARK    2  A    between atoms: C7_7  and  C10_10 
ROOT
HETATM    1  C1  UNL     1     -42.031   1.686  -3.609  1.00 20.00    -0.111 C 
HETATM    2  C2  UNL     1     -42.427   2.767  -3.268  1.00 20.00    -0.107 C 
HETATM    3  C8  UNL     1     -41.548   0.370  -4.025  1.00 20.00     0.112 C 
ENDROOT
BRANCH   2   4
HETATM    4  C10 UNL     1     -42.920   4.084  -2.860  1.00 20.00     0.099 C 
BRANCH   4   5
HETATM    5  C7  UNL     1     -41.835   4.871  -2.141  1.00 20.00     0.008 C 
HETATM    6  C5  UNL     1     -41.823   4.610  -0.633  1.00 20.00     0.013 C 
HETATM    7  C4  UNL     1     -40.926   5.702  -0.068  1.00 20.00     0.079 C 
HETATM    8  C3  UNL     1     -41.189   6.845  -1.014  1.00 20.00     0.131 C 
HETATM    9  C6  UNL     1     -41.928   6.405  -2.263  1.00 20.00     0.056 C 
HETATM   10  O11 UNL     1     -40.837   7.998  -0.797  1.00 20.00    -0.298 OA
HETATM   11  C9  UNL     1     -43.332   6.991  -2.260  1.00 20.00     0.018 C 
ENDBRANCH   4   5
ENDBRANCH   2   4
TORSDOF 2
ENDMDL
MODEL 7
REMARK VINA RESULT:      -4.2      0.950      1.913
REMARK  2 active torsions:
REMARK  status: ('A' for Active; 'I' for Inactive)
REMARK    1  A    between atoms: C2_2  and  C10_10 
REMARK    2  A    between atoms: C7_7  and  C10_10 
ROOT
HETATM    1  C1  UNL     1     -32.179   8.651   1.523  1.00 20.00    -0.111 C 
HETATM    2  C2  UNL     1     -32.067   7.986   2.516  1.00 20.00    -0.107 C 
HETATM    3  C8  UNL     1     -32.316   9.461   0.313  1.00 20.00     0.112 C 
ENDROOT
BRANCH   2   4
HETATM    4  C10 UNL     1     -31.940   7.167   3.724  1.00 20.00     0.099 C 
BRANCH   4   5
HETATM    5  C7  UNL     1     -33.306   6.858   4.316  1.00 20.00     0.008 C 
HETATM    6  C5  UNL     1     -33.212   6.108   5.647  1.00 20.00     0.013 C 
HETATM    7  C4  UNL     1     -34.628   5.611   5.902  1.00 20.00     0.079 C 
HETATM    8  C3  UNL     1     -35.131   5.369   4.502  1.00 20.00     0.131 C 
HETATM    9  C6  UNL     1     -34.230   5.981   3.447  1.00 20.00     0.056 C 
HETATM   10  O11 UNL     1     -36.159   4.751   4.250  1.00 20.00    -0.298 OA
HETATM   11  C9  UNL     1     -33.548   4.876   2.654  1.00 20.00     0.018 C 
ENDBRANCH   4   5
ENDBRANCH   2   4
TORSDOF 2
ENDMDL
MODEL 8
REMARK VINA RESULT:      -4.1     11.102     12.261
REMARK  2 active torsions:
REMARK  status: ('A' for Active; 'I' for Inactive)
REMARK    1  A    between atoms: C2_2  and  C10_10 
REMARK    2  A    between atoms: C7_7  and  C10_10 
ROOT
HETATM    1  C1  UNL     1     -39.150  14.720  -4.429  1.00 20.00    -0.111 C 
HETATM    2  C2  UNL     1     -38.186  15.293  -3.999  1.00 20.00    -0.107 C 
HETATM    3  C8  UNL     1     -40.322  14.021  -4.954  1.00 20.00     0.112 C 
ENDROOT
BRANCH   2   4
HETATM    4  C10 UNL     1     -37.011  16.000  -3.484  1.00 20.00     0.099 C 
BRANCH   4   5
HETATM    5  C7  UNL     1     -35.732  15.424  -4.072  1.00 20.00     0.008 C 
HETATM    6  C5  UNL     1     -35.689  13.896  -4.000  1.00 20.00     0.013 C 
HETATM    7  C4  UNL     1     -34.242  13.544  -4.314  1.00 20.00     0.079 C 
HETATM    8  C3  UNL     1     -33.500  14.723  -3.740  1.00 20.00     0.131 C 
HETATM    9  C6  UNL     1     -34.422  15.877  -3.395  1.00 20.00     0.056 C 
HETATM   10  O11 UNL     1     -32.286  14.744  -3.577  1.00 20.00    -0.298 OA
HETATM   11  C9  UNL     1     -34.477  16.054  -1.886  1.00 20.00     0.018 C 
ENDBRANCH   4   5
ENDBRANCH   2   4
TORSDOF 2
ENDMDL
MODEL 9
REMARK VINA RESULT:      -4.1     10.816     12.332
REMARK  2 active torsions:
REMARK  status: ('A' for Active; 'I' for Inactive)
REMARK    1  A    between atoms: C2_2  and  C10_10 
REMARK    2  A    between atoms: C7_7  and  C10_10 
ROOT
HETATM    1  C1  UNL     1     -39.553  15.729  -3.074  1.00 20.00    -0.111 C 
HETATM    2  C2  UNL     1     -38.643  15.344  -3.756  1.00 20.00    -0.107 C 
HETATM    3  C8  UNL     1     -40.661  16.197  -2.243  1.00 20.00     0.112 C 
ENDROOT
BRANCH   2   4
HETATM    4  C10 UNL     1     -37.541  14.874  -4.599  1.00 20.00     0.099 C 
BRANCH   4   5
HETATM    5  C7  UNL     1     -36.331  14.506  -3.754  1.00 20.00     0.008 C 
HETATM    6  C5  UNL     1     -35.537  15.734  -3.302  1.00 20.00     0.013 C 
HETATM    7  C4  UNL     1     -34.228  15.164  -2.775  1.00 20.00     0.079 C 
HETATM    8  C3  UNL     1     -34.035  13.956  -3.655  1.00 20.00     0.131 C 
HETATM    9  C6  UNL     1     -35.285  13.605  -4.439  1.00 20.00     0.056 C 
HETATM   10  O11 UNL     1     -32.986  13.327  -3.721  1.00 20.00    -0.298 OA
HETATM   11  C9  UNL     1     -35.048  13.864  -5.920  1.00 20.00     0.018 C 
ENDBRANCH   4   5
ENDBRANCH   2   4
TORSDOF 2
ENDMDL
