MODEL 1
REMARK VINA RESULT:      -5.2      0.000      0.000
REMARK  1 active torsions:
REMARK  status: ('A' for Active; 'I' for Inactive)
REMARK    1  A    between atoms: C7_7  and  C9_9 
ROOT
HETATM    1  C1  UNL     1     -32.284   8.713   1.577  1.00 20.00     0.012 C 
HETATM    2  C2  UNL     1     -32.152   7.970   2.511  1.00 20.00    -0.117 C 
HETATM    3  C9  UNL     1     -31.982   7.063   3.651  1.00 20.00     0.098 C 
ENDROOT
BRANCH   3   4
HETATM    4  C7  UNL     1     -33.327   6.662   4.240  1.00 20.00     0.008 C 
HETATM    5  C5  UNL     1     -33.306   6.636   5.770  1.00 20.00     0.013 C 
HETATM    6  C4  UNL     1     -34.559   5.858   6.152  1.00 20.00     0.079 C 
HETATM    7  C3  UNL     1     -34.687   4.890   5.004  1.00 20.00     0.131 C 
HETATM    8  C6  UNL     1     -33.753   5.234   3.860  1.00 20.00     0.056 C 
HETATM    9  O10 UNL     1     -35.461   3.941   5.004  1.00 20.00    -0.298 OA
HETATM   10  C8  UNL     1     -34.438   5.150   2.507  1.00 20.00     0.018 C 
ENDBRANCH   3   4
TORSDOF 1
ENDMDL
MODEL 2
REMARK VINA RESULT:      -5.0      0.882      2.183
REMARK  1 active torsions:
REMARK  status: ('A' for Active; 'I' for Inactive)
REMARK    1  A    between atoms: C7_7  and  C9_9 
ROOT
HETATM    1  C1  UNL     1     -32.112   8.810   1.196  1.00 20.00     0.012 C 
HETATM    2  C2  UNL     1     -31.939   8.266   2.253  1.00 20.00    -0.117 C 
HETATM    3  C9  UNL     1     -31.723   7.607   3.545  1.00 20.00     0.098 C 
ENDROOT
BRANCH   3   4
HETATM    4  C7  UNL     1     -32.579   6.356   3.675  1.00 20.00     0.008 C 
HETATM    5  C5  UNL     1     -33.048   5.830   2.316  1.00 20.00     0.013 C 
HETATM    6  C4  UNL     1     -34.172   4.857   2.655  1.00 20.00     0.079 C 
HETATM    7  C3  UNL     1     -34.761   5.482   3.894  1.00 20.00     0.131 C 
HETATM    8  C6  UNL     1     -33.890   6.594   4.443  1.00 20.00     0.056 C 
HETATM    9  O10 UNL     1     -35.820   5.122   4.393  1.00 20.00    -0.298 OA
HETATM   10  C8  UNL     1     -33.727   6.514   5.950  1.00 20.00     0.018 C 
ENDBRANCH   3   4
TORSDOF 1
ENDMDL
MODEL 3
REMARK VINA RESULT:      -4.8     10.987     12.138
REMARK  1 active torsions:
REMARK  status: ('A' for Active; 'I' for Inactive)
REMARK    1  A    between atoms: C7_7  and  C9_9 
ROOT
HETATM    1  C1  UNL     1     -34.783  16.648  -0.676  1.00 20.00     0.012 C 
HETATM    2  C2  UNL     1     -34.312  16.823  -1.767  1.00 20.00    -0.117 C 
HETATM    3  C9  UNL     1     -33.733  17.042  -3.096  1.00 20.00     0.098 C 
ENDROOT
BRANCH   3   4
HETATM    4  C7  UNL     1     -34.154  15.950  -4.068  1.00 20.00     0.008 C 
HETATM    5  C5  UNL     1     -35.615  16.089  -4.501  1.00 20.00     0.013 C 
HETATM    6  C4  UNL     1     -35.955  14.740  -5.124  1.00 20.00     0.079 C 
HETATM    7  C3  UNL     1     -35.097  13.799  -4.318  1.00 20.00     0.131 C 
HETATM    8  C6  UNL     1     -34.090  14.539  -3.458  1.00 20.00     0.056 C 
HETATM    9  O10 UNL     1     -35.205  12.580  -4.363  1.00 20.00    -0.298 OA
HETATM   10  C8  UNL     1     -32.706  13.918  -3.522  1.00 20.00     0.018 C 
ENDBRANCH   3   4
TORSDOF 1
ENDMDL
MODEL 4
REMARK VINA RESULT:      -4.8     11.358     12.607
REMARK  1 active torsions:
REMARK  status: ('A' for Active; 'I' for Inactive)
REMARK    1  A    between atoms: C7_7  and  C9_9 
ROOT
HETATM    1  C1  UNL     1     -34.773  16.822  -0.507  1.00 20.00     0.012 C 
HETATM    2  C2  UNL     1     -34.250  16.524  -1.546  1.00 20.00    -0.117 C 
HETATM    3  C9  UNL     1     -33.605  16.164  -2.814  1.00 20.00     0.098 C 
ENDROOT
BRANCH   3   4
HETATM    4  C7  UNL     1     -34.503  15.267  -3.653  1.00 20.00     0.008 C 
HETATM    5  C5  UNL     1     -34.053  13.804  -3.624  1.00 20.00     0.013 C 
HETATM    6  C4  UNL     1     -34.793  13.157  -4.789  1.00 20.00     0.079 C 
HETATM    7  C3  UNL     1     -34.883  14.296  -5.772  1.00 20.00     0.131 C 
HETATM    8  C6  UNL     1     -34.486  15.621  -5.150  1.00 20.00     0.056 C 
HETATM    9  O10 UNL     1     -35.241  14.158  -6.935  1.00 20.00    -0.298 OA
HETATM   10  C8  UNL     1     -35.442  16.743  -5.513  1.00 20.00     0.018 C 
ENDBRANCH   3   4
TORSDOF 1
ENDMDL
MODEL 5
REMARK VINA RESULT:      -4.6     11.477     12.804
REMARK  1 active torsions:
REMARK  status: ('A' for Active; 'I' for Inactive)
REMARK    1  A    between atoms: C7_7  and  C9_9 
ROOT
HETATM    1  C1  UNL     1     -33.636  17.851  -0.429  1.00 20.00     0.012 C 
HETATM    2  C2  UNL     1     -34.172  17.008  -1.096  1.00 20.00    -0.117 C 
HETATM    3  C9  UNL     1     -34.832  15.978  -1.906  1.00 20.00     0.098 C 
ENDROOT
BRANCH   3   4
HETATM    4  C7  UNL     1     -34.065  15.715  -3.193  1.00 20.00     0.008 C 
HETATM    5  C5  UNL     1     -33.702  17.007  -3.928  1.00 20.00     0.013 C 
HETATM    6  C4  UNL     1     -33.313  16.550  -5.328  1.00 20.00     0.079 C 
HETATM    7  C3  UNL     1     -34.202  15.349  -5.522  1.00 20.00     0.131 C 
HETATM    8  C6  UNL     1     -34.879  14.925  -4.232  1.00 20.00     0.056 C 
HETATM    9  O10 UNL     1     -34.351  14.785  -6.599  1.00 20.00    -0.298 OA
HETATM   10  C8  UNL     1     -34.831  13.423  -4.019  1.00 20.00     0.018 C 
ENDBRANCH   3   4
TORSDOF 1
ENDMDL
MODEL 6
REMARK VINA RESULT:      -4.6     10.865     12.362
REMARK  1 active torsions:
REMARK  status: ('A' for Active; 'I' for Inactive)
REMARK    1  A    between atoms: C7_7  and  C9_9 
ROOT
HETATM    1  C1  UNL     1     -33.941  17.772  -6.087  1.00 20.00     0.012 C 
HETATM    2  C2  UNL     1     -34.031  17.529  -4.915  1.00 20.00    -0.117 C 
HETATM    3  C9  UNL     1     -34.142  17.238  -3.482  1.00 20.00     0.098 C 
ENDROOT
BRANCH   3   4
HETATM    4  C7  UNL     1     -34.133  15.739  -3.221  1.00 20.00     0.008 C 
HETATM    5  C5  UNL     1     -32.798  15.092  -3.597  1.00 20.00     0.013 C 
HETATM    6  C4  UNL     1     -33.101  13.600  -3.646  1.00 20.00     0.079 C 
HETATM    7  C3  UNL     1     -34.536  13.588  -4.108  1.00 20.00     0.131 C 
HETATM    8  C6  UNL     1     -35.160  14.970  -4.070  1.00 20.00     0.056 C 
HETATM    9  O10 UNL     1     -35.122  12.574  -4.466  1.00 20.00    -0.298 OA
HETATM   10  C8  UNL     1     -36.553  14.961  -3.467  1.00 20.00     0.018 C 
ENDBRANCH   3   4
TORSDOF 1
ENDMDL
MODEL 7
REMARK VINA RESULT:      -4.4      9.079     10.888
REMARK  1 active torsions:
REMARK  status: ('A' for Active; 'I' for Inactive)
REMARK    1  A    between atoms: C7_7  and  C9_9 
ROOT
HETATM    1  C1  UNL     1     -41.288   1.758  -3.888  1.00 20.00     0.012 C 
HETATM    2  C2  UNL     1     -41.876   2.519  -3.170  1.00 20.00    -0.117 C 
HETATM    3  C9  UNL     1     -42.600   3.445  -2.292  1.00 20.00     0.098 C 
ENDROOT
BRANCH   3   4
HETATM    4  C7  UNL     1     -41.789   4.705  -2.031  1.00 20.00     0.008 C 
HETATM    5  C5  UNL     1     -41.063   4.661  -0.684  1.00 20.00     0.013 C 
HETATM    6  C4  UNL     1     -40.651   6.105  -0.429  1.00 20.00     0.079 C 
HETATM    7  C3  UNL     1     -41.770   6.870  -1.089  1.00 20.00     0.131 C 
HETATM    8  C6  UNL     1     -42.653   5.974  -1.935  1.00 20.00     0.056 C 
HETATM    9  O10 UNL     1     -41.935   8.076  -0.954  1.00 20.00    -0.298 OA
HETATM   10  C8  UNL     1     -42.976   6.585  -3.286  1.00 20.00     0.018 C 
ENDBRANCH   3   4
TORSDOF 1
ENDMDL
MODEL 8
REMARK VINA RESULT:      -4.4     11.135     13.070
REMARK  1 active torsions:
REMARK  status: ('A' for Active; 'I' for Inactive)
REMARK    1  A    between atoms: C7_7  and  C9_9 
ROOT
HETATM    1  C1  UNL     1     -33.417  19.262  -4.341  1.00 20.00     0.012 C 
HETATM    2  C2  UNL     1     -33.514  18.266  -5.004  1.00 20.00    -0.117 C 
HETATM    3  C9  UNL     1     -33.629  17.053  -5.820  1.00 20.00     0.098 C 
ENDROOT
BRANCH   3   4
HETATM    4  C7  UNL     1     -34.351  15.947  -5.065  1.00 20.00     0.008 C 
HETATM    5  C5  UNL     1     -33.651  15.589  -3.751  1.00 20.00     0.013 C 
HETATM    6  C4  UNL     1     -34.260  14.251  -3.351  1.00 20.00     0.079 C 
HETATM    7  C3  UNL     1     -34.543  13.623  -4.692  1.00 20.00     0.131 C 
HETATM    8  C6  UNL     1     -34.387  14.613  -5.830  1.00 20.00     0.056 C 
HETATM    9  O10 UNL     1     -34.864  12.450  -4.834  1.00 20.00    -0.298 OA
HETATM   10  C8  UNL     1     -35.523  14.527  -6.834  1.00 20.00     0.018 C 
ENDBRANCH   3   4
TORSDOF 1
ENDMDL
MODEL 9
REMARK VINA RESULT:      -4.3     11.904     13.042
REMARK  1 active torsions:
REMARK  status: ('A' for Active; 'I' for Inactive)
REMARK    1  A    between atoms: C7_7  and  C9_9 
ROOT
HETATM    1  C1  UNL     1     -37.496  14.807  -3.981  1.00 20.00     0.012 C 
HETATM    2  C2  UNL     1     -36.334  14.543  -3.831  1.00 20.00    -0.117 C 
HETATM    3  C9  UNL     1     -34.916  14.214  -3.651  1.00 20.00     0.098 C 
ENDROOT
BRANCH   3   4
HETATM    4  C7  UNL     1     -34.129  15.421  -3.162  1.00 20.00     0.008 C 
HETATM    5  C5  UNL     1     -34.660  15.962  -1.833  1.00 20.00     0.013 C 
HETATM    6  C4  UNL     1     -34.036  17.346  -1.710  1.00 20.00     0.079 C 
HETATM    7  C3  UNL     1     -33.944  17.775  -3.153  1.00 20.00     0.131 C 
HETATM    8  C6  UNL     1     -34.222  16.630  -4.108  1.00 20.00     0.056 C 
HETATM    9  O10 UNL     1     -33.672  18.917  -3.502  1.00 20.00    -0.298 OA
HETATM   10  C8  UNL     1     -33.228  16.576  -5.254  1.00 20.00     0.018 C 
ENDBRANCH   3   4
TORSDOF 1
ENDMDL
