MODEL 1
REMARK VINA RESULT:      -5.2      0.000      0.000
REMARK  1 active torsions:
REMARK  status: ('A' for Active; 'I' for Inactive)
REMARK    1  A    between atoms: C5_5  and  C9_9 
ROOT
HETATM    1  C1  UNL     1     -31.977   8.336   1.873  1.00 20.00     0.012 C 
HETATM    2  C2  UNL     1     -32.176   7.496   2.707  1.00 20.00    -0.117 C 
HETATM    3  C9  UNL     1     -32.411   6.465   3.724  1.00 20.00     0.098 C 
ENDROOT
BRANCH   3   4
HETATM    4  C5  UNL     1     -33.703   6.733   4.489  1.00 20.00     0.002 C 
HETATM    5  C3  UNL     1     -33.499   6.567   6.007  1.00 20.00     0.007 C 
HETATM    6  C4  UNL     1     -34.711   5.786   6.505  1.00 20.00     0.021 C 
HETATM    7  C7  UNL     1     -35.083   4.885   5.333  1.00 20.00     0.086 C 
HETATM    8  C6  UNL     1     -34.912   5.829   4.133  1.00 20.00     0.005 C 
HETATM    9 CL10 UNL     1     -34.005   3.461   5.279  1.00 20.00    -0.125 Cl
HETATM   10  C8  UNL     1     -34.896   5.165   2.763  1.00 20.00     0.012 C 
ENDBRANCH   3   4
TORSDOF 1
ENDMDL
MODEL 2
REMARK VINA RESULT:      -4.9     11.689     12.701
REMARK  1 active torsions:
REMARK  status: ('A' for Active; 'I' for Inactive)
REMARK    1  A    between atoms: C5_5  and  C9_9 
ROOT
HETATM    1  C1  UNL     1     -34.739  16.965  -0.292  1.00 20.00     0.012 C 
HETATM    2  C2  UNL     1     -34.402  16.567  -1.372  1.00 20.00    -0.117 C 
HETATM    3  C9  UNL     1     -33.983  16.089  -2.694  1.00 20.00     0.098 C 
ENDROOT
BRANCH   3   4
HETATM    4  C5  UNL     1     -34.803  14.877  -3.125  1.00 20.00     0.002 C 
HETATM    5  C3  UNL     1     -33.900  13.750  -3.661  1.00 20.00     0.007 C 
HETATM    6  C4  UNL     1     -34.589  13.229  -4.919  1.00 20.00     0.021 C 
HETATM    7  C7  UNL     1     -35.292  14.454  -5.494  1.00 20.00     0.086 C 
HETATM    8  C6  UNL     1     -35.860  15.122  -4.233  1.00 20.00     0.005 C 
HETATM    9 CL10 UNL     1     -34.128  15.478  -6.381  1.00 20.00    -0.125 Cl
HETATM   10  C8  UNL     1     -36.359  16.551  -4.406  1.00 20.00     0.012 C 
ENDBRANCH   3   4
TORSDOF 1
ENDMDL
MODEL 3
REMARK VINA RESULT:      -4.8     11.795     13.212
REMARK  1 active torsions:
REMARK  status: ('A' for Active; 'I' for Inactive)
REMARK    1  A    between atoms: C5_5  and  C9_9 
ROOT
HETATM    1  C1  UNL     1     -34.777  17.396   0.253  1.00 20.00     0.012 C 
HETATM    2  C2  UNL     1     -34.753  16.733  -0.747  1.00 20.00    -0.117 C 
HETATM    3  C9  UNL     1     -34.730  15.916  -1.966  1.00 20.00     0.098 C 
ENDROOT
BRANCH   3   4
HETATM    4  C5  UNL     1     -33.588  16.335  -2.885  1.00 20.00     0.002 C 
HETATM    5  C3  UNL     1     -33.903  17.660  -3.605  1.00 20.00     0.007 C 
HETATM    6  C4  UNL     1     -33.476  17.458  -5.055  1.00 20.00     0.021 C 
HETATM    7  C7  UNL     1     -33.716  15.974  -5.311  1.00 20.00     0.086 C 
HETATM    8  C6  UNL     1     -33.209  15.335  -4.009  1.00 20.00     0.005 C 
HETATM    9 CL10 UNL     1     -35.448  15.671  -5.627  1.00 20.00    -0.125 Cl
HETATM   10  C8  UNL     1     -33.593  13.877  -3.792  1.00 20.00     0.012 C 
ENDBRANCH   3   4
TORSDOF 1
ENDMDL
MODEL 4
REMARK VINA RESULT:      -4.4      8.967     10.799
REMARK  1 active torsions:
REMARK  status: ('A' for Active; 'I' for Inactive)
REMARK    1  A    between atoms: C5_5  and  C9_9 
ROOT
HETATM    1  C1  UNL     1     -41.658   1.713  -3.751  1.00 20.00     0.012 C 
HETATM    2  C2  UNL     1     -42.040   2.622  -3.067  1.00 20.00    -0.117 C 
HETATM    3  C9  UNL     1     -42.517   3.729  -2.230  1.00 20.00     0.098 C 
ENDROOT
BRANCH   3   4
HETATM    4  C5  UNL     1     -41.434   4.788  -2.054  1.00 20.00     0.002 C 
HETATM    5  C3  UNL     1     -40.837   4.749  -0.633  1.00 20.00     0.007 C 
HETATM    6  C4  UNL     1     -40.729   6.204  -0.188  1.00 20.00     0.021 C 
HETATM    7  C7  UNL     1     -41.900   6.894  -0.878  1.00 20.00     0.086 C 
HETATM    8  C6  UNL     1     -41.870   6.259  -2.277  1.00 20.00     0.005 C 
HETATM    9 CL10 UNL     1     -43.417   6.582   0.013  1.00 20.00    -0.125 Cl
HETATM   10  C8  UNL     1     -43.106   6.489  -3.136  1.00 20.00     0.012 C 
ENDBRANCH   3   4
TORSDOF 1
ENDMDL
MODEL 5
REMARK VINA RESULT:      -4.4     11.774     12.802
REMARK  1 active torsions:
REMARK  status: ('A' for Active; 'I' for Inactive)
REMARK    1  A    between atoms: C5_5  and  C9_9 
ROOT
HETATM    1  C1  UNL     1     -33.699  17.816  -0.420  1.00 20.00     0.012 C 
HETATM    2  C2  UNL     1     -34.156  16.975  -1.144  1.00 20.00    -0.117 C 
HETATM    3  C9  UNL     1     -34.716  15.941  -2.021  1.00 20.00     0.098 C 
ENDROOT
BRANCH   3   4
HETATM    4  C5  UNL     1     -34.576  16.331  -3.488  1.00 20.00     0.002 C 
HETATM    5  C3  UNL     1     -35.928  16.247  -4.223  1.00 20.00     0.007 C 
HETATM    6  C4  UNL     1     -35.633  15.571  -5.558  1.00 20.00     0.021 C 
HETATM    7  C7  UNL     1     -34.479  14.623  -5.251  1.00 20.00     0.086 C 
HETATM    8  C6  UNL     1     -33.593  15.481  -4.334  1.00 20.00     0.005 C 
HETATM    9 CL10 UNL     1     -35.087  13.138  -4.467  1.00 20.00    -0.125 Cl
HETATM   10  C8  UNL     1     -32.501  14.734  -3.578  1.00 20.00     0.012 C 
ENDBRANCH   3   4
TORSDOF 1
ENDMDL
MODEL 6
REMARK VINA RESULT:      -4.3     11.446     13.132
REMARK  1 active torsions:
REMARK  status: ('A' for Active; 'I' for Inactive)
REMARK    1  A    between atoms: C5_5  and  C9_9 
ROOT
HETATM    1  C1  UNL     1     -37.510  14.758  -3.862  1.00 20.00     0.012 C 
HETATM    2  C2  UNL     1     -36.750  15.096  -4.726  1.00 20.00    -0.117 C 
HETATM    3  C9  UNL     1     -35.827  15.513  -5.788  1.00 20.00     0.098 C 
ENDROOT
BRANCH   3   4
HETATM    4  C5  UNL     1     -34.451  14.885  -5.597  1.00 20.00     0.002 C 
HETATM    5  C3  UNL     1     -34.523  13.639  -4.694  1.00 20.00     0.007 C 
HETATM    6  C4  UNL     1     -33.342  13.752  -3.735  1.00 20.00     0.021 C 
HETATM    7  C7  UNL     1     -33.163  15.254  -3.538  1.00 20.00     0.086 C 
HETATM    8  C6  UNL     1     -33.364  15.792  -4.963  1.00 20.00     0.005 C 
HETATM    9 CL10 UNL     1     -34.361  15.874  -2.367  1.00 20.00    -0.125 Cl
HETATM   10  C8  UNL     1     -33.567  17.297  -5.081  1.00 20.00     0.012 C 
ENDBRANCH   3   4
TORSDOF 1
ENDMDL
MODEL 7
REMARK VINA RESULT:      -4.3     11.878     13.022
REMARK  1 active torsions:
REMARK  status: ('A' for Active; 'I' for Inactive)
REMARK    1  A    between atoms: C5_5  and  C9_9 
ROOT
HETATM    1  C1  UNL     1     -34.691  16.525  -1.389  1.00 20.00     0.012 C 
HETATM    2  C2  UNL     1     -34.071  16.024  -2.285  1.00 20.00    -0.117 C 
HETATM    3  C9  UNL     1     -33.305  15.408  -3.375  1.00 20.00     0.098 C 
ENDROOT
BRANCH   3   4
HETATM    4  C5  UNL     1     -33.923  15.733  -4.731  1.00 20.00     0.002 C 
HETATM    5  C3  UNL     1     -34.827  16.978  -4.652  1.00 20.00     0.007 C 
HETATM    6  C4  UNL     1     -36.083  16.631  -5.444  1.00 20.00     0.021 C 
HETATM    7  C7  UNL     1     -36.248  15.129  -5.243  1.00 20.00     0.086 C 
HETATM    8  C6  UNL     1     -34.802  14.626  -5.369  1.00 20.00     0.005 C 
HETATM    9 CL10 UNL     1     -36.984  14.793  -3.649  1.00 20.00    -0.125 Cl
HETATM   10  C8  UNL     1     -34.554  13.196  -4.904  1.00 20.00     0.012 C 
ENDBRANCH   3   4
TORSDOF 1
ENDMDL
MODEL 8
REMARK VINA RESULT:      -4.3     11.865     12.771
REMARK  1 active torsions:
REMARK  status: ('A' for Active; 'I' for Inactive)
REMARK    1  A    between atoms: C5_5  and  C9_9 
ROOT
HETATM    1  C1  UNL     1     -39.171  14.772  -3.872  1.00 20.00     0.012 C 
HETATM    2  C2  UNL     1     -38.012  14.879  -4.163  1.00 20.00    -0.117 C 
HETATM    3  C9  UNL     1     -36.597  15.009  -4.529  1.00 20.00     0.098 C 
ENDROOT
BRANCH   3   4
HETATM    4  C5  UNL     1     -35.701  14.913  -3.299  1.00 20.00     0.002 C 
HETATM    5  C3  UNL     1     -35.408  16.306  -2.709  1.00 20.00     0.007 C 
HETATM    6  C4  UNL     1     -33.919  16.314  -2.381  1.00 20.00     0.021 C 
HETATM    7  C7  UNL     1     -33.299  15.406  -3.439  1.00 20.00     0.086 C 
HETATM    8  C6  UNL     1     -34.313  14.254  -3.510  1.00 20.00     0.005 C 
HETATM    9 CL10 UNL     1     -33.113  16.288  -4.981  1.00 20.00    -0.125 Cl
HETATM   10  C8  UNL     1     -34.169  13.317  -4.702  1.00 20.00     0.012 C 
ENDBRANCH   3   4
TORSDOF 1
ENDMDL
MODEL 9
REMARK VINA RESULT:      -4.1     11.707     12.962
REMARK  1 active torsions:
REMARK  status: ('A' for Active; 'I' for Inactive)
REMARK    1  A    between atoms: C5_5  and  C9_9 
ROOT
HETATM    1  C1  UNL     1     -34.591  16.454  -1.073  1.00 20.00     0.012 C 
HETATM    2  C2  UNL     1     -34.924  16.821  -2.165  1.00 20.00    -0.117 C 
HETATM    3  C9  UNL     1     -35.330  17.280  -3.498  1.00 20.00     0.098 C 
ENDROOT
BRANCH   3   4
HETATM    4  C5  UNL     1     -35.754  16.107  -4.377  1.00 20.00     0.002 C 
HETATM    5  C3  UNL     1     -36.109  14.870  -3.528  1.00 20.00     0.007 C 
HETATM    6  C4  UNL     1     -35.461  13.683  -4.233  1.00 20.00     0.021 C 
HETATM    7  C7  UNL     1     -34.204  14.266  -4.868  1.00 20.00     0.086 C 
HETATM    8  C6  UNL     1     -34.710  15.611  -5.411  1.00 20.00     0.005 C 
HETATM    9 CL10 UNL     1     -32.911  14.432  -3.646  1.00 20.00    -0.125 Cl
HETATM   10  C8  UNL     1     -33.635  16.603  -5.834  1.00 20.00     0.012 C 
ENDBRANCH   3   4
TORSDOF 1
ENDMDL
