MODEL 1
REMARK VINA RESULT:      -4.9      0.000      0.000
REMARK  1 active torsions:
REMARK  status: ('A' for Active; 'I' for Inactive)
REMARK    1  A    between atoms: C4_4  and  C7_7 
ROOT
HETATM    1  C5  UNL     1     -36.347  15.690  -3.212  1.00 20.00     0.011 C 
HETATM    2  C6  UNL     1     -36.347  15.007  -4.572  1.00 20.00     0.021 C 
HETATM    3  C7  UNL     1     -34.923  15.465  -2.669  1.00 20.00     0.025 C 
HETATM    4  C8  UNL     1     -34.023  15.191  -3.913  1.00 20.00     0.008 C 
HETATM    5  C9  UNL     1     -34.973  15.377  -5.113  1.00 20.00     0.086 C 
HETATM    6  C10 UNL     1     -33.374  13.809  -3.795  1.00 20.00     0.012 C 
HETATM    7 CL12 UNL     1     -34.566  14.463  -6.573  1.00 20.00    -0.125 Cl
ENDROOT
BRANCH   3   8
HETATM    8  C4  UNL     1     -34.438  16.602  -1.795  1.00 20.00    -0.029 A 
HETATM    9  C1  UNL     1     -34.701  16.790  -0.417  1.00 20.00     0.034 A 
HETATM   10  C2  UNL     1     -34.057  17.951  -0.061  1.00 20.00     0.142 A 
HETATM   11  O11 UNL     1     -33.414  18.488  -1.130  1.00 20.00    -0.334 OA
HETATM   12  C3  UNL     1     -33.652  17.661  -2.182  1.00 20.00     0.148 A 
ENDBRANCH   3   8
TORSDOF 1
ENDMDL
MODEL 2
REMARK VINA RESULT:      -4.8      3.067      4.591
REMARK  1 active torsions:
REMARK  status: ('A' for Active; 'I' for Inactive)
REMARK    1  A    between atoms: C4_4  and  C7_7 
ROOT
HETATM    1  C5  UNL     1     -33.917  17.563  -3.846  1.00 20.00     0.011 C 
HETATM    2  C6  UNL     1     -34.513  18.765  -3.128  1.00 20.00     0.021 C 
HETATM    3  C7  UNL     1     -34.015  16.416  -2.822  1.00 20.00     0.025 C 
HETATM    4  C8  UNL     1     -35.142  16.824  -1.822  1.00 20.00     0.008 C 
HETATM    5  C9  UNL     1     -35.694  18.144  -2.396  1.00 20.00     0.086 C 
HETATM    6  C10 UNL     1     -34.575  16.909  -0.402  1.00 20.00     0.012 C 
HETATM    7 CL12 UNL     1     -36.410  19.260  -1.223  1.00 20.00    -0.125 Cl
ENDROOT
BRANCH   3   8
HETATM    8  C4  UNL     1     -34.226  15.064  -3.470  1.00 20.00    -0.029 A 
HETATM    9  C1  UNL     1     -35.459  14.492  -3.866  1.00 20.00     0.034 A 
HETATM   10  C2  UNL     1     -35.154  13.263  -4.402  1.00 20.00     0.142 A 
HETATM   11  O11 UNL     1     -33.814  13.043  -4.361  1.00 20.00    -0.334 OA
HETATM   12  C3  UNL     1     -33.257  14.144  -3.793  1.00 20.00     0.148 A 
ENDBRANCH   3   8
TORSDOF 1
ENDMDL
MODEL 3
REMARK VINA RESULT:      -4.7      1.135      1.736
REMARK  1 active torsions:
REMARK  status: ('A' for Active; 'I' for Inactive)
REMARK    1  A    between atoms: C4_4  and  C7_7 
ROOT
HETATM    1  C5  UNL     1     -33.970  14.208  -3.370  1.00 20.00     0.011 C 
HETATM    2  C6  UNL     1     -34.420  13.621  -4.699  1.00 20.00     0.021 C 
HETATM    3  C7  UNL     1     -33.729  15.699  -3.669  1.00 20.00     0.025 C 
HETATM    4  C8  UNL     1     -34.571  16.027  -4.942  1.00 20.00     0.008 C 
HETATM    5  C9  UNL     1     -35.328  14.717  -5.239  1.00 20.00     0.086 C 
HETATM    6  C10 UNL     1     -33.652  16.525  -6.062  1.00 20.00     0.012 C 
HETATM    7 CL12 UNL     1     -35.767  14.443  -6.932  1.00 20.00    -0.125 Cl
ENDROOT
BRANCH   3   8
HETATM    8  C4  UNL     1     -34.028  16.595  -2.485  1.00 20.00    -0.029 A 
HETATM    9  C1  UNL     1     -34.699  16.233  -1.293  1.00 20.00     0.034 A 
HETATM   10  C2  UNL     1     -34.735  17.368  -0.516  1.00 20.00     0.142 A 
HETATM   11  O11 UNL     1     -34.128  18.402  -1.155  1.00 20.00    -0.334 OA
HETATM   12  C3  UNL     1     -33.701  17.923  -2.352  1.00 20.00     0.148 A 
ENDBRANCH   3   8
TORSDOF 1
ENDMDL
MODEL 4
REMARK VINA RESULT:      -4.6      1.171      1.931
REMARK  1 active torsions:
REMARK  status: ('A' for Active; 'I' for Inactive)
REMARK    1  A    between atoms: C4_4  and  C7_7 
ROOT
HETATM    1  C5  UNL     1     -33.515  17.038  -4.123  1.00 20.00     0.011 C 
HETATM    2  C6  UNL     1     -33.591  15.801  -5.005  1.00 20.00     0.021 C 
HETATM    3  C7  UNL     1     -34.635  16.838  -3.084  1.00 20.00     0.025 C 
HETATM    4  C8  UNL     1     -34.915  15.303  -3.038  1.00 20.00     0.008 C 
HETATM    5  C9  UNL     1     -33.861  14.701  -3.989  1.00 20.00     0.086 C 
HETATM    6  C10 UNL     1     -36.374  15.027  -3.413  1.00 20.00     0.012 C 
HETATM    7 CL12 UNL     1     -34.301  13.172  -4.764  1.00 20.00    -0.125 Cl
ENDROOT
BRANCH   3   8
HETATM    8  C4  UNL     1     -34.305  17.444  -1.736  1.00 20.00    -0.029 A 
HETATM    9  C1  UNL     1     -34.733  16.985  -0.468  1.00 20.00     0.034 A 
HETATM   10  C2  UNL     1     -34.186  17.846   0.454  1.00 20.00     0.142 A 
HETATM   11  O11 UNL     1     -33.448  18.804  -0.166  1.00 20.00    -0.334 OA
HETATM   12  C3  UNL     1     -33.526  18.552  -1.499  1.00 20.00     0.148 A 
ENDBRANCH   3   8
TORSDOF 1
ENDMDL
MODEL 5
REMARK VINA RESULT:      -4.5      1.531      2.218
REMARK  1 active torsions:
REMARK  status: ('A' for Active; 'I' for Inactive)
REMARK    1  A    between atoms: C4_4  and  C7_7 
ROOT
HETATM    1  C5  UNL     1     -33.882  16.876  -3.760  1.00 20.00     0.011 C 
HETATM    2  C6  UNL     1     -33.649  15.688  -4.681  1.00 20.00     0.021 C 
HETATM    3  C7  UNL     1     -35.249  16.595  -3.108  1.00 20.00     0.025 C 
HETATM    4  C8  UNL     1     -35.472  15.055  -3.217  1.00 20.00     0.008 C 
HETATM    5  C9  UNL     1     -34.164  14.528  -3.841  1.00 20.00     0.086 C 
HETATM    6  C10 UNL     1     -36.746  14.767  -4.018  1.00 20.00     0.012 C 
HETATM    7 CL12 UNL     1     -34.300  13.035  -4.781  1.00 20.00    -0.125 Cl
ENDROOT
BRANCH   3   8
HETATM    8  C4  UNL     1     -35.351  17.134  -1.697  1.00 20.00    -0.029 A 
HETATM    9  C1  UNL     1     -34.560  16.763  -0.584  1.00 20.00     0.034 A 
HETATM   10  C2  UNL     1     -35.014  17.513   0.475  1.00 20.00     0.142 A 
HETATM   11  O11 UNL     1     -36.034  18.322   0.084  1.00 20.00    -0.334 OA
HETATM   12  C3  UNL     1     -36.233  18.085  -1.239  1.00 20.00     0.148 A 
ENDBRANCH   3   8
TORSDOF 1
ENDMDL
MODEL 6
REMARK VINA RESULT:      -4.5     13.762     15.226
REMARK  1 active torsions:
REMARK  status: ('A' for Active; 'I' for Inactive)
REMARK    1  A    between atoms: C4_4  and  C7_7 
ROOT
HETATM    1  C5  UNL     1     -42.912   3.882  -0.327  1.00 20.00     0.011 C 
HETATM    2  C6  UNL     1     -42.460   5.260   0.130  1.00 20.00     0.021 C 
HETATM    3  C7  UNL     1     -42.944   3.978  -1.864  1.00 20.00     0.025 C 
HETATM    4  C8  UNL     1     -41.991   5.154  -2.244  1.00 20.00     0.008 C 
HETATM    5  C9  UNL     1     -41.390   5.601  -0.897  1.00 20.00     0.086 C 
HETATM    6  C10 UNL     1     -42.770   6.230  -3.007  1.00 20.00     0.012 C 
HETATM    7 CL12 UNL     1     -40.887   7.295  -0.796  1.00 20.00    -0.125 Cl
ENDROOT
BRANCH   3   8
HETATM    8  C4  UNL     1     -42.606   2.667  -2.544  1.00 20.00    -0.029 A 
HETATM    9  C1  UNL     1     -41.488   2.400  -3.370  1.00 20.00     0.034 A 
HETATM   10  C2  UNL     1     -41.604   1.084  -3.754  1.00 20.00     0.142 A 
HETATM   11  O11 UNL     1     -42.720   0.526  -3.216  1.00 20.00    -0.334 OA
HETATM   12  C3  UNL     1     -43.324   1.496  -2.481  1.00 20.00     0.148 A 
ENDBRANCH   3   8
TORSDOF 1
ENDMDL
MODEL 7
REMARK VINA RESULT:      -4.4      3.006      4.693
REMARK  1 active torsions:
REMARK  status: ('A' for Active; 'I' for Inactive)
REMARK    1  A    between atoms: C4_4  and  C7_7 
ROOT
HETATM    1  C5  UNL     1     -35.166  16.328  -1.016  1.00 20.00     0.011 C 
HETATM    2  C6  UNL     1     -34.549  17.532  -0.320  1.00 20.00     0.021 C 
HETATM    3  C7  UNL     1     -34.887  16.565  -2.512  1.00 20.00     0.025 C 
HETATM    4  C8  UNL     1     -33.670  17.539  -2.577  1.00 20.00     0.008 C 
HETATM    5  C9  UNL     1     -33.259  17.726  -1.104  1.00 20.00     0.086 C 
HETATM    6  C10 UNL     1     -34.067  18.821  -3.317  1.00 20.00     0.012 C 
HETATM    7 CL12 UNL     1     -32.464  19.257  -0.708  1.00 20.00    -0.125 Cl
ENDROOT
BRANCH   3   8
HETATM    8  C4  UNL     1     -34.688  15.278  -3.286  1.00 20.00    -0.029 A 
HETATM    9  C1  UNL     1     -35.686  14.507  -3.927  1.00 20.00     0.034 A 
HETATM   10  C2  UNL     1     -35.035  13.436  -4.494  1.00 20.00     0.142 A 
HETATM   11  O11 UNL     1     -33.702  13.501  -4.243  1.00 20.00    -0.334 OA
HETATM   12  C3  UNL     1     -33.499  14.624  -3.507  1.00 20.00     0.148 A 
ENDBRANCH   3   8
TORSDOF 1
ENDMDL
MODEL 8
REMARK VINA RESULT:      -4.4      3.433      5.018
REMARK  1 active torsions:
REMARK  status: ('A' for Active; 'I' for Inactive)
REMARK    1  A    between atoms: C4_4  and  C7_7 
ROOT
HETATM    1  C5  UNL     1     -32.843  19.107  -0.833  1.00 20.00     0.011 C 
HETATM    2  C6  UNL     1     -33.596  18.313  -1.890  1.00 20.00     0.021 C 
HETATM    3  C7  UNL     1     -33.667  18.911   0.454  1.00 20.00     0.025 C 
HETATM    4  C8  UNL     1     -34.490  17.602   0.246  1.00 20.00     0.008 C 
HETATM    5  C9  UNL     1     -34.010  17.068  -1.118  1.00 20.00     0.086 C 
HETATM    6  C10 UNL     1     -35.988  17.906   0.343  1.00 20.00     0.012 C 
HETATM    7 CL12 UNL     1     -35.172  16.084  -2.018  1.00 20.00    -0.125 Cl
ENDROOT
BRANCH   3   8
HETATM    8  C4  UNL     1     -32.815  18.911   1.706  1.00 20.00    -0.029 A 
HETATM    9  C1  UNL     1     -31.448  19.263   1.805  1.00 20.00     0.034 A 
HETATM   10  C2  UNL     1     -31.110  19.111   3.130  1.00 20.00     0.142 A 
HETATM   11  O11 UNL     1     -32.182  18.689   3.850  1.00 20.00    -0.334 OA
HETATM   12  C3  UNL     1     -33.215  18.570   2.976  1.00 20.00     0.148 A 
ENDBRANCH   3   8
TORSDOF 1
ENDMDL
MODEL 9
REMARK VINA RESULT:      -4.4      3.221      4.705
REMARK  1 active torsions:
REMARK  status: ('A' for Active; 'I' for Inactive)
REMARK    1  A    between atoms: C4_4  and  C7_7 
ROOT
HETATM    1  C5  UNL     1     -36.088  17.341  -2.260  1.00 20.00     0.011 C 
HETATM    2  C6  UNL     1     -36.212  18.139  -0.970  1.00 20.00     0.021 C 
HETATM    3  C7  UNL     1     -34.589  16.997  -2.355  1.00 20.00     0.025 C 
HETATM    4  C8  UNL     1     -34.030  17.089  -0.901  1.00 20.00     0.008 C 
HETATM    5  C9  UNL     1     -35.273  17.387  -0.039  1.00 20.00     0.086 C 
HETATM    6  C10 UNL     1     -32.917  18.139  -0.835  1.00 20.00     0.012 C 
HETATM    7 CL12 UNL     1     -34.979  18.271   1.466  1.00 20.00    -0.125 Cl
ENDROOT
BRANCH   3   8
HETATM    8  C4  UNL     1     -34.332  15.666  -3.031  1.00 20.00    -0.029 A 
HETATM    9  C1  UNL     1     -35.295  14.694  -3.391  1.00 20.00     0.034 A 
HETATM   10  C2  UNL     1     -34.596  13.663  -3.973  1.00 20.00     0.142 A 
HETATM   11  O11 UNL     1     -33.266  13.939  -3.994  1.00 20.00    -0.334 OA
HETATM   12  C3  UNL     1     -33.114  15.160  -3.418  1.00 20.00     0.148 A 
ENDBRANCH   3   8
TORSDOF 1
ENDMDL
