MODEL 1
REMARK VINA RESULT:      -4.7      0.000      0.000
REMARK  2 active torsions:
REMARK  status: ('A' for Active; 'I' for Inactive)
REMARK    1  A    between atoms: C3_3  and  C9_9 
REMARK    2  A    between atoms: C9_9  and  C10_10 
ROOT
HETATM    1  C1  UNL     1     -34.317  14.151  -3.416  1.00 20.00     0.006 C 
HETATM    2  C2  UNL     1     -35.368  14.245  -4.521  1.00 20.00     0.016 C 
HETATM    3  C3  UNL     1     -33.769  15.574  -3.275  1.00 20.00    -0.009 C 
HETATM    4  C4  UNL     1     -33.684  16.019  -4.746  1.00 20.00    -0.000 C 
HETATM    5  C5  UNL     1     -34.951  15.435  -5.388  1.00 20.00     0.062 C 
HETATM    6  C6  UNL     1     -33.543  17.522  -4.961  1.00 20.00     0.011 C 
HETATM    7 BR11 UNL     1     -34.588  14.860  -7.214  1.00 20.00    -0.091 Br
ENDROOT
BRANCH   3   8
HETATM    8  C9  UNL     1     -34.667  16.438  -2.389  1.00 20.00     0.009 C 
BRANCH   8   9
HETATM    9  C10 UNL     1     -33.931  17.053  -1.190  1.00 20.00    -0.022 C 
HETATM   10  C7  UNL     1     -33.413  18.461  -1.483  1.00 20.00     0.009 C 
HETATM   11  C8  UNL     1     -34.863  17.086   0.024  1.00 20.00     0.009 C 
ENDBRANCH   8   9
ENDBRANCH   3   8
TORSDOF 2
ENDMDL
MODEL 2
REMARK VINA RESULT:      -4.5      0.960      2.131
REMARK  2 active torsions:
REMARK  status: ('A' for Active; 'I' for Inactive)
REMARK    1  A    between atoms: C3_3  and  C9_9 
REMARK    2  A    between atoms: C9_9  and  C10_10 
ROOT
HETATM    1  C1  UNL     1     -36.009  16.490  -3.581  1.00 20.00     0.006 C 
HETATM    2  C2  UNL     1     -35.329  16.776  -4.919  1.00 20.00     0.016 C 
HETATM    3  C3  UNL     1     -35.056  15.540  -2.852  1.00 20.00    -0.009 C 
HETATM    4  C4  UNL     1     -34.603  14.618  -3.998  1.00 20.00    -0.000 C 
HETATM    5  C5  UNL     1     -34.439  15.563  -5.197  1.00 20.00     0.062 C 
HETATM    6  C6  UNL     1     -33.354  13.793  -3.712  1.00 20.00     0.011 C 
HETATM    7 BR11 UNL     1     -34.982  14.677  -6.846  1.00 20.00    -0.091 Br
ENDROOT
BRANCH   3   8
HETATM    8  C9  UNL     1     -33.929  16.301  -2.151  1.00 20.00     0.009 C 
BRANCH   8   9
HETATM    9  C10 UNL     1     -34.420  17.515  -1.350  1.00 20.00    -0.022 C 
HETATM   10  C7  UNL     1     -34.840  17.145   0.073  1.00 20.00     0.009 C 
HETATM   11  C8  UNL     1     -33.321  18.580  -1.305  1.00 20.00     0.009 C 
ENDBRANCH   8   9
ENDBRANCH   3   8
TORSDOF 2
ENDMDL
MODEL 3
REMARK VINA RESULT:      -4.4      1.049      2.148
REMARK  2 active torsions:
REMARK  status: ('A' for Active; 'I' for Inactive)
REMARK    1  A    between atoms: C3_3  and  C9_9 
REMARK    2  A    between atoms: C9_9  and  C10_10 
ROOT
HETATM    1  C1  UNL     1     -33.943  17.425  -4.369  1.00 20.00     0.006 C 
HETATM    2  C2  UNL     1     -33.257  16.340  -5.198  1.00 20.00     0.016 C 
HETATM    3  C3  UNL     1     -35.001  16.681  -3.550  1.00 20.00    -0.009 C 
HETATM    4  C4  UNL     1     -35.540  15.675  -4.584  1.00 20.00    -0.000 C 
HETATM    5  C5  UNL     1     -34.291  15.223  -5.353  1.00 20.00     0.062 C 
HETATM    6  C6  UNL     1     -36.337  14.513  -4.003  1.00 20.00     0.011 C 
HETATM    7 BR11 UNL     1     -34.713  14.934  -7.233  1.00 20.00    -0.091 Br
ENDROOT
BRANCH   3   8
HETATM    8  C9  UNL     1     -34.401  16.054  -2.291  1.00 20.00     0.009 C 
BRANCH   8   9
HETATM    9  C10 UNL     1     -34.648  16.882  -1.021  1.00 20.00    -0.022 C 
HETATM   10  C7  UNL     1     -33.452  17.763  -0.656  1.00 20.00     0.009 C 
HETATM   11  C8  UNL     1     -35.893  17.751  -1.208  1.00 20.00     0.009 C 
ENDBRANCH   8   9
ENDBRANCH   3   8
TORSDOF 2
ENDMDL
MODEL 4
REMARK VINA RESULT:      -4.2      1.579      2.126
REMARK  2 active torsions:
REMARK  status: ('A' for Active; 'I' for Inactive)
REMARK    1  A    between atoms: C3_3  and  C9_9 
REMARK    2  A    between atoms: C9_9  and  C10_10 
ROOT
HETATM    1  C1  UNL     1     -33.654  15.646  -3.092  1.00 20.00     0.006 C 
HETATM    2  C2  UNL     1     -34.717  14.601  -3.429  1.00 20.00     0.016 C 
HETATM    3  C3  UNL     1     -34.424  16.782  -2.413  1.00 20.00    -0.009 C 
HETATM    4  C4  UNL     1     -35.700  16.846  -3.272  1.00 20.00    -0.000 C 
HETATM    5  C5  UNL     1     -36.030  15.376  -3.565  1.00 20.00     0.062 C 
HETATM    6  C6  UNL     1     -36.864  17.607  -2.648  1.00 20.00     0.011 C 
HETATM    7 BR11 UNL     1     -36.759  15.183  -5.361  1.00 20.00    -0.091 Br
ENDROOT
BRANCH   3   8
HETATM    8  C9  UNL     1     -34.658  16.496  -0.929  1.00 20.00     0.009 C 
BRANCH   8   9
HETATM    9  C10 UNL     1     -34.132  17.603  -0.004  1.00 20.00    -0.022 C 
HETATM   10  C7  UNL     1     -33.698  18.851  -0.775  1.00 20.00     0.009 C 
HETATM   11  C8  UNL     1     -35.210  17.975   1.017  1.00 20.00     0.009 C 
ENDBRANCH   8   9
ENDBRANCH   3   8
TORSDOF 2
ENDMDL
MODEL 5
REMARK VINA RESULT:      -4.2      2.474      4.632
REMARK  2 active torsions:
REMARK  status: ('A' for Active; 'I' for Inactive)
REMARK    1  A    between atoms: C3_3  and  C9_9 
REMARK    2  A    between atoms: C9_9  and  C10_10 
ROOT
HETATM    1  C1  UNL     1     -33.314  17.301  -5.059  1.00 20.00     0.006 C 
HETATM    2  C2  UNL     1     -33.899  18.562  -4.423  1.00 20.00     0.016 C 
HETATM    3  C3  UNL     1     -33.926  16.143  -4.268  1.00 20.00    -0.009 C 
HETATM    4  C4  UNL     1     -33.879  16.692  -2.830  1.00 20.00    -0.000 C 
HETATM    5  C5  UNL     1     -34.245  18.175  -2.983  1.00 20.00     0.062 C 
HETATM    6  C6  UNL     1     -34.762  15.959  -1.827  1.00 20.00     0.011 C 
HETATM    7 BR11 UNL     1     -33.236  19.263  -1.720  1.00 20.00    -0.091 Br
ENDROOT
BRANCH   3   8
HETATM    8  C9  UNL     1     -35.323  15.788  -4.778  1.00 20.00     0.009 C 
BRANCH   8   9
HETATM    9  C10 UNL     1     -35.398  14.405  -5.440  1.00 20.00    -0.022 C 
HETATM   10  C7  UNL     1     -34.937  14.428  -6.898  1.00 20.00     0.009 C 
HETATM   11  C8  UNL     1     -34.551  13.409  -4.645  1.00 20.00     0.009 C 
ENDBRANCH   8   9
ENDBRANCH   3   8
TORSDOF 2
ENDMDL
MODEL 6
REMARK VINA RESULT:      -4.1      2.653      4.956
REMARK  2 active torsions:
REMARK  status: ('A' for Active; 'I' for Inactive)
REMARK    1  A    between atoms: C3_3  and  C9_9 
REMARK    2  A    between atoms: C9_9  and  C10_10 
ROOT
HETATM    1  C1  UNL     1     -35.988  16.915  -4.627  1.00 20.00     0.006 C 
HETATM    2  C2  UNL     1     -36.417  16.545  -3.208  1.00 20.00     0.016 C 
HETATM    3  C3  UNL     1     -34.960  15.849  -5.016  1.00 20.00    -0.009 C 
HETATM    4  C4  UNL     1     -34.167  15.693  -3.706  1.00 20.00    -0.000 C 
HETATM    5  C5  UNL     1     -35.237  15.776  -2.608  1.00 20.00     0.062 C 
HETATM    6  C6  UNL     1     -33.311  14.436  -3.612  1.00 20.00     0.011 C 
HETATM    7 BR11 UNL     1     -34.540  16.701  -1.041  1.00 20.00    -0.091 Br
ENDROOT
BRANCH   3   8
HETATM    8  C9  UNL     1     -35.635  14.572  -5.519  1.00 20.00     0.009 C 
BRANCH   8   9
HETATM    9  C10 UNL     1     -35.559  14.403  -7.044  1.00 20.00    -0.022 C 
HETATM   10  C7  UNL     1     -36.808  14.928  -7.753  1.00 20.00     0.009 C 
HETATM   11  C8  UNL     1     -34.318  15.121  -7.580  1.00 20.00     0.009 C 
ENDBRANCH   8   9
ENDBRANCH   3   8
TORSDOF 2
ENDMDL
MODEL 7
REMARK VINA RESULT:      -4.1      2.497      4.697
REMARK  2 active torsions:
REMARK  status: ('A' for Active; 'I' for Inactive)
REMARK    1  A    between atoms: C3_3  and  C9_9 
REMARK    2  A    between atoms: C9_9  and  C10_10 
ROOT
HETATM    1  C1  UNL     1     -35.594  14.904  -4.151  1.00 20.00     0.006 C 
HETATM    2  C2  UNL     1     -34.552  14.816  -3.037  1.00 20.00     0.016 C 
HETATM    3  C3  UNL     1     -35.090  16.019  -5.071  1.00 20.00    -0.009 C 
HETATM    4  C4  UNL     1     -34.579  17.053  -4.052  1.00 20.00    -0.000 C 
HETATM    5  C5  UNL     1     -33.912  16.204  -2.960  1.00 20.00     0.062 C 
HETATM    6  C6  UNL     1     -33.657  18.125  -4.622  1.00 20.00     0.011 C 
HETATM    7 BR11 UNL     1     -34.204  16.997  -1.204  1.00 20.00    -0.091 Br
ENDROOT
BRANCH   3   8
HETATM    8  C9  UNL     1     -34.038  15.506  -6.055  1.00 20.00     0.009 C 
BRANCH   8   9
HETATM    9  C10 UNL     1     -34.512  15.515  -7.515  1.00 20.00    -0.022 C 
HETATM   10  C7  UNL     1     -35.587  14.463  -7.787  1.00 20.00     0.009 C 
HETATM   11  C8  UNL     1     -35.044  16.904  -7.874  1.00 20.00     0.009 C 
ENDBRANCH   8   9
ENDBRANCH   3   8
TORSDOF 2
ENDMDL
MODEL 8
REMARK VINA RESULT:      -4.0      1.450      2.008
REMARK  2 active torsions:
REMARK  status: ('A' for Active; 'I' for Inactive)
REMARK    1  A    between atoms: C3_3  and  C9_9 
REMARK    2  A    between atoms: C9_9  and  C10_10 
ROOT
HETATM    1  C1  UNL     1     -33.721  16.078  -5.439  1.00 20.00     0.006 C 
HETATM    2  C2  UNL     1     -34.559  14.899  -5.934  1.00 20.00     0.016 C 
HETATM    3  C3  UNL     1     -34.527  16.671  -4.281  1.00 20.00    -0.009 C 
HETATM    4  C4  UNL     1     -35.964  16.583  -4.827  1.00 20.00    -0.000 C 
HETATM    5  C5  UNL     1     -36.004  15.233  -5.558  1.00 20.00     0.062 C 
HETATM    6  C6  UNL     1     -37.065  16.731  -3.784  1.00 20.00     0.011 C 
HETATM    7 BR11 UNL     1     -37.118  15.352  -7.152  1.00 20.00    -0.091 Br
ENDROOT
BRANCH   3   8
HETATM    8  C9  UNL     1     -34.284  15.911  -2.977  1.00 20.00     0.009 C 
BRANCH   8   9
HETATM    9  C10 UNL     1     -33.786  16.806  -1.833  1.00 20.00    -0.022 C 
HETATM   10  C7  UNL     1     -33.698  18.278  -2.238  1.00 20.00     0.009 C 
HETATM   11  C8  UNL     1     -34.710  16.656  -0.623  1.00 20.00     0.009 C 
ENDBRANCH   8   9
ENDBRANCH   3   8
TORSDOF 2
ENDMDL
MODEL 9
REMARK VINA RESULT:      -4.0      2.608      4.739
REMARK  2 active torsions:
REMARK  status: ('A' for Active; 'I' for Inactive)
REMARK    1  A    between atoms: C3_3  and  C9_9 
REMARK    2  A    between atoms: C9_9  and  C10_10 
ROOT
HETATM    1  C1  UNL     1     -34.597  14.350  -3.646  1.00 20.00     0.006 C 
HETATM    2  C2  UNL     1     -33.816  15.556  -3.124  1.00 20.00     0.016 C 
HETATM    3  C3  UNL     1     -35.975  14.907  -4.015  1.00 20.00    -0.009 C 
HETATM    4  C4  UNL     1     -36.235  15.880  -2.851  1.00 20.00    -0.000 C 
HETATM    5  C5  UNL     1     -34.869  16.532  -2.594  1.00 20.00     0.062 C 
HETATM    6  C6  UNL     1     -37.346  16.896  -3.092  1.00 20.00     0.011 C 
HETATM    7 BR11 UNL     1     -34.611  16.852  -0.689  1.00 20.00    -0.091 Br
ENDROOT
BRANCH   3   8
HETATM    8  C9  UNL     1     -35.971  15.546  -5.404  1.00 20.00     0.009 C 
BRANCH   8   9
HETATM    9  C10 UNL     1     -34.907  14.960  -6.342  1.00 20.00    -0.022 C 
HETATM   10  C7  UNL     1     -35.519  14.266  -7.559  1.00 20.00     0.009 C 
HETATM   11  C8  UNL     1     -33.959  16.070  -6.802  1.00 20.00     0.009 C 
ENDBRANCH   8   9
ENDBRANCH   3   8
TORSDOF 2
ENDMDL
