MODEL 1
REMARK VINA RESULT:      -4.9      0.000      0.000
REMARK  1 active torsions:
REMARK  status: ('A' for Active; 'I' for Inactive)
REMARK    1  A    between atoms: C6_6  and  N9_9 
ROOT
HETATM    1  C1  UNL     1     -32.340   7.174   2.867  1.00 20.00     0.158 C 
HETATM    2  N9  UNL     1     -32.608   6.307   3.612  1.00 20.00    -0.270 NA
HETATM    3  S10 UNL     1     -31.952   8.336   1.848  1.00 20.00    -0.055 SA
ENDROOT
BRANCH   2   4
HETATM    4  C6  UNL     1     -33.864   6.491   4.345  1.00 20.00     0.113 C 
HETATM    5  C3  UNL     1     -33.590   6.505   5.848  1.00 20.00     0.028 C 
HETATM    6  C2  UNL     1     -34.738   5.716   6.457  1.00 20.00     0.007 C 
HETATM    7  C4  UNL     1     -35.014   4.611   5.439  1.00 20.00    -0.013 C 
HETATM    8  C5  UNL     1     -34.818   5.307   4.075  1.00 20.00     0.010 C 
HETATM    9  C7  UNL     1     -34.055   3.431   5.611  1.00 20.00     0.010 C 
HETATM   10  C8  UNL     1     -36.152   5.808   3.516  1.00 20.00     0.012 C 
ENDBRANCH   2   4
TORSDOF 1
ENDMDL
MODEL 2
REMARK VINA RESULT:      -4.4     11.730     12.660
REMARK  1 active torsions:
REMARK  status: ('A' for Active; 'I' for Inactive)
REMARK    1  A    between atoms: C6_6  and  N9_9 
ROOT
HETATM    1  C1  UNL     1     -34.204  16.465  -1.832  1.00 20.00     0.158 C 
HETATM    2  N9  UNL     1     -33.897  15.978  -2.856  1.00 20.00    -0.270 NA
HETATM    3  S10 UNL     1     -34.600  17.147  -0.448  1.00 20.00    -0.055 SA
ENDROOT
BRANCH   2   4
HETATM    4  C6  UNL     1     -34.673  14.792  -3.231  1.00 20.00     0.113 C 
HETATM    5  C3  UNL     1     -33.746  13.734  -3.827  1.00 20.00     0.028 C 
HETATM    6  C2  UNL     1     -34.530  13.144  -4.988  1.00 20.00     0.007 C 
HETATM    7  C4  UNL     1     -35.292  14.335  -5.568  1.00 20.00    -0.013 C 
HETATM    8  C5  UNL     1     -35.702  15.152  -4.325  1.00 20.00     0.010 C 
HETATM    9  C7  UNL     1     -34.418  15.157  -6.518  1.00 20.00     0.010 C 
HETATM   10  C8  UNL     1     -37.118  14.790  -3.870  1.00 20.00     0.012 C 
ENDBRANCH   2   4
TORSDOF 1
ENDMDL
MODEL 3
REMARK VINA RESULT:      -4.2      9.370     10.640
REMARK  1 active torsions:
REMARK  status: ('A' for Active; 'I' for Inactive)
REMARK    1  A    between atoms: C6_6  and  N9_9 
ROOT
HETATM    1  C1  UNL     1     -42.138   2.745  -3.059  1.00 20.00     0.158 C 
HETATM    2  N9  UNL     1     -42.616   3.603  -2.416  1.00 20.00    -0.270 NA
HETATM    3  S10 UNL     1     -41.516   1.564  -3.929  1.00 20.00    -0.055 SA
ENDROOT
BRANCH   2   4
HETATM    4  C6  UNL     1     -41.762   4.780  -2.228  1.00 20.00     0.113 C 
HETATM    5  C3  UNL     1     -40.761   4.519  -1.103  1.00 20.00     0.028 C 
HETATM    6  C2  UNL     1     -40.693   5.830  -0.336  1.00 20.00     0.007 C 
HETATM    7  C4  UNL     1     -42.125   6.363  -0.380  1.00 20.00    -0.013 C 
HETATM    8  C5  UNL     1     -42.613   5.994  -1.796  1.00 20.00     0.010 C 
HETATM    9  C7  UNL     1     -43.000   5.724   0.701  1.00 20.00     0.010 C 
HETATM   10  C8  UNL     1     -42.417   7.160  -2.768  1.00 20.00     0.012 C 
ENDBRANCH   2   4
TORSDOF 1
ENDMDL
MODEL 4
REMARK VINA RESULT:      -4.1     12.023     13.005
REMARK  1 active torsions:
REMARK  status: ('A' for Active; 'I' for Inactive)
REMARK    1  A    between atoms: C6_6  and  N9_9 
ROOT
HETATM    1  C1  UNL     1     -37.864  14.936  -4.065  1.00 20.00     0.158 C 
HETATM    2  N9  UNL     1     -36.935  14.751  -3.371  1.00 20.00    -0.270 NA
HETATM    3  S10 UNL     1     -39.136  15.161  -4.997  1.00 20.00    -0.055 SA
ENDROOT
BRANCH   2   4
HETATM    4  C6  UNL     1     -35.922  15.810  -3.403  1.00 20.00     0.113 C 
HETATM    5  C3  UNL     1     -35.344  15.932  -4.812  1.00 20.00     0.028 C 
HETATM    6  C2  UNL     1     -33.856  16.162  -4.601  1.00 20.00     0.007 C 
HETATM    7  C4  UNL     1     -33.515  15.302  -3.385  1.00 20.00    -0.013 C 
HETATM    8  C5  UNL     1     -34.746  15.453  -2.467  1.00 20.00     0.010 C 
HETATM    9  C7  UNL     1     -33.279  13.841  -3.773  1.00 20.00     0.010 C 
HETATM   10  C8  UNL     1     -34.530  16.559  -1.431  1.00 20.00     0.012 C 
ENDBRANCH   2   4
TORSDOF 1
ENDMDL
MODEL 5
REMARK VINA RESULT:      -4.1     12.409     13.545
REMARK  1 active torsions:
REMARK  status: ('A' for Active; 'I' for Inactive)
REMARK    1  A    between atoms: C6_6  and  N9_9 
ROOT
HETATM    1  C1  UNL     1     -33.542  17.987  -5.665  1.00 20.00     0.158 C 
HETATM    2  N9  UNL     1     -33.185  17.187  -4.883  1.00 20.00    -0.270 NA
HETATM    3  S10 UNL     1     -34.000  19.087  -6.722  1.00 20.00    -0.055 SA
ENDROOT
BRANCH   2   4
HETATM    4  C6  UNL     1     -34.135  16.096  -4.641  1.00 20.00     0.113 C 
HETATM    5  C3  UNL     1     -35.510  16.671  -4.306  1.00 20.00     0.028 C 
HETATM    6  C2  UNL     1     -36.041  15.781  -3.194  1.00 20.00     0.007 C 
HETATM    7  C4  UNL     1     -34.802  15.440  -2.366  1.00 20.00    -0.013 C 
HETATM    8  C5  UNL     1     -33.690  15.262  -3.420  1.00 20.00     0.010 C 
HETATM    9  C7  UNL     1     -34.463  16.553  -1.372  1.00 20.00     0.010 C 
HETATM   10  C8  UNL     1     -33.526  13.790  -3.806  1.00 20.00     0.012 C 
ENDBRANCH   2   4
TORSDOF 1
ENDMDL
MODEL 6
REMARK VINA RESULT:      -4.1     11.932     13.075
REMARK  1 active torsions:
REMARK  status: ('A' for Active; 'I' for Inactive)
REMARK    1  A    between atoms: C6_6  and  N9_9 
ROOT
HETATM    1  C1  UNL     1     -38.001  14.769  -4.202  1.00 20.00     0.158 C 
HETATM    2  N9  UNL     1     -37.075  14.171  -3.796  1.00 20.00    -0.270 NA
HETATM    3  S10 UNL     1     -39.274  15.565  -4.734  1.00 20.00    -0.055 SA
ENDROOT
BRANCH   2   4
HETATM    4  C6  UNL     1     -35.799  14.502  -4.437  1.00 20.00     0.113 C 
HETATM    5  C3  UNL     1     -34.675  13.678  -3.809  1.00 20.00     0.028 C 
HETATM    6  C2  UNL     1     -33.504  14.642  -3.701  1.00 20.00     0.007 C 
HETATM    7  C4  UNL     1     -34.154  15.983  -3.361  1.00 20.00    -0.013 C 
HETATM    8  C5  UNL     1     -35.451  15.988  -4.198  1.00 20.00     0.010 C 
HETATM    9  C7  UNL     1     -34.450  16.105  -1.865  1.00 20.00     0.010 C 
HETATM   10  C8  UNL     1     -35.244  16.712  -5.531  1.00 20.00     0.012 C 
ENDBRANCH   2   4
TORSDOF 1
ENDMDL
MODEL 7
REMARK VINA RESULT:      -4.0     11.777     12.942
REMARK  1 active torsions:
REMARK  status: ('A' for Active; 'I' for Inactive)
REMARK    1  A    between atoms: C6_6  and  N9_9 
ROOT
HETATM    1  C1  UNL     1     -34.739  16.880  -2.810  1.00 20.00     0.158 C 
HETATM    2  N9  UNL     1     -34.876  17.044  -3.965  1.00 20.00    -0.270 NA
HETATM    3  S10 UNL     1     -34.543  16.686  -1.241  1.00 20.00    -0.055 SA
ENDROOT
BRANCH   2   4
HETATM    4  C6  UNL     1     -35.389  15.881  -4.696  1.00 20.00     0.113 C 
HETATM    5  C3  UNL     1     -36.014  14.889  -3.716  1.00 20.00     0.028 C 
HETATM    6  C2  UNL     1     -35.588  13.522  -4.229  1.00 20.00     0.007 C 
HETATM    7  C4  UNL     1     -34.170  13.745  -4.754  1.00 20.00    -0.013 C 
HETATM    8  C5  UNL     1     -34.233  15.143  -5.405  1.00 20.00     0.010 C 
HETATM    9  C7  UNL     1     -33.135  13.695  -3.629  1.00 20.00     0.010 C 
HETATM   10  C8  UNL     1     -34.504  15.040  -6.908  1.00 20.00     0.012 C 
ENDBRANCH   2   4
TORSDOF 1
ENDMDL
MODEL 8
REMARK VINA RESULT:      -4.0     12.319     13.354
REMARK  1 active torsions:
REMARK  status: ('A' for Active; 'I' for Inactive)
REMARK    1  A    between atoms: C6_6  and  N9_9 
ROOT
HETATM    1  C1  UNL     1     -36.341  17.785  -4.267  1.00 20.00     0.158 C 
HETATM    2  N9  UNL     1     -35.402  17.301  -4.779  1.00 20.00    -0.270 NA
HETATM    3  S10 UNL     1     -37.627  18.446  -3.599  1.00 20.00    -0.055 SA
ENDROOT
BRANCH   2   4
HETATM    4  C6  UNL     1     -34.345  16.879  -3.855  1.00 20.00     0.113 C 
HETATM    5  C3  UNL     1     -33.223  16.190  -4.630  1.00 20.00     0.028 C 
HETATM    6  C2  UNL     1     -32.808  15.022  -3.751  1.00 20.00     0.007 C 
HETATM    7  C4  UNL     1     -34.117  14.540  -3.126  1.00 20.00    -0.013 C 
HETATM    8  C5  UNL     1     -34.895  15.844  -2.850  1.00 20.00     0.010 C 
HETATM    9  C7  UNL     1     -34.887  13.614  -4.070  1.00 20.00     0.010 C 
HETATM   10  C8  UNL     1     -34.678  16.322  -1.412  1.00 20.00     0.012 C 
ENDBRANCH   2   4
TORSDOF 1
ENDMDL
MODEL 9
REMARK VINA RESULT:      -4.0     11.885     13.464
REMARK  1 active torsions:
REMARK  status: ('A' for Active; 'I' for Inactive)
REMARK    1  A    between atoms: C6_6  and  N9_9 
ROOT
HETATM    1  C1  UNL     1     -38.261  14.888  -3.601  1.00 20.00     0.158 C 
HETATM    2  N9  UNL     1     -37.367  14.189  -3.903  1.00 20.00    -0.270 NA
HETATM    3  S10 UNL     1     -39.492  15.813  -3.193  1.00 20.00    -0.055 SA
ENDROOT
BRANCH   2   4
HETATM    4  C6  UNL     1     -36.056  14.844  -3.931  1.00 20.00     0.113 C 
HETATM    5  C3  UNL     1     -36.150  16.161  -4.699  1.00 20.00     0.028 C 
HETATM    6  C2  UNL     1     -34.869  16.224  -5.515  1.00 20.00     0.007 C 
HETATM    7  C4  UNL     1     -34.614  14.774  -5.923  1.00 20.00    -0.013 C 
HETATM    8  C5  UNL     1     -35.034  13.961  -4.681  1.00 20.00     0.010 C 
HETATM    9  C7  UNL     1     -35.431  14.381  -7.155  1.00 20.00     0.010 C 
HETATM   10  C8  UNL     1     -33.829  13.657  -3.787  1.00 20.00     0.012 C 
ENDBRANCH   2   4
TORSDOF 1
ENDMDL
