MODEL 1
REMARK VINA RESULT:      -4.7      0.000      0.000
REMARK  2 active torsions:
REMARK  status: ('A' for Active; 'I' for Inactive)
REMARK    1  A    between atoms: C3_3  and  C8_8 
REMARK    2  A    between atoms: C8_8  and  C9_9 
ROOT
HETATM    1  C1  UNL     1     -33.308  16.632  -4.519  1.00 20.00     0.006 C 
HETATM    2  C2  UNL     1     -33.702  16.369  -5.969  1.00 20.00     0.021 C 
HETATM    3  C3  UNL     1     -33.566  15.317  -3.753  1.00 20.00    -0.009 C 
HETATM    4  C4  UNL     1     -34.156  14.344  -4.804  1.00 20.00     0.004 C 
HETATM    5  C5  UNL     1     -34.757  15.279  -5.857  1.00 20.00     0.086 C 
HETATM    6  C6  UNL     1     -35.138  13.303  -4.279  1.00 20.00     0.012 C 
HETATM    7 CL10 UNL     1     -35.044  14.483  -7.414  1.00 20.00    -0.125 Cl
ENDROOT
BRANCH   3   8
HETATM    8  C8  UNL     1     -34.441  15.572  -2.528  1.00 20.00     0.005 C 
BRANCH   8   9
HETATM    9  C9  UNL     1     -33.963  16.794  -1.752  1.00 20.00    -0.004 C 
HETATM   10  C7  UNL     1     -34.687  16.921  -0.423  1.00 20.00     0.005 C 
ENDBRANCH   8   9
ENDBRANCH   3   8
TORSDOF 2
ENDMDL
MODEL 2
REMARK VINA RESULT:      -4.5     11.661     12.879
REMARK  2 active torsions:
REMARK  status: ('A' for Active; 'I' for Inactive)
REMARK    1  A    between atoms: C3_3  and  C8_8 
REMARK    2  A    between atoms: C8_8  and  C9_9 
ROOT
HETATM    1  C1  UNL     1     -33.234   7.185   5.598  1.00 20.00     0.006 C 
HETATM    2  C2  UNL     1     -34.065   6.126   6.315  1.00 20.00     0.021 C 
HETATM    3  C3  UNL     1     -33.507   7.006   4.089  1.00 20.00    -0.009 C 
HETATM    4  C4  UNL     1     -34.467   5.794   3.992  1.00 20.00     0.004 C 
HETATM    5  C5  UNL     1     -34.191   5.017   5.282  1.00 20.00     0.086 C 
HETATM    6  C6  UNL     1     -34.353   4.947   2.731  1.00 20.00     0.012 C 
HETATM    7 CL10 UNL     1     -35.483   3.877   5.699  1.00 20.00    -0.125 Cl
ENDROOT
BRANCH   3   8
HETATM    8  C8  UNL     1     -32.196   6.869   3.318  1.00 20.00     0.005 C 
BRANCH   8   9
HETATM    9  C9  UNL     1     -31.681   8.229   2.859  1.00 20.00    -0.004 C 
HETATM   10  C7  UNL     1     -32.043   8.494   1.407  1.00 20.00     0.005 C 
ENDBRANCH   8   9
ENDBRANCH   3   8
TORSDOF 2
ENDMDL
MODEL 3
REMARK VINA RESULT:      -4.5      1.217      2.092
REMARK  2 active torsions:
REMARK  status: ('A' for Active; 'I' for Inactive)
REMARK    1  A    between atoms: C3_3  and  C8_8 
REMARK    2  A    between atoms: C8_8  and  C9_9 
ROOT
HETATM    1  C1  UNL     1     -34.256  13.693  -3.444  1.00 20.00     0.006 C 
HETATM    2  C2  UNL     1     -34.417  13.326  -4.916  1.00 20.00     0.021 C 
HETATM    3  C3  UNL     1     -34.975  15.046  -3.252  1.00 20.00    -0.009 C 
HETATM    4  C4  UNL     1     -35.490  15.436  -4.660  1.00 20.00     0.004 C 
HETATM    5  C5  UNL     1     -34.554  14.676  -5.604  1.00 20.00     0.086 C 
HETATM    6  C6  UNL     1     -35.575  16.929  -4.954  1.00 20.00     0.012 C 
HETATM    7 CL10 UNL     1     -35.202  14.511  -7.245  1.00 20.00    -0.125 Cl
ENDROOT
BRANCH   3   8
HETATM    8  C8  UNL     1     -34.045  16.059  -2.588  1.00 20.00     0.005 C 
BRANCH   8   9
HETATM    9  C9  UNL     1     -34.584  16.495  -1.230  1.00 20.00    -0.004 C 
HETATM   10  C7  UNL     1     -33.779  17.653  -0.664  1.00 20.00     0.005 C 
ENDBRANCH   8   9
ENDBRANCH   3   8
TORSDOF 2
ENDMDL
MODEL 4
REMARK VINA RESULT:      -4.5      2.520      4.245
REMARK  2 active torsions:
REMARK  status: ('A' for Active; 'I' for Inactive)
REMARK    1  A    between atoms: C3_3  and  C8_8 
REMARK    2  A    between atoms: C8_8  and  C9_9 
ROOT
HETATM    1  C1  UNL     1     -36.597  14.476  -4.218  1.00 20.00     0.006 C 
HETATM    2  C2  UNL     1     -36.329  15.505  -3.125  1.00 20.00     0.021 C 
HETATM    3  C3  UNL     1     -35.340  13.581  -4.289  1.00 20.00    -0.009 C 
HETATM    4  C4  UNL     1     -34.361  14.172  -3.246  1.00 20.00     0.004 C 
HETATM    5  C5  UNL     1     -34.813  15.629  -3.118  1.00 20.00     0.086 C 
HETATM    6  C6  UNL     1     -32.877  14.018  -3.554  1.00 20.00     0.012 C 
HETATM    7 CL10 UNL     1     -34.227  16.415  -1.642  1.00 20.00    -0.125 Cl
ENDROOT
BRANCH   3   8
HETATM    8  C8  UNL     1     -34.812  13.509  -5.720  1.00 20.00     0.005 C 
BRANCH   8   9
HETATM    9  C9  UNL     1     -35.354  14.655  -6.568  1.00 20.00    -0.004 C 
HETATM   10  C7  UNL     1     -34.255  15.641  -6.927  1.00 20.00     0.005 C 
ENDBRANCH   8   9
ENDBRANCH   3   8
TORSDOF 2
ENDMDL
MODEL 5
REMARK VINA RESULT:      -4.3      1.669      2.509
REMARK  2 active torsions:
REMARK  status: ('A' for Active; 'I' for Inactive)
REMARK    1  A    between atoms: C3_3  and  C8_8 
REMARK    2  A    between atoms: C8_8  and  C9_9 
ROOT
HETATM    1  C1  UNL     1     -35.969  16.508  -2.813  1.00 20.00     0.006 C 
HETATM    2  C2  UNL     1     -36.309  15.203  -3.528  1.00 20.00     0.021 C 
HETATM    3  C3  UNL     1     -34.460  16.746  -3.038  1.00 20.00    -0.009 C 
HETATM    4  C4  UNL     1     -33.971  15.520  -3.849  1.00 20.00     0.004 C 
HETATM    5  C5  UNL     1     -34.996  14.435  -3.506  1.00 20.00     0.086 C 
HETATM    6  C6  UNL     1     -32.527  15.092  -3.615  1.00 20.00     0.012 C 
HETATM    7 CL10 UNL     1     -35.004  13.092  -4.663  1.00 20.00    -0.125 Cl
ENDROOT
BRANCH   3   8
HETATM    8  C8  UNL     1     -33.748  16.980  -1.707  1.00 20.00     0.005 C 
BRANCH   8   9
HETATM    9  C9  UNL     1     -34.685  16.731  -0.529  1.00 20.00    -0.004 C 
HETATM   10  C7  UNL     1     -34.544  17.816   0.525  1.00 20.00     0.005 C 
ENDBRANCH   8   9
ENDBRANCH   3   8
TORSDOF 2
ENDMDL
MODEL 6
REMARK VINA RESULT:      -4.2     11.528     12.809
REMARK  2 active torsions:
REMARK  status: ('A' for Active; 'I' for Inactive)
REMARK    1  A    between atoms: C3_3  and  C8_8 
REMARK    2  A    between atoms: C8_8  and  C9_9 
ROOT
HETATM    1  C1  UNL     1     -33.952   5.393   2.855  1.00 20.00     0.006 C 
HETATM    2  C2  UNL     1     -34.820   4.607   3.832  1.00 20.00     0.021 C 
HETATM    3  C3  UNL     1     -33.011   6.266   3.714  1.00 20.00    -0.009 C 
HETATM    4  C4  UNL     1     -33.415   5.977   5.181  1.00 20.00     0.004 C 
HETATM    5  C5  UNL     1     -34.865   5.501   5.063  1.00 20.00     0.086 C 
HETATM    6  C6  UNL     1     -33.226   7.123   6.167  1.00 20.00     0.012 C 
HETATM    7 CL10 UNL     1     -35.428   4.617   6.493  1.00 20.00    -0.125 Cl
ENDROOT
BRANCH   3   8
HETATM    8  C8  UNL     1     -33.093   7.729   3.284  1.00 20.00     0.005 C 
BRANCH   8   9
HETATM    9  C9  UNL     1     -32.079   8.042   2.189  1.00 20.00    -0.004 C 
HETATM   10  C7  UNL     1     -32.387   9.368   1.515  1.00 20.00     0.005 C 
ENDBRANCH   8   9
ENDBRANCH   3   8
TORSDOF 2
ENDMDL
MODEL 7
REMARK VINA RESULT:      -4.2      1.159      1.288
REMARK  2 active torsions:
REMARK  status: ('A' for Active; 'I' for Inactive)
REMARK    1  A    between atoms: C3_3  and  C8_8 
REMARK    2  A    between atoms: C8_8  and  C9_9 
ROOT
HETATM    1  C1  UNL     1     -33.315  15.924  -3.549  1.00 20.00     0.006 C 
HETATM    2  C2  UNL     1     -33.485  15.680  -5.045  1.00 20.00     0.021 C 
HETATM    3  C3  UNL     1     -34.541  15.284  -2.862  1.00 20.00    -0.009 C 
HETATM    4  C4  UNL     1     -35.410  14.727  -4.018  1.00 20.00     0.004 C 
HETATM    5  C5  UNL     1     -34.993  15.581  -5.219  1.00 20.00     0.086 C 
HETATM    6  C6  UNL     1     -36.914  14.704  -3.776  1.00 20.00     0.012 C 
HETATM    7 CL10 UNL     1     -35.426  14.853  -6.775  1.00 20.00    -0.125 Cl
ENDROOT
BRANCH   3   8
HETATM    8  C8  UNL     1     -35.232  16.292  -1.947  1.00 20.00     0.005 C 
BRANCH   8   9
HETATM    9  C9  UNL     1     -34.257  16.870  -0.926  1.00 20.00    -0.004 C 
HETATM   10  C7  UNL     1     -34.986  17.366   0.312  1.00 20.00     0.005 C 
ENDBRANCH   8   9
ENDBRANCH   3   8
TORSDOF 2
ENDMDL
MODEL 8
REMARK VINA RESULT:      -4.1      2.037      3.700
REMARK  2 active torsions:
REMARK  status: ('A' for Active; 'I' for Inactive)
REMARK    1  A    between atoms: C3_3  and  C8_8 
REMARK    2  A    between atoms: C8_8  and  C9_9 
ROOT
HETATM    1  C1  UNL     1     -34.732  15.913  -2.066  1.00 20.00     0.006 C 
HETATM    2  C2  UNL     1     -35.823  16.892  -2.490  1.00 20.00     0.021 C 
HETATM    3  C3  UNL     1     -33.552  16.130  -3.039  1.00 20.00    -0.009 C 
HETATM    4  C4  UNL     1     -34.039  17.213  -4.033  1.00 20.00     0.004 C 
HETATM    5  C5  UNL     1     -35.564  17.090  -3.976  1.00 20.00     0.086 C 
HETATM    6  C6  UNL     1     -33.471  17.133  -5.445  1.00 20.00     0.012 C 
HETATM    7 CL10 UNL     1     -36.404  18.519  -4.602  1.00 20.00    -0.125 Cl
ENDROOT
BRANCH   3   8
HETATM    8  C8  UNL     1     -33.123  14.806  -3.667  1.00 20.00     0.005 C 
BRANCH   8   9
HETATM    9  C9  UNL     1     -34.224  13.757  -3.550  1.00 20.00    -0.004 C 
HETATM   10  C7  UNL     1     -34.746  13.351  -4.918  1.00 20.00     0.005 C 
ENDBRANCH   8   9
ENDBRANCH   3   8
TORSDOF 2
ENDMDL
MODEL 9
REMARK VINA RESULT:      -3.9      2.388      4.327
REMARK  2 active torsions:
REMARK  status: ('A' for Active; 'I' for Inactive)
REMARK    1  A    between atoms: C3_3  and  C8_8 
REMARK    2  A    between atoms: C8_8  and  C9_9 
ROOT
HETATM    1  C1  UNL     1     -34.416  13.835  -4.909  1.00 20.00     0.006 C 
HETATM    2  C2  UNL     1     -34.564  14.126  -3.419  1.00 20.00     0.021 C 
HETATM    3  C3  UNL     1     -33.778  15.094  -5.536  1.00 20.00    -0.009 C 
HETATM    4  C4  UNL     1     -33.626  16.098  -4.367  1.00 20.00     0.004 C 
HETATM    5  C5  UNL     1     -34.690  15.641  -3.365  1.00 20.00     0.086 C 
HETATM    6  C6  UNL     1     -33.725  17.574  -4.732  1.00 20.00     0.012 C 
HETATM    7 CL10 UNL     1     -34.418  16.262  -1.727  1.00 20.00    -0.125 Cl
ENDROOT
BRANCH   3   8
HETATM    8  C8  UNL     1     -34.610  15.584  -6.720  1.00 20.00     0.005 C 
BRANCH   8   9
HETATM    9  C9  UNL     1     -35.904  14.790  -6.853  1.00 20.00    -0.004 C 
HETATM   10  C7  UNL     1     -37.114  15.650  -6.528  1.00 20.00     0.005 C 
ENDBRANCH   8   9
ENDBRANCH   3   8
TORSDOF 2
ENDMDL
