MODEL 1
REMARK VINA RESULT:      -5.4      0.000      0.000
REMARK  1 active torsions:
REMARK  status: ('A' for Active; 'I' for Inactive)
REMARK    1  A    between atoms: C5_5  and  C9_9 
ROOT
HETATM    1  C1  UNL     1     -32.155   8.812   1.356  1.00 20.00     0.012 C 
HETATM    2  C2  UNL     1     -32.052   8.062   2.287  1.00 20.00    -0.117 C 
HETATM    3  C9  UNL     1     -31.919   7.143   3.423  1.00 20.00     0.098 C 
ENDROOT
BRANCH   3   4
HETATM    4  C5  UNL     1     -33.258   6.922   4.113  1.00 20.00     0.002 C 
HETATM    5  C3  UNL     1     -33.195   7.204   5.624  1.00 20.00     0.007 C 
HETATM    6  C4  UNL     1     -34.044   6.123   6.300  1.00 20.00     0.021 C 
HETATM    7  C7  UNL     1     -34.782   5.429   5.161  1.00 20.00     0.086 C 
HETATM    8  C6  UNL     1     -33.775   5.477   4.010  1.00 20.00     0.005 C 
HETATM    9 CL10 UNL     1     -35.261   3.778   5.597  1.00 20.00    -0.125 Cl
HETATM   10  C8  UNL     1     -34.390   5.155   2.653  1.00 20.00     0.012 C 
ENDBRANCH   3   4
TORSDOF 1
ENDMDL
MODEL 2
REMARK VINA RESULT:      -4.8     11.262     12.546
REMARK  1 active torsions:
REMARK  status: ('A' for Active; 'I' for Inactive)
REMARK    1  A    between atoms: C5_5  and  C9_9 
ROOT
HETATM    1  C1  UNL     1     -34.786  16.956  -0.379  1.00 20.00     0.012 C 
HETATM    2  C2  UNL     1     -34.311  16.567  -1.409  1.00 20.00    -0.117 C 
HETATM    3  C9  UNL     1     -33.723  16.097  -2.669  1.00 20.00     0.098 C 
ENDROOT
BRANCH   3   4
HETATM    4  C5  UNL     1     -34.696  15.209  -3.433  1.00 20.00     0.002 C 
HETATM    5  C3  UNL     1     -34.219  13.750  -3.518  1.00 20.00     0.007 C 
HETATM    6  C4  UNL     1     -34.562  13.266  -4.931  1.00 20.00     0.021 C 
HETATM    7  C7  UNL     1     -35.458  14.351  -5.516  1.00 20.00     0.086 C 
HETATM    8  C6  UNL     1     -34.902  15.635  -4.897  1.00 20.00     0.005 C 
HETATM    9 CL10 UNL     1     -35.413  14.357  -7.288  1.00 20.00    -0.125 Cl
HETATM   10  C8  UNL     1     -35.832  16.833  -5.049  1.00 20.00     0.012 C 
ENDBRANCH   3   4
TORSDOF 1
ENDMDL
MODEL 3
REMARK VINA RESULT:      -4.7     11.539     12.933
REMARK  1 active torsions:
REMARK  status: ('A' for Active; 'I' for Inactive)
REMARK    1  A    between atoms: C5_5  and  C9_9 
ROOT
HETATM    1  C1  UNL     1     -34.077  17.955   0.314  1.00 20.00     0.012 C 
HETATM    2  C2  UNL     1     -34.361  17.157  -0.535  1.00 20.00    -0.117 C 
HETATM    3  C9  UNL     1     -34.712  16.177  -1.569  1.00 20.00     0.098 C 
ENDROOT
BRANCH   3   4
HETATM    4  C5  UNL     1     -33.782  16.286  -2.770  1.00 20.00     0.002 C 
HETATM    5  C3  UNL     1     -33.741  17.708  -3.356  1.00 20.00     0.007 C 
HETATM    6  C4  UNL     1     -33.706  17.546  -4.878  1.00 20.00     0.021 C 
HETATM    7  C7  UNL     1     -33.455  16.061  -5.114  1.00 20.00     0.086 C 
HETATM    8  C6  UNL     1     -34.193  15.392  -3.953  1.00 20.00     0.005 C 
HETATM    9 CL10 UNL     1     -34.042  15.538  -6.703  1.00 20.00    -0.125 Cl
HETATM   10  C8  UNL     1     -33.816  13.928  -3.758  1.00 20.00     0.012 C 
ENDBRANCH   3   4
TORSDOF 1
ENDMDL
MODEL 4
REMARK VINA RESULT:      -4.4     11.405     12.089
REMARK  1 active torsions:
REMARK  status: ('A' for Active; 'I' for Inactive)
REMARK    1  A    between atoms: C5_5  and  C9_9 
ROOT
HETATM    1  C1  UNL     1     -33.152  18.595  -0.801  1.00 20.00     0.012 C 
HETATM    2  C2  UNL     1     -33.815  17.609  -0.964  1.00 20.00    -0.117 C 
HETATM    3  C9  UNL     1     -34.624  16.400  -1.157  1.00 20.00     0.098 C 
ENDROOT
BRANCH   3   4
HETATM    4  C5  UNL     1     -34.919  16.164  -2.633  1.00 20.00     0.002 C 
HETATM    5  C3  UNL     1     -36.414  15.919  -2.902  1.00 20.00     0.007 C 
HETATM    6  C4  UNL     1     -36.485  14.814  -3.960  1.00 20.00     0.021 C 
HETATM    7  C7  UNL     1     -35.055  14.651  -4.461  1.00 20.00     0.086 C 
HETATM    8  C6  UNL     1     -34.213  14.927  -3.214  1.00 20.00     0.005 C 
HETATM    9 CL10 UNL     1     -34.776  13.039  -5.144  1.00 20.00    -0.125 Cl
HETATM   10  C8  UNL     1     -32.739  15.165  -3.518  1.00 20.00     0.012 C 
ENDBRANCH   3   4
TORSDOF 1
ENDMDL
MODEL 5
REMARK VINA RESULT:      -4.4      9.327     11.152
REMARK  1 active torsions:
REMARK  status: ('A' for Active; 'I' for Inactive)
REMARK    1  A    between atoms: C5_5  and  C9_9 
ROOT
HETATM    1  C1  UNL     1     -41.533   1.349  -4.080  1.00 20.00     0.012 C 
HETATM    2  C2  UNL     1     -41.972   2.139  -3.291  1.00 20.00    -0.117 C 
HETATM    3  C9  UNL     1     -42.516   3.100  -2.325  1.00 20.00     0.098 C 
ENDROOT
BRANCH   3   4
HETATM    4  C5  UNL     1     -41.668   4.364  -2.268  1.00 20.00     0.002 C 
HETATM    5  C3  UNL     1     -40.695   4.366  -1.077  1.00 20.00     0.007 C 
HETATM    6  C4  UNL     1     -40.689   5.796  -0.528  1.00 20.00     0.021 C 
HETATM    7  C7  UNL     1     -41.433   6.624  -1.569  1.00 20.00     0.086 C 
HETATM    8  C6  UNL     1     -42.490   5.652  -2.099  1.00 20.00     0.005 C 
HETATM    9 CL10 UNL     1     -42.131   8.094  -0.866  1.00 20.00    -0.125 Cl
HETATM   10  C8  UNL     1     -43.148   6.119  -3.392  1.00 20.00     0.012 C 
ENDBRANCH   3   4
TORSDOF 1
ENDMDL
MODEL 6
REMARK VINA RESULT:      -4.4     11.437     12.333
REMARK  1 active torsions:
REMARK  status: ('A' for Active; 'I' for Inactive)
REMARK    1  A    between atoms: C5_5  and  C9_9 
ROOT
HETATM    1  C1  UNL     1     -34.754  15.333  -7.305  1.00 20.00     0.012 C 
HETATM    2  C2  UNL     1     -34.781  14.451  -6.491  1.00 20.00    -0.117 C 
HETATM    3  C9  UNL     1     -34.814  13.369  -5.501  1.00 20.00     0.098 C 
ENDROOT
BRANCH   3   4
HETATM    4  C5  UNL     1     -34.924  13.919  -4.086  1.00 20.00     0.002 C 
HETATM    5  C3  UNL     1     -36.279  14.596  -3.822  1.00 20.00     0.007 C 
HETATM    6  C4  UNL     1     -35.982  15.841  -2.980  1.00 20.00     0.021 C 
HETATM    7  C7  UNL     1     -34.524  15.697  -2.559  1.00 20.00     0.086 C 
HETATM    8  C6  UNL     1     -33.880  15.000  -3.760  1.00 20.00     0.005 C 
HETATM    9 CL10 UNL     1     -33.787  17.266  -2.189  1.00 20.00    -0.125 Cl
HETATM   10  C8  UNL     1     -32.498  14.431  -3.460  1.00 20.00     0.012 C 
ENDBRANCH   3   4
TORSDOF 1
ENDMDL
MODEL 7
REMARK VINA RESULT:      -4.4     12.077     13.293
REMARK  1 active torsions:
REMARK  status: ('A' for Active; 'I' for Inactive)
REMARK    1  A    between atoms: C5_5  and  C9_9 
ROOT
HETATM    1  C1  UNL     1     -37.620  14.941  -3.786  1.00 20.00     0.012 C 
HETATM    2  C2  UNL     1     -36.617  14.329  -4.027  1.00 20.00    -0.117 C 
HETATM    3  C9  UNL     1     -35.394  13.574  -4.320  1.00 20.00     0.098 C 
ENDROOT
BRANCH   3   4
HETATM    4  C5  UNL     1     -34.209  14.506  -4.537  1.00 20.00     0.002 C 
HETATM    5  C3  UNL     1     -33.850  15.305  -3.273  1.00 20.00     0.007 C 
HETATM    6  C4  UNL     1     -33.492  16.718  -3.743  1.00 20.00     0.021 C 
HETATM    7  C7  UNL     1     -33.391  16.618  -5.260  1.00 20.00     0.086 C 
HETATM    8  C6  UNL     1     -34.454  15.576  -5.614  1.00 20.00     0.005 C 
HETATM    9 CL10 UNL     1     -33.665  18.185  -6.043  1.00 20.00    -0.125 Cl
HETATM   10  C8  UNL     1     -34.327  15.039  -7.035  1.00 20.00     0.012 C 
ENDBRANCH   3   4
TORSDOF 1
ENDMDL
MODEL 8
REMARK VINA RESULT:      -4.4      1.104      2.311
REMARK  1 active torsions:
REMARK  status: ('A' for Active; 'I' for Inactive)
REMARK    1  A    between atoms: C5_5  and  C9_9 
ROOT
HETATM    1  C1  UNL     1     -32.176   8.924   1.226  1.00 20.00     0.012 C 
HETATM    2  C2  UNL     1     -31.904   8.371   2.255  1.00 20.00    -0.117 C 
HETATM    3  C9  UNL     1     -31.566   7.698   3.514  1.00 20.00     0.098 C 
ENDROOT
BRANCH   3   4
HETATM    4  C5  UNL     1     -32.338   6.394   3.668  1.00 20.00     0.002 C 
HETATM    5  C3  UNL     1     -32.610   5.710   2.317  1.00 20.00     0.007 C 
HETATM    6  C4  UNL     1     -34.032   5.148   2.398  1.00 20.00     0.021 C 
HETATM    7  C7  UNL     1     -34.429   5.281   3.863  1.00 20.00     0.086 C 
HETATM    8  C6  UNL     1     -33.728   6.570   4.300  1.00 20.00     0.005 C 
HETATM    9 CL10 UNL     1     -36.190   5.345   4.066  1.00 20.00    -0.125 Cl
HETATM   10  C8  UNL     1     -33.682   6.752   5.812  1.00 20.00     0.012 C 
ENDBRANCH   3   4
TORSDOF 1
ENDMDL
MODEL 9
REMARK VINA RESULT:      -4.4     11.094     13.117
REMARK  1 active torsions:
REMARK  status: ('A' for Active; 'I' for Inactive)
REMARK    1  A    between atoms: C5_5  and  C9_9 
ROOT
HETATM    1  C1  UNL     1     -37.702  15.406  -6.462  1.00 20.00     0.012 C 
HETATM    2  C2  UNL     1     -36.580  15.126  -6.779  1.00 20.00    -0.117 C 
HETATM    3  C9  UNL     1     -35.209  14.782  -7.174  1.00 20.00     0.098 C 
ENDROOT
BRANCH   3   4
HETATM    4  C5  UNL     1     -34.320  14.574  -5.955  1.00 20.00     0.002 C 
HETATM    5  C3  UNL     1     -34.745  13.355  -5.119  1.00 20.00     0.007 C 
HETATM    6  C4  UNL     1     -34.588  13.764  -3.651  1.00 20.00     0.021 C 
HETATM    7  C7  UNL     1     -33.829  15.085  -3.686  1.00 20.00     0.086 C 
HETATM    8  C6  UNL     1     -34.343  15.750  -4.965  1.00 20.00     0.005 C 
HETATM    9 CL10 UNL     1     -34.126  16.055  -2.232  1.00 20.00    -0.125 Cl
HETATM   10  C8  UNL     1     -33.493  16.932  -5.417  1.00 20.00     0.012 C 
ENDBRANCH   3   4
TORSDOF 1
ENDMDL
