MODEL 1
REMARK VINA RESULT:      -5.8      0.000      0.000
REMARK  1 active torsions:
REMARK  status: ('A' for Active; 'I' for Inactive)
REMARK    1  A    between atoms: C7_7  and  C9_9 
ROOT
HETATM    1  C1  UNL     1     -31.950   8.171   2.032  1.00 20.00     0.012 C 
HETATM    2  C2  UNL     1     -32.324   7.308   2.779  1.00 20.00    -0.117 C 
HETATM    3  C9  UNL     1     -32.769   6.251   3.689  1.00 20.00     0.098 C 
ENDROOT
BRANCH   3   4
HETATM    4  C7  UNL     1     -34.219   6.476   4.122  1.00 20.00     0.008 C 
HETATM    5  C5  UNL     1     -35.144   5.390   3.556  1.00 20.00     0.013 C 
HETATM    6  C4  UNL     1     -35.019   4.213   4.518  1.00 20.00     0.079 C 
HETATM    7  C3  UNL     1     -34.728   4.904   5.825  1.00 20.00     0.131 C 
HETATM    8  C6  UNL     1     -34.466   6.387   5.640  1.00 20.00     0.056 C 
HETATM    9  O10 UNL     1     -34.715   4.327   6.905  1.00 20.00    -0.298 OA
HETATM   10  C8  UNL     1     -33.353   6.905   6.532  1.00 20.00     0.018 C 
ENDBRANCH   3   4
TORSDOF 1
ENDMDL
MODEL 2
REMARK VINA RESULT:      -5.3     11.534     12.391
REMARK  1 active torsions:
REMARK  status: ('A' for Active; 'I' for Inactive)
REMARK    1  A    between atoms: C7_7  and  C9_9 
ROOT
HETATM    1  C1  UNL     1     -33.435  17.907  -0.746  1.00 20.00     0.012 C 
HETATM    2  C2  UNL     1     -34.043  17.022  -1.284  1.00 20.00    -0.117 C 
HETATM    3  C9  UNL     1     -34.789  15.939  -1.928  1.00 20.00     0.098 C 
ENDROOT
BRANCH   3   4
HETATM    4  C7  UNL     1     -34.495  15.890  -3.429  1.00 20.00     0.008 C 
HETATM    5  C5  UNL     1     -33.085  15.352  -3.703  1.00 20.00     0.013 C 
HETATM    6  C4  UNL     1     -33.218  13.833  -3.659  1.00 20.00     0.079 C 
HETATM    7  C3  UNL     1     -34.635  13.627  -4.129  1.00 20.00     0.131 C 
HETATM    8  C6  UNL     1     -35.396  14.935  -4.237  1.00 20.00     0.056 C 
HETATM    9  O10 UNL     1     -35.104  12.528  -4.397  1.00 20.00    -0.298 OA
HETATM   10  C8  UNL     1     -36.836  14.820  -3.774  1.00 20.00     0.018 C 
ENDBRANCH   3   4
TORSDOF 1
ENDMDL
MODEL 3
REMARK VINA RESULT:      -4.9     11.981     13.226
REMARK  1 active torsions:
REMARK  status: ('A' for Active; 'I' for Inactive)
REMARK    1  A    between atoms: C7_7  and  C9_9 
ROOT
HETATM    1  C1  UNL     1     -34.491  17.048  -0.381  1.00 20.00     0.012 C 
HETATM    2  C2  UNL     1     -34.721  16.456  -1.400  1.00 20.00    -0.117 C 
HETATM    3  C9  UNL     1     -35.013  15.736  -2.641  1.00 20.00     0.098 C 
ENDROOT
BRANCH   3   4
HETATM    4  C7  UNL     1     -33.729  15.201  -3.278  1.00 20.00     0.008 C 
HETATM    5  C5  UNL     1     -33.885  13.733  -3.698  1.00 20.00     0.013 C 
HETATM    6  C4  UNL     1     -34.568  13.775  -5.061  1.00 20.00     0.079 C 
HETATM    7  C3  UNL     1     -34.070  15.081  -5.624  1.00 20.00     0.131 C 
HETATM    8  C6  UNL     1     -33.316  15.896  -4.590  1.00 20.00     0.056 C 
HETATM    9  O10 UNL     1     -34.252  15.430  -6.783  1.00 20.00    -0.298 OA
HETATM   10  C8  UNL     1     -33.608  17.382  -4.682  1.00 20.00     0.018 C 
ENDBRANCH   3   4
TORSDOF 1
ENDMDL
MODEL 4
REMARK VINA RESULT:      -4.7     11.797     12.802
REMARK  1 active torsions:
REMARK  status: ('A' for Active; 'I' for Inactive)
REMARK    1  A    between atoms: C7_7  and  C9_9 
ROOT
HETATM    1  C1  UNL     1     -34.775  17.132  -0.016  1.00 20.00     0.012 C 
HETATM    2  C2  UNL     1     -34.511  16.677  -1.095  1.00 20.00    -0.117 C 
HETATM    3  C9  UNL     1     -34.179  16.130  -2.412  1.00 20.00     0.098 C 
ENDROOT
BRANCH   3   4
HETATM    4  C7  UNL     1     -35.200  15.072  -2.838  1.00 20.00     0.008 C 
HETATM    5  C5  UNL     1     -36.393  15.710  -3.562  1.00 20.00     0.013 C 
HETATM    6  C4  UNL     1     -35.941  15.884  -5.008  1.00 20.00     0.079 C 
HETATM    7  C3  UNL     1     -34.976  14.739  -5.177  1.00 20.00     0.131 C 
HETATM    8  C6  UNL     1     -34.680  14.043  -3.862  1.00 20.00     0.056 C 
HETATM    9  O10 UNL     1     -34.499  14.412  -6.256  1.00 20.00    -0.298 OA
HETATM   10  C8  UNL     1     -33.226  13.635  -3.724  1.00 20.00     0.018 C 
ENDBRANCH   3   4
TORSDOF 1
ENDMDL
MODEL 5
REMARK VINA RESULT:      -4.4     12.262     13.276
REMARK  1 active torsions:
REMARK  status: ('A' for Active; 'I' for Inactive)
REMARK    1  A    between atoms: C7_7  and  C9_9 
ROOT
HETATM    1  C1  UNL     1     -34.618  13.086  -4.942  1.00 20.00     0.012 C 
HETATM    2  C2  UNL     1     -34.749  13.925  -4.093  1.00 20.00    -0.117 C 
HETATM    3  C9  UNL     1     -34.921  14.944  -3.056  1.00 20.00     0.098 C 
ENDROOT
BRANCH   3   4
HETATM    4  C7  UNL     1     -33.667  15.812  -2.928  1.00 20.00     0.008 C 
HETATM    5  C5  UNL     1     -33.340  16.516  -4.252  1.00 20.00     0.013 C 
HETATM    6  C4  UNL     1     -34.222  17.760  -4.275  1.00 20.00     0.079 C 
HETATM    7  C3  UNL     1     -34.354  18.080  -2.808  1.00 20.00     0.131 C 
HETATM    8  C6  UNL     1     -33.785  16.981  -1.931  1.00 20.00     0.056 C 
HETATM    9  O10 UNL     1     -34.858  19.113  -2.386  1.00 20.00    -0.298 OA
HETATM   10  C8  UNL     1     -34.619  16.724  -0.691  1.00 20.00     0.018 C 
ENDBRANCH   3   4
TORSDOF 1
ENDMDL
MODEL 6
REMARK VINA RESULT:      -4.4     12.355     13.512
REMARK  1 active torsions:
REMARK  status: ('A' for Active; 'I' for Inactive)
REMARK    1  A    between atoms: C7_7  and  C9_9 
ROOT
HETATM    1  C1  UNL     1     -34.903  17.212   0.139  1.00 20.00     0.012 C 
HETATM    2  C2  UNL     1     -34.594  16.697  -0.901  1.00 20.00    -0.117 C 
HETATM    3  C9  UNL     1     -34.209  16.060  -2.162  1.00 20.00     0.098 C 
ENDROOT
BRANCH   3   4
HETATM    4  C7  UNL     1     -34.857  16.770  -3.353  1.00 20.00     0.008 C 
HETATM    5  C5  UNL     1     -33.809  17.500  -4.203  1.00 20.00     0.013 C 
HETATM    6  C4  UNL     1     -33.227  16.436  -5.128  1.00 20.00     0.079 C 
HETATM    7  C3  UNL     1     -34.394  15.499  -5.303  1.00 20.00     0.131 C 
HETATM    8  C6  UNL     1     -35.542  15.837  -4.371  1.00 20.00     0.056 C 
HETATM    9  O10 UNL     1     -34.406  14.579  -6.112  1.00 20.00    -0.298 OA
HETATM   10  C8  UNL     1     -36.222  14.607  -3.801  1.00 20.00     0.018 C 
ENDBRANCH   3   4
TORSDOF 1
ENDMDL
MODEL 7
REMARK VINA RESULT:      -4.3     11.445     13.135
REMARK  1 active torsions:
REMARK  status: ('A' for Active; 'I' for Inactive)
REMARK    1  A    between atoms: C7_7  and  C9_9 
ROOT
HETATM    1  C1  UNL     1     -33.885  18.873  -5.598  1.00 20.00     0.012 C 
HETATM    2  C2  UNL     1     -33.655  17.738  -5.278  1.00 20.00    -0.117 C 
HETATM    3  C9  UNL     1     -33.365  16.355  -4.897  1.00 20.00     0.098 C 
ENDROOT
BRANCH   3   4
HETATM    4  C7  UNL     1     -34.294  15.891  -3.773  1.00 20.00     0.008 C 
HETATM    5  C5  UNL     1     -35.767  15.976  -4.196  1.00 20.00     0.013 C 
HETATM    6  C4  UNL     1     -36.037  14.693  -4.975  1.00 20.00     0.079 C 
HETATM    7  C3  UNL     1     -35.086  13.723  -4.323  1.00 20.00     0.131 C 
HETATM    8  C6  UNL     1     -34.134  14.414  -3.365  1.00 20.00     0.056 C 
HETATM    9  O10 UNL     1     -35.094  12.518  -4.544  1.00 20.00    -0.298 OA
HETATM   10  C8  UNL     1     -32.726  13.851  -3.423  1.00 20.00     0.018 C 
ENDBRANCH   3   4
TORSDOF 1
ENDMDL
MODEL 8
REMARK VINA RESULT:      -4.1     12.380     13.253
REMARK  1 active torsions:
REMARK  status: ('A' for Active; 'I' for Inactive)
REMARK    1  A    between atoms: C7_7  and  C9_9 
ROOT
HETATM    1  C1  UNL     1     -39.007  14.620  -4.430  1.00 20.00     0.012 C 
HETATM    2  C2  UNL     1     -37.965  15.055  -4.022  1.00 20.00    -0.117 C 
HETATM    3  C9  UNL     1     -36.700  15.597  -3.522  1.00 20.00     0.098 C 
ENDROOT
BRANCH   3   4
HETATM    4  C7  UNL     1     -35.579  14.562  -3.637  1.00 20.00     0.008 C 
HETATM    5  C5  UNL     1     -35.419  14.071  -5.082  1.00 20.00     0.013 C 
HETATM    6  C4  UNL     1     -34.551  15.119  -5.770  1.00 20.00     0.079 C 
HETATM    7  C3  UNL     1     -33.702  15.623  -4.630  1.00 20.00     0.131 C 
HETATM    8  C6  UNL     1     -34.172  15.088  -3.290  1.00 20.00     0.056 C 
HETATM    9  O10 UNL     1     -32.745  16.371  -4.781  1.00 20.00    -0.298 OA
HETATM   10  C8  UNL     1     -34.096  16.122  -2.183  1.00 20.00     0.018 C 
ENDBRANCH   3   4
TORSDOF 1
ENDMDL
MODEL 9
REMARK VINA RESULT:      -4.1      9.119     10.804
REMARK  1 active torsions:
REMARK  status: ('A' for Active; 'I' for Inactive)
REMARK    1  A    between atoms: C7_7  and  C9_9 
ROOT
HETATM    1  C1  UNL     1     -42.131   1.757  -3.569  1.00 20.00     0.012 C 
HETATM    2  C2  UNL     1     -41.703   2.702  -2.964  1.00 20.00    -0.117 C 
HETATM    3  C9  UNL     1     -41.169   3.853  -2.233  1.00 20.00     0.098 C 
ENDROOT
BRANCH   3   4
HETATM    4  C7  UNL     1     -42.213   4.420  -1.268  1.00 20.00     0.008 C 
HETATM    5  C5  UNL     1     -41.625   4.617   0.135  1.00 20.00     0.013 C 
HETATM    6  C4  UNL     1     -40.910   5.964   0.086  1.00 20.00     0.079 C 
HETATM    7  C3  UNL     1     -41.728   6.718  -0.931  1.00 20.00     0.131 C 
HETATM    8  C6  UNL     1     -42.736   5.824  -1.628  1.00 20.00     0.056 C 
HETATM    9  O10 UNL     1     -41.590   7.914  -1.155  1.00 20.00    -0.298 OA
HETATM   10  C8  UNL     1     -42.872   6.130  -3.108  1.00 20.00     0.018 C 
ENDBRANCH   3   4
TORSDOF 1
ENDMDL
