MODEL 1
REMARK VINA RESULT:      -5.0      0.000      0.000
REMARK  2 active torsions:
REMARK  status: ('A' for Active; 'I' for Inactive)
REMARK    1  A    between atoms: C5_5  and  C9_9 
REMARK    2  A    between atoms: C9_9  and  C10_10 
ROOT
HETATM    1  C1  UNL     1     -35.108  13.587  -4.270  1.00 20.00     0.131 C 
HETATM    2  C2  UNL     1     -36.411  14.323  -4.451  1.00 20.00     0.079 C 
HETATM    3  C3  UNL     1     -36.418  15.255  -3.245  1.00 20.00     0.013 C 
HETATM    4  C4  UNL     1     -34.243  14.215  -3.195  1.00 20.00     0.055 C 
HETATM    5  C5  UNL     1     -34.940  15.572  -3.002  1.00 20.00    -0.003 C 
HETATM    6  C6  UNL     1     -32.791  14.340  -3.620  1.00 20.00     0.018 C 
HETATM    7  O11 UNL     1     -34.795  12.599  -4.922  1.00 20.00    -0.298 OA
ENDROOT
BRANCH   5   8
HETATM    8  C9  UNL     1     -34.699  16.180  -1.629  1.00 20.00     0.009 C 
BRANCH   8   9
HETATM    9  C10 UNL     1     -33.664  17.319  -1.633  1.00 20.00    -0.022 C 
HETATM   10  C7  UNL     1     -33.914  18.328  -2.755  1.00 20.00     0.009 C 
HETATM   11  C8  UNL     1     -33.673  18.035  -0.281  1.00 20.00     0.009 C 
ENDBRANCH   8   9
ENDBRANCH   5   8
TORSDOF 2
ENDMDL
MODEL 2
REMARK VINA RESULT:      -5.0     11.342     12.212
REMARK  2 active torsions:
REMARK  status: ('A' for Active; 'I' for Inactive)
REMARK    1  A    between atoms: C5_5  and  C9_9 
REMARK    2  A    between atoms: C9_9  and  C10_10 
ROOT
HETATM    1  C1  UNL     1     -34.992   4.986   5.847  1.00 20.00     0.131 C 
HETATM    2  C2  UNL     1     -34.994   4.042   4.671  1.00 20.00     0.079 C 
HETATM    3  C3  UNL     1     -34.638   4.973   3.518  1.00 20.00     0.013 C 
HETATM    4  C4  UNL     1     -34.402   6.337   5.492  1.00 20.00     0.055 C 
HETATM    5  C5  UNL     1     -33.723   6.026   4.148  1.00 20.00    -0.003 C 
HETATM    6  C6  UNL     1     -33.438   6.843   6.550  1.00 20.00     0.018 C 
HETATM    7  O11 UNL     1     -35.418   4.685   6.954  1.00 20.00    -0.298 OA
ENDROOT
BRANCH   5   8
HETATM    8  C9  UNL     1     -33.557   7.250   3.262  1.00 20.00     0.009 C 
BRANCH   8   9
HETATM    9  C10 UNL     1     -32.134   7.415   2.698  1.00 20.00    -0.022 C 
HETATM   10  C7  UNL     1     -32.049   8.526   1.650  1.00 20.00     0.009 C 
HETATM   11  C8  UNL     1     -31.153   7.700   3.836  1.00 20.00     0.009 C 
ENDBRANCH   8   9
ENDBRANCH   5   8
TORSDOF 2
ENDMDL
MODEL 3
REMARK VINA RESULT:      -4.9      2.408      4.466
REMARK  2 active torsions:
REMARK  status: ('A' for Active; 'I' for Inactive)
REMARK    1  A    between atoms: C5_5  and  C9_9 
REMARK    2  A    between atoms: C9_9  and  C10_10 
ROOT
HETATM    1  C1  UNL     1     -33.720  18.149  -2.485  1.00 20.00     0.131 C 
HETATM    2  C2  UNL     1     -33.757  17.545  -1.104  1.00 20.00     0.079 C 
HETATM    3  C3  UNL     1     -34.640  16.322  -1.318  1.00 20.00     0.013 C 
HETATM    4  C4  UNL     1     -34.298  17.216  -3.531  1.00 20.00     0.055 C 
HETATM    5  C5  UNL     1     -34.346  15.888  -2.756  1.00 20.00    -0.003 C 
HETATM    6  C6  UNL     1     -33.443  17.150  -4.784  1.00 20.00     0.018 C 
HETATM    7  O11 UNL     1     -33.271  19.263  -2.722  1.00 20.00    -0.298 OA
ENDROOT
BRANCH   5   8
HETATM    8  C9  UNL     1     -35.390  14.920  -3.292  1.00 20.00     0.009 C 
BRANCH   8   9
HETATM    9  C10 UNL     1     -34.787  13.706  -4.021  1.00 20.00    -0.022 C 
HETATM   10  C7  UNL     1     -34.977  13.784  -5.536  1.00 20.00     0.009 C 
HETATM   11  C8  UNL     1     -33.297  13.588  -3.692  1.00 20.00     0.009 C 
ENDBRANCH   8   9
ENDBRANCH   5   8
TORSDOF 2
ENDMDL
MODEL 4
REMARK VINA RESULT:      -4.9      0.985      2.260
REMARK  2 active torsions:
REMARK  status: ('A' for Active; 'I' for Inactive)
REMARK    1  A    between atoms: C5_5  and  C9_9 
REMARK    2  A    between atoms: C9_9  and  C10_10 
ROOT
HETATM    1  C1  UNL     1     -34.494  13.614  -4.277  1.00 20.00     0.131 C 
HETATM    2  C2  UNL     1     -33.113  13.686  -3.677  1.00 20.00     0.079 C 
HETATM    3  C3  UNL     1     -32.968  15.176  -3.395  1.00 20.00     0.013 C 
HETATM    4  C4  UNL     1     -35.254  14.916  -4.115  1.00 20.00     0.055 C 
HETATM    5  C5  UNL     1     -34.389  15.642  -3.071  1.00 20.00    -0.003 C 
HETATM    6  C6  UNL     1     -36.686  14.699  -3.663  1.00 20.00     0.018 C 
HETATM    7  O11 UNL     1     -34.941  12.615  -4.826  1.00 20.00    -0.298 OA
ENDROOT
BRANCH   5   8
HETATM    8  C9  UNL     1     -34.526  17.156  -3.126  1.00 20.00     0.009 C 
BRANCH   8   9
HETATM    9  C10 UNL     1     -34.561  17.822  -1.739  1.00 20.00    -0.022 C 
HETATM   10  C7  UNL     1     -34.635  16.799  -0.604  1.00 20.00     0.009 C 
HETATM   11  C8  UNL     1     -33.328  18.709  -1.557  1.00 20.00     0.009 C 
ENDBRANCH   8   9
ENDBRANCH   5   8
TORSDOF 2
ENDMDL
MODEL 5
REMARK VINA RESULT:      -4.6      1.671      2.318
REMARK  2 active torsions:
REMARK  status: ('A' for Active; 'I' for Inactive)
REMARK    1  A    between atoms: C5_5  and  C9_9 
REMARK    2  A    between atoms: C9_9  and  C10_10 
ROOT
HETATM    1  C1  UNL     1     -34.692  14.400  -5.835  1.00 20.00     0.131 C 
HETATM    2  C2  UNL     1     -34.856  13.243  -4.882  1.00 20.00     0.079 C 
HETATM    3  C3  UNL     1     -34.213  13.787  -3.612  1.00 20.00     0.013 C 
HETATM    4  C4  UNL     1     -34.241  15.662  -5.127  1.00 20.00     0.055 C 
HETATM    5  C5  UNL     1     -34.496  15.290  -3.657  1.00 20.00    -0.003 C 
HETATM    6  C6  UNL     1     -35.014  16.888  -5.580  1.00 20.00     0.018 C 
HETATM    7  O11 UNL     1     -34.903  14.318  -7.038  1.00 20.00    -0.298 OA
ENDROOT
BRANCH   5   8
HETATM    8  C9  UNL     1     -33.628  16.070  -2.681  1.00 20.00     0.009 C 
BRANCH   8   9
HETATM    9  C10 UNL     1     -34.407  16.636  -1.480  1.00 20.00    -0.022 C 
HETATM   10  C7  UNL     1     -33.609  17.694  -0.716  1.00 20.00     0.009 C 
HETATM   11  C8  UNL     1     -35.734  17.232  -1.955  1.00 20.00     0.009 C 
ENDBRANCH   8   9
ENDBRANCH   5   8
TORSDOF 2
ENDMDL
MODEL 6
REMARK VINA RESULT:      -4.5      1.319      1.768
REMARK  2 active torsions:
REMARK  status: ('A' for Active; 'I' for Inactive)
REMARK    1  A    between atoms: C5_5  and  C9_9 
REMARK    2  A    between atoms: C9_9  and  C10_10 
ROOT
HETATM    1  C1  UNL     1     -34.832  13.677  -4.851  1.00 20.00     0.131 C 
HETATM    2  C2  UNL     1     -35.586  14.558  -5.814  1.00 20.00     0.079 C 
HETATM    3  C3  UNL     1     -35.578  15.898  -5.089  1.00 20.00     0.013 C 
HETATM    4  C4  UNL     1     -34.164  14.478  -3.750  1.00 20.00     0.055 C 
HETATM    5  C5  UNL     1     -34.257  15.904  -4.316  1.00 20.00    -0.003 C 
HETATM    6  C6  UNL     1     -32.738  14.027  -3.490  1.00 20.00     0.018 C 
HETATM    7  O11 UNL     1     -34.772  12.459  -4.956  1.00 20.00    -0.298 OA
ENDROOT
BRANCH   5   8
HETATM    8  C9  UNL     1     -34.223  16.980  -3.241  1.00 20.00     0.009 C 
BRANCH   8   9
HETATM    9  C10 UNL     1     -35.247  16.755  -2.113  1.00 20.00    -0.022 C 
HETATM   10  C7  UNL     1     -34.586  16.669  -0.736  1.00 20.00     0.009 C 
HETATM   11  C8  UNL     1     -36.284  17.881  -2.120  1.00 20.00     0.009 C 
ENDBRANCH   8   9
ENDBRANCH   5   8
TORSDOF 2
ENDMDL
MODEL 7
REMARK VINA RESULT:      -4.5      2.450      4.674
REMARK  2 active torsions:
REMARK  status: ('A' for Active; 'I' for Inactive)
REMARK    1  A    between atoms: C5_5  and  C9_9 
REMARK    2  A    between atoms: C9_9  and  C10_10 
ROOT
HETATM    1  C1  UNL     1     -33.648  18.226  -2.523  1.00 20.00     0.131 C 
HETATM    2  C2  UNL     1     -33.750  18.325  -4.024  1.00 20.00     0.079 C 
HETATM    3  C3  UNL     1     -33.651  16.864  -4.445  1.00 20.00     0.013 C 
HETATM    4  C4  UNL     1     -33.764  16.794  -2.038  1.00 20.00     0.055 C 
HETATM    5  C5  UNL     1     -34.303  16.092  -3.295  1.00 20.00    -0.003 C 
HETATM    6  C6  UNL     1     -34.682  16.663  -0.836  1.00 20.00     0.018 C 
HETATM    7  O11 UNL     1     -33.492  19.195  -1.792  1.00 20.00    -0.298 OA
ENDROOT
BRANCH   5   8
HETATM    8  C9  UNL     1     -33.977  14.607  -3.339  1.00 20.00     0.009 C 
BRANCH   8   9
HETATM    9  C10 UNL     1     -35.099  13.748  -3.947  1.00 20.00    -0.022 C 
HETATM   10  C7  UNL     1     -36.451  14.464  -3.937  1.00 20.00     0.009 C 
HETATM   11  C8  UNL     1     -34.734  13.352  -5.379  1.00 20.00     0.009 C 
ENDBRANCH   8   9
ENDBRANCH   5   8
TORSDOF 2
ENDMDL
MODEL 8
REMARK VINA RESULT:      -4.4      1.669      3.003
REMARK  2 active torsions:
REMARK  status: ('A' for Active; 'I' for Inactive)
REMARK    1  A    between atoms: C5_5  and  C9_9 
REMARK    2  A    between atoms: C9_9  and  C10_10 
ROOT
HETATM    1  C1  UNL     1     -34.575  13.619  -4.133  1.00 20.00     0.131 C 
HETATM    2  C2  UNL     1     -33.146  13.704  -3.659  1.00 20.00     0.079 C 
HETATM    3  C3  UNL     1     -32.917  15.210  -3.614  1.00 20.00     0.013 C 
HETATM    4  C4  UNL     1     -35.265  14.968  -4.108  1.00 20.00     0.055 C 
HETATM    5  C5  UNL     1     -34.286  15.791  -3.254  1.00 20.00    -0.003 C 
HETATM    6  C6  UNL     1     -36.662  14.894  -3.518  1.00 20.00     0.018 C 
HETATM    7  O11 UNL     1     -35.106  12.576  -4.492  1.00 20.00    -0.298 OA
ENDROOT
BRANCH   5   8
HETATM    8  C9  UNL     1     -34.367  17.286  -3.522  1.00 20.00     0.009 C 
BRANCH   8   9
HETATM    9  C10 UNL     1     -34.777  17.632  -4.964  1.00 20.00    -0.022 C 
HETATM   10  C7  UNL     1     -35.970  18.588  -5.017  1.00 20.00     0.009 C 
HETATM   11  C8  UNL     1     -33.590  18.245  -5.710  1.00 20.00     0.009 C 
ENDBRANCH   8   9
ENDBRANCH   5   8
TORSDOF 2
ENDMDL
MODEL 9
REMARK VINA RESULT:      -4.4      2.559      3.837
REMARK  2 active torsions:
REMARK  status: ('A' for Active; 'I' for Inactive)
REMARK    1  A    between atoms: C5_5  and  C9_9 
REMARK    2  A    between atoms: C9_9  and  C10_10 
ROOT
HETATM    1  C1  UNL     1     -36.719  15.074  -7.012  1.00 20.00     0.131 C 
HETATM    2  C2  UNL     1     -35.671  14.480  -7.918  1.00 20.00     0.079 C 
HETATM    3  C3  UNL     1     -34.383  15.025  -7.311  1.00 20.00     0.013 C 
HETATM    4  C4  UNL     1     -36.112  15.704  -5.774  1.00 20.00     0.055 C 
HETATM    5  C5  UNL     1     -34.684  15.134  -5.815  1.00 20.00    -0.003 C 
HETATM    6  C6  UNL     1     -36.868  15.340  -4.509  1.00 20.00     0.018 C 
HETATM    7  O11 UNL     1     -37.918  15.044  -7.257  1.00 20.00    -0.298 OA
ENDROOT
BRANCH   5   8
HETATM    8  C9  UNL     1     -33.671  16.000  -5.084  1.00 20.00     0.009 C 
BRANCH   8   9
HETATM    9  C10 UNL     1     -33.173  15.385  -3.764  1.00 20.00    -0.022 C 
HETATM   10  C7  UNL     1     -33.809  16.044  -2.539  1.00 20.00     0.009 C 
HETATM   11  C8  UNL     1     -33.458  13.882  -3.750  1.00 20.00     0.009 C 
ENDBRANCH   8   9
ENDBRANCH   5   8
TORSDOF 2
ENDMDL
