MODEL 1
REMARK VINA RESULT:      -5.5      0.000      0.000
REMARK  1 active torsions:
REMARK  status: ('A' for Active; 'I' for Inactive)
REMARK    1  A    between atoms: C5_5  and  C8_8 
ROOT
HETATM    1  C1  UNL     1     -34.493  17.788  -0.730  1.00 20.00     0.018 A 
HETATM    2  C2  UNL     1     -33.688  17.011  -1.557  1.00 20.00     0.010 A 
HETATM    3  C3  UNL     1     -35.867  17.767  -0.925  1.00 20.00     0.087 A 
HETATM    4  C4  UNL     1     -35.646  16.253  -2.705  1.00 20.00     0.095 A 
HETATM    5  C5  UNL     1     -34.266  16.234  -2.557  1.00 20.00    -0.038 A 
HETATM    6  N12 UNL     1     -36.398  17.010  -1.894  1.00 20.00    -0.375 N 
HETATM    7  H28 UNL     1     -37.409  17.010  -2.020  1.00 20.00     0.164 HD
ENDROOT
BRANCH   5   8
HETATM    8  C8  UNL     1     -33.403  15.379  -3.471  1.00 20.00     0.025 C 
HETATM    9  C6  UNL     1     -33.826  13.897  -3.538  1.00 20.00     0.011 C 
HETATM   10  C7  UNL     1     -34.586  13.706  -4.857  1.00 20.00     0.021 C 
HETATM   11  C10 UNL     1     -34.597  15.071  -5.543  1.00 20.00     0.086 C 
HETATM   12  C9  UNL     1     -33.383  15.796  -4.960  1.00 20.00     0.008 C 
HETATM   13 CL13 UNL     1     -34.528  14.920  -7.311  1.00 20.00    -0.125 Cl
HETATM   14  C11 UNL     1     -33.366  17.294  -5.235  1.00 20.00     0.012 C 
ENDBRANCH   5   8
TORSDOF 1
ENDMDL
MODEL 2
REMARK VINA RESULT:      -5.1      2.933      4.891
REMARK  1 active torsions:
REMARK  status: ('A' for Active; 'I' for Inactive)
REMARK    1  A    between atoms: C5_5  and  C8_8 
ROOT
HETATM    1  C1  UNL     1     -36.964  15.716  -6.794  1.00 20.00     0.018 A 
HETATM    2  C2  UNL     1     -35.988  16.125  -5.892  1.00 20.00     0.010 A 
HETATM    3  C3  UNL     1     -36.608  14.844  -7.814  1.00 20.00     0.087 A 
HETATM    4  C4  UNL     1     -34.385  14.788  -7.062  1.00 20.00     0.095 A 
HETATM    5  C5  UNL     1     -34.682  15.658  -6.023  1.00 20.00    -0.038 A 
HETATM    6  N12 UNL     1     -35.345  14.410  -7.918  1.00 20.00    -0.375 N 
HETATM    7  H28 UNL     1     -35.106  13.770  -8.673  1.00 20.00     0.164 HD
ENDROOT
BRANCH   5   8
HETATM    8  C8  UNL     1     -33.601  16.094  -5.047  1.00 20.00     0.025 C 
HETATM    9  C6  UNL     1     -33.559  17.613  -4.784  1.00 20.00     0.011 C 
HETATM   10  C7  UNL     1     -34.226  17.851  -3.422  1.00 20.00     0.021 C 
HETATM   11  C10 UNL     1     -34.644  16.475  -2.907  1.00 20.00     0.086 C 
HETATM   12  C9  UNL     1     -33.705  15.503  -3.621  1.00 20.00     0.008 C 
HETATM   13 CL13 UNL     1     -34.530  16.371  -1.138  1.00 20.00    -0.125 Cl
HETATM   14  C11 UNL     1     -34.138  14.045  -3.531  1.00 20.00     0.012 C 
ENDBRANCH   5   8
TORSDOF 1
ENDMDL
MODEL 3
REMARK VINA RESULT:      -5.1      1.232      1.391
REMARK  1 active torsions:
REMARK  status: ('A' for Active; 'I' for Inactive)
REMARK    1  A    between atoms: C5_5  and  C8_8 
ROOT
HETATM    1  C1  UNL     1     -34.984  16.868  -0.789  1.00 20.00     0.018 A 
HETATM    2  C2  UNL     1     -34.405  16.097  -1.792  1.00 20.00     0.010 A 
HETATM    3  C3  UNL     1     -34.915  18.251  -0.886  1.00 20.00     0.087 A 
HETATM    4  C4  UNL     1     -33.733  18.104  -2.910  1.00 20.00     0.095 A 
HETATM    5  C5  UNL     1     -33.772  16.718  -2.866  1.00 20.00    -0.038 A 
HETATM    6  N12 UNL     1     -34.300  18.823  -1.930  1.00 20.00    -0.375 N 
HETATM    7  H28 UNL     1     -34.261  19.839  -1.982  1.00 20.00     0.164 HD
ENDROOT
BRANCH   5   8
HETATM    8  C8  UNL     1     -33.133  15.892  -3.971  1.00 20.00     0.025 C 
HETATM    9  C6  UNL     1     -33.006  14.390  -3.647  1.00 20.00     0.011 C 
HETATM   10  C7  UNL     1     -34.130  13.670  -4.405  1.00 20.00     0.021 C 
HETATM   11  C10 UNL     1     -34.895  14.755  -5.161  1.00 20.00     0.086 C 
HETATM   12  C9  UNL     1     -33.881  15.888  -5.325  1.00 20.00     0.008 C 
HETATM   13 CL13 UNL     1     -35.523  14.160  -6.712  1.00 20.00    -0.125 Cl
HETATM   14  C11 UNL     1     -34.498  17.214  -5.753  1.00 20.00     0.012 C 
ENDBRANCH   5   8
TORSDOF 1
ENDMDL
MODEL 4
REMARK VINA RESULT:      -5.0      1.349      1.851
REMARK  1 active torsions:
REMARK  status: ('A' for Active; 'I' for Inactive)
REMARK    1  A    between atoms: C5_5  and  C8_8 
ROOT
HETATM    1  C1  UNL     1     -34.261  17.761  -0.245  1.00 20.00     0.018 A 
HETATM    2  C2  UNL     1     -34.505  16.550  -0.884  1.00 20.00     0.010 A 
HETATM    3  C3  UNL     1     -34.634  18.938  -0.879  1.00 20.00     0.087 A 
HETATM    4  C4  UNL     1     -35.465  17.744  -2.722  1.00 20.00     0.095 A 
HETATM    5  C5  UNL     1     -35.114  16.536  -2.136  1.00 20.00    -0.038 A 
HETATM    6  N12 UNL     1     -35.218  18.897  -2.084  1.00 20.00    -0.375 N 
HETATM    7  H28 UNL     1     -35.485  19.772  -2.532  1.00 20.00     0.164 HD
ENDROOT
BRANCH   5   8
HETATM    8  C8  UNL     1     -35.388  15.223  -2.850  1.00 20.00     0.025 C 
HETATM    9  C6  UNL     1     -36.750  15.167  -3.573  1.00 20.00     0.011 C 
HETATM   10  C7  UNL     1     -36.474  15.379  -5.068  1.00 20.00     0.021 C 
HETATM   11  C10 UNL     1     -34.962  15.553  -5.200  1.00 20.00     0.086 C 
HETATM   12  C9  UNL     1     -34.391  14.845  -3.971  1.00 20.00     0.008 C 
HETATM   13 CL13 UNL     1     -34.353  14.883  -6.728  1.00 20.00    -0.125 Cl
HETATM   14  C11 UNL     1     -32.926  15.164  -3.698  1.00 20.00     0.012 C 
ENDBRANCH   5   8
TORSDOF 1
ENDMDL
MODEL 5
REMARK VINA RESULT:      -4.9      1.548      2.387
REMARK  1 active torsions:
REMARK  status: ('A' for Active; 'I' for Inactive)
REMARK    1  A    between atoms: C5_5  and  C8_8 
ROOT
HETATM    1  C1  UNL     1     -34.746  17.142   0.087  1.00 20.00     0.018 A 
HETATM    2  C2  UNL     1     -34.491  16.821  -1.243  1.00 20.00     0.010 A 
HETATM    3  C3  UNL     1     -35.886  17.872   0.391  1.00 20.00     0.087 A 
HETATM    4  C4  UNL     1     -36.497  17.963  -1.874  1.00 20.00     0.095 A 
HETATM    5  C5  UNL     1     -35.373  17.234  -2.237  1.00 20.00    -0.038 A 
HETATM    6  N12 UNL     1     -36.719  18.257  -0.585  1.00 20.00    -0.375 N 
HETATM    7  H28 UNL     1     -37.550  18.793  -0.340  1.00 20.00     0.164 HD
ENDROOT
BRANCH   5   8
HETATM    8  C8  UNL     1     -35.111  16.895  -3.696  1.00 20.00     0.025 C 
HETATM    9  C6  UNL     1     -33.624  16.948  -4.102  1.00 20.00     0.011 C 
HETATM   10  C7  UNL     1     -33.124  15.498  -4.163  1.00 20.00     0.021 C 
HETATM   11  C10 UNL     1     -34.319  14.620  -3.797  1.00 20.00     0.086 C 
HETATM   12  C9  UNL     1     -35.537  15.477  -4.143  1.00 20.00     0.008 C 
HETATM   13 CL13 UNL     1     -34.292  13.073  -4.670  1.00 20.00    -0.125 Cl
HETATM   14  C11 UNL     1     -36.845  14.957  -3.560  1.00 20.00     0.012 C 
ENDBRANCH   5   8
TORSDOF 1
ENDMDL
MODEL 6
REMARK VINA RESULT:      -4.8      2.779      4.623
REMARK  1 active torsions:
REMARK  status: ('A' for Active; 'I' for Inactive)
REMARK    1  A    between atoms: C5_5  and  C8_8 
ROOT
HETATM    1  C1  UNL     1     -35.343  14.159  -5.210  1.00 20.00     0.018 A 
HETATM    2  C2  UNL     1     -35.035  15.440  -4.763  1.00 20.00     0.010 A 
HETATM    3  C3  UNL     1     -34.507  13.109  -4.854  1.00 20.00     0.087 A 
HETATM    4  C4  UNL     1     -33.106  14.560  -3.653  1.00 20.00     0.095 A 
HETATM    5  C5  UNL     1     -33.906  15.647  -3.976  1.00 20.00    -0.038 A 
HETATM    6  N12 UNL     1     -33.427  13.336  -4.096  1.00 20.00    -0.375 N 
HETATM    7  H28 UNL     1     -32.827  12.551  -3.847  1.00 20.00     0.164 HD
ENDROOT
BRANCH   5   8
HETATM    8  C8  UNL     1     -33.552  17.040  -3.479  1.00 20.00     0.025 C 
HETATM    9  C6  UNL     1     -33.794  18.161  -4.511  1.00 20.00     0.011 C 
HETATM   10  C7  UNL     1     -35.100  18.863  -4.113  1.00 20.00     0.021 C 
HETATM   11  C10 UNL     1     -35.601  18.149  -2.859  1.00 20.00     0.086 C 
HETATM   12  C9  UNL     1     -34.343  17.535  -2.245  1.00 20.00     0.008 C 
HETATM   13 CL13 UNL     1     -36.435  19.263  -1.756  1.00 20.00    -0.125 Cl
HETATM   14  C11 UNL     1     -34.624  16.493  -1.170  1.00 20.00     0.012 C 
ENDBRANCH   5   8
TORSDOF 1
ENDMDL
MODEL 7
REMARK VINA RESULT:      -4.6      2.752      4.621
REMARK  1 active torsions:
REMARK  status: ('A' for Active; 'I' for Inactive)
REMARK    1  A    between atoms: C5_5  and  C8_8 
ROOT
HETATM    1  C1  UNL     1     -35.448  15.045  -7.720  1.00 20.00     0.018 A 
HETATM    2  C2  UNL     1     -35.014  14.707  -6.443  1.00 20.00     0.010 A 
HETATM    3  C3  UNL     1     -36.792  15.335  -7.913  1.00 20.00     0.087 A 
HETATM    4  C4  UNL     1     -37.254  14.964  -5.642  1.00 20.00     0.095 A 
HETATM    5  C5  UNL     1     -35.923  14.665  -5.389  1.00 20.00    -0.038 A 
HETATM    6  N12 UNL     1     -37.646  15.288  -6.882  1.00 20.00    -0.375 N 
HETATM    7  H28 UNL     1     -38.627  15.505  -7.046  1.00 20.00     0.164 HD
ENDROOT
BRANCH   5   8
HETATM    8  C8  UNL     1     -35.467  14.297  -3.986  1.00 20.00     0.025 C 
HETATM    9  C6  UNL     1     -34.034  13.732  -3.913  1.00 20.00     0.011 C 
HETATM   10  C7  UNL     1     -33.131  14.862  -3.401  1.00 20.00     0.021 C 
HETATM   11  C10 UNL     1     -34.043  16.068  -3.180  1.00 20.00     0.086 C 
HETATM   12  C9  UNL     1     -35.429  15.458  -2.965  1.00 20.00     0.008 C 
HETATM   13 CL13 UNL     1     -33.503  17.059  -1.809  1.00 20.00    -0.125 Cl
HETATM   14  C11 UNL     1     -36.568  16.466  -3.055  1.00 20.00     0.012 C 
ENDBRANCH   5   8
TORSDOF 1
ENDMDL
MODEL 8
REMARK VINA RESULT:      -4.5      2.928      4.167
REMARK  1 active torsions:
REMARK  status: ('A' for Active; 'I' for Inactive)
REMARK    1  A    between atoms: C5_5  and  C8_8 
ROOT
HETATM    1  C1  UNL     1     -34.006  13.275  -4.139  1.00 20.00     0.018 A 
HETATM    2  C2  UNL     1     -34.617  13.963  -5.183  1.00 20.00     0.010 A 
HETATM    3  C3  UNL     1     -32.970  13.890  -3.451  1.00 20.00     0.087 A 
HETATM    4  C4  UNL     1     -33.143  15.807  -4.795  1.00 20.00     0.095 A 
HETATM    5  C5  UNL     1     -34.184  15.243  -5.518  1.00 20.00    -0.038 A 
HETATM    6  N12 UNL     1     -32.572  15.123  -3.793  1.00 20.00    -0.375 N 
HETATM    7  H28 UNL     1     -31.810  15.556  -3.275  1.00 20.00     0.164 HD
ENDROOT
BRANCH   5   8
HETATM    8  C8  UNL     1     -34.838  16.010  -6.656  1.00 20.00     0.025 C 
HETATM    9  C6  UNL     1     -35.107  15.165  -7.918  1.00 20.00     0.011 C 
HETATM   10  C7  UNL     1     -36.602  14.819  -7.917  1.00 20.00     0.021 C 
HETATM   11  C10 UNL     1     -37.187  15.466  -6.663  1.00 20.00     0.086 C 
HETATM   12  C9  UNL     1     -36.228  16.615  -6.347  1.00 20.00     0.008 C 
HETATM   13 CL13 UNL     1     -38.858  16.011  -6.921  1.00 20.00    -0.125 Cl
HETATM   14  C11 UNL     1     -36.407  17.205  -4.954  1.00 20.00     0.012 C 
ENDBRANCH   5   8
TORSDOF 1
ENDMDL
MODEL 9
REMARK VINA RESULT:      -4.5      2.850      4.750
REMARK  1 active torsions:
REMARK  status: ('A' for Active; 'I' for Inactive)
REMARK    1  A    between atoms: C5_5  and  C8_8 
ROOT
HETATM    1  C1  UNL     1     -34.423  16.316  -7.177  1.00 20.00     0.018 A 
HETATM    2  C2  UNL     1     -34.343  16.194  -5.793  1.00 20.00     0.010 A 
HETATM    3  C3  UNL     1     -34.886  15.237  -7.917  1.00 20.00     0.087 A 
HETATM    4  C4  UNL     1     -35.177  13.958  -5.970  1.00 20.00     0.095 A 
HETATM    5  C5  UNL     1     -34.723  15.004  -5.179  1.00 20.00    -0.038 A 
HETATM    6  N12 UNL     1     -35.245  14.103  -7.301  1.00 20.00    -0.375 N 
HETATM    7  H28 UNL     1     -35.582  13.324  -7.863  1.00 20.00     0.164 HD
ENDROOT
BRANCH   5   8
HETATM    8  C8  UNL     1     -34.641  14.850  -3.668  1.00 20.00     0.025 C 
HETATM    9  C6  UNL     1     -33.363  15.442  -3.039  1.00 20.00     0.011 C 
HETATM   10  C7  UNL     1     -33.753  16.786  -2.410  1.00 20.00     0.021 C 
HETATM   11  C10 UNL     1     -35.247  16.962  -2.675  1.00 20.00     0.086 C 
HETATM   12  C9  UNL     1     -35.769  15.536  -2.861  1.00 20.00     0.008 C 
HETATM   13 CL13 UNL     1     -36.055  17.825  -1.349  1.00 20.00    -0.125 Cl
HETATM   14  C11 UNL     1     -37.165  15.462  -3.466  1.00 20.00     0.012 C 
ENDBRANCH   5   8
TORSDOF 1
ENDMDL
