MODEL 1
REMARK VINA RESULT:      -4.4      0.000      0.000
REMARK  2 active torsions:
REMARK  status: ('A' for Active; 'I' for Inactive)
REMARK    1  A    between atoms: C4_4  and  C9_9 
REMARK    2  A    between atoms: C6_6  and  N10_10 
ROOT
HETATM    1  C1  UNL     1     -34.574  17.040  -0.495  1.00 20.00     0.158 C 
HETATM    2  N10 UNL     1     -34.104  16.610  -1.481  1.00 20.00    -0.270 NA
HETATM    3  S11 UNL     1     -35.184  17.638   0.849  1.00 20.00    -0.055 SA
ENDROOT
BRANCH   2   4
HETATM    4  C6  UNL     1     -35.007  15.794  -2.284  1.00 20.00     0.113 C 
HETATM    5  C3  UNL     1     -35.782  16.650  -3.284  1.00 20.00     0.028 C 
HETATM    6  C2  UNL     1     -35.982  15.770  -4.521  1.00 20.00     0.007 C 
HETATM    7  C4  UNL     1     -35.353  14.415  -4.176  1.00 20.00    -0.009 C 
HETATM    8  C5  UNL     1     -34.265  14.757  -3.139  1.00 20.00     0.010 C 
HETATM    9  C7  UNL     1     -32.961  15.275  -3.754  1.00 20.00     0.012 C 
BRANCH   7  10
HETATM   10  C9  UNL     1     -34.892  13.645  -5.404  1.00 20.00     0.000 C 
HETATM   11  C8  UNL     1     -35.168  14.397  -6.665  1.00 20.00     0.005 C 
ENDBRANCH   7  10
ENDBRANCH   2   4
TORSDOF 2
ENDMDL
MODEL 2
REMARK VINA RESULT:      -4.3      1.420      1.813
REMARK  2 active torsions:
REMARK  status: ('A' for Active; 'I' for Inactive)
REMARK    1  A    between atoms: C4_4  and  C9_9 
REMARK    2  A    between atoms: C6_6  and  N10_10 
ROOT
HETATM    1  C1  UNL     1     -34.638  16.450  -1.271  1.00 20.00     0.158 C 
HETATM    2  N10 UNL     1     -34.709  15.634  -2.111  1.00 20.00    -0.270 NA
HETATM    3  S11 UNL     1     -34.538  17.534  -0.108  1.00 20.00    -0.055 SA
ENDROOT
BRANCH   2   4
HETATM    4  C6  UNL     1     -34.849  16.161  -3.465  1.00 20.00     0.113 C 
HETATM    5  C3  UNL     1     -33.625  16.983  -3.865  1.00 20.00     0.028 C 
HETATM    6  C2  UNL     1     -33.445  16.761  -5.368  1.00 20.00     0.007 C 
HETATM    7  C4  UNL     1     -34.601  15.850  -5.797  1.00 20.00    -0.009 C 
HETATM    8  C5  UNL     1     -34.947  15.054  -4.524  1.00 20.00     0.010 C 
HETATM    9  C7  UNL     1     -34.021  13.861  -4.265  1.00 20.00     0.012 C 
BRANCH   7  10
HETATM   10  C9  UNL     1     -34.280  15.027  -7.036  1.00 20.00     0.000 C 
HETATM   11  C8  UNL     1     -35.520  14.576  -7.737  1.00 20.00     0.005 C 
ENDBRANCH   7  10
ENDBRANCH   2   4
TORSDOF 2
ENDMDL
MODEL 3
REMARK VINA RESULT:      -4.3      3.331      4.908
REMARK  2 active torsions:
REMARK  status: ('A' for Active; 'I' for Inactive)
REMARK    1  A    between atoms: C4_4  and  C9_9 
REMARK    2  A    between atoms: C6_6  and  N10_10 
ROOT
HETATM    1  C1  UNL     1     -34.954  14.250  -6.460  1.00 20.00     0.158 C 
HETATM    2  N10 UNL     1     -34.750  13.751  -5.417  1.00 20.00    -0.270 NA
HETATM    3  S11 UNL     1     -35.248  14.900  -7.884  1.00 20.00    -0.055 SA
ENDROOT
BRANCH   2   4
HETATM    4  C6  UNL     1     -33.958  14.560  -4.497  1.00 20.00     0.113 C 
HETATM    5  C3  UNL     1     -33.703  15.954  -5.069  1.00 20.00     0.028 C 
HETATM    6  C2  UNL     1     -33.677  16.901  -3.866  1.00 20.00     0.007 C 
HETATM    7  C4  UNL     1     -33.874  16.014  -2.632  1.00 20.00    -0.009 C 
HETATM    8  C5  UNL     1     -34.670  14.804  -3.159  1.00 20.00     0.010 C 
HETATM    9  C7  UNL     1     -36.175  15.059  -3.292  1.00 20.00     0.012 C 
BRANCH   7  10
HETATM   10  C9  UNL     1     -34.487  16.759  -1.457  1.00 20.00     0.000 C 
HETATM   11  C8  UNL     1     -33.510  17.695  -0.824  1.00 20.00     0.005 C 
ENDBRANCH   7  10
ENDBRANCH   2   4
TORSDOF 2
ENDMDL
MODEL 4
REMARK VINA RESULT:      -4.2      1.240      2.159
REMARK  2 active torsions:
REMARK  status: ('A' for Active; 'I' for Inactive)
REMARK    1  A    between atoms: C4_4  and  C9_9 
REMARK    2  A    between atoms: C6_6  and  N10_10 
ROOT
HETATM    1  C1  UNL     1     -34.300  16.687  -1.398  1.00 20.00     0.158 C 
HETATM    2  N10 UNL     1     -34.829  15.831  -2.001  1.00 20.00    -0.270 NA
HETATM    3  S11 UNL     1     -33.606  17.848  -0.556  1.00 20.00    -0.055 SA
ENDROOT
BRANCH   2   4
HETATM    4  C6  UNL     1     -34.135  15.422  -3.218  1.00 20.00     0.113 C 
HETATM    5  C3  UNL     1     -34.426  13.960  -3.553  1.00 20.00     0.028 C 
HETATM    6  C2  UNL     1     -34.428  13.875  -5.082  1.00 20.00     0.007 C 
HETATM    7  C4  UNL     1     -34.093  15.285  -5.580  1.00 20.00    -0.009 C 
HETATM    8  C5  UNL     1     -34.591  16.211  -4.453  1.00 20.00     0.010 C 
HETATM    9  C7  UNL     1     -36.097  16.488  -4.495  1.00 20.00     0.012 C 
BRANCH   7  10
HETATM   10  C9  UNL     1     -34.638  15.568  -6.971  1.00 20.00     0.000 C 
HETATM   11  C8  UNL     1     -35.371  14.392  -7.529  1.00 20.00     0.005 C 
ENDBRANCH   7  10
ENDBRANCH   2   4
TORSDOF 2
ENDMDL
MODEL 5
REMARK VINA RESULT:      -4.2      3.266      4.939
REMARK  2 active torsions:
REMARK  status: ('A' for Active; 'I' for Inactive)
REMARK    1  A    between atoms: C4_4  and  C9_9 
REMARK    2  A    between atoms: C6_6  and  N10_10 
ROOT
HETATM    1  C1  UNL     1     -35.943  15.052  -6.371  1.00 20.00     0.158 C 
HETATM    2  N10 UNL     1     -36.359  15.381  -5.325  1.00 20.00    -0.270 NA
HETATM    3  S11 UNL     1     -35.406  14.615  -7.806  1.00 20.00    -0.055 SA
ENDROOT
BRANCH   2   4
HETATM    4  C6  UNL     1     -35.455  15.144  -4.205  1.00 20.00     0.113 C 
HETATM    5  C3  UNL     1     -34.087  15.776  -4.458  1.00 20.00     0.028 C 
HETATM    6  C2  UNL     1     -33.574  16.224  -3.087  1.00 20.00     0.007 C 
HETATM    7  C4  UNL     1     -34.646  15.795  -2.078  1.00 20.00    -0.009 C 
HETATM    8  C5  UNL     1     -35.951  15.779  -2.898  1.00 20.00     0.010 C 
HETATM    9  C7  UNL     1     -36.588  17.161  -3.081  1.00 20.00     0.012 C 
BRANCH   7  10
HETATM   10  C9  UNL     1     -34.654  16.650  -0.821  1.00 20.00     0.000 C 
HETATM   11  C8  UNL     1     -33.599  17.707  -0.863  1.00 20.00     0.005 C 
ENDBRANCH   7  10
ENDBRANCH   2   4
TORSDOF 2
ENDMDL
MODEL 6
REMARK VINA RESULT:      -4.1      2.839      5.397
REMARK  2 active torsions:
REMARK  status: ('A' for Active; 'I' for Inactive)
REMARK    1  A    between atoms: C4_4  and  C9_9 
REMARK    2  A    between atoms: C6_6  and  N10_10 
ROOT
HETATM    1  C1  UNL     1     -34.877  14.981  -3.202  1.00 20.00     0.158 C 
HETATM    2  N10 UNL     1     -35.125  15.908  -2.526  1.00 20.00    -0.270 NA
HETATM    3  S11 UNL     1     -34.572  13.715  -4.119  1.00 20.00    -0.055 SA
ENDROOT
BRANCH   2   4
HETATM    4  C6  UNL     1     -33.977  16.742  -2.187  1.00 20.00     0.113 C 
HETATM    5  C3  UNL     1     -33.999  18.053  -2.971  1.00 20.00     0.028 C 
HETATM    6  C2  UNL     1     -33.389  19.106  -2.041  1.00 20.00     0.007 C 
HETATM    7  C4  UNL     1     -32.993  18.357  -0.764  1.00 20.00    -0.009 C 
HETATM    8  C5  UNL     1     -33.966  17.162  -0.710  1.00 20.00     0.010 C 
HETATM    9  C7  UNL     1     -35.349  17.510  -0.152  1.00 20.00     0.012 C 
BRANCH   7  10
HETATM   10  C9  UNL     1     -32.963  19.252   0.464  1.00 20.00     0.000 C 
HETATM   11  C8  UNL     1     -31.658  19.159   1.186  1.00 20.00     0.005 C 
ENDBRANCH   7  10
ENDBRANCH   2   4
TORSDOF 2
ENDMDL
MODEL 7
REMARK VINA RESULT:      -4.0      3.032      4.675
REMARK  2 active torsions:
REMARK  status: ('A' for Active; 'I' for Inactive)
REMARK    1  A    between atoms: C4_4  and  C9_9 
REMARK    2  A    between atoms: C6_6  and  N10_10 
ROOT
HETATM    1  C1  UNL     1     -38.528  14.940  -4.866  1.00 20.00     0.158 C 
HETATM    2  N10 UNL     1     -37.374  15.083  -5.028  1.00 20.00    -0.270 NA
HETATM    3  S11 UNL     1     -40.098  14.752  -4.678  1.00 20.00    -0.055 SA
ENDROOT
BRANCH   2   4
HETATM    4  C6  UNL     1     -36.555  14.831  -3.847  1.00 20.00     0.113 C 
HETATM    5  C3  UNL     1     -35.254  14.123  -4.220  1.00 20.00     0.028 C 
HETATM    6  C2  UNL     1     -34.201  14.640  -3.237  1.00 20.00     0.007 C 
HETATM    7  C4  UNL     1     -34.940  15.600  -2.298  1.00 20.00    -0.009 C 
HETATM    8  C5  UNL     1     -36.117  16.124  -3.144  1.00 20.00     0.010 C 
HETATM    9  C7  UNL     1     -35.738  17.256  -4.104  1.00 20.00     0.012 C 
BRANCH   7  10
HETATM   10  C9  UNL     1     -34.029  16.655  -1.691  1.00 20.00     0.000 C 
HETATM   11  C8  UNL     1     -34.540  17.135  -0.371  1.00 20.00     0.005 C 
ENDBRANCH   7  10
ENDBRANCH   2   4
TORSDOF 2
ENDMDL
MODEL 8
REMARK VINA RESULT:      -3.9     13.161     14.153
REMARK  2 active torsions:
REMARK  status: ('A' for Active; 'I' for Inactive)
REMARK    1  A    between atoms: C4_4  and  C9_9 
REMARK    2  A    between atoms: C6_6  and  N10_10 
ROOT
HETATM    1  C1  UNL     1     -42.330   1.663  -3.051  1.00 20.00     0.158 C 
HETATM    2  N10 UNL     1     -42.628   2.508  -2.293  1.00 20.00    -0.270 NA
HETATM    3  S11 UNL     1     -41.943   0.495  -4.062  1.00 20.00    -0.055 SA
ENDROOT
BRANCH   2   4
HETATM    4  C6  UNL     1     -42.088   3.827  -2.604  1.00 20.00     0.113 C 
HETATM    5  C3  UNL     1     -43.166   4.741  -3.184  1.00 20.00     0.028 C 
HETATM    6  C2  UNL     1     -42.825   6.152  -2.697  1.00 20.00     0.007 C 
HETATM    7  C4  UNL     1     -41.532   6.012  -1.886  1.00 20.00    -0.009 C 
HETATM    8  C5  UNL     1     -41.570   4.564  -1.361  1.00 20.00     0.010 C 
HETATM    9  C7  UNL     1     -42.444   4.375  -0.116  1.00 20.00     0.012 C 
BRANCH   7  10
HETATM   10  C9  UNL     1     -41.369   7.102  -0.837  1.00 20.00     0.000 C 
HETATM   11  C8  UNL     1     -42.554   8.010  -0.793  1.00 20.00     0.005 C 
ENDBRANCH   7  10
ENDBRANCH   2   4
TORSDOF 2
ENDMDL
MODEL 9
REMARK VINA RESULT:      -3.8     13.618     14.724
REMARK  2 active torsions:
REMARK  status: ('A' for Active; 'I' for Inactive)
REMARK    1  A    between atoms: C4_4  and  C9_9 
REMARK    2  A    between atoms: C6_6  and  N10_10 
ROOT
HETATM    1  C1  UNL     1     -43.371   2.108  -4.575  1.00 20.00     0.158 C 
HETATM    2  N10 UNL     1     -43.417   3.193  -4.129  1.00 20.00    -0.270 NA
HETATM    3  S11 UNL     1     -43.320   0.648  -5.208  1.00 20.00    -0.055 SA
ENDROOT
BRANCH   2   4
HETATM    4  C6  UNL     1     -42.956   3.307  -2.750  1.00 20.00     0.113 C 
HETATM    5  C3  UNL     1     -41.433   3.218  -2.668  1.00 20.00     0.028 C 
HETATM    6  C2  UNL     1     -41.023   4.128  -1.508  1.00 20.00     0.007 C 
HETATM    7  C4  UNL     1     -42.330   4.681  -0.928  1.00 20.00    -0.009 C 
HETATM    8  C5  UNL     1     -43.310   4.660  -2.117  1.00 20.00     0.010 C 
HETATM    9  C7  UNL     1     -43.157   5.851  -3.070  1.00 20.00     0.012 C 
BRANCH   7  10
HETATM   10  C9  UNL     1     -42.150   6.020  -0.230  1.00 20.00     0.000 C 
HETATM   11  C8  UNL     1     -40.791   6.592  -0.470  1.00 20.00     0.005 C 
ENDBRANCH   7  10
ENDBRANCH   2   4
TORSDOF 2
ENDMDL
