MODEL 1
REMARK VINA RESULT:      -4.4      0.000      0.000
REMARK  3 active torsions:
REMARK  status: ('A' for Active; 'I' for Inactive)
REMARK    1  A    between atoms: C5_5  and  C7_7 
REMARK    2  A    between atoms: C5_5  and  C8_8 
REMARK    3  A    between atoms: C8_8  and  O9_9 
ROOT
HETATM    1  C1  UNL     1     -33.670  16.208  -2.628  1.00 20.00     0.001 C 
HETATM    2  C2  UNL     1     -35.193  16.139  -2.530  1.00 20.00     0.001 C 
HETATM    3  C3  UNL     1     -33.248  15.041  -3.518  1.00 20.00     0.011 C 
HETATM    4  C4  UNL     1     -35.621  14.935  -3.365  1.00 20.00     0.011 C 
HETATM    5  C5  UNL     1     -34.482  14.725  -4.373  1.00 20.00    -0.019 C 
ENDROOT
BRANCH   5   6
HETATM    6  C7  UNL     1     -34.601  15.694  -5.561  1.00 20.00     0.007 C 
HETATM    7  C6  UNL     1     -34.448  14.985  -6.865  1.00 20.00     0.006 C 
ENDBRANCH   5   6
BRANCH   5   8
HETATM    8  C8  UNL     1     -34.452  13.287  -4.897  1.00 20.00     0.173 C 
BRANCH   8   9
HETATM    9  O9  UNL     1     -35.373  12.526  -4.145  1.00 20.00    -0.400 OA
HETATM   10  H25 UNL     1     -35.552  13.017  -3.323  1.00 20.00     0.209 HD
ENDBRANCH   8   9
ENDBRANCH   5   8
TORSDOF 3
ENDMDL
MODEL 2
REMARK VINA RESULT:      -4.2      0.959      2.824
REMARK  3 active torsions:
REMARK  status: ('A' for Active; 'I' for Inactive)
REMARK    1  A    between atoms: C5_5  and  C7_7 
REMARK    2  A    between atoms: C5_5  and  C8_8 
REMARK    3  A    between atoms: C8_8  and  O9_9 
ROOT
HETATM    1  C1  UNL     1     -34.396  16.275  -6.213  1.00 20.00     0.001 C 
HETATM    2  C2  UNL     1     -33.335  16.851  -5.276  1.00 20.00     0.001 C 
HETATM    3  C3  UNL     1     -34.703  14.872  -5.697  1.00 20.00     0.011 C 
HETATM    4  C4  UNL     1     -33.051  15.770  -4.237  1.00 20.00     0.011 C 
HETATM    5  C5  UNL     1     -34.316  14.899  -4.212  1.00 20.00    -0.019 C 
ENDROOT
BRANCH   5   6
HETATM    6  C7  UNL     1     -35.420  15.544  -3.359  1.00 20.00     0.007 C 
HETATM    7  C6  UNL     1     -34.892  16.024  -2.048  1.00 20.00     0.006 C 
ENDBRANCH   5   6
BRANCH   5   8
HETATM    8  C8  UNL     1     -34.022  13.495  -3.679  1.00 20.00     0.173 C 
BRANCH   8   9
HETATM    9  O9  UNL     1     -35.066  12.640  -4.094  1.00 20.00    -0.400 OA
HETATM   10  H25 UNL     1     -34.988  12.535  -5.059  1.00 20.00     0.209 HD
ENDBRANCH   8   9
ENDBRANCH   5   8
TORSDOF 3
ENDMDL
MODEL 3
REMARK VINA RESULT:      -4.0      2.180      3.579
REMARK  3 active torsions:
REMARK  status: ('A' for Active; 'I' for Inactive)
REMARK    1  A    between atoms: C5_5  and  C7_7 
REMARK    2  A    between atoms: C5_5  and  C8_8 
REMARK    3  A    between atoms: C8_8  and  O9_9 
ROOT
HETATM    1  C1  UNL     1     -33.420  13.655  -3.714  1.00 20.00     0.001 C 
HETATM    2  C2  UNL     1     -34.889  13.661  -4.134  1.00 20.00     0.001 C 
HETATM    3  C3  UNL     1     -32.982  15.117  -3.675  1.00 20.00     0.011 C 
HETATM    4  C4  UNL     1     -35.271  15.127  -4.328  1.00 20.00     0.011 C 
HETATM    5  C5  UNL     1     -34.276  15.916  -3.465  1.00 20.00    -0.019 C 
ENDROOT
BRANCH   5   6
HETATM    6  C7  UNL     1     -34.697  15.917  -1.987  1.00 20.00     0.007 C 
HETATM    7  C6  UNL     1     -34.023  17.009  -1.225  1.00 20.00     0.006 C 
ENDBRANCH   5   6
BRANCH   5   8
HETATM    8  C8  UNL     1     -34.132  17.360  -3.950  1.00 20.00     0.173 C 
BRANCH   8   9
HETATM    9  O9  UNL     1     -33.264  17.366  -5.063  1.00 20.00    -0.400 OA
HETATM   10  H25 UNL     1     -32.835  16.492  -5.100  1.00 20.00     0.209 HD
ENDBRANCH   8   9
ENDBRANCH   5   8
TORSDOF 3
ENDMDL
MODEL 4
REMARK VINA RESULT:      -3.9     11.179     12.340
REMARK  3 active torsions:
REMARK  status: ('A' for Active; 'I' for Inactive)
REMARK    1  A    between atoms: C5_5  and  C7_7 
REMARK    2  A    between atoms: C5_5  and  C8_8 
REMARK    3  A    between atoms: C8_8  and  O9_9 
ROOT
HETATM    1  C1  UNL     1     -42.355   7.715  -2.209  1.00 20.00     0.001 C 
HETATM    2  C2  UNL     1     -41.460   7.730  -0.971  1.00 20.00     0.001 C 
HETATM    3  C3  UNL     1     -42.357   6.275  -2.716  1.00 20.00     0.011 C 
HETATM    4  C4  UNL     1     -40.963   6.298  -0.786  1.00 20.00     0.011 C 
HETATM    5  C5  UNL     1     -42.008   5.420  -1.490  1.00 20.00    -0.019 C 
ENDROOT
BRANCH   5   6
HETATM    6  C7  UNL     1     -43.239   5.195  -0.598  1.00 20.00     0.007 C 
HETATM    7  C6  UNL     1     -42.849   4.792   0.785  1.00 20.00     0.006 C 
ENDBRANCH   5   6
BRANCH   5   8
HETATM    8  C8  UNL     1     -41.424   4.065  -1.895  1.00 20.00     0.173 C 
BRANCH   8   9
HETATM    9  O9  UNL     1     -40.120   3.971  -1.361  1.00 20.00    -0.400 OA
HETATM   10  H25 UNL     1     -39.660   3.263  -1.846  1.00 20.00     0.209 HD
ENDBRANCH   8   9
ENDBRANCH   5   8
TORSDOF 3
ENDMDL
MODEL 5
REMARK VINA RESULT:      -3.9     11.665     13.045
REMARK  3 active torsions:
REMARK  status: ('A' for Active; 'I' for Inactive)
REMARK    1  A    between atoms: C5_5  and  C7_7 
REMARK    2  A    between atoms: C5_5  and  C8_8 
REMARK    3  A    between atoms: C8_8  and  O9_9 
ROOT
HETATM    1  C1  UNL     1     -41.786   3.200  -2.713  1.00 20.00     0.001 C 
HETATM    2  C2  UNL     1     -42.945   4.149  -3.015  1.00 20.00     0.001 C 
HETATM    3  C3  UNL     1     -40.823   3.976  -1.819  1.00 20.00     0.011 C 
HETATM    4  C4  UNL     1     -42.629   5.454  -2.288  1.00 20.00     0.011 C 
HETATM    5  C5  UNL     1     -41.683   5.054  -1.146  1.00 20.00    -0.019 C 
ENDROOT
BRANCH   5   6
HETATM    6  C7  UNL     1     -42.462   4.482   0.049  1.00 20.00     0.007 C 
HETATM    7  C6  UNL     1     -43.069   5.564   0.878  1.00 20.00     0.006 C 
ENDBRANCH   5   6
BRANCH   5   8
HETATM    8  C8  UNL     1     -40.837   6.239  -0.676  1.00 20.00     0.173 C 
BRANCH   8   9
HETATM    9  O9  UNL     1     -40.750   7.166  -1.738  1.00 20.00    -0.400 OA
HETATM   10  H25 UNL     1     -41.317   6.836  -2.457  1.00 20.00     0.209 HD
ENDBRANCH   8   9
ENDBRANCH   5   8
TORSDOF 3
ENDMDL
MODEL 6
REMARK VINA RESULT:      -3.9      1.335      2.064
REMARK  3 active torsions:
REMARK  status: ('A' for Active; 'I' for Inactive)
REMARK    1  A    between atoms: C5_5  and  C7_7 
REMARK    2  A    between atoms: C5_5  and  C8_8 
REMARK    3  A    between atoms: C8_8  and  O9_9 
ROOT
HETATM    1  C1  UNL     1     -33.312  13.658  -3.753  1.00 20.00     0.001 C 
HETATM    2  C2  UNL     1     -33.179  15.158  -3.490  1.00 20.00     0.001 C 
HETATM    3  C3  UNL     1     -34.736  13.439  -4.258  1.00 20.00     0.011 C 
HETATM    4  C4  UNL     1     -34.529  15.775  -3.850  1.00 20.00     0.011 C 
HETATM    5  C5  UNL     1     -35.165  14.791  -4.843  1.00 20.00    -0.019 C 
ENDROOT
BRANCH   5   6
HETATM    6  C7  UNL     1     -34.605  14.989  -6.260  1.00 20.00     0.007 C 
HETATM    7  C6  UNL     1     -35.484  14.362  -7.290  1.00 20.00     0.006 C 
ENDBRANCH   5   6
BRANCH   5   8
HETATM    8  C8  UNL     1     -36.688  14.932  -4.878  1.00 20.00     0.173 C 
BRANCH   8   9
HETATM    9  O9  UNL     1     -37.230  14.103  -3.872  1.00 20.00    -0.400 OA
HETATM   10  H25 UNL     1     -38.193  14.074  -4.009  1.00 20.00     0.209 HD
ENDBRANCH   8   9
ENDBRANCH   5   8
TORSDOF 3
ENDMDL
MODEL 7
REMARK VINA RESULT:      -3.9      1.048      2.917
REMARK  3 active torsions:
REMARK  status: ('A' for Active; 'I' for Inactive)
REMARK    1  A    between atoms: C5_5  and  C7_7 
REMARK    2  A    between atoms: C5_5  and  C8_8 
REMARK    3  A    between atoms: C8_8  and  O9_9 
ROOT
HETATM    1  C1  UNL     1     -36.382  16.128  -5.729  1.00 20.00     0.001 C 
HETATM    2  C2  UNL     1     -35.428  15.993  -6.915  1.00 20.00     0.001 C 
HETATM    3  C3  UNL     1     -36.023  15.002  -4.763  1.00 20.00     0.011 C 
HETATM    4  C4  UNL     1     -34.536  14.792  -6.611  1.00 20.00     0.011 C 
HETATM    5  C5  UNL     1     -34.562  14.654  -5.082  1.00 20.00    -0.019 C 
ENDROOT
BRANCH   5   6
HETATM    6  C7  UNL     1     -33.594  15.646  -4.415  1.00 20.00     0.007 C 
HETATM    7  C6  UNL     1     -33.830  15.738  -2.944  1.00 20.00     0.006 C 
ENDBRANCH   5   6
BRANCH   5   8
HETATM    8  C8  UNL     1     -34.211  13.232  -4.639  1.00 20.00     0.173 C 
BRANCH   8   9
HETATM    9  O9  UNL     1     -35.384  12.625  -4.139  1.00 20.00    -0.400 OA
HETATM   10  H25 UNL     1     -36.106  12.839  -4.757  1.00 20.00     0.209 HD
ENDBRANCH   8   9
ENDBRANCH   5   8
TORSDOF 3
ENDMDL
MODEL 8
REMARK VINA RESULT:      -3.9      1.937      3.326
REMARK  3 active torsions:
REMARK  status: ('A' for Active; 'I' for Inactive)
REMARK    1  A    between atoms: C5_5  and  C7_7 
REMARK    2  A    between atoms: C5_5  and  C8_8 
REMARK    3  A    between atoms: C8_8  and  O9_9 
ROOT
HETATM    1  C1  UNL     1     -36.505  14.543  -4.477  1.00 20.00     0.001 C 
HETATM    2  C2  UNL     1     -36.258  15.993  -4.892  1.00 20.00     0.001 C 
HETATM    3  C3  UNL     1     -35.157  14.000  -4.007  1.00 20.00     0.011 C 
HETATM    4  C4  UNL     1     -34.774  16.259  -4.653  1.00 20.00     0.011 C 
HETATM    5  C5  UNL     1     -34.353  15.238  -3.586  1.00 20.00    -0.019 C 
ENDROOT
BRANCH   5   6
HETATM    6  C7  UNL     1     -34.748  15.707  -2.177  1.00 20.00     0.007 C 
HETATM    7  C6  UNL     1     -33.889  16.836  -1.713  1.00 20.00     0.006 C 
ENDBRANCH   5   6
BRANCH   5   8
HETATM    8  C8  UNL     1     -32.847  14.971  -3.625  1.00 20.00     0.173 C 
BRANCH   8   9
HETATM    9  O9  UNL     1     -32.300  15.696  -4.706  1.00 20.00    -0.400 OA
HETATM   10  H25 UNL     1     -32.477  15.186  -5.516  1.00 20.00     0.209 HD
ENDBRANCH   8   9
ENDBRANCH   5   8
TORSDOF 3
ENDMDL
MODEL 9
REMARK VINA RESULT:      -3.9      1.825      2.674
REMARK  3 active torsions:
REMARK  status: ('A' for Active; 'I' for Inactive)
REMARK    1  A    between atoms: C5_5  and  C7_7 
REMARK    2  A    between atoms: C5_5  and  C8_8 
REMARK    3  A    between atoms: C8_8  and  O9_9 
ROOT
HETATM    1  C1  UNL     1     -35.746  17.164  -2.167  1.00 20.00     0.001 C 
HETATM    2  C2  UNL     1     -34.614  16.359  -1.530  1.00 20.00     0.001 C 
HETATM    3  C3  UNL     1     -35.534  17.077  -3.676  1.00 20.00     0.011 C 
HETATM    4  C4  UNL     1     -33.771  15.822  -2.685  1.00 20.00     0.011 C 
HETATM    5  C5  UNL     1     -34.720  15.794  -3.891  1.00 20.00    -0.019 C 
ENDROOT
BRANCH   5   6
HETATM    6  C7  UNL     1     -35.623  14.549  -3.863  1.00 20.00     0.007 C 
HETATM    7  C6  UNL     1     -34.871  13.318  -4.243  1.00 20.00     0.006 C 
ENDBRANCH   5   6
BRANCH   5   8
HETATM    8  C8  UNL     1     -33.951  15.829  -5.213  1.00 20.00     0.173 C 
BRANCH   8   9
HETATM    9  O9  UNL     1     -32.576  15.953  -4.919  1.00 20.00    -0.400 OA
HETATM   10  H25 UNL     1     -32.470  15.801  -3.963  1.00 20.00     0.209 HD
ENDBRANCH   8   9
ENDBRANCH   5   8
TORSDOF 3
ENDMDL
