MODEL 1
REMARK VINA RESULT:      -4.8      0.000      0.000
REMARK  2 active torsions:
REMARK  status: ('A' for Active; 'I' for Inactive)
REMARK    1  A    between atoms: C1_1  and  N11_11 
REMARK    2  A    between atoms: C7_7  and  C10_10 
ROOT
HETATM    1  C2  UNL     1     -34.369  17.321  -5.080  1.00 20.00     0.020 C 
HETATM    2  C3  UNL     1     -33.646  17.285  -3.734  1.00 20.00     0.006 C 
HETATM    3  C4  UNL     1     -35.200  15.633  -2.497  1.00 20.00     0.025 C 
HETATM    4  C5  UNL     1     -34.563  15.952  -5.728  1.00 20.00     0.125 C 
HETATM    5  C6  UNL     1     -35.957  15.227  -3.759  1.00 20.00     0.125 C 
HETATM    6  C7  UNL     1     -34.588  17.042  -2.542  1.00 20.00    -0.010 C 
HETATM    7  N11 UNL     1     -35.041  14.896  -4.845  1.00 20.00    -0.359 N 
ENDROOT
BRANCH   6   8
HETATM    8  C10 UNL     1     -33.838  17.307  -1.230  1.00 20.00    -0.019 C 
HETATM    9  C8  UNL     1     -33.250  18.714  -1.231  1.00 20.00     0.010 C 
HETATM   10  C9  UNL     1     -34.768  17.109  -0.039  1.00 20.00     0.010 C 
ENDBRANCH   6   8
BRANCH   7  11
HETATM   11  C1  UNL     1     -34.663  13.578  -5.067  1.00 20.00     0.350 C 
HETATM   12  O12 UNL     1     -34.975  12.591  -4.409  1.00 20.00    -0.284 OA
ENDBRANCH   7  11
TORSDOF 2
ENDMDL
MODEL 2
REMARK VINA RESULT:      -4.7      1.704      2.238
REMARK  2 active torsions:
REMARK  status: ('A' for Active; 'I' for Inactive)
REMARK    1  A    between atoms: C1_1  and  N11_11 
REMARK    2  A    between atoms: C7_7  and  C10_10 
ROOT
HETATM    1  C2  UNL     1     -36.982  15.171  -3.607  1.00 20.00     0.020 C 
HETATM    2  C3  UNL     1     -36.010  16.217  -3.062  1.00 20.00     0.006 C 
HETATM    3  C4  UNL     1     -33.803  14.916  -3.401  1.00 20.00     0.025 C 
HETATM    4  C5  UNL     1     -36.676  14.707  -5.029  1.00 20.00     0.125 C 
HETATM    5  C6  UNL     1     -34.448  13.825  -4.252  1.00 20.00     0.125 C 
HETATM    6  C7  UNL     1     -34.757  15.605  -2.412  1.00 20.00    -0.010 C 
HETATM    7  N11 UNL     1     -35.280  14.395  -5.306  1.00 20.00    -0.359 N 
ENDROOT
BRANCH   6   8
HETATM    8  C10 UNL     1     -33.991  16.691  -1.646  1.00 20.00    -0.019 C 
HETATM    9  C8  UNL     1     -33.862  17.949  -2.498  1.00 20.00     0.010 C 
HETATM   10  C9  UNL     1     -34.686  16.999  -0.325  1.00 20.00     0.010 C 
ENDBRANCH   6   8
BRANCH   7  11
HETATM   11  C1  UNL     1     -34.760  14.597  -6.578  1.00 20.00     0.350 C 
HETATM   12  O12 UNL     1     -34.013  15.498  -6.945  1.00 20.00    -0.284 OA
ENDBRANCH   7  11
TORSDOF 2
ENDMDL
MODEL 3
REMARK VINA RESULT:      -4.6      1.486      1.882
REMARK  2 active torsions:
REMARK  status: ('A' for Active; 'I' for Inactive)
REMARK    1  A    between atoms: C1_1  and  N11_11 
REMARK    2  A    between atoms: C7_7  and  C10_10 
ROOT
HETATM    1  C2  UNL     1     -33.944  18.026  -4.091  1.00 20.00     0.020 C 
HETATM    2  C3  UNL     1     -33.613  18.317  -2.628  1.00 20.00     0.006 C 
HETATM    3  C4  UNL     1     -34.700  16.232  -1.556  1.00 20.00     0.025 C 
HETATM    4  C5  UNL     1     -33.454  16.669  -4.591  1.00 20.00     0.125 C 
HETATM    5  C6  UNL     1     -34.919  15.524  -2.891  1.00 20.00     0.125 C 
HETATM    6  C7  UNL     1     -34.660  17.766  -1.644  1.00 20.00    -0.010 C 
HETATM    7  N11 UNL     1     -33.710  15.539  -3.707  1.00 20.00    -0.359 N 
ENDROOT
BRANCH   6   8
HETATM    8  C10 UNL     1     -34.407  18.343  -0.246  1.00 20.00    -0.019 C 
HETATM    9  C8  UNL     1     -35.046  17.456   0.818  1.00 20.00     0.010 C 
HETATM   10  C9  UNL     1     -32.911  18.496   0.002  1.00 20.00     0.010 C 
ENDBRANCH   6   8
BRANCH   7  11
HETATM   11  C1  UNL     1     -32.830  14.464  -3.677  1.00 20.00     0.350 C 
HETATM   12  O12 UNL     1     -33.110  13.270  -3.682  1.00 20.00    -0.284 OA
ENDBRANCH   7  11
TORSDOF 2
ENDMDL
MODEL 4
REMARK VINA RESULT:      -4.6      1.937      2.781
REMARK  2 active torsions:
REMARK  status: ('A' for Active; 'I' for Inactive)
REMARK    1  A    between atoms: C1_1  and  N11_11 
REMARK    2  A    between atoms: C7_7  and  C10_10 
ROOT
HETATM    1  C2  UNL     1     -34.310  13.802  -3.996  1.00 20.00     0.020 C 
HETATM    2  C3  UNL     1     -34.950  14.788  -3.019  1.00 20.00     0.006 C 
HETATM    3  C4  UNL     1     -33.737  16.938  -3.781  1.00 20.00     0.025 C 
HETATM    4  C5  UNL     1     -34.460  14.184  -5.466  1.00 20.00     0.125 C 
HETATM    5  C6  UNL     1     -33.158  16.299  -5.040  1.00 20.00     0.125 C 
HETATM    6  C7  UNL     1     -34.022  15.954  -2.635  1.00 20.00    -0.010 C 
HETATM    7  N11 UNL     1     -34.181  15.578  -5.789  1.00 20.00    -0.359 N 
ENDROOT
BRANCH   6   8
HETATM    8  C10 UNL     1     -34.623  16.721  -1.450  1.00 20.00    -0.019 C 
HETATM    9  C8  UNL     1     -33.570  17.622  -0.814  1.00 20.00     0.010 C 
HETATM   10  C9  UNL     1     -35.830  17.534  -1.902  1.00 20.00     0.010 C 
ENDBRANCH   6   8
BRANCH   7  11
HETATM   11  C1  UNL     1     -34.854  16.199  -6.833  1.00 20.00     0.350 C 
HETATM   12  O12 UNL     1     -34.450  17.116  -7.541  1.00 20.00    -0.284 OA
ENDBRANCH   7  11
TORSDOF 2
ENDMDL
MODEL 5
REMARK VINA RESULT:      -4.6      1.652      2.549
REMARK  2 active torsions:
REMARK  status: ('A' for Active; 'I' for Inactive)
REMARK    1  A    between atoms: C1_1  and  N11_11 
REMARK    2  A    between atoms: C7_7  and  C10_10 
ROOT
HETATM    1  C2  UNL     1     -34.129  13.646  -4.001  1.00 20.00     0.020 C 
HETATM    2  C3  UNL     1     -34.405  14.782  -3.016  1.00 20.00     0.006 C 
HETATM    3  C4  UNL     1     -33.882  16.782  -4.566  1.00 20.00     0.025 C 
HETATM    4  C5  UNL     1     -34.928  13.730  -5.299  1.00 20.00     0.125 C 
HETATM    5  C6  UNL     1     -33.819  15.929  -5.830  1.00 20.00     0.125 C 
HETATM    6  C7  UNL     1     -33.543  16.032  -3.269  1.00 20.00    -0.010 C 
HETATM    7  N11 UNL     1     -34.973  15.042  -5.931  1.00 20.00    -0.359 N 
ENDROOT
BRANCH   6   8
HETATM    8  C10 UNL     1     -33.671  16.994  -2.082  1.00 20.00    -0.019 C 
HETATM    9  C8  UNL     1     -34.026  18.394  -2.571  1.00 20.00     0.010 C 
HETATM   10  C9  UNL     1     -34.715  16.484  -1.095  1.00 20.00     0.010 C 
ENDBRANCH   6   8
BRANCH   7  11
HETATM   11  C1  UNL     1     -36.091  15.425  -6.663  1.00 20.00     0.350 C 
HETATM   12  O12 UNL     1     -36.696  14.765  -7.501  1.00 20.00    -0.284 OA
ENDBRANCH   7  11
TORSDOF 2
ENDMDL
MODEL 6
REMARK VINA RESULT:      -4.5      1.517      1.633
REMARK  2 active torsions:
REMARK  status: ('A' for Active; 'I' for Inactive)
REMARK    1  A    between atoms: C1_1  and  N11_11 
REMARK    2  A    between atoms: C7_7  and  C10_10 
ROOT
HETATM    1  C2  UNL     1     -33.513  16.141  -4.347  1.00 20.00     0.020 C 
HETATM    2  C3  UNL     1     -33.395  16.129  -2.823  1.00 20.00     0.006 C 
HETATM    3  C4  UNL     1     -35.793  16.893  -2.237  1.00 20.00     0.025 C 
HETATM    4  C5  UNL     1     -34.654  15.289  -4.898  1.00 20.00     0.125 C 
HETATM    5  C6  UNL     1     -36.313  16.728  -3.663  1.00 20.00     0.125 C 
HETATM    6  C7  UNL     1     -34.287  17.177  -2.134  1.00 20.00    -0.010 C 
HETATM    7  N11 UNL     1     -35.936  15.433  -4.220  1.00 20.00    -0.359 N 
ENDROOT
BRANCH   6   8
HETATM    8  C10 UNL     1     -33.897  17.293  -0.655  1.00 20.00    -0.019 C 
HETATM    9  C8  UNL     1     -32.944  18.465  -0.448  1.00 20.00     0.010 C 
HETATM   10  C9  UNL     1     -35.141  17.446   0.211  1.00 20.00     0.010 C 
ENDBRANCH   6   8
BRANCH   7  11
HETATM   11  C1  UNL     1     -36.810  14.356  -4.146  1.00 20.00     0.350 C 
HETATM   12  O12 UNL     1     -37.926  14.333  -3.637  1.00 20.00    -0.284 OA
ENDBRANCH   7  11
TORSDOF 2
ENDMDL
MODEL 7
REMARK VINA RESULT:      -4.2      3.338      5.307
REMARK  2 active torsions:
REMARK  status: ('A' for Active; 'I' for Inactive)
REMARK    1  A    between atoms: C1_1  and  N11_11 
REMARK    2  A    between atoms: C7_7  and  C10_10 
ROOT
HETATM    1  C2  UNL     1     -35.191  16.702  -0.779  1.00 20.00     0.020 C 
HETATM    2  C3  UNL     1     -34.254  16.181  -1.868  1.00 20.00     0.006 C 
HETATM    3  C4  UNL     1     -33.391  18.447  -2.760  1.00 20.00     0.025 C 
HETATM    4  C5  UNL     1     -34.524  17.625   0.238  1.00 20.00     0.125 C 
HETATM    5  C6  UNL     1     -33.985  19.253  -1.608  1.00 20.00     0.125 C 
HETATM    6  C7  UNL     1     -34.127  17.133  -3.070  1.00 20.00    -0.010 C 
HETATM    7  N11 UNL     1     -33.657  18.657  -0.318  1.00 20.00    -0.359 N 
ENDROOT
BRANCH   6   8
HETATM    8  C10 UNL     1     -33.413  16.416  -4.222  1.00 20.00    -0.019 C 
HETATM    9  C8  UNL     1     -33.031  14.999  -3.809  1.00 20.00     0.010 C 
HETATM   10  C9  UNL     1     -34.296  16.399  -5.464  1.00 20.00     0.010 C 
ENDBRANCH   6   8
BRANCH   7  11
HETATM   11  C1  UNL     1     -32.553  19.099   0.400  1.00 20.00     0.350 C 
HETATM   12  O12 UNL     1     -31.410  19.263  -0.015  1.00 20.00    -0.284 OA
ENDBRANCH   7  11
TORSDOF 2
ENDMDL
MODEL 8
REMARK VINA RESULT:      -4.1      2.272      4.620
REMARK  2 active torsions:
REMARK  status: ('A' for Active; 'I' for Inactive)
REMARK    1  A    between atoms: C1_1  and  N11_11 
REMARK    2  A    between atoms: C7_7  and  C10_10 
ROOT
HETATM    1  C2  UNL     1     -33.555  18.249  -4.641  1.00 20.00     0.020 C 
HETATM    2  C3  UNL     1     -34.400  17.426  -5.613  1.00 20.00     0.006 C 
HETATM    3  C4  UNL     1     -33.807  15.065  -4.746  1.00 20.00     0.025 C 
HETATM    4  C5  UNL     1     -33.841  17.972  -3.167  1.00 20.00     0.125 C 
HETATM    5  C6  UNL     1     -33.119  15.580  -3.485  1.00 20.00     0.125 C 
HETATM    6  C7  UNL     1     -33.795  16.046  -5.929  1.00 20.00    -0.010 C 
HETATM    7  N11 UNL     1     -33.942  16.567  -2.795  1.00 20.00    -0.359 N 
ENDROOT
BRANCH   6   8
HETATM    8  C10 UNL     1     -34.539  15.417  -7.113  1.00 20.00    -0.019 C 
HETATM    9  C8  UNL     1     -35.520  14.358  -6.620  1.00 20.00     0.010 C 
HETATM   10  C9  UNL     1     -35.261  16.492  -7.918  1.00 20.00     0.010 C 
ENDBRANCH   6   8
BRANCH   7  11
HETATM   11  C1  UNL     1     -34.783  16.179  -1.759  1.00 20.00     0.350 C 
HETATM   12  O12 UNL     1     -34.704  16.494  -0.576  1.00 20.00    -0.284 OA
ENDBRANCH   7  11
TORSDOF 2
ENDMDL
MODEL 9
REMARK VINA RESULT:      -4.1      2.291      4.747
REMARK  2 active torsions:
REMARK  status: ('A' for Active; 'I' for Inactive)
REMARK    1  A    between atoms: C1_1  and  N11_11 
REMARK    2  A    between atoms: C7_7  and  C10_10 
ROOT
HETATM    1  C2  UNL     1     -34.451  13.310  -4.838  1.00 20.00     0.020 C 
HETATM    2  C3  UNL     1     -34.636  14.346  -5.947  1.00 20.00     0.006 C 
HETATM    3  C4  UNL     1     -36.485  15.775  -4.844  1.00 20.00     0.025 C 
HETATM    4  C5  UNL     1     -34.128  13.904  -3.470  1.00 20.00     0.125 C 
HETATM    5  C6  UNL     1     -36.341  15.108  -3.479  1.00 20.00     0.125 C 
HETATM    6  C7  UNL     1     -36.071  14.895  -6.035  1.00 20.00    -0.010 C 
HETATM    7  N11 UNL     1     -34.944  15.041  -3.064  1.00 20.00    -0.359 N 
ENDROOT
BRANCH   6   8
HETATM    8  C10 UNL     1     -36.239  15.694  -7.333  1.00 20.00    -0.019 C 
HETATM    9  C8  UNL     1     -37.464  16.597  -7.246  1.00 20.00     0.010 C 
HETATM   10  C9  UNL     1     -34.983  16.509  -7.620  1.00 20.00     0.010 C 
ENDBRANCH   6   8
BRANCH   7  11
HETATM   11  C1  UNL     1     -34.405  16.031  -2.251  1.00 20.00     0.350 C 
HETATM   12  O12 UNL     1     -34.692  16.276  -1.084  1.00 20.00    -0.284 OA
ENDBRANCH   7  11
TORSDOF 2
ENDMDL
