MODEL 1
REMARK VINA RESULT:      -4.5      0.000      0.000
REMARK  1 active torsions:
REMARK  status: ('A' for Active; 'I' for Inactive)
REMARK    1  A    between atoms: C6_6  and  C7_7 
ROOT
HETATM    1  C1  UNL     1     -32.537  19.150  -0.274  1.00 20.00     0.065 C 
HETATM    2  C7  UNL     1     -33.907  19.033  -0.800  1.00 20.00     0.186 C 
HETATM    3  N8  UNL     1     -31.458  19.242   0.142  1.00 20.00    -0.197 NA
ENDROOT
BRANCH   2   4
HETATM    4  C6  UNL     1     -33.984  17.951  -1.825  1.00 20.00     0.085 A 
HETATM    5  C4  UNL     1     -34.399  16.684  -1.449  1.00 20.00     0.143 A 
HETATM    6  C2  UNL     1     -34.459  15.701  -2.429  1.00 20.00     0.069 A 
HETATM    7  F10 UNL     1     -34.734  16.405  -0.183  1.00 20.00    -0.204 F 
HETATM    8  C5  UNL     1     -34.107  16.011  -3.739  1.00 20.00     0.054 A 
HETATM    9  C3  UNL     1     -33.706  17.308  -4.013  1.00 20.00     0.141 A 
HETATM   10 CL11 UNL     1     -34.169  14.824  -4.976  1.00 20.00    -0.083 Cl
HETATM   11  N9  UNL     1     -33.634  18.290  -3.087  1.00 20.00    -0.260 NA
ENDBRANCH   2   4
TORSDOF 1
ENDMDL
MODEL 2
REMARK VINA RESULT:      -4.4      3.709      5.673
REMARK  1 active torsions:
REMARK  status: ('A' for Active; 'I' for Inactive)
REMARK    1  A    between atoms: C6_6  and  C7_7 
ROOT
HETATM    1  C1  UNL     1     -35.795  14.797  -7.506  1.00 20.00     0.065 C 
HETATM    2  C7  UNL     1     -34.420  14.852  -6.984  1.00 20.00     0.186 C 
HETATM    3  N8  UNL     1     -36.879  14.752  -7.918  1.00 20.00    -0.197 NA
ENDROOT
BRANCH   2   4
HETATM    4  C6  UNL     1     -34.424  15.187  -5.529  1.00 20.00     0.085 A 
HETATM    5  C4  UNL     1     -34.422  14.164  -4.594  1.00 20.00     0.143 A 
HETATM    6  C2  UNL     1     -34.427  14.513  -3.249  1.00 20.00     0.069 A 
HETATM    7  F10 UNL     1     -34.415  12.878  -4.965  1.00 20.00    -0.204 F 
HETATM    8  C5  UNL     1     -34.433  15.855  -2.884  1.00 20.00     0.054 A 
HETATM    9  C3  UNL     1     -34.434  16.802  -3.896  1.00 20.00     0.141 A 
HETATM   10 CL11 UNL     1     -34.438  16.324  -1.234  1.00 20.00    -0.083 Cl
HETATM   11  N9  UNL     1     -34.431  16.502  -5.214  1.00 20.00    -0.260 NA
ENDBRANCH   2   4
TORSDOF 1
ENDMDL
MODEL 3
REMARK VINA RESULT:      -4.3      3.315      5.010
REMARK  1 active torsions:
REMARK  status: ('A' for Active; 'I' for Inactive)
REMARK    1  A    between atoms: C6_6  and  C7_7 
ROOT
HETATM    1  C1  UNL     1     -34.601  13.816  -4.997  1.00 20.00     0.065 C 
HETATM    2  C7  UNL     1     -34.400  15.253  -5.247  1.00 20.00     0.186 C 
HETATM    3  N8  UNL     1     -34.758  12.684  -4.800  1.00 20.00    -0.197 NA
ENDROOT
BRANCH   2   4
HETATM    4  C6  UNL     1     -34.297  16.000  -3.960  1.00 20.00     0.085 A 
HETATM    5  C4  UNL     1     -33.726  17.262  -3.948  1.00 20.00     0.143 A 
HETATM    6  C2  UNL     1     -33.646  17.928  -2.731  1.00 20.00     0.069 A 
HETATM    7  F10 UNL     1     -33.264  17.831  -5.068  1.00 20.00    -0.204 F 
HETATM    8  C5  UNL     1     -34.133  17.322  -1.578  1.00 20.00     0.054 A 
HETATM    9  C3  UNL     1     -34.686  16.057  -1.696  1.00 20.00     0.141 A 
HETATM   10 CL11 UNL     1     -34.051  18.114  -0.060  1.00 20.00    -0.083 Cl
HETATM   11  N9  UNL     1     -34.781  15.377  -2.861  1.00 20.00    -0.260 NA
ENDBRANCH   2   4
TORSDOF 1
ENDMDL
MODEL 4
REMARK VINA RESULT:      -4.2      3.384      4.861
REMARK  1 active torsions:
REMARK  status: ('A' for Active; 'I' for Inactive)
REMARK    1  A    between atoms: C6_6  and  C7_7 
ROOT
HETATM    1  C1  UNL     1     -34.669  13.752  -5.032  1.00 20.00     0.065 C 
HETATM    2  C7  UNL     1     -34.512  15.205  -5.206  1.00 20.00     0.186 C 
HETATM    3  N8  UNL     1     -34.792  12.606  -4.895  1.00 20.00    -0.197 NA
ENDROOT
BRANCH   2   4
HETATM    4  C6  UNL     1     -34.774  15.919  -3.922  1.00 20.00     0.085 A 
HETATM    5  C4  UNL     1     -33.808  15.911  -2.929  1.00 20.00     0.143 A 
HETATM    6  C2  UNL     1     -34.086  16.585  -1.746  1.00 20.00     0.069 A 
HETATM    7  F10 UNL     1     -32.641  15.277  -3.094  1.00 20.00    -0.204 F 
HETATM    8  C5  UNL     1     -35.304  17.239  -1.594  1.00 20.00     0.054 A 
HETATM    9  C3  UNL     1     -36.203  17.188  -2.647  1.00 20.00     0.141 A 
HETATM   10 CL11 UNL     1     -35.682  18.082  -0.149  1.00 20.00    -0.083 Cl
HETATM   11  N9  UNL     1     -35.969  16.542  -3.812  1.00 20.00    -0.260 NA
ENDBRANCH   2   4
TORSDOF 1
ENDMDL
MODEL 5
REMARK VINA RESULT:      -4.2     11.887     12.815
REMARK  1 active torsions:
REMARK  status: ('A' for Active; 'I' for Inactive)
REMARK    1  A    between atoms: C6_6  and  C7_7 
ROOT
HETATM    1  C1  UNL     1     -32.371   8.390   2.057  1.00 20.00     0.065 C 
HETATM    2  C7  UNL     1     -32.152   6.945   2.232  1.00 20.00     0.186 C 
HETATM    3  N8  UNL     1     -32.544   9.529   1.918  1.00 20.00    -0.197 NA
ENDROOT
BRANCH   2   4
HETATM    4  C6  UNL     1     -33.003   6.416   3.338  1.00 20.00     0.085 A 
HETATM    5  C4  UNL     1     -33.986   5.482   3.055  1.00 20.00     0.143 A 
HETATM    6  C2  UNL     1     -34.759   5.011   4.109  1.00 20.00     0.069 A 
HETATM    7  F10 UNL     1     -34.191   5.039   1.808  1.00 20.00    -0.204 F 
HETATM    8  C5  UNL     1     -34.530   5.482   5.398  1.00 20.00     0.054 A 
HETATM    9  C3  UNL     1     -33.522   6.416   5.576  1.00 20.00     0.141 A 
HETATM   10 CL11 UNL     1     -35.464   4.924   6.723  1.00 20.00    -0.083 Cl
HETATM   11  N9  UNL     1     -32.750   6.898   4.576  1.00 20.00    -0.260 NA
ENDBRANCH   2   4
TORSDOF 1
ENDMDL
MODEL 6
REMARK VINA RESULT:      -4.1      3.901      5.652
REMARK  1 active torsions:
REMARK  status: ('A' for Active; 'I' for Inactive)
REMARK    1  A    between atoms: C6_6  and  C7_7 
ROOT
HETATM    1  C1  UNL     1     -36.059  14.860  -7.053  1.00 20.00     0.065 C 
HETATM    2  C7  UNL     1     -34.711  14.700  -6.483  1.00 20.00     0.186 C 
HETATM    3  N8  UNL     1     -37.122  14.985  -7.502  1.00 20.00    -0.197 NA
ENDROOT
BRANCH   2   4
HETATM    4  C6  UNL     1     -34.683  15.163  -5.065  1.00 20.00     0.085 A 
HETATM    5  C4  UNL     1     -33.676  16.017  -4.646  1.00 20.00     0.143 A 
HETATM    6  C2  UNL     1     -33.681  16.427  -3.318  1.00 20.00     0.069 A 
HETATM    7  F10 UNL     1     -32.724  16.440  -5.487  1.00 20.00    -0.204 F 
HETATM    8  C5  UNL     1     -34.679  15.977  -2.461  1.00 20.00     0.054 A 
HETATM    9  C3  UNL     1     -35.642  15.125  -2.977  1.00 20.00     0.141 A 
HETATM   10 CL11 UNL     1     -34.717  16.462  -0.816  1.00 20.00    -0.083 Cl
HETATM   11  N9  UNL     1     -35.670  14.704  -4.262  1.00 20.00    -0.260 NA
ENDBRANCH   2   4
TORSDOF 1
ENDMDL
MODEL 7
REMARK VINA RESULT:      -4.1      3.519      5.005
REMARK  1 active torsions:
REMARK  status: ('A' for Active; 'I' for Inactive)
REMARK    1  A    between atoms: C6_6  and  C7_7 
ROOT
HETATM    1  C1  UNL     1     -37.385  15.087  -3.874  1.00 20.00     0.065 C 
HETATM    2  C7  UNL     1     -36.357  16.126  -4.043  1.00 20.00     0.186 C 
HETATM    3  N8  UNL     1     -38.195  14.267  -3.742  1.00 20.00    -0.197 NA
ENDROOT
BRANCH   2   4
HETATM    4  C6  UNL     1     -35.944  16.675  -2.719  1.00 20.00     0.085 A 
HETATM    5  C4  UNL     1     -34.877  16.101  -2.045  1.00 20.00     0.143 A 
HETATM    6  C2  UNL     1     -34.521  16.638  -0.814  1.00 20.00     0.069 A 
HETATM    7  F10 UNL     1     -34.205  15.063  -2.556  1.00 20.00    -0.204 F 
HETATM    8  C5  UNL     1     -35.231  17.718  -0.300  1.00 20.00     0.054 A 
HETATM    9  C3  UNL     1     -36.281  18.220  -1.052  1.00 20.00     0.141 A 
HETATM   10 CL11 UNL     1     -34.819  18.407   1.215  1.00 20.00    -0.083 Cl
HETATM   11  N9  UNL     1     -36.658  17.725  -2.252  1.00 20.00    -0.260 NA
ENDBRANCH   2   4
TORSDOF 1
ENDMDL
MODEL 8
REMARK VINA RESULT:      -4.1      3.639      4.708
REMARK  1 active torsions:
REMARK  status: ('A' for Active; 'I' for Inactive)
REMARK    1  A    between atoms: C6_6  and  C7_7 
ROOT
HETATM    1  C1  UNL     1     -34.517  13.617  -3.992  1.00 20.00     0.065 C 
HETATM    2  C7  UNL     1     -33.860  14.790  -3.394  1.00 20.00     0.186 C 
HETATM    3  N8  UNL     1     -35.036  12.692  -4.462  1.00 20.00    -0.197 NA
ENDROOT
BRANCH   2   4
HETATM    4  C6  UNL     1     -33.865  15.937  -4.349  1.00 20.00     0.085 A 
HETATM    5  C4  UNL     1     -33.659  17.222  -3.872  1.00 20.00     0.143 A 
HETATM    6  C2  UNL     1     -33.671  18.265  -4.789  1.00 20.00     0.069 A 
HETATM    7  F10 UNL     1     -33.454  17.460  -2.571  1.00 20.00    -0.204 F 
HETATM    8  C5  UNL     1     -33.886  17.998  -6.137  1.00 20.00     0.054 A 
HETATM    9  C3  UNL     1     -34.080  16.678  -6.513  1.00 20.00     0.141 A 
HETATM   10 CL11 UNL     1     -33.907  19.260  -7.298  1.00 20.00    -0.083 Cl
HETATM   11  N9  UNL     1     -34.076  15.637  -5.651  1.00 20.00    -0.260 NA
ENDBRANCH   2   4
TORSDOF 1
ENDMDL
MODEL 9
REMARK VINA RESULT:      -4.1      2.308      3.111
REMARK  1 active torsions:
REMARK  status: ('A' for Active; 'I' for Inactive)
REMARK    1  A    between atoms: C6_6  and  C7_7 
ROOT
HETATM    1  C1  UNL     1     -34.042  17.125  -1.753  1.00 20.00     0.065 C 
HETATM    2  C7  UNL     1     -34.815  15.904  -2.031  1.00 20.00     0.186 C 
HETATM    3  N8  UNL     1     -33.432  18.088  -1.534  1.00 20.00    -0.197 NA
ENDROOT
BRANCH   2   4
HETATM    4  C6  UNL     1     -34.812  15.602  -3.492  1.00 20.00     0.085 A 
HETATM    5  C4  UNL     1     -34.473  14.329  -3.924  1.00 20.00     0.143 A 
HETATM    6  C2  UNL     1     -34.480  14.084  -5.292  1.00 20.00     0.069 A 
HETATM    7  F10 UNL     1     -34.147  13.361  -3.060  1.00 20.00    -0.204 F 
HETATM    8  C5  UNL     1     -34.821  15.104  -6.175  1.00 20.00     0.054 A 
HETATM    9  C3  UNL     1     -35.146  16.341  -5.642  1.00 20.00     0.141 A 
HETATM   10 CL11 UNL     1     -34.842  14.838  -7.869  1.00 20.00    -0.083 Cl
HETATM   11  N9  UNL     1     -35.149  16.618  -4.318  1.00 20.00    -0.260 NA
ENDBRANCH   2   4
TORSDOF 1
ENDMDL
