MODEL 1
REMARK VINA RESULT:      -5.0      0.000      0.000
REMARK  3 active torsions:
REMARK  status: ('A' for Active; 'I' for Inactive)
REMARK    1  A    between atoms: C1_1  and  C2_2 
REMARK    2  A    between atoms: C1_1  and  C3_3 
REMARK    3  A    between atoms: C2_2  and  C4_4 
ROOT
HETATM    1  C2  UNL     1     -33.947   6.368   4.986  1.00 20.00     0.196 C 
ENDROOT
BRANCH   1   2
HETATM    2  C1  UNL     1     -33.431   6.044   3.593  1.00 20.00     0.148 C 
HETATM    3  O5  UNL     1     -34.109   5.424   2.776  1.00 20.00    -0.296 OA
BRANCH   2   4
HETATM    4  C3  UNL     1     -32.036   6.548   3.291  1.00 20.00     0.193 C 
HETATM    5 CL9  UNL     1     -32.092   7.935   2.193  1.00 20.00    -0.123 Cl
ENDBRANCH   2   4
ENDBRANCH   1   2
BRANCH   1   6
HETATM    6  C4  UNL     1     -34.716   5.230   5.615  1.00 20.00     0.394 C 
HETATM    7  F6  UNL     1     -35.818   4.921   4.899  1.00 20.00    -0.171 F 
HETATM    8  F7  UNL     1     -35.121   5.568   6.860  1.00 20.00    -0.171 F 
HETATM    9  F8  UNL     1     -33.958   4.119   5.722  1.00 20.00    -0.171 F 
ENDBRANCH   1   6
TORSDOF 3
ENDMDL
MODEL 2
REMARK VINA RESULT:      -5.0      0.033      1.257
REMARK  3 active torsions:
REMARK  status: ('A' for Active; 'I' for Inactive)
REMARK    1  A    between atoms: C1_1  and  C2_2 
REMARK    2  A    between atoms: C1_1  and  C3_3 
REMARK    3  A    between atoms: C2_2  and  C4_4 
ROOT
HETATM    1  C2  UNL     1     -33.959   6.361   4.988  1.00 20.00     0.196 C 
ENDROOT
BRANCH   1   2
HETATM    2  C1  UNL     1     -33.447   6.030   3.595  1.00 20.00     0.148 C 
HETATM    3  O5  UNL     1     -34.123   5.397   2.788  1.00 20.00    -0.296 OA
BRANCH   2   4
HETATM    4  C3  UNL     1     -32.058   6.543   3.283  1.00 20.00     0.193 C 
HETATM    5 CL9  UNL     1     -32.134   7.961   2.226  1.00 20.00    -0.123 Cl
ENDBRANCH   2   4
ENDBRANCH   1   2
BRANCH   1   6
HETATM    6  C4  UNL     1     -34.704   5.218   5.636  1.00 20.00     0.394 C 
HETATM    7  F6  UNL     1     -33.939   4.108   5.711  1.00 20.00    -0.171 F 
HETATM    8  F7  UNL     1     -35.805   4.906   4.917  1.00 20.00    -0.171 F 
HETATM    9  F8  UNL     1     -35.110   5.536   6.884  1.00 20.00    -0.171 F 
ENDBRANCH   1   6
TORSDOF 3
ENDMDL
MODEL 3
REMARK VINA RESULT:      -5.0      0.030      1.261
REMARK  3 active torsions:
REMARK  status: ('A' for Active; 'I' for Inactive)
REMARK    1  A    between atoms: C1_1  and  C2_2 
REMARK    2  A    between atoms: C1_1  and  C3_3 
REMARK    3  A    between atoms: C2_2  and  C4_4 
ROOT
HETATM    1  C2  UNL     1     -33.965   6.359   4.985  1.00 20.00     0.196 C 
ENDROOT
BRANCH   1   2
HETATM    2  C1  UNL     1     -33.450   6.029   3.593  1.00 20.00     0.148 C 
HETATM    3  O5  UNL     1     -34.127   5.402   2.781  1.00 20.00    -0.296 OA
BRANCH   2   4
HETATM    4  C3  UNL     1     -32.057   6.536   3.286  1.00 20.00     0.193 C 
HETATM    5 CL9  UNL     1     -32.123   7.952   2.227  1.00 20.00    -0.123 Cl
ENDBRANCH   2   4
ENDBRANCH   1   2
BRANCH   1   6
HETATM    6  C4  UNL     1     -34.725   5.220   5.624  1.00 20.00     0.394 C 
HETATM    7  F6  UNL     1     -35.123   5.531   6.876  1.00 20.00    -0.171 F 
HETATM    8  F7  UNL     1     -33.944   4.121   5.706  1.00 20.00    -0.171 F 
HETATM    9  F8  UNL     1     -35.818   4.890   4.904  1.00 20.00    -0.171 F 
ENDBRANCH   1   6
TORSDOF 3
ENDMDL
MODEL 4
REMARK VINA RESULT:      -4.9      3.228      3.846
REMARK  3 active torsions:
REMARK  status: ('A' for Active; 'I' for Inactive)
REMARK    1  A    between atoms: C1_1  and  C2_2 
REMARK    2  A    between atoms: C1_1  and  C3_3 
REMARK    3  A    between atoms: C2_2  and  C4_4 
ROOT
HETATM    1  C2  UNL     1     -33.593   6.751   4.114  1.00 20.00     0.196 C 
ENDROOT
BRANCH   1   2
HETATM    2  C1  UNL     1     -34.422   5.539   3.718  1.00 20.00     0.148 C 
HETATM    3  O5  UNL     1     -34.513   5.167   2.550  1.00 20.00    -0.296 OA
BRANCH   2   4
HETATM    4  C3  UNL     1     -35.110   4.830   4.864  1.00 20.00     0.193 C 
HETATM    5 CL9  UNL     1     -34.618   5.520   6.417  1.00 20.00    -0.123 Cl
ENDBRANCH   2   4
ENDBRANCH   1   2
BRANCH   1   6
HETATM    6  C4  UNL     1     -32.287   6.851   3.360  1.00 20.00     0.394 C 
HETATM    7  F6  UNL     1     -31.718   5.639   3.191  1.00 20.00    -0.171 F 
HETATM    8  F7  UNL     1     -31.410   7.622   4.041  1.00 20.00    -0.171 F 
HETATM    9  F8  UNL     1     -32.460   7.409   2.143  1.00 20.00    -0.171 F 
ENDBRANCH   1   6
TORSDOF 3
ENDMDL
MODEL 5
REMARK VINA RESULT:      -4.7      3.589      4.202
REMARK  3 active torsions:
REMARK  status: ('A' for Active; 'I' for Inactive)
REMARK    1  A    between atoms: C1_1  and  C2_2 
REMARK    2  A    between atoms: C1_1  and  C3_3 
REMARK    3  A    between atoms: C2_2  and  C4_4 
ROOT
HETATM    1  C2  UNL     1     -33.655   7.012   3.564  1.00 20.00     0.196 C 
ENDROOT
BRANCH   1   2
HETATM    2  C1  UNL     1     -34.047   6.202   4.790  1.00 20.00     0.148 C 
HETATM    3  O5  UNL     1     -33.714   6.537   5.924  1.00 20.00    -0.296 OA
BRANCH   2   4
HETATM    4  C3  UNL     1     -34.879   4.970   4.506  1.00 20.00     0.193 C 
HETATM    5 CL9  UNL     1     -35.083   3.998   5.970  1.00 20.00    -0.123 Cl
ENDBRANCH   2   4
ENDBRANCH   1   2
BRANCH   1   6
HETATM    6  C4  UNL     1     -32.182   6.924   3.238  1.00 20.00     0.394 C 
HETATM    7  F6  UNL     1     -31.437   7.628   4.117  1.00 20.00    -0.171 F 
HETATM    8  F7  UNL     1     -31.943   7.426   2.007  1.00 20.00    -0.171 F 
HETATM    9  F8  UNL     1     -31.749   5.646   3.248  1.00 20.00    -0.171 F 
ENDBRANCH   1   6
TORSDOF 3
ENDMDL
MODEL 6
REMARK VINA RESULT:      -4.7      2.866      3.601
REMARK  3 active torsions:
REMARK  status: ('A' for Active; 'I' for Inactive)
REMARK    1  A    between atoms: C1_1  and  C2_2 
REMARK    2  A    between atoms: C1_1  and  C3_3 
REMARK    3  A    between atoms: C2_2  and  C4_4 
ROOT
HETATM    1  C2  UNL     1     -34.390   6.389   4.026  1.00 20.00     0.196 C 
ENDROOT
BRANCH   1   2
HETATM    2  C1  UNL     1     -34.731   5.223   4.940  1.00 20.00     0.148 C 
HETATM    3  O5  UNL     1     -35.174   4.163   4.503  1.00 20.00    -0.296 OA
BRANCH   2   4
HETATM    4  C3  UNL     1     -34.476   5.464   6.412  1.00 20.00     0.193 C 
HETATM    5 CL9  UNL     1     -33.691   7.030   6.666  1.00 20.00    -0.123 Cl
ENDBRANCH   2   4
ENDBRANCH   1   2
BRANCH   1   6
HETATM    6  C4  UNL     1     -33.205   6.116   3.129  1.00 20.00     0.394 C 
HETATM    7  F6  UNL     1     -32.156   5.630   3.827  1.00 20.00    -0.171 F 
HETATM    8  F7  UNL     1     -32.800   7.255   2.526  1.00 20.00    -0.171 F 
HETATM    9  F8  UNL     1     -33.513   5.229   2.159  1.00 20.00    -0.171 F 
ENDBRANCH   1   6
TORSDOF 3
ENDMDL
MODEL 7
REMARK VINA RESULT:      -4.6      1.368      1.368
REMARK  3 active torsions:
REMARK  status: ('A' for Active; 'I' for Inactive)
REMARK    1  A    between atoms: C1_1  and  C2_2 
REMARK    2  A    between atoms: C1_1  and  C3_3 
REMARK    3  A    between atoms: C2_2  and  C4_4 
ROOT
HETATM    1  C2  UNL     1     -34.653   5.444   4.264  1.00 20.00     0.196 C 
ENDROOT
BRANCH   1   2
HETATM    2  C1  UNL     1     -33.392   6.287   4.378  1.00 20.00     0.148 C 
HETATM    3  O5  UNL     1     -33.164   6.984   5.364  1.00 20.00    -0.296 OA
BRANCH   2   4
HETATM    4  C3  UNL     1     -32.448   6.193   3.198  1.00 20.00     0.193 C 
HETATM    5 CL9  UNL     1     -32.073   7.802   2.564  1.00 20.00    -0.123 Cl
ENDBRANCH   2   4
ENDBRANCH   1   2
BRANCH   1   6
HETATM    6  C4  UNL     1     -34.833   4.484   5.417  1.00 20.00     0.394 C 
HETATM    7  F6  UNL     1     -35.523   3.385   5.043  1.00 20.00    -0.171 F 
HETATM    8  F7  UNL     1     -35.521   5.076   6.418  1.00 20.00    -0.171 F 
HETATM    9  F8  UNL     1     -33.645   4.085   5.919  1.00 20.00    -0.171 F 
ENDBRANCH   1   6
TORSDOF 3
ENDMDL
MODEL 8
REMARK VINA RESULT:      -4.3      2.136      2.820
REMARK  3 active torsions:
REMARK  status: ('A' for Active; 'I' for Inactive)
REMARK    1  A    between atoms: C1_1  and  C2_2 
REMARK    2  A    between atoms: C1_1  and  C3_3 
REMARK    3  A    between atoms: C2_2  and  C4_4 
ROOT
HETATM    1  C2  UNL     1     -32.601   6.062   2.974  1.00 20.00     0.196 C 
ENDROOT
BRANCH   1   2
HETATM    2  C1  UNL     1     -31.911   7.416   2.970  1.00 20.00     0.148 C 
HETATM    3  O5  UNL     1     -31.353   7.864   3.969  1.00 20.00    -0.296 OA
BRANCH   2   4
HETATM    4  C3  UNL     1     -31.959   8.157   1.651  1.00 20.00     0.193 C 
HETATM    5 CL9  UNL     1     -32.620   9.785   1.867  1.00 20.00    -0.123 Cl
ENDBRANCH   2   4
ENDBRANCH   1   2
BRANCH   1   6
HETATM    6  C4  UNL     1     -33.869   6.042   3.797  1.00 20.00     0.394 C 
HETATM    7  F6  UNL     1     -33.616   5.743   5.089  1.00 20.00    -0.171 F 
HETATM    8  F7  UNL     1     -34.722   5.107   3.322  1.00 20.00    -0.171 F 
HETATM    9  F8  UNL     1     -34.505   7.231   3.755  1.00 20.00    -0.171 F 
ENDBRANCH   1   6
TORSDOF 3
ENDMDL
MODEL 9
REMARK VINA RESULT:      -4.2     12.313     12.881
REMARK  3 active torsions:
REMARK  status: ('A' for Active; 'I' for Inactive)
REMARK    1  A    between atoms: C1_1  and  C2_2 
REMARK    2  A    between atoms: C1_1  and  C3_3 
REMARK    3  A    between atoms: C2_2  and  C4_4 
ROOT
HETATM    1  C2  UNL     1     -34.642  14.593  -3.566  1.00 20.00     0.196 C 
ENDROOT
BRANCH   1   2
HETATM    2  C1  UNL     1     -34.898  13.770  -4.818  1.00 20.00     0.148 C 
HETATM    3  O5  UNL     1     -34.598  12.580  -4.887  1.00 20.00    -0.296 OA
BRANCH   2   4
HETATM    4  C3  UNL     1     -35.552  14.522  -5.958  1.00 20.00     0.193 C 
HETATM    5 CL9  UNL     1     -34.393  14.822  -7.261  1.00 20.00    -0.123 Cl
ENDBRANCH   2   4
ENDBRANCH   1   2
BRANCH   1   6
HETATM    6  C4  UNL     1     -33.271  15.229  -3.541  1.00 20.00     0.394 C 
HETATM    7  F6  UNL     1     -32.293  14.298  -3.513  1.00 20.00    -0.171 F 
HETATM    8  F7  UNL     1     -33.131  16.000  -2.440  1.00 20.00    -0.171 F 
HETATM    9  F8  UNL     1     -33.072  16.017  -4.618  1.00 20.00    -0.171 F 
ENDBRANCH   1   6
TORSDOF 3
ENDMDL
