MODEL 1
REMARK VINA RESULT:      -4.5      0.000      0.000
REMARK  4 active torsions:
REMARK  status: ('A' for Active; 'I' for Inactive)
REMARK    1  A    between atoms: C3_3  and  C5_5 
REMARK    2  A    between atoms: C5_5  and  N8_8 
REMARK    3  A    between atoms: C6_6  and  C7_7 
REMARK    4  A    between atoms: C7_7  and  N8_8 
ROOT
HETATM    1  N8  UNL     1     -32.417   6.237   3.515  1.00 20.00     0.089 N 
HETATM    2  H23 UNL     1     -32.420   5.640   2.683  1.00 20.00     0.316 HD
ENDROOT
BRANCH   1   3
HETATM    3  C5  UNL     1     -31.818   7.522   3.170  1.00 20.00     0.274 C 
BRANCH   3   4
HETATM    4  C3  UNL     1     -32.488   8.127   1.984  1.00 20.00     0.014 A 
HETATM    5  C1  UNL     1     -32.454   9.615   1.771  1.00 20.00     0.007 A 
HETATM    6  C2  UNL     1     -31.668   8.709   0.866  1.00 20.00     0.007 A 
ENDBRANCH   3   4
ENDBRANCH   1   3
BRANCH   1   7
HETATM    7  C7  UNL     1     -33.771   6.403   4.000  1.00 20.00     0.230 C 
HETATM    8  C4  UNL     1     -34.678   5.374   3.336  1.00 20.00     0.043 C 
BRANCH   7   9
HETATM    9  C6  UNL     1     -33.793   6.346   5.529  1.00 20.00     0.149 C 
HETATM   10 CL9  UNL     1     -34.856   5.068   6.172  1.00 20.00    -0.128 Cl
ENDBRANCH   7   9
ENDBRANCH   1   7
TORSDOF 4
ENDMDL
MODEL 2
REMARK VINA RESULT:      -4.4      2.616      4.757
REMARK  4 active torsions:
REMARK  status: ('A' for Active; 'I' for Inactive)
REMARK    1  A    between atoms: C3_3  and  C5_5 
REMARK    2  A    between atoms: C5_5  and  N8_8 
REMARK    3  A    between atoms: C6_6  and  C7_7 
REMARK    4  A    between atoms: C7_7  and  N8_8 
ROOT
HETATM    1  N8  UNL     1     -33.863   6.693   3.850  1.00 20.00     0.089 N 
HETATM    2  H23 UNL     1     -34.236   7.409   3.220  1.00 20.00     0.316 HD
ENDROOT
BRANCH   1   3
HETATM    3  C5  UNL     1     -34.630   5.465   3.670  1.00 20.00     0.274 C 
BRANCH   3   4
HETATM    4  C3  UNL     1     -35.302   5.058   4.938  1.00 20.00     0.014 A 
HETATM    5  C1  UNL     1     -34.767   3.907   5.744  1.00 20.00     0.007 A 
HETATM    6  C2  UNL     1     -34.636   5.312   6.261  1.00 20.00     0.007 A 
ENDBRANCH   3   4
ENDBRANCH   1   3
BRANCH   1   7
HETATM    7  C7  UNL     1     -32.459   6.481   3.570  1.00 20.00     0.230 C 
HETATM    8  C4  UNL     1     -32.313   5.454   2.454  1.00 20.00     0.043 C 
BRANCH   7   9
HETATM    9  C6  UNL     1     -31.776   7.818   3.268  1.00 20.00     0.149 C 
HETATM   10 CL9  UNL     1     -32.017   8.371   1.591  1.00 20.00    -0.128 Cl
ENDBRANCH   7   9
ENDBRANCH   1   7
TORSDOF 4
ENDMDL
MODEL 3
REMARK VINA RESULT:      -4.2      2.601      4.843
REMARK  4 active torsions:
REMARK  status: ('A' for Active; 'I' for Inactive)
REMARK    1  A    between atoms: C3_3  and  C5_5 
REMARK    2  A    between atoms: C5_5  and  N8_8 
REMARK    3  A    between atoms: C6_6  and  C7_7 
REMARK    4  A    between atoms: C7_7  and  N8_8 
ROOT
HETATM    1  N8  UNL     1     -32.931   6.222   2.986  1.00 20.00     0.089 N 
HETATM    2  H23 UNL     1     -32.232   5.577   3.363  1.00 20.00     0.316 HD
ENDROOT
BRANCH   1   3
HETATM    3  C5  UNL     1     -34.164   6.078   3.752  1.00 20.00     0.274 C 
BRANCH   3   4
HETATM    4  C3  UNL     1     -33.925   5.336   5.023  1.00 20.00     0.014 A 
HETATM    5  C1  UNL     1     -34.396   5.904   6.333  1.00 20.00     0.007 A 
HETATM    6  C2  UNL     1     -35.073   4.694   5.752  1.00 20.00     0.007 A 
ENDBRANCH   3   4
ENDBRANCH   1   3
BRANCH   1   7
HETATM    7  C7  UNL     1     -32.427   7.578   3.051  1.00 20.00     0.230 C 
HETATM    8  C4  UNL     1     -31.296   7.651   4.069  1.00 20.00     0.043 C 
BRANCH   7   9
HETATM    9  C6  UNL     1     -32.029   8.059   1.654  1.00 20.00     0.149 C 
HETATM   10 CL9  UNL     1     -32.409   9.776   1.363  1.00 20.00    -0.128 Cl
ENDBRANCH   7   9
ENDBRANCH   1   7
TORSDOF 4
ENDMDL
MODEL 4
REMARK VINA RESULT:      -4.2      0.958      1.668
REMARK  4 active torsions:
REMARK  status: ('A' for Active; 'I' for Inactive)
REMARK    1  A    between atoms: C3_3  and  C5_5 
REMARK    2  A    between atoms: C5_5  and  N8_8 
REMARK    3  A    between atoms: C6_6  and  C7_7 
REMARK    4  A    between atoms: C7_7  and  N8_8 
ROOT
HETATM    1  N8  UNL     1     -33.638   7.055   3.678  1.00 20.00     0.089 N 
HETATM    2  H23 UNL     1     -33.553   7.977   4.114  1.00 20.00     0.316 HD
ENDROOT
BRANCH   1   3
HETATM    3  C5  UNL     1     -32.485   6.836   2.811  1.00 20.00     0.274 C 
BRANCH   3   4
HETATM    4  C3  UNL     1     -31.845   8.128   2.430  1.00 20.00     0.014 A 
HETATM    5  C1  UNL     1     -31.732   8.520   0.982  1.00 20.00     0.007 A 
HETATM    6  C2  UNL     1     -32.680   9.255   1.888  1.00 20.00     0.007 A 
ENDBRANCH   3   4
ENDBRANCH   1   3
BRANCH   1   7
HETATM    7  C7  UNL     1     -33.724   6.038   4.704  1.00 20.00     0.230 C 
HETATM    8  C4  UNL     1     -33.782   6.702   6.075  1.00 20.00     0.043 C 
BRANCH   7   9
HETATM    9  C6  UNL     1     -34.905   5.105   4.423  1.00 20.00     0.149 C 
HETATM   10 CL9  UNL     1     -35.129   3.854   5.673  1.00 20.00    -0.128 Cl
ENDBRANCH   7   9
ENDBRANCH   1   7
TORSDOF 4
ENDMDL
MODEL 5
REMARK VINA RESULT:      -4.1      1.541      2.071
REMARK  4 active torsions:
REMARK  status: ('A' for Active; 'I' for Inactive)
REMARK    1  A    between atoms: C3_3  and  C5_5 
REMARK    2  A    between atoms: C5_5  and  N8_8 
REMARK    3  A    between atoms: C6_6  and  C7_7 
REMARK    4  A    between atoms: C7_7  and  N8_8 
ROOT
HETATM    1  N8  UNL     1     -33.428   5.442   4.463  1.00 20.00     0.089 N 
HETATM    2  H23 UNL     1     -33.100   4.509   4.201  1.00 20.00     0.316 HD
ENDROOT
BRANCH   1   3
HETATM    3  C5  UNL     1     -33.583   6.242   3.252  1.00 20.00     0.274 C 
BRANCH   3   4
HETATM    4  C3  UNL     1     -32.263   6.728   2.756  1.00 20.00     0.014 A 
HETATM    5  C1  UNL     1     -32.126   8.120   2.204  1.00 20.00     0.007 A 
HETATM    6  C2  UNL     1     -31.502   7.771   3.525  1.00 20.00     0.007 A 
ENDBRANCH   3   4
ENDBRANCH   1   3
BRANCH   1   7
HETATM    7  C7  UNL     1     -34.679   5.335   5.184  1.00 20.00     0.230 C 
HETATM    8  C4  UNL     1     -35.169   3.892   5.138  1.00 20.00     0.043 C 
BRANCH   7   9
HETATM    9  C6  UNL     1     -34.516   5.884   6.604  1.00 20.00     0.149 C 
HETATM   10 CL9  UNL     1     -33.370   7.245   6.706  1.00 20.00    -0.128 Cl
ENDBRANCH   7   9
ENDBRANCH   1   7
TORSDOF 4
ENDMDL
MODEL 6
REMARK VINA RESULT:      -3.9     10.519     11.275
REMARK  4 active torsions:
REMARK  status: ('A' for Active; 'I' for Inactive)
REMARK    1  A    between atoms: C3_3  and  C5_5 
REMARK    2  A    between atoms: C5_5  and  N8_8 
REMARK    3  A    between atoms: C6_6  and  C7_7 
REMARK    4  A    between atoms: C7_7  and  N8_8 
ROOT
HETATM    1  N8  UNL     1     -36.238  15.163  -2.913  1.00 20.00     0.089 N 
HETATM    2  H23 UNL     1     -35.907  14.456  -2.251  1.00 20.00     0.316 HD
ENDROOT
BRANCH   1   3
HETATM    3  C5  UNL     1     -35.551  16.421  -2.640  1.00 20.00     0.274 C 
BRANCH   3   4
HETATM    4  C3  UNL     1     -34.598  16.277  -1.502  1.00 20.00     0.014 A 
HETATM    5  C1  UNL     1     -33.663  17.401  -1.150  1.00 20.00     0.007 A 
HETATM    6  C2  UNL     1     -34.807  17.061  -0.237  1.00 20.00     0.007 A 
ENDBRANCH   3   4
ENDBRANCH   1   3
BRANCH   1   7
HETATM    7  C7  UNL     1     -35.993  14.714  -4.268  1.00 20.00     0.230 C 
HETATM    8  C4  UNL     1     -35.356  15.843  -5.069  1.00 20.00     0.043 C 
BRANCH   7   9
HETATM    9  C6  UNL     1     -35.163  13.427  -4.253  1.00 20.00     0.149 C 
HETATM   10 CL9  UNL     1     -33.453  13.695  -3.827  1.00 20.00    -0.128 Cl
ENDBRANCH   7   9
ENDBRANCH   1   7
TORSDOF 4
ENDMDL
MODEL 7
REMARK VINA RESULT:      -3.8     10.900     11.739
REMARK  4 active torsions:
REMARK  status: ('A' for Active; 'I' for Inactive)
REMARK    1  A    between atoms: C3_3  and  C5_5 
REMARK    2  A    between atoms: C5_5  and  N8_8 
REMARK    3  A    between atoms: C6_6  and  C7_7 
REMARK    4  A    between atoms: C7_7  and  N8_8 
ROOT
HETATM    1  N8  UNL     1     -33.218  15.768  -4.875  1.00 20.00     0.089 N 
HETATM    2  H23 UNL     1     -32.636  16.173  -5.613  1.00 20.00     0.316 HD
ENDROOT
BRANCH   1   3
HETATM    3  C5  UNL     1     -33.626  16.830  -3.961  1.00 20.00     0.274 C 
BRANCH   3   4
HETATM    4  C3  UNL     1     -33.531  16.384  -2.542  1.00 20.00     0.014 A 
HETATM    5  C1  UNL     1     -33.809  17.350  -1.424  1.00 20.00     0.007 A 
HETATM    6  C2  UNL     1     -34.775  16.235  -1.711  1.00 20.00     0.007 A 
ENDBRANCH   3   4
ENDBRANCH   1   3
BRANCH   1   7
HETATM    7  C7  UNL     1     -34.367  15.114  -5.466  1.00 20.00     0.230 C 
HETATM    8  C4  UNL     1     -34.299  15.240  -6.983  1.00 20.00     0.043 C 
BRANCH   7   9
HETATM    9  C6  UNL     1     -34.460  13.668  -4.973  1.00 20.00     0.149 C 
HETATM   10 CL9  UNL     1     -33.198  13.245  -3.787  1.00 20.00    -0.128 Cl
ENDBRANCH   7   9
ENDBRANCH   1   7
TORSDOF 4
ENDMDL
MODEL 8
REMARK VINA RESULT:      -3.8     10.905     11.696
REMARK  4 active torsions:
REMARK  status: ('A' for Active; 'I' for Inactive)
REMARK    1  A    between atoms: C3_3  and  C5_5 
REMARK    2  A    between atoms: C5_5  and  N8_8 
REMARK    3  A    between atoms: C6_6  and  C7_7 
REMARK    4  A    between atoms: C7_7  and  N8_8 
ROOT
HETATM    1  N8  UNL     1     -36.046  15.281  -3.472  1.00 20.00     0.089 N 
HETATM    2  H23 UNL     1     -36.478  14.559  -2.889  1.00 20.00     0.316 HD
ENDROOT
BRANCH   1   3
HETATM    3  C5  UNL     1     -35.804  16.464  -2.652  1.00 20.00     0.274 C 
BRANCH   3   4
HETATM    4  C3  UNL     1     -34.712  16.221  -1.666  1.00 20.00     0.014 A 
HETATM    5  C1  UNL     1     -33.688  17.287  -1.392  1.00 20.00     0.007 A 
HETATM    6  C2  UNL     1     -34.711  16.942  -0.347  1.00 20.00     0.007 A 
ENDBRANCH   3   4
ENDBRANCH   1   3
BRANCH   1   7
HETATM    7  C7  UNL     1     -34.814  14.776  -4.040  1.00 20.00     0.230 C 
HETATM    8  C4  UNL     1     -34.917  13.266  -4.216  1.00 20.00     0.043 C 
BRANCH   7   9
HETATM    9  C6  UNL     1     -34.487  15.524  -5.335  1.00 20.00     0.149 C 
HETATM   10 CL9  UNL     1     -33.193  16.736  -5.141  1.00 20.00    -0.128 Cl
ENDBRANCH   7   9
ENDBRANCH   1   7
TORSDOF 4
ENDMDL
MODEL 9
REMARK VINA RESULT:      -3.7     10.776     11.566
REMARK  4 active torsions:
REMARK  status: ('A' for Active; 'I' for Inactive)
REMARK    1  A    between atoms: C3_3  and  C5_5 
REMARK    2  A    between atoms: C5_5  and  N8_8 
REMARK    3  A    between atoms: C6_6  and  C7_7 
REMARK    4  A    between atoms: C7_7  and  N8_8 
ROOT
HETATM    1  N8  UNL     1     -33.397  15.485  -4.864  1.00 20.00     0.089 N 
HETATM    2  H23 UNL     1     -32.914  15.924  -5.653  1.00 20.00     0.316 HD
ENDROOT
BRANCH   1   3
HETATM    3  C5  UNL     1     -33.920  16.532  -3.992  1.00 20.00     0.274 C 
BRANCH   3   4
HETATM    4  C3  UNL     1     -33.638  16.229  -2.559  1.00 20.00     0.014 A 
HETATM    5  C1  UNL     1     -33.720  17.317  -1.524  1.00 20.00     0.007 A 
HETATM    6  C2  UNL     1     -34.754  16.228  -1.553  1.00 20.00     0.007 A 
ENDBRANCH   3   4
ENDBRANCH   1   3
BRANCH   1   7
HETATM    7  C7  UNL     1     -34.459  14.633  -5.356  1.00 20.00     0.230 C 
HETATM    8  C4  UNL     1     -34.376  13.273  -4.675  1.00 20.00     0.043 C 
BRANCH   7   9
HETATM    9  C6  UNL     1     -35.812  15.327  -5.182  1.00 20.00     0.149 C 
HETATM   10 CL9  UNL     1     -36.891  14.491  -4.034  1.00 20.00    -0.128 Cl
ENDBRANCH   7   9
ENDBRANCH   1   7
TORSDOF 4
ENDMDL
