MODEL 1
REMARK VINA RESULT:      -4.1      0.000      0.000
REMARK  1 active torsions:
REMARK  status: ('A' for Active; 'I' for Inactive)
REMARK    1  A    between atoms: C1_1  and  N8_8 
ROOT
HETATM    1  C2  UNL     1     -33.332  15.995  -4.695  1.00 20.00     0.008 C 
HETATM    2  C3  UNL     1     -34.340  15.269  -5.612  1.00 20.00     0.026 C 
HETATM    3  C4  UNL     1     -33.728  13.812  -3.842  1.00 20.00     0.031 C 
HETATM    4  C5  UNL     1     -34.846  15.589  -2.737  1.00 20.00     0.130 C 
HETATM    5  C6  UNL     1     -33.478  15.245  -3.353  1.00 20.00     0.006 C 
HETATM    6  C7  UNL     1     -34.948  14.215  -4.672  1.00 20.00     0.087 C 
HETATM    7  N8  UNL     1     -35.746  14.938  -3.679  1.00 20.00    -0.354 N 
ENDROOT
BRANCH   7   8
HETATM    8  C1  UNL     1     -37.111  15.046  -3.674  1.00 20.00     0.351 C 
HETATM    9  O9  UNL     1     -37.924  14.131  -3.726  1.00 20.00    -0.284 OA
ENDBRANCH   7   8
TORSDOF 1
ENDMDL
MODEL 2
REMARK VINA RESULT:      -4.0      1.717      2.924
REMARK  1 active torsions:
REMARK  status: ('A' for Active; 'I' for Inactive)
REMARK    1  A    between atoms: C1_1  and  N8_8 
ROOT
HETATM    1  C2  UNL     1     -33.687  17.246  -2.037  1.00 20.00     0.008 C 
HETATM    2  C3  UNL     1     -34.716  16.190  -1.576  1.00 20.00     0.026 C 
HETATM    3  C4  UNL     1     -35.343  16.985  -3.722  1.00 20.00     0.031 C 
HETATM    4  C5  UNL     1     -33.268  15.905  -4.115  1.00 20.00     0.130 C 
HETATM    5  C6  UNL     1     -33.835  17.230  -3.574  1.00 20.00     0.006 C 
HETATM    6  C7  UNL     1     -35.301  15.692  -2.907  1.00 20.00     0.087 C 
HETATM    7  N8  UNL     1     -34.238  14.953  -3.592  1.00 20.00    -0.354 N 
ENDROOT
BRANCH   7   8
HETATM    8  C1  UNL     1     -34.132  13.590  -3.670  1.00 20.00     0.351 C 
HETATM    9  O9  UNL     1     -34.929  12.815  -4.185  1.00 20.00    -0.284 OA
ENDBRANCH   7   8
TORSDOF 1
ENDMDL
MODEL 3
REMARK VINA RESULT:      -4.0      1.657      2.648
REMARK  1 active torsions:
REMARK  status: ('A' for Active; 'I' for Inactive)
REMARK    1  A    between atoms: C1_1  and  N8_8 
ROOT
HETATM    1  C2  UNL     1     -35.095  17.491  -3.735  1.00 20.00     0.008 C 
HETATM    2  C3  UNL     1     -33.675  16.900  -3.877  1.00 20.00     0.026 C 
HETATM    3  C4  UNL     1     -34.539  16.314  -1.746  1.00 20.00     0.031 C 
HETATM    4  C5  UNL     1     -35.984  15.194  -3.258  1.00 20.00     0.130 C 
HETATM    5  C6  UNL     1     -35.741  16.591  -2.659  1.00 20.00     0.006 C 
HETATM    6  C7  UNL     1     -33.700  15.728  -2.883  1.00 20.00     0.087 C 
HETATM    7  N8  UNL     1     -34.616  14.724  -3.429  1.00 20.00    -0.354 N 
ENDROOT
BRANCH   7   8
HETATM    8  C1  UNL     1     -34.250  13.565  -4.061  1.00 20.00     0.351 C 
HETATM    9  O9  UNL     1     -34.988  12.654  -4.416  1.00 20.00    -0.284 OA
ENDBRANCH   7   8
TORSDOF 1
ENDMDL
MODEL 4
REMARK VINA RESULT:      -3.9      1.912      2.867
REMARK  1 active torsions:
REMARK  status: ('A' for Active; 'I' for Inactive)
REMARK    1  A    between atoms: C1_1  and  N8_8 
ROOT
HETATM    1  C2  UNL     1     -34.829  13.294  -4.217  1.00 20.00     0.008 C 
HETATM    2  C3  UNL     1     -33.431  13.765  -3.759  1.00 20.00     0.026 C 
HETATM    3  C4  UNL     1     -34.317  15.361  -5.273  1.00 20.00     0.031 C 
HETATM    4  C5  UNL     1     -35.800  15.467  -3.424  1.00 20.00     0.130 C 
HETATM    5  C6  UNL     1     -35.508  14.606  -4.667  1.00 20.00     0.006 C 
HETATM    6  C7  UNL     1     -33.499  15.284  -3.983  1.00 20.00     0.087 C 
HETATM    7  N8  UNL     1     -34.450  15.818  -3.006  1.00 20.00    -0.354 N 
ENDROOT
BRANCH   7   8
HETATM    8  C1  UNL     1     -34.126  16.478  -1.850  1.00 20.00     0.351 C 
HETATM    9  O9  UNL     1     -34.683  16.381  -0.764  1.00 20.00    -0.284 OA
ENDBRANCH   7   8
TORSDOF 1
ENDMDL
MODEL 5
REMARK VINA RESULT:      -3.8      0.842      1.674
REMARK  1 active torsions:
REMARK  status: ('A' for Active; 'I' for Inactive)
REMARK    1  A    between atoms: C1_1  and  N8_8 
ROOT
HETATM    1  C2  UNL     1     -33.329  14.889  -3.696  1.00 20.00     0.008 C 
HETATM    2  C3  UNL     1     -34.198  16.161  -3.817  1.00 20.00     0.026 C 
HETATM    3  C4  UNL     1     -34.449  14.870  -5.793  1.00 20.00     0.031 C 
HETATM    4  C5  UNL     1     -35.365  13.481  -4.101  1.00 20.00     0.130 C 
HETATM    5  C6  UNL     1     -34.005  13.910  -4.680  1.00 20.00     0.006 C 
HETATM    6  C7  UNL     1     -35.269  15.737  -4.836  1.00 20.00     0.087 C 
HETATM    7  N8  UNL     1     -36.108  14.732  -4.180  1.00 20.00    -0.354 N 
ENDROOT
BRANCH   7   8
HETATM    8  C1  UNL     1     -37.358  14.945  -3.662  1.00 20.00     0.351 C 
HETATM    9  O9  UNL     1     -38.336  14.216  -3.772  1.00 20.00    -0.284 OA
ENDBRANCH   7   8
TORSDOF 1
ENDMDL
MODEL 6
REMARK VINA RESULT:      -3.8      2.285      3.346
REMARK  1 active torsions:
REMARK  status: ('A' for Active; 'I' for Inactive)
REMARK    1  A    between atoms: C1_1  and  N8_8 
ROOT
HETATM    1  C2  UNL     1     -35.906  14.137  -3.927  1.00 20.00     0.008 C 
HETATM    2  C3  UNL     1     -35.187  15.208  -3.077  1.00 20.00     0.026 C 
HETATM    3  C4  UNL     1     -33.577  13.663  -3.883  1.00 20.00     0.031 C 
HETATM    4  C5  UNL     1     -34.403  14.686  -5.859  1.00 20.00     0.130 C 
HETATM    5  C6  UNL     1     -34.779  13.599  -4.835  1.00 20.00     0.006 C 
HETATM    6  C7  UNL     1     -33.751  15.160  -3.625  1.00 20.00     0.087 C 
HETATM    7  N8  UNL     1     -33.797  15.686  -4.991  1.00 20.00    -0.354 N 
ENDROOT
BRANCH   7   8
HETATM    8  C1  UNL     1     -33.402  16.938  -5.381  1.00 20.00     0.351 C 
HETATM    9  O9  UNL     1     -33.441  17.966  -4.716  1.00 20.00    -0.284 OA
ENDBRANCH   7   8
TORSDOF 1
ENDMDL
MODEL 7
REMARK VINA RESULT:      -3.8     10.604     11.737
REMARK  1 active torsions:
REMARK  status: ('A' for Active; 'I' for Inactive)
REMARK    1  A    between atoms: C1_1  and  N8_8 
ROOT
HETATM    1  C2  UNL     1     -40.594   4.661  -0.892  1.00 20.00     0.008 C 
HETATM    2  C3  UNL     1     -41.735   4.333  -1.880  1.00 20.00     0.026 C 
HETATM    3  C4  UNL     1     -42.619   5.609  -0.084  1.00 20.00     0.031 C 
HETATM    4  C5  UNL     1     -41.107   7.104  -1.138  1.00 20.00     0.130 C 
HETATM    5  C6  UNL     1     -41.117   5.916  -0.159  1.00 20.00     0.006 C 
HETATM    6  C7  UNL     1     -42.751   5.453  -1.600  1.00 20.00     0.087 C 
HETATM    7  N8  UNL     1     -42.150   6.702  -2.073  1.00 20.00    -0.354 N 
ENDROOT
BRANCH   7   8
HETATM    8  C1  UNL     1     -42.463   7.352  -3.237  1.00 20.00     0.351 C 
HETATM    9  O9  UNL     1     -43.285   7.008  -4.076  1.00 20.00    -0.284 OA
ENDBRANCH   7   8
TORSDOF 1
ENDMDL
MODEL 8
REMARK VINA RESULT:      -3.8      1.502      2.289
REMARK  1 active torsions:
REMARK  status: ('A' for Active; 'I' for Inactive)
REMARK    1  A    between atoms: C1_1  and  N8_8 
ROOT
HETATM    1  C2  UNL     1     -33.327  13.778  -3.768  1.00 20.00     0.008 C 
HETATM    2  C3  UNL     1     -34.846  13.572  -3.957  1.00 20.00     0.026 C 
HETATM    3  C4  UNL     1     -34.492  15.545  -2.686  1.00 20.00     0.031 C 
HETATM    4  C5  UNL     1     -33.525  16.059  -4.791  1.00 20.00     0.130 C 
HETATM    5  C6  UNL     1     -33.211  15.293  -3.493  1.00 20.00     0.006 C 
HETATM    6  C7  UNL     1     -35.399  14.997  -3.790  1.00 20.00     0.087 C 
HETATM    7  N8  UNL     1     -34.944  15.771  -4.947  1.00 20.00    -0.354 N 
ENDROOT
BRANCH   7   8
HETATM    8  C1  UNL     1     -35.706  16.109  -6.034  1.00 20.00     0.351 C 
HETATM    9  O9  UNL     1     -36.659  15.490  -6.489  1.00 20.00    -0.284 OA
ENDBRANCH   7   8
TORSDOF 1
ENDMDL
MODEL 9
REMARK VINA RESULT:      -3.7      1.718      2.461
REMARK  1 active torsions:
REMARK  status: ('A' for Active; 'I' for Inactive)
REMARK    1  A    between atoms: C1_1  and  N8_8 
ROOT
HETATM    1  C2  UNL     1     -35.167  17.080  -3.802  1.00 20.00     0.008 C 
HETATM    2  C3  UNL     1     -35.662  16.365  -5.079  1.00 20.00     0.026 C 
HETATM    3  C4  UNL     1     -33.327  16.745  -5.270  1.00 20.00     0.031 C 
HETATM    4  C5  UNL     1     -33.497  15.243  -3.442  1.00 20.00     0.130 C 
HETATM    5  C6  UNL     1     -33.661  16.738  -3.772  1.00 20.00     0.006 C 
HETATM    6  C7  UNL     1     -34.383  15.689  -5.600  1.00 20.00     0.087 C 
HETATM    7  N8  UNL     1     -34.040  14.631  -4.647  1.00 20.00    -0.354 N 
ENDROOT
BRANCH   7   8
HETATM    8  C1  UNL     1     -34.257  13.290  -4.825  1.00 20.00     0.351 C 
HETATM    9  O9  UNL     1     -35.140  12.612  -4.314  1.00 20.00    -0.284 OA
ENDBRANCH   7   8
TORSDOF 1
ENDMDL
