MODEL 1
REMARK VINA RESULT:      -4.1      0.000      0.000
REMARK  1 active torsions:
REMARK  status: ('A' for Active; 'I' for Inactive)
REMARK    1  A    between atoms: C1_1  and  N8_8 
ROOT
HETATM    1  C2  UNL     1     -33.901  13.609  -4.458  1.00 20.00     0.022 C 
HETATM    2  C3  UNL     1     -33.490  14.647  -3.418  1.00 20.00     0.032 C 
HETATM    3  C4  UNL     1     -35.374  13.400  -4.154  1.00 20.00     0.126 C 
HETATM    4  C5  UNL     1     -34.717  15.583  -3.320  1.00 20.00     0.027 C 
HETATM    5  C6  UNL     1     -34.853  16.124  -1.893  1.00 20.00     0.038 C 
HETATM    6  C7  UNL     1     -34.597  16.746  -4.316  1.00 20.00     0.038 C 
HETATM    7  N8  UNL     1     -35.837  14.697  -3.692  1.00 20.00    -0.351 N 
ENDROOT
BRANCH   7   8
HETATM    8  C1  UNL     1     -37.172  15.036  -3.658  1.00 20.00     0.351 C 
HETATM    9  O9  UNL     1     -38.127  14.267  -3.617  1.00 20.00    -0.284 OA
ENDBRANCH   7   8
TORSDOF 1
ENDMDL
MODEL 2
REMARK VINA RESULT:      -4.0      1.158      2.448
REMARK  1 active torsions:
REMARK  status: ('A' for Active; 'I' for Inactive)
REMARK    1  A    between atoms: C1_1  and  N8_8 
ROOT
HETATM    1  C2  UNL     1     -34.011  15.931  -2.515  1.00 20.00     0.022 C 
HETATM    2  C3  UNL     1     -33.392  15.670  -3.885  1.00 20.00     0.032 C 
HETATM    3  C4  UNL     1     -35.478  16.134  -2.847  1.00 20.00     0.126 C 
HETATM    4  C5  UNL     1     -34.459  14.830  -4.622  1.00 20.00     0.027 C 
HETATM    5  C6  UNL     1     -34.430  15.143  -6.122  1.00 20.00     0.038 C 
HETATM    6  C7  UNL     1     -34.226  13.330  -4.393  1.00 20.00     0.038 C 
HETATM    7  N8  UNL     1     -35.717  15.261  -3.984  1.00 20.00    -0.351 N 
ENDROOT
BRANCH   7   8
HETATM    8  C1  UNL     1     -36.984  14.874  -4.365  1.00 20.00     0.351 C 
HETATM    9  O9  UNL     1     -37.762  14.172  -3.729  1.00 20.00    -0.284 OA
ENDBRANCH   7   8
TORSDOF 1
ENDMDL
MODEL 3
REMARK VINA RESULT:      -4.0      1.774      2.673
REMARK  1 active torsions:
REMARK  status: ('A' for Active; 'I' for Inactive)
REMARK    1  A    between atoms: C1_1  and  N8_8 
ROOT
HETATM    1  C2  UNL     1     -34.580  16.968  -5.578  1.00 20.00     0.022 C 
HETATM    2  C3  UNL     1     -33.308  16.715  -4.775  1.00 20.00     0.032 C 
HETATM    3  C4  UNL     1     -35.114  15.565  -5.805  1.00 20.00     0.126 C 
HETATM    4  C5  UNL     1     -33.683  15.538  -3.844  1.00 20.00     0.027 C 
HETATM    5  C6  UNL     1     -32.455  14.659  -3.588  1.00 20.00     0.038 C 
HETATM    6  C7  UNL     1     -34.248  16.054  -2.513  1.00 20.00     0.038 C 
HETATM    7  N8  UNL     1     -34.728  14.832  -4.611  1.00 20.00    -0.351 N 
ENDROOT
BRANCH   7   8
HETATM    8  C1  UNL     1     -35.319  13.641  -4.251  1.00 20.00     0.351 C 
HETATM    9  O9  UNL     1     -34.997  12.517  -4.621  1.00 20.00    -0.284 OA
ENDBRANCH   7   8
TORSDOF 1
ENDMDL
MODEL 4
REMARK VINA RESULT:      -3.8     10.857     12.170
REMARK  1 active torsions:
REMARK  status: ('A' for Active; 'I' for Inactive)
REMARK    1  A    between atoms: C1_1  and  N8_8 
ROOT
HETATM    1  C2  UNL     1     -40.755   6.146  -0.464  1.00 20.00     0.022 C 
HETATM    2  C3  UNL     1     -40.666   4.669  -0.834  1.00 20.00     0.032 C 
HETATM    3  C4  UNL     1     -41.407   6.758  -1.691  1.00 20.00     0.126 C 
HETATM    4  C5  UNL     1     -41.976   4.400  -1.609  1.00 20.00     0.027 C 
HETATM    5  C6  UNL     1     -41.739   3.336  -2.687  1.00 20.00     0.038 C 
HETATM    6  C7  UNL     1     -43.090   3.944  -0.656  1.00 20.00     0.038 C 
HETATM    7  N8  UNL     1     -42.296   5.719  -2.185  1.00 20.00    -0.351 N 
ENDROOT
BRANCH   7   8
HETATM    8  C1  UNL     1     -43.329   5.985  -3.057  1.00 20.00     0.351 C 
HETATM    9  O9  UNL     1     -43.307   6.751  -4.015  1.00 20.00    -0.284 OA
ENDBRANCH   7   8
TORSDOF 1
ENDMDL
MODEL 5
REMARK VINA RESULT:      -3.8      2.210      3.210
REMARK  1 active torsions:
REMARK  status: ('A' for Active; 'I' for Inactive)
REMARK    1  A    between atoms: C1_1  and  N8_8 
ROOT
HETATM    1  C2  UNL     1     -33.246  16.567  -5.126  1.00 20.00     0.022 C 
HETATM    2  C3  UNL     1     -34.445  16.879  -6.016  1.00 20.00     0.032 C 
HETATM    3  C4  UNL     1     -33.845  15.658  -4.068  1.00 20.00     0.126 C 
HETATM    4  C5  UNL     1     -35.237  15.551  -6.054  1.00 20.00     0.027 C 
HETATM    5  C6  UNL     1     -36.738  15.838  -6.168  1.00 20.00     0.038 C 
HETATM    6  C7  UNL     1     -34.777  14.676  -7.229  1.00 20.00     0.038 C 
HETATM    7  N8  UNL     1     -34.883  14.920  -4.769  1.00 20.00    -0.351 N 
ENDROOT
BRANCH   7   8
HETATM    8  C1  UNL     1     -35.419  13.750  -4.276  1.00 20.00     0.351 C 
HETATM    9  O9  UNL     1     -34.967  12.618  -4.409  1.00 20.00    -0.284 OA
ENDBRANCH   7   8
TORSDOF 1
ENDMDL
MODEL 6
REMARK VINA RESULT:      -3.8      2.641      3.581
REMARK  1 active torsions:
REMARK  status: ('A' for Active; 'I' for Inactive)
REMARK    1  A    between atoms: C1_1  and  N8_8 
ROOT
HETATM    1  C2  UNL     1     -33.995  13.764  -3.606  1.00 20.00     0.022 C 
HETATM    2  C3  UNL     1     -34.541  13.510  -5.007  1.00 20.00     0.032 C 
HETATM    3  C4  UNL     1     -33.065  14.944  -3.820  1.00 20.00     0.126 C 
HETATM    4  C5  UNL     1     -34.713  14.926  -5.603  1.00 20.00     0.027 C 
HETATM    5  C6  UNL     1     -34.463  14.895  -7.115  1.00 20.00     0.038 C 
HETATM    6  C7  UNL     1     -36.118  15.473  -5.312  1.00 20.00     0.038 C 
HETATM    7  N8  UNL     1     -33.693  15.712  -4.883  1.00 20.00    -0.351 N 
ENDROOT
BRANCH   7   8
HETATM    8  C1  UNL     1     -33.373  17.029  -5.131  1.00 20.00     0.351 C 
HETATM    9  O9  UNL     1     -33.630  17.997  -4.422  1.00 20.00    -0.284 OA
ENDBRANCH   7   8
TORSDOF 1
ENDMDL
MODEL 7
REMARK VINA RESULT:      -3.7      1.931      3.170
REMARK  1 active torsions:
REMARK  status: ('A' for Active; 'I' for Inactive)
REMARK    1  A    between atoms: C1_1  and  N8_8 
ROOT
HETATM    1  C2  UNL     1     -36.293  16.921  -4.086  1.00 20.00     0.022 C 
HETATM    2  C3  UNL     1     -35.639  16.933  -5.464  1.00 20.00     0.032 C 
HETATM    3  C4  UNL     1     -36.332  15.441  -3.749  1.00 20.00     0.126 C 
HETATM    4  C5  UNL     1     -34.574  15.815  -5.381  1.00 20.00     0.027 C 
HETATM    5  C6  UNL     1     -34.404  15.149  -6.751  1.00 20.00     0.038 C 
HETATM    6  C7  UNL     1     -33.229  16.378  -4.899  1.00 20.00     0.038 C 
HETATM    7  N8  UNL     1     -35.139  14.895  -4.377  1.00 20.00    -0.351 N 
ENDROOT
BRANCH   7   8
HETATM    8  C1  UNL     1     -34.609  13.674  -4.019  1.00 20.00     0.351 C 
HETATM    9  O9  UNL     1     -34.983  12.569  -4.396  1.00 20.00    -0.284 OA
ENDBRANCH   7   8
TORSDOF 1
ENDMDL
MODEL 8
REMARK VINA RESULT:      -3.7      2.137      3.251
REMARK  1 active torsions:
REMARK  status: ('A' for Active; 'I' for Inactive)
REMARK    1  A    between atoms: C1_1  and  N8_8 
ROOT
HETATM    1  C2  UNL     1     -33.278  16.639  -5.185  1.00 20.00     0.022 C 
HETATM    2  C3  UNL     1     -34.154  15.438  -5.525  1.00 20.00     0.032 C 
HETATM    3  C4  UNL     1     -33.922  17.172  -3.917  1.00 20.00     0.126 C 
HETATM    4  C5  UNL     1     -34.498  14.825  -4.148  1.00 20.00     0.027 C 
HETATM    5  C6  UNL     1     -35.897  14.199  -4.187  1.00 20.00     0.038 C 
HETATM    6  C7  UNL     1     -33.459  13.768  -3.747  1.00 20.00     0.038 C 
HETATM    7  N8  UNL     1     -34.430  15.988  -3.243  1.00 20.00    -0.351 N 
ENDROOT
BRANCH   7   8
HETATM    8  C1  UNL     1     -34.760  15.984  -1.906  1.00 20.00     0.351 C 
HETATM    9  O9  UNL     1     -34.221  16.627  -1.011  1.00 20.00    -0.284 OA
ENDBRANCH   7   8
TORSDOF 1
ENDMDL
MODEL 9
REMARK VINA RESULT:      -3.7      2.335      2.608
REMARK  1 active torsions:
REMARK  status: ('A' for Active; 'I' for Inactive)
REMARK    1  A    between atoms: C1_1  and  N8_8 
ROOT
HETATM    1  C2  UNL     1     -33.535  13.653  -3.744  1.00 20.00     0.022 C 
HETATM    2  C3  UNL     1     -34.074  15.011  -3.304  1.00 20.00     0.032 C 
HETATM    3  C4  UNL     1     -34.464  13.281  -4.886  1.00 20.00     0.126 C 
HETATM    4  C5  UNL     1     -34.487  15.695  -4.628  1.00 20.00     0.027 C 
HETATM    5  C6  UNL     1     -35.698  16.605  -4.393  1.00 20.00     0.038 C 
HETATM    6  C7  UNL     1     -33.321  16.508  -5.208  1.00 20.00     0.038 C 
HETATM    7  N8  UNL     1     -34.806  14.552  -5.504  1.00 20.00    -0.351 N 
ENDROOT
BRANCH   7   8
HETATM    8  C1  UNL     1     -35.330  14.637  -6.776  1.00 20.00     0.351 C 
HETATM    9  O9  UNL     1     -34.703  14.682  -7.829  1.00 20.00    -0.284 OA
ENDBRANCH   7   8
TORSDOF 1
ENDMDL
