MODEL 1
REMARK VINA RESULT:      -4.1      0.000      0.000
REMARK  1 active torsions:
REMARK  status: ('A' for Active; 'I' for Inactive)
REMARK    1  A    between atoms: C2_2  and  C3_3 
ROOT
HETATM    1  C1  UNL     1     -32.910   6.566   4.155  1.00 20.00     0.112 C 
HETATM    2  C2  UNL     1     -33.842   6.220   5.049  1.00 20.00     0.090 C 
HETATM    3 CL6  UNL     1     -32.760   5.919   2.572  1.00 20.00    -0.095 Cl
HETATM    4 CL7  UNL     1     -33.923   6.924   6.629  1.00 20.00    -0.080 Cl
ENDROOT
BRANCH   2   5
HETATM    5  C3  UNL     1     -34.888   5.192   4.742  1.00 20.00     0.167 C 
HETATM    6  C4  UNL     1     -34.931   3.918   5.550  1.00 20.00     0.097 C 
HETATM    7  O5  UNL     1     -35.706   5.380   3.840  1.00 20.00    -0.292 OA
ENDBRANCH   2   5
TORSDOF 1
ENDMDL
MODEL 2
REMARK VINA RESULT:      -3.8      1.904      2.666
REMARK  1 active torsions:
REMARK  status: ('A' for Active; 'I' for Inactive)
REMARK    1  A    between atoms: C2_2  and  C3_3 
ROOT
HETATM    1  C1  UNL     1     -34.517   4.995   6.227  1.00 20.00     0.112 C 
HETATM    2  C2  UNL     1     -33.964   6.103   5.724  1.00 20.00     0.090 C 
HETATM    3 CL6  UNL     1     -35.129   3.682   5.305  1.00 20.00    -0.095 Cl
HETATM    4 CL7  UNL     1     -33.371   7.383   6.728  1.00 20.00    -0.080 Cl
ENDROOT
BRANCH   2   5
HETATM    5  C3  UNL     1     -33.819   6.314   4.248  1.00 20.00     0.167 C 
HETATM    6  C4  UNL     1     -32.459   6.635   3.679  1.00 20.00     0.097 C 
HETATM    7  O5  UNL     1     -34.796   6.230   3.504  1.00 20.00    -0.292 OA
ENDBRANCH   2   5
TORSDOF 1
ENDMDL
MODEL 3
REMARK VINA RESULT:      -3.7      0.532      2.391
REMARK  1 active torsions:
REMARK  status: ('A' for Active; 'I' for Inactive)
REMARK    1  A    between atoms: C2_2  and  C3_3 
ROOT
HETATM    1  C1  UNL     1     -33.270   6.768   5.246  1.00 20.00     0.112 C 
HETATM    2  C2  UNL     1     -33.710   5.985   4.256  1.00 20.00     0.090 C 
HETATM    3 CL6  UNL     1     -34.017   6.942   6.783  1.00 20.00    -0.095 Cl
HETATM    4 CL7  UNL     1     -32.894   5.867   2.732  1.00 20.00    -0.080 Cl
ENDROOT
BRANCH   2   5
HETATM    5  C3  UNL     1     -34.945   5.149   4.397  1.00 20.00     0.167 C 
HETATM    6  C4  UNL     1     -34.932   3.964   5.331  1.00 20.00     0.097 C 
HETATM    7  O5  UNL     1     -35.963   5.422   3.759  1.00 20.00    -0.292 OA
ENDBRANCH   2   5
TORSDOF 1
ENDMDL
MODEL 4
REMARK VINA RESULT:      -3.7      2.106      2.245
REMARK  1 active torsions:
REMARK  status: ('A' for Active; 'I' for Inactive)
REMARK    1  A    between atoms: C2_2  and  C3_3 
ROOT
HETATM    1  C1  UNL     1     -33.428   6.509   3.297  1.00 20.00     0.112 C 
HETATM    2  C2  UNL     1     -34.388   6.027   4.093  1.00 20.00     0.090 C 
HETATM    3 CL6  UNL     1     -31.845   6.944   3.799  1.00 20.00    -0.095 Cl
HETATM    4 CL7  UNL     1     -35.963   5.613   3.504  1.00 20.00    -0.080 Cl
ENDROOT
BRANCH   2   5
HETATM    5  C3  UNL     1     -34.166   5.810   5.559  1.00 20.00     0.167 C 
HETATM    6  C4  UNL     1     -34.442   4.452   6.154  1.00 20.00     0.097 C 
HETATM    7  O5  UNL     1     -33.762   6.728   6.274  1.00 20.00    -0.292 OA
ENDBRANCH   2   5
TORSDOF 1
ENDMDL
MODEL 5
REMARK VINA RESULT:      -3.5      1.823      2.942
REMARK  1 active torsions:
REMARK  status: ('A' for Active; 'I' for Inactive)
REMARK    1  A    between atoms: C2_2  and  C3_3 
ROOT
HETATM    1  C1  UNL     1     -34.249   5.795   6.507  1.00 20.00     0.112 C 
HETATM    2  C2  UNL     1     -34.453   5.190   5.332  1.00 20.00     0.090 C 
HETATM    3 CL6  UNL     1     -33.685   7.404   6.713  1.00 20.00    -0.095 Cl
HETATM    4 CL7  UNL     1     -35.026   3.560   5.213  1.00 20.00    -0.080 Cl
ENDROOT
BRANCH   2   5
HETATM    5  C3  UNL     1     -34.199   5.886   4.030  1.00 20.00     0.167 C 
HETATM    6  C4  UNL     1     -32.787   6.271   3.662  1.00 20.00     0.097 C 
HETATM    7  O5  UNL     1     -35.128   6.144   3.265  1.00 20.00    -0.292 OA
ENDBRANCH   2   5
TORSDOF 1
ENDMDL
MODEL 6
REMARK VINA RESULT:      -3.5     12.358     13.104
REMARK  1 active torsions:
REMARK  status: ('A' for Active; 'I' for Inactive)
REMARK    1  A    between atoms: C2_2  and  C3_3 
ROOT
HETATM    1  C1  UNL     1     -33.611  15.685  -4.536  1.00 20.00     0.112 C 
HETATM    2  C2  UNL     1     -34.400  14.849  -5.218  1.00 20.00     0.090 C 
HETATM    3 CL6  UNL     1     -33.536  15.811  -2.826  1.00 20.00    -0.095 Cl
HETATM    4 CL7  UNL     1     -34.413  14.787  -6.949  1.00 20.00    -0.080 Cl
ENDROOT
BRANCH   2   5
HETATM    5  C3  UNL     1     -35.332  13.902  -4.527  1.00 20.00     0.167 C 
HETATM    6  C4  UNL     1     -36.669  14.406  -4.040  1.00 20.00     0.097 C 
HETATM    7  O5  UNL     1     -35.016  12.724  -4.356  1.00 20.00    -0.292 OA
ENDBRANCH   2   5
TORSDOF 1
ENDMDL
MODEL 7
REMARK VINA RESULT:      -3.5     12.358     12.727
REMARK  1 active torsions:
REMARK  status: ('A' for Active; 'I' for Inactive)
REMARK    1  A    between atoms: C2_2  and  C3_3 
ROOT
HETATM    1  C1  UNL     1     -35.528  15.562  -2.974  1.00 20.00     0.112 C 
HETATM    2  C2  UNL     1     -36.070  14.701  -3.842  1.00 20.00     0.090 C 
HETATM    3 CL6  UNL     1     -33.846  15.779  -2.706  1.00 20.00    -0.095 Cl
HETATM    4 CL7  UNL     1     -37.782  14.545  -4.051  1.00 20.00    -0.080 Cl
ENDROOT
BRANCH   2   5
HETATM    5  C3  UNL     1     -35.227  13.806  -4.697  1.00 20.00     0.167 C 
HETATM    6  C4  UNL     1     -34.766  14.296  -6.048  1.00 20.00     0.097 C 
HETATM    7  O5  UNL     1     -34.911  12.681  -4.308  1.00 20.00    -0.292 OA
ENDBRANCH   2   5
TORSDOF 1
ENDMDL
MODEL 8
REMARK VINA RESULT:      -3.5     12.515     13.224
REMARK  1 active torsions:
REMARK  status: ('A' for Active; 'I' for Inactive)
REMARK    1  A    between atoms: C2_2  and  C3_3 
ROOT
HETATM    1  C1  UNL     1     -34.373  15.025  -6.496  1.00 20.00     0.112 C 
HETATM    2  C2  UNL     1     -34.331  14.788  -5.181  1.00 20.00     0.090 C 
HETATM    3 CL6  UNL     1     -35.498  14.337  -7.596  1.00 20.00    -0.095 Cl
HETATM    4 CL7  UNL     1     -33.159  15.526  -4.140  1.00 20.00    -0.080 Cl
ENDROOT
BRANCH   2   5
HETATM    5  C3  UNL     1     -35.302  13.863  -4.513  1.00 20.00     0.167 C 
HETATM    6  C4  UNL     1     -36.617  14.409  -4.013  1.00 20.00     0.097 C 
HETATM    7  O5  UNL     1     -35.034  12.670  -4.370  1.00 20.00    -0.292 OA
ENDBRANCH   2   5
TORSDOF 1
ENDMDL
MODEL 9
REMARK VINA RESULT:      -3.4     12.125     12.961
REMARK  1 active torsions:
REMARK  status: ('A' for Active; 'I' for Inactive)
REMARK    1  A    between atoms: C2_2  and  C3_3 
ROOT
HETATM    1  C1  UNL     1     -35.442  15.437  -5.832  1.00 20.00     0.112 C 
HETATM    2  C2  UNL     1     -35.541  14.799  -4.661  1.00 20.00     0.090 C 
HETATM    3 CL6  UNL     1     -34.327  15.057  -7.081  1.00 20.00    -0.095 Cl
HETATM    4 CL7  UNL     1     -36.698  15.248  -3.452  1.00 20.00    -0.080 Cl
ENDROOT
BRANCH   2   5
HETATM    5  C3  UNL     1     -34.653  13.644  -4.312  1.00 20.00     0.167 C 
HETATM    6  C4  UNL     1     -33.293  13.913  -3.716  1.00 20.00     0.097 C 
HETATM    7  O5  UNL     1     -35.023  12.487  -4.509  1.00 20.00    -0.292 OA
ENDBRANCH   2   5
TORSDOF 1
ENDMDL
