MODEL 1
REMARK VINA RESULT:      -4.8      0.000      0.000
REMARK  5 active torsions:
REMARK  status: ('A' for Active; 'I' for Inactive)
REMARK    1  A    between atoms: C2_2  and  C9_9 
REMARK    2  A    between atoms: C3_3  and  C8_8 
REMARK    3  A    between atoms: C4_4  and  C10_10 
REMARK    4  A    between atoms: C8_8  and  C9_9 
REMARK    5  A    between atoms: C10_10  and  O11_11 
ROOT
HETATM    1  C3  UNL     1     -33.064  15.313  -3.518  1.00 20.00    -0.027 C 
HETATM    2  C4  UNL     1     -33.705  14.143  -3.657  1.00 20.00     0.006 C 
ENDROOT
BRANCH   1   3
HETATM    3  C8  UNL     1     -33.601  16.624  -4.028  1.00 20.00     0.035 C 
BRANCH   3   4
HETATM    4  C9  UNL     1     -34.156  17.513  -2.898  1.00 20.00     0.006 C 
HETATM    5  C5  UNL     1     -33.608  18.936  -3.034  1.00 20.00     0.014 C 
BRANCH   4   6
HETATM    6  C2  UNL     1     -33.797  16.966  -1.538  1.00 20.00    -0.032 C 
HETATM    7  C1  UNL     1     -34.670  16.828  -0.533  1.00 20.00     0.007 C 
ENDBRANCH   4   6
ENDBRANCH   3   4
ENDBRANCH   1   3
BRANCH   2   8
HETATM    8  C10 UNL     1     -35.043  13.908  -4.322  1.00 20.00     0.068 C 
HETATM    9  C6  UNL     1     -36.218  14.711  -3.752  1.00 20.00     0.050 C 
HETATM   10  C7  UNL     1     -34.916  14.182  -5.824  1.00 20.00     0.050 C 
BRANCH   8  11
HETATM   11  O11 UNL     1     -35.362  12.519  -4.178  1.00 20.00    -0.387 OA
HETATM   12  H29 UNL     1     -35.560  12.385  -3.240  1.00 20.00     0.211 HD
ENDBRANCH   8  11
ENDBRANCH   2   8
TORSDOF 5
ENDMDL
MODEL 2
REMARK VINA RESULT:      -4.4      0.801      1.611
REMARK  5 active torsions:
REMARK  status: ('A' for Active; 'I' for Inactive)
REMARK    1  A    between atoms: C2_2  and  C9_9 
REMARK    2  A    between atoms: C3_3  and  C8_8 
REMARK    3  A    between atoms: C4_4  and  C10_10 
REMARK    4  A    between atoms: C8_8  and  C9_9 
REMARK    5  A    between atoms: C10_10  and  O11_11 
ROOT
HETATM    1  C3  UNL     1     -33.103  15.290  -3.400  1.00 20.00    -0.027 C 
HETATM    2  C4  UNL     1     -33.687  14.116  -3.686  1.00 20.00     0.006 C 
ENDROOT
BRANCH   1   3
HETATM    3  C8  UNL     1     -33.731  16.626  -3.692  1.00 20.00     0.035 C 
BRANCH   3   4
HETATM    4  C9  UNL     1     -33.867  17.502  -2.431  1.00 20.00     0.006 C 
HETATM    5  C5  UNL     1     -34.346  16.652  -1.252  1.00 20.00     0.014 C 
BRANCH   4   6
HETATM    6  C2  UNL     1     -34.832  18.642  -2.652  1.00 20.00    -0.032 C 
HETATM    7  C1  UNL     1     -35.763  18.657  -3.614  1.00 20.00     0.007 C 
ENDBRANCH   4   6
ENDBRANCH   3   4
ENDBRANCH   1   3
BRANCH   2   8
HETATM    8  C10 UNL     1     -35.040  13.902  -4.329  1.00 20.00     0.068 C 
HETATM    9  C6  UNL     1     -36.195  14.716  -3.734  1.00 20.00     0.050 C 
HETATM   10  C7  UNL     1     -34.936  14.184  -5.831  1.00 20.00     0.050 C 
BRANCH   8  11
HETATM   11  O11 UNL     1     -35.373  12.516  -4.188  1.00 20.00    -0.387 OA
HETATM   12  H29 UNL     1     -36.337  12.478  -4.112  1.00 20.00     0.211 HD
ENDBRANCH   8  11
ENDBRANCH   2   8
TORSDOF 5
ENDMDL
MODEL 3
REMARK VINA RESULT:      -4.3      1.303      2.057
REMARK  5 active torsions:
REMARK  status: ('A' for Active; 'I' for Inactive)
REMARK    1  A    between atoms: C2_2  and  C9_9 
REMARK    2  A    between atoms: C3_3  and  C8_8 
REMARK    3  A    between atoms: C4_4  and  C10_10 
REMARK    4  A    between atoms: C8_8  and  C9_9 
REMARK    5  A    between atoms: C10_10  and  O11_11 
ROOT
HETATM    1  C3  UNL     1     -33.690  16.314  -2.747  1.00 20.00    -0.027 C 
HETATM    2  C4  UNL     1     -33.692  15.505  -3.818  1.00 20.00     0.006 C 
ENDROOT
BRANCH   1   3
HETATM    3  C8  UNL     1     -34.705  16.232  -1.638  1.00 20.00     0.035 C 
BRANCH   3   4
HETATM    4  C9  UNL     1     -34.313  17.084  -0.415  1.00 20.00     0.006 C 
HETATM    5  C5  UNL     1     -35.549  17.786   0.152  1.00 20.00     0.014 C 
BRANCH   4   6
HETATM    6  C2  UNL     1     -33.271  18.116  -0.773  1.00 20.00    -0.032 C 
HETATM    7  C1  UNL     1     -32.493  18.734   0.123  1.00 20.00     0.007 C 
ENDBRANCH   4   6
ENDBRANCH   3   4
ENDBRANCH   1   3
BRANCH   2   8
HETATM    8  C10 UNL     1     -34.670  14.390  -4.117  1.00 20.00     0.068 C 
HETATM    9  C6  UNL     1     -36.128  14.664  -3.731  1.00 20.00     0.050 C 
HETATM   10  C7  UNL     1     -34.592  14.035  -5.605  1.00 20.00     0.050 C 
BRANCH   8  11
HETATM   11  O11 UNL     1     -34.243  13.232  -3.390  1.00 20.00    -0.387 OA
HETATM   12  H29 UNL     1     -34.684  13.276  -2.530  1.00 20.00     0.211 HD
ENDBRANCH   8  11
ENDBRANCH   2   8
TORSDOF 5
ENDMDL
MODEL 4
REMARK VINA RESULT:      -4.3      0.918      1.814
REMARK  5 active torsions:
REMARK  status: ('A' for Active; 'I' for Inactive)
REMARK    1  A    between atoms: C2_2  and  C9_9 
REMARK    2  A    between atoms: C3_3  and  C8_8 
REMARK    3  A    between atoms: C4_4  and  C10_10 
REMARK    4  A    between atoms: C8_8  and  C9_9 
REMARK    5  A    between atoms: C10_10  and  O11_11 
ROOT
HETATM    1  C3  UNL     1     -36.264  15.544  -3.450  1.00 20.00    -0.027 C 
HETATM    2  C4  UNL     1     -35.934  14.297  -3.823  1.00 20.00     0.006 C 
ENDROOT
BRANCH   1   3
HETATM    3  C8  UNL     1     -35.450  16.761  -3.798  1.00 20.00     0.035 C 
BRANCH   3   4
HETATM    4  C9  UNL     1     -35.008  17.552  -2.552  1.00 20.00     0.006 C 
HETATM    5  C5  UNL     1     -33.738  18.349  -2.860  1.00 20.00     0.014 C 
BRANCH   4   6
HETATM    6  C2  UNL     1     -34.751  16.635  -1.379  1.00 20.00    -0.032 C 
HETATM    7  C1  UNL     1     -34.765  17.034  -0.102  1.00 20.00     0.007 C 
ENDBRANCH   4   6
ENDBRANCH   3   4
ENDBRANCH   1   3
BRANCH   2   8
HETATM    8  C10 UNL     1     -34.730  13.877  -4.636  1.00 20.00     0.068 C 
HETATM    9  C6  UNL     1     -34.588  14.547  -6.008  1.00 20.00     0.050 C 
HETATM   10  C7  UNL     1     -33.458  14.113  -3.816  1.00 20.00     0.050 C 
BRANCH   8  11
HETATM   11  O11 UNL     1     -34.827  12.465  -4.856  1.00 20.00    -0.387 OA
HETATM   12  H29 UNL     1     -34.041  12.074  -4.449  1.00 20.00     0.211 HD
ENDBRANCH   8  11
ENDBRANCH   2   8
TORSDOF 5
ENDMDL
MODEL 5
REMARK VINA RESULT:      -4.3      1.765      2.564
REMARK  5 active torsions:
REMARK  status: ('A' for Active; 'I' for Inactive)
REMARK    1  A    between atoms: C2_2  and  C9_9 
REMARK    2  A    between atoms: C3_3  and  C8_8 
REMARK    3  A    between atoms: C4_4  and  C10_10 
REMARK    4  A    between atoms: C8_8  and  C9_9 
REMARK    5  A    between atoms: C10_10  and  O11_11 
ROOT
HETATM    1  C3  UNL     1     -35.028  15.983  -2.471  1.00 20.00    -0.027 C 
HETATM    2  C4  UNL     1     -35.169  14.956  -3.323  1.00 20.00     0.006 C 
ENDROOT
BRANCH   1   3
HETATM    3  C8  UNL     1     -33.728  16.707  -2.246  1.00 20.00     0.035 C 
BRANCH   3   4
HETATM    4  C9  UNL     1     -33.618  17.295  -0.825  1.00 20.00     0.006 C 
HETATM    5  C5  UNL     1     -34.964  17.182  -0.106  1.00 20.00     0.014 C 
BRANCH   4   6
HETATM    6  C2  UNL     1     -33.188  18.742  -0.859  1.00 20.00    -0.032 C 
HETATM    7  C1  UNL     1     -32.228  19.254  -0.080  1.00 20.00     0.007 C 
ENDBRANCH   4   6
ENDBRANCH   3   4
ENDBRANCH   1   3
BRANCH   2   8
HETATM    8  C10 UNL     1     -34.098  14.341  -4.196  1.00 20.00     0.068 C 
HETATM    9  C6  UNL     1     -32.857  13.823  -3.460  1.00 20.00     0.050 C 
HETATM   10  C7  UNL     1     -34.710  13.208  -5.025  1.00 20.00     0.050 C 
BRANCH   8  11
HETATM   11  O11 UNL     1     -33.663  15.345  -5.120  1.00 20.00    -0.387 OA
HETATM   12  H29 UNL     1     -34.414  15.515  -5.706  1.00 20.00     0.211 HD
ENDBRANCH   8  11
ENDBRANCH   2   8
TORSDOF 5
ENDMDL
MODEL 6
REMARK VINA RESULT:      -4.2     11.075     12.370
REMARK  5 active torsions:
REMARK  status: ('A' for Active; 'I' for Inactive)
REMARK    1  A    between atoms: C2_2  and  C9_9 
REMARK    2  A    between atoms: C3_3  and  C8_8 
REMARK    3  A    between atoms: C4_4  and  C10_10 
REMARK    4  A    between atoms: C8_8  and  C9_9 
REMARK    5  A    between atoms: C10_10  and  O11_11 
ROOT
HETATM    1  C3  UNL     1     -33.676   5.340   2.890  1.00 20.00    -0.027 C 
HETATM    2  C4  UNL     1     -32.706   6.098   2.355  1.00 20.00     0.006 C 
ENDROOT
BRANCH   1   3
HETATM    3  C8  UNL     1     -34.569   5.799   4.011  1.00 20.00     0.035 C 
BRANCH   3   4
HETATM    4  C9  UNL     1     -34.214   5.138   5.357  1.00 20.00     0.006 C 
HETATM    5  C5  UNL     1     -35.117   3.927   5.601  1.00 20.00     0.014 C 
BRANCH   4   6
HETATM    6  C2  UNL     1     -34.359   6.110   6.504  1.00 20.00    -0.032 C 
HETATM    7  C1  UNL     1     -33.598   7.199   6.661  1.00 20.00     0.007 C 
ENDBRANCH   4   6
ENDBRANCH   3   4
ENDBRANCH   1   3
BRANCH   2   8
HETATM    8  C10 UNL     1     -32.329   7.509   2.748  1.00 20.00     0.068 C 
HETATM    9  C6  UNL     1     -31.297   7.631   3.876  1.00 20.00     0.050 C 
HETATM   10  C7  UNL     1     -31.828   8.262   1.512  1.00 20.00     0.050 C 
BRANCH   8  11
HETATM   11  O11 UNL     1     -33.522   8.171   3.184  1.00 20.00    -0.387 OA
HETATM   12  H29 UNL     1     -34.111   8.196   2.417  1.00 20.00     0.211 HD
ENDBRANCH   8  11
ENDBRANCH   2   8
TORSDOF 5
ENDMDL
MODEL 7
REMARK VINA RESULT:      -4.2      1.500      2.637
REMARK  5 active torsions:
REMARK  status: ('A' for Active; 'I' for Inactive)
REMARK    1  A    between atoms: C2_2  and  C9_9 
REMARK    2  A    between atoms: C3_3  and  C8_8 
REMARK    3  A    between atoms: C4_4  and  C10_10 
REMARK    4  A    between atoms: C8_8  and  C9_9 
REMARK    5  A    between atoms: C10_10  and  O11_11 
ROOT
HETATM    1  C3  UNL     1     -34.400  15.169  -6.491  1.00 20.00    -0.027 C 
HETATM    2  C4  UNL     1     -34.936  14.119  -5.851  1.00 20.00     0.006 C 
ENDROOT
BRANCH   1   3
HETATM    3  C8  UNL     1     -33.666  16.284  -5.794  1.00 20.00     0.035 C 
BRANCH   3   4
HETATM    4  C9  UNL     1     -34.486  17.588  -5.740  1.00 20.00     0.006 C 
HETATM    5  C5  UNL     1     -34.016  18.548  -6.835  1.00 20.00     0.014 C 
BRANCH   4   6
HETATM    6  C2  UNL     1     -34.362  18.262  -4.394  1.00 20.00    -0.032 C 
HETATM    7  C1  UNL     1     -33.767  17.705  -3.332  1.00 20.00     0.007 C 
ENDBRANCH   4   6
ENDBRANCH   3   4
ENDBRANCH   1   3
BRANCH   2   8
HETATM    8  C10 UNL     1     -34.912  13.848  -4.363  1.00 20.00     0.068 C 
HETATM    9  C6  UNL     1     -33.541  13.966  -3.688  1.00 20.00     0.050 C 
HETATM   10  C7  UNL     1     -35.909  14.777  -3.664  1.00 20.00     0.050 C 
BRANCH   8  11
HETATM   11  O11 UNL     1     -35.378  12.508  -4.159  1.00 20.00    -0.387 OA
HETATM   12  H29 UNL     1     -35.212  12.037  -4.987  1.00 20.00     0.211 HD
ENDBRANCH   8  11
ENDBRANCH   2   8
TORSDOF 5
ENDMDL
MODEL 8
REMARK VINA RESULT:      -4.2      1.593      2.583
REMARK  5 active torsions:
REMARK  status: ('A' for Active; 'I' for Inactive)
REMARK    1  A    between atoms: C2_2  and  C9_9 
REMARK    2  A    between atoms: C3_3  and  C8_8 
REMARK    3  A    between atoms: C4_4  and  C10_10 
REMARK    4  A    between atoms: C8_8  and  C9_9 
REMARK    5  A    between atoms: C10_10  and  O11_11 
ROOT
HETATM    1  C3  UNL     1     -34.783  16.010  -2.100  1.00 20.00    -0.027 C 
HETATM    2  C4  UNL     1     -34.734  15.200  -3.169  1.00 20.00     0.006 C 
ENDROOT
BRANCH   1   3
HETATM    3  C8  UNL     1     -33.706  17.004  -1.757  1.00 20.00     0.035 C 
BRANCH   3   4
HETATM    4  C9  UNL     1     -34.119  17.951  -0.614  1.00 20.00     0.006 C 
HETATM    5  C5  UNL     1     -32.875  18.540   0.054  1.00 20.00     0.014 C 
BRANCH   4   6
HETATM    6  C2  UNL     1     -34.951  17.233   0.423  1.00 20.00    -0.032 C 
HETATM    7  C1  UNL     1     -35.540  17.841   1.459  1.00 20.00     0.007 C 
ENDBRANCH   4   6
ENDBRANCH   3   4
ENDBRANCH   1   3
BRANCH   2   8
HETATM    8  C10 UNL     1     -33.636  15.124  -4.207  1.00 20.00     0.068 C 
HETATM    9  C6  UNL     1     -33.322  16.433  -4.939  1.00 20.00     0.050 C 
HETATM   10  C7  UNL     1     -32.360  14.583  -3.554  1.00 20.00     0.050 C 
BRANCH   8  11
HETATM   11  O11 UNL     1     -34.037  14.165  -5.193  1.00 20.00    -0.387 OA
HETATM   12  H29 UNL     1     -33.222  13.844  -5.603  1.00 20.00     0.211 HD
ENDBRANCH   8  11
ENDBRANCH   2   8
TORSDOF 5
ENDMDL
MODEL 9
REMARK VINA RESULT:      -4.1      2.005      3.852
REMARK  5 active torsions:
REMARK  status: ('A' for Active; 'I' for Inactive)
REMARK    1  A    between atoms: C2_2  and  C9_9 
REMARK    2  A    between atoms: C3_3  and  C8_8 
REMARK    3  A    between atoms: C4_4  and  C10_10 
REMARK    4  A    between atoms: C8_8  and  C9_9 
REMARK    5  A    between atoms: C10_10  and  O11_11 
ROOT
HETATM    1  C3  UNL     1     -35.364  13.593  -4.221  1.00 20.00    -0.027 C 
HETATM    2  C4  UNL     1     -34.083  13.791  -3.872  1.00 20.00     0.006 C 
ENDROOT
BRANCH   1   3
HETATM    3  C8  UNL     1     -36.277  14.690  -4.698  1.00 20.00     0.035 C 
BRANCH   3   4
HETATM    4  C9  UNL     1     -37.299  15.116  -3.627  1.00 20.00     0.006 C 
HETATM    5  C5  UNL     1     -38.708  14.691  -4.048  1.00 20.00     0.014 C 
BRANCH   4   6
HETATM    6  C2  UNL     1     -37.273  16.609  -3.402  1.00 20.00    -0.032 C 
HETATM    7  C1  UNL     1     -36.761  17.487  -4.273  1.00 20.00     0.007 C 
ENDBRANCH   4   6
ENDBRANCH   3   4
ENDBRANCH   1   3
BRANCH   2   8
HETATM    8  C10 UNL     1     -33.324  15.099  -3.890  1.00 20.00     0.068 C 
HETATM    9  C6  UNL     1     -33.485  15.944  -5.160  1.00 20.00     0.050 C 
HETATM   10  C7  UNL     1     -33.723  15.931  -2.668  1.00 20.00     0.050 C 
BRANCH   8  11
HETATM   11  O11 UNL     1     -31.932  14.795  -3.750  1.00 20.00    -0.387 OA
HETATM   12  H29 UNL     1     -31.481  15.257  -4.471  1.00 20.00     0.211 HD
ENDBRANCH   8  11
ENDBRANCH   2   8
TORSDOF 5
ENDMDL
