MODEL 1
REMARK VINA RESULT:      -3.9      0.000      0.000
REMARK  0 active torsions:
REMARK  status: ('A' for Active; 'I' for Inactive)
ROOT
HETATM    1  C1  UNL     1     -37.474  14.714  -3.719  1.00 20.00     0.102 C 
HETATM    2  C2  UNL     1     -35.909  16.314  -2.718  1.00 20.00     0.075 A 
HETATM    3  C3  UNL     1     -36.146  15.154  -3.422  1.00 20.00     0.075 A 
HETATM    4  C4  UNL     1     -34.938  14.494  -3.789  1.00 20.00     0.084 A 
HETATM    5  C5  UNL     1     -33.823  15.176  -3.353  1.00 20.00     0.097 A 
HETATM    6  N6  UNL     1     -38.551  14.356  -3.960  1.00 20.00    -0.191 NA
HETATM    7  S7  UNL     1     -34.234  16.604  -2.504  1.00 20.00    -0.086 SA
HETATM    8 CL8  UNL     1     -34.903  13.022  -4.674  1.00 20.00    -0.080 Cl
HETATM    9 CL9  UNL     1     -32.167  14.771  -3.558  1.00 20.00    -0.074 Cl
ENDROOT
TORSDOF 0
ENDMDL
MODEL 2
REMARK VINA RESULT:      -3.9      2.642      2.932
REMARK  0 active torsions:
REMARK  status: ('A' for Active; 'I' for Inactive)
ROOT
HETATM    1  C1  UNL     1     -34.662  13.742  -4.326  1.00 20.00     0.102 C 
HETATM    2  C2  UNL     1     -34.317  15.618  -2.784  1.00 20.00     0.075 A 
HETATM    3  C3  UNL     1     -34.356  15.115  -4.066  1.00 20.00     0.075 A 
HETATM    4  C4  UNL     1     -34.062  16.110  -5.041  1.00 20.00     0.084 A 
HETATM    5  C5  UNL     1     -33.811  17.338  -4.468  1.00 20.00     0.097 A 
HETATM    6  N6  UNL     1     -34.910  12.628  -4.537  1.00 20.00    -0.191 NA
HETATM    7  S7  UNL     1     -33.928  17.286  -2.761  1.00 20.00    -0.086 SA
HETATM    8 CL8  UNL     1     -34.033  15.793  -6.729  1.00 20.00    -0.080 Cl
HETATM    9 CL9  UNL     1     -33.416  18.823  -5.234  1.00 20.00    -0.074 Cl
ENDROOT
TORSDOF 0
ENDMDL
MODEL 3
REMARK VINA RESULT:      -3.9      2.844      3.325
REMARK  0 active torsions:
REMARK  status: ('A' for Active; 'I' for Inactive)
ROOT
HETATM    1  C1  UNL     1     -34.669  13.978  -4.423  1.00 20.00     0.102 C 
HETATM    2  C2  UNL     1     -34.037  15.928  -5.769  1.00 20.00     0.075 A 
HETATM    3  C3  UNL     1     -34.322  15.360  -4.547  1.00 20.00     0.075 A 
HETATM    4  C4  UNL     1     -34.227  16.302  -3.483  1.00 20.00     0.084 A 
HETATM    5  C5  UNL     1     -33.870  17.555  -3.932  1.00 20.00     0.097 A 
HETATM    6  N6  UNL     1     -34.950  12.857  -4.322  1.00 20.00    -0.191 NA
HETATM    7  S7  UNL     1     -33.654  17.592  -5.630  1.00 20.00    -0.086 SA
HETATM    8 CL8  UNL     1     -34.524  15.899  -1.840  1.00 20.00    -0.080 Cl
HETATM    9 CL9  UNL     1     -33.634  18.996  -3.028  1.00 20.00    -0.074 Cl
ENDROOT
TORSDOF 0
ENDMDL
MODEL 4
REMARK VINA RESULT:      -3.8      3.247      3.859
REMARK  0 active torsions:
REMARK  status: ('A' for Active; 'I' for Inactive)
ROOT
HETATM    1  C1  UNL     1     -33.867  16.358  -2.365  1.00 20.00     0.102 C 
HETATM    2  C2  UNL     1     -34.524  14.217  -3.363  1.00 20.00     0.075 A 
HETATM    3  C3  UNL     1     -34.130  15.530  -3.500  1.00 20.00     0.075 A 
HETATM    4  C4  UNL     1     -34.031  15.919  -4.867  1.00 20.00     0.084 A 
HETATM    5  C5  UNL     1     -34.351  14.887  -5.723  1.00 20.00     0.097 A 
HETATM    6  N6  UNL     1     -33.654  17.031  -1.443  1.00 20.00    -0.191 NA
HETATM    7  S7  UNL     1     -34.770  13.458  -4.879  1.00 20.00    -0.086 SA
HETATM    8 CL8  UNL     1     -33.563  17.495  -5.364  1.00 20.00    -0.080 Cl
HETATM    9 CL9  UNL     1     -34.373  14.881  -7.440  1.00 20.00    -0.074 Cl
ENDROOT
TORSDOF 0
ENDMDL
MODEL 5
REMARK VINA RESULT:      -3.8      3.156      3.694
REMARK  0 active torsions:
REMARK  status: ('A' for Active; 'I' for Inactive)
ROOT
HETATM    1  C1  UNL     1     -34.648  13.639  -4.958  1.00 20.00     0.102 C 
HETATM    2  C2  UNL     1     -34.748  15.269  -6.788  1.00 20.00     0.075 A 
HETATM    3  C3  UNL     1     -34.455  14.957  -5.479  1.00 20.00     0.075 A 
HETATM    4  C4  UNL     1     -33.960  16.082  -4.758  1.00 20.00     0.084 A 
HETATM    5  C5  UNL     1     -33.892  17.211  -5.546  1.00 20.00     0.097 A 
HETATM    6  N6  UNL     1     -34.803  12.569  -4.536  1.00 20.00    -0.191 NA
HETATM    7  S7  UNL     1     -34.425  16.912  -7.145  1.00 20.00    -0.086 SA
HETATM    8 CL8  UNL     1     -33.506  16.013  -3.103  1.00 20.00    -0.080 Cl
HETATM    9 CL9  UNL     1     -33.363  18.788  -5.121  1.00 20.00    -0.074 Cl
ENDROOT
TORSDOF 0
ENDMDL
MODEL 6
REMARK VINA RESULT:      -3.8      2.728      3.174
REMARK  0 active torsions:
REMARK  status: ('A' for Active; 'I' for Inactive)
ROOT
HETATM    1  C1  UNL     1     -34.809  13.608  -4.212  1.00 20.00     0.102 C 
HETATM    2  C2  UNL     1     -33.687  15.484  -3.102  1.00 20.00     0.075 A 
HETATM    3  C3  UNL     1     -34.841  14.857  -3.516  1.00 20.00     0.075 A 
HETATM    4  C4  UNL     1     -36.007  15.597  -3.168  1.00 20.00     0.084 A 
HETATM    5  C5  UNL     1     -35.700  16.762  -2.499  1.00 20.00     0.097 A 
HETATM    6  N6  UNL     1     -34.784  12.594  -4.777  1.00 20.00    -0.191 NA
HETATM    7  S7  UNL     1     -34.012  16.960  -2.295  1.00 20.00    -0.086 SA
HETATM    8 CL8  UNL     1     -37.599  15.076  -3.547  1.00 20.00    -0.080 Cl
HETATM    9 CL9  UNL     1     -36.763  17.963  -1.886  1.00 20.00    -0.074 Cl
ENDROOT
TORSDOF 0
ENDMDL
MODEL 7
REMARK VINA RESULT:      -3.7      2.650      3.451
REMARK  0 active torsions:
REMARK  status: ('A' for Active; 'I' for Inactive)
ROOT
HETATM    1  C1  UNL     1     -34.024  16.815  -1.671  1.00 20.00     0.102 C 
HETATM    2  C2  UNL     1     -36.067  15.957  -2.721  1.00 20.00     0.075 A 
HETATM    3  C3  UNL     1     -34.698  15.932  -2.572  1.00 20.00     0.075 A 
HETATM    4  C4  UNL     1     -34.086  14.950  -3.404  1.00 20.00     0.084 A 
HETATM    5  C5  UNL     1     -35.012  14.261  -4.156  1.00 20.00     0.097 A 
HETATM    6  N6  UNL     1     -33.476  17.531  -0.940  1.00 20.00    -0.191 NA
HETATM    7  S7  UNL     1     -36.610  14.799  -3.860  1.00 20.00    -0.086 SA
HETATM    8 CL8  UNL     1     -32.391  14.676  -3.444  1.00 20.00    -0.080 Cl
HETATM    9 CL9  UNL     1     -34.751  12.998  -5.290  1.00 20.00    -0.074 Cl
ENDROOT
TORSDOF 0
ENDMDL
MODEL 8
REMARK VINA RESULT:      -3.7      2.829      3.268
REMARK  0 active torsions:
REMARK  status: ('A' for Active; 'I' for Inactive)
ROOT
HETATM    1  C1  UNL     1     -34.423  16.569  -1.853  1.00 20.00     0.102 C 
HETATM    2  C2  UNL     1     -33.853  17.791  -3.901  1.00 20.00     0.075 A 
HETATM    3  C3  UNL     1     -34.239  16.630  -3.270  1.00 20.00     0.075 A 
HETATM    4  C4  UNL     1     -34.418  15.555  -4.188  1.00 20.00     0.084 A 
HETATM    5  C5  UNL     1     -34.162  15.938  -5.487  1.00 20.00     0.097 A 
HETATM    6  N6  UNL     1     -34.573  16.520  -0.703  1.00 20.00    -0.191 NA
HETATM    7  S7  UNL     1     -33.708  17.585  -5.595  1.00 20.00    -0.086 SA
HETATM    8 CL8  UNL     1     -34.898  13.977  -3.708  1.00 20.00    -0.080 Cl
HETATM    9 CL9  UNL     1     -34.245  14.997  -6.921  1.00 20.00    -0.074 Cl
ENDROOT
TORSDOF 0
ENDMDL
MODEL 9
REMARK VINA RESULT:      -3.6      3.268      3.891
REMARK  0 active torsions:
REMARK  status: ('A' for Active; 'I' for Inactive)
ROOT
HETATM    1  C1  UNL     1     -34.224  13.871  -3.702  1.00 20.00     0.102 C 
HETATM    2  C2  UNL     1     -36.304  14.677  -4.721  1.00 20.00     0.075 A 
HETATM    3  C3  UNL     1     -35.337  14.768  -3.744  1.00 20.00     0.075 A 
HETATM    4  C4  UNL     1     -35.597  15.830  -2.831  1.00 20.00     0.084 A 
HETATM    5  C5  UNL     1     -36.753  16.512  -3.146  1.00 20.00     0.097 A 
HETATM    6  N6  UNL     1     -33.321  13.143  -3.667  1.00 20.00    -0.191 NA
HETATM    7  S7  UNL     1     -37.518  15.871  -4.536  1.00 20.00    -0.086 SA
HETATM    8 CL8  UNL     1     -34.574  16.198  -1.501  1.00 20.00    -0.080 Cl
HETATM    9 CL9  UNL     1     -37.463  17.853  -2.343  1.00 20.00    -0.074 Cl
ENDROOT
TORSDOF 0
ENDMDL
