MODEL 1
REMARK VINA RESULT:      -4.8      0.000      0.000
REMARK  2 active torsions:
REMARK  status: ('A' for Active; 'I' for Inactive)
REMARK    1  A    between atoms: C1_1  and  C3_3 
REMARK    2  A    between atoms: C2_2  and  C5_5 
ROOT
HETATM    1  C1  UNL     1     -32.864   6.170   3.884  1.00 20.00     0.004 C 
HETATM    2  C2  UNL     1     -34.133   6.107   4.310  1.00 20.00     0.049 C 
ENDROOT
BRANCH   1   3
HETATM    3  C3  UNL     1     -32.495   6.742   2.609  1.00 20.00     0.007 C 
HETATM    4  C4  UNL     1     -32.244   8.046   2.443  1.00 20.00     0.056 C 
HETATM    5 BR8  UNL     1     -31.770   8.817   0.824  1.00 20.00    -0.064 Br
ENDBRANCH   1   3
BRANCH   2   6
HETATM    6  C5  UNL     1     -34.459   5.508   5.634  1.00 20.00     0.145 C 
HETATM    7  C6  UNL     1     -34.907   4.070   5.631  1.00 20.00     0.096 C 
HETATM    8  O7  UNL     1     -34.396   6.153   6.678  1.00 20.00    -0.294 OA
ENDBRANCH   2   6
TORSDOF 2
ENDMDL
MODEL 2
REMARK VINA RESULT:      -4.4      3.745      5.255
REMARK  2 active torsions:
REMARK  status: ('A' for Active; 'I' for Inactive)
REMARK    1  A    between atoms: C1_1  and  C3_3 
REMARK    2  A    between atoms: C2_2  and  C5_5 
ROOT
HETATM    1  C1  UNL     1     -33.182   6.921   2.892  1.00 20.00     0.004 C 
HETATM    2  C2  UNL     1     -32.063   7.637   2.718  1.00 20.00     0.049 C 
ENDROOT
BRANCH   1   3
HETATM    3  C3  UNL     1     -33.340   5.968   3.968  1.00 20.00     0.007 C 
HETATM    4  C4  UNL     1     -34.536   5.586   4.431  1.00 20.00     0.056 C 
HETATM    5 BR8  UNL     1     -34.778   4.368   5.809  1.00 20.00    -0.064 Br
ENDBRANCH   1   3
BRANCH   2   6
HETATM    6  C5  UNL     1     -31.952   8.607   1.593  1.00 20.00     0.145 C 
HETATM    7  C6  UNL     1     -32.661   9.924   1.768  1.00 20.00     0.096 C 
HETATM    8  O7  UNL     1     -31.341   8.345   0.560  1.00 20.00    -0.294 OA
ENDBRANCH   2   6
TORSDOF 2
ENDMDL
MODEL 3
REMARK VINA RESULT:      -4.1     11.574     12.026
REMARK  2 active torsions:
REMARK  status: ('A' for Active; 'I' for Inactive)
REMARK    1  A    between atoms: C1_1  and  C3_3 
REMARK    2  A    between atoms: C2_2  and  C5_5 
ROOT
HETATM    1  C1  UNL     1     -33.831  15.606  -3.274  1.00 20.00     0.004 C 
HETATM    2  C2  UNL     1     -34.796  14.696  -3.466  1.00 20.00     0.049 C 
ENDROOT
BRANCH   1   3
HETATM    3  C3  UNL     1     -33.818  16.501  -2.138  1.00 20.00     0.007 C 
HETATM    4  C4  UNL     1     -34.739  16.459  -1.169  1.00 20.00     0.056 C 
HETATM    5 BR8  UNL     1     -34.756  17.590   0.302  1.00 20.00    -0.064 Br
ENDBRANCH   1   3
BRANCH   2   6
HETATM    6  C5  UNL     1     -34.762  13.796  -4.652  1.00 20.00     0.145 C 
HETATM    7  C6  UNL     1     -34.733  14.463  -6.003  1.00 20.00     0.096 C 
HETATM    8  O7  UNL     1     -34.784  12.572  -4.548  1.00 20.00    -0.294 OA
ENDBRANCH   2   6
TORSDOF 2
ENDMDL
MODEL 4
REMARK VINA RESULT:      -3.8     11.366     11.850
REMARK  2 active torsions:
REMARK  status: ('A' for Active; 'I' for Inactive)
REMARK    1  A    between atoms: C1_1  and  C3_3 
REMARK    2  A    between atoms: C2_2  and  C5_5 
ROOT
HETATM    1  C1  UNL     1     -34.314  15.868  -2.697  1.00 20.00     0.004 C 
HETATM    2  C2  UNL     1     -34.814  14.686  -3.083  1.00 20.00     0.049 C 
ENDROOT
BRANCH   1   3
HETATM    3  C3  UNL     1     -34.972  16.715  -1.728  1.00 20.00     0.007 C 
HETATM    4  C4  UNL     1     -34.566  16.816  -0.457  1.00 20.00     0.056 C 
HETATM    5 BR8  UNL     1     -35.384  17.891   0.815  1.00 20.00    -0.064 Br
ENDBRANCH   1   3
BRANCH   2   6
HETATM    6  C5  UNL     1     -34.096  13.850  -4.084  1.00 20.00     0.145 C 
HETATM    7  C6  UNL     1     -34.576  13.943  -5.509  1.00 20.00     0.096 C 
HETATM    8  O7  UNL     1     -33.176  13.098  -3.771  1.00 20.00    -0.294 OA
ENDBRANCH   2   6
TORSDOF 2
ENDMDL
MODEL 5
REMARK VINA RESULT:      -3.6     11.497     11.877
REMARK  2 active torsions:
REMARK  status: ('A' for Active; 'I' for Inactive)
REMARK    1  A    between atoms: C1_1  and  C3_3 
REMARK    2  A    between atoms: C2_2  and  C5_5 
ROOT
HETATM    1  C1  UNL     1     -34.026  16.639  -2.053  1.00 20.00     0.004 C 
HETATM    2  C2  UNL     1     -34.662  16.480  -0.885  1.00 20.00     0.049 C 
ENDROOT
BRANCH   1   3
HETATM    3  C3  UNL     1     -33.856  15.562  -3.002  1.00 20.00     0.007 C 
HETATM    4  C4  UNL     1     -34.869  14.793  -3.418  1.00 20.00     0.056 C 
HETATM    5 BR8  UNL     1     -34.690  13.402  -4.633  1.00 20.00    -0.064 Br
ENDBRANCH   1   3
BRANCH   2   6
HETATM    6  C5  UNL     1     -34.811  17.624   0.057  1.00 20.00     0.145 C 
HETATM    7  C6  UNL     1     -33.553  18.369   0.417  1.00 20.00     0.096 C 
HETATM    8  O7  UNL     1     -35.895  17.935   0.545  1.00 20.00    -0.294 OA
ENDBRANCH   2   6
TORSDOF 2
ENDMDL
MODEL 6
REMARK VINA RESULT:      -3.6     11.542     11.915
REMARK  2 active torsions:
REMARK  status: ('A' for Active; 'I' for Inactive)
REMARK    1  A    between atoms: C1_1  and  C3_3 
REMARK    2  A    between atoms: C2_2  and  C5_5 
ROOT
HETATM    1  C1  UNL     1     -34.843  16.163  -1.645  1.00 20.00     0.004 C 
HETATM    2  C2  UNL     1     -34.194  15.578  -2.661  1.00 20.00     0.049 C 
ENDROOT
BRANCH   1   3
HETATM    3  C3  UNL     1     -34.215  17.128  -0.771  1.00 20.00     0.007 C 
HETATM    4  C4  UNL     1     -34.739  17.493   0.405  1.00 20.00     0.056 C 
HETATM    5 BR8  UNL     1     -33.964  18.727   1.553  1.00 20.00    -0.064 Br
ENDBRANCH   1   3
BRANCH   2   6
HETATM    6  C5  UNL     1     -34.888  14.591  -3.534  1.00 20.00     0.145 C 
HETATM    7  C6  UNL     1     -34.015  13.600  -4.258  1.00 20.00     0.096 C 
HETATM    8  O7  UNL     1     -36.107  14.593  -3.686  1.00 20.00    -0.294 OA
ENDBRANCH   2   6
TORSDOF 2
ENDMDL
MODEL 7
REMARK VINA RESULT:      -3.6     11.696     12.335
REMARK  2 active torsions:
REMARK  status: ('A' for Active; 'I' for Inactive)
REMARK    1  A    between atoms: C1_1  and  C3_3 
REMARK    2  A    between atoms: C2_2  and  C5_5 
ROOT
HETATM    1  C1  UNL     1     -34.542  16.400  -1.499  1.00 20.00     0.004 C 
HETATM    2  C2  UNL     1     -33.697  17.398  -1.792  1.00 20.00     0.049 C 
ENDROOT
BRANCH   1   3
HETATM    3  C3  UNL     1     -34.979  15.434  -2.481  1.00 20.00     0.007 C 
HETATM    4  C4  UNL     1     -34.131  14.766  -3.271  1.00 20.00     0.056 C 
HETATM    5 BR8  UNL     1     -34.653  13.520  -4.543  1.00 20.00    -0.064 Br
ENDBRANCH   1   3
BRANCH   2   6
HETATM    6  C5  UNL     1     -33.276  18.366  -0.742  1.00 20.00     0.145 C 
HETATM    7  C6  UNL     1     -33.922  18.217   0.611  1.00 20.00     0.096 C 
HETATM    8  O7  UNL     1     -32.466  19.263  -0.963  1.00 20.00    -0.294 OA
ENDBRANCH   2   6
TORSDOF 2
ENDMDL
MODEL 8
REMARK VINA RESULT:      -3.6     11.664     12.270
REMARK  2 active torsions:
REMARK  status: ('A' for Active; 'I' for Inactive)
REMARK    1  A    between atoms: C1_1  and  C3_3 
REMARK    2  A    between atoms: C2_2  and  C5_5 
ROOT
HETATM    1  C1  UNL     1     -34.047  16.626  -1.549  1.00 20.00     0.004 C 
HETATM    2  C2  UNL     1     -34.483  15.744  -2.459  1.00 20.00     0.049 C 
ENDROOT
BRANCH   1   3
HETATM    3  C3  UNL     1     -34.847  17.042  -0.419  1.00 20.00     0.007 C 
HETATM    4  C4  UNL     1     -34.386  17.856   0.538  1.00 20.00     0.056 C 
HETATM    5 BR8  UNL     1     -35.381  18.411   2.002  1.00 20.00    -0.064 Br
ENDBRANCH   1   3
BRANCH   2   6
HETATM    6  C5  UNL     1     -33.617  15.348  -3.604  1.00 20.00     0.145 C 
HETATM    7  C6  UNL     1     -33.370  13.873  -3.783  1.00 20.00     0.096 C 
HETATM    8  O7  UNL     1     -33.103  16.174  -4.354  1.00 20.00    -0.294 OA
ENDBRANCH   2   6
TORSDOF 2
ENDMDL
MODEL 9
REMARK VINA RESULT:      -3.6     10.836     11.273
REMARK  2 active torsions:
REMARK  status: ('A' for Active; 'I' for Inactive)
REMARK    1  A    between atoms: C1_1  and  C3_3 
REMARK    2  A    between atoms: C2_2  and  C5_5 
ROOT
HETATM    1  C1  UNL     1     -42.033   3.887  -2.600  1.00 20.00     0.004 C 
HETATM    2  C2  UNL     1     -41.303   4.309  -1.558  1.00 20.00     0.049 C 
ENDROOT
BRANCH   1   3
HETATM    3  C3  UNL     1     -42.255   2.486  -2.880  1.00 20.00     0.007 C 
HETATM    4  C4  UNL     1     -41.500   1.787  -3.735  1.00 20.00     0.056 C 
HETATM    5 BR8  UNL     1     -41.754  -0.010  -4.121  1.00 20.00    -0.064 Br
ENDBRANCH   1   3
BRANCH   2   6
HETATM    6  C5  UNL     1     -41.106   5.765  -1.313  1.00 20.00     0.145 C 
HETATM    7  C6  UNL     1     -40.719   6.166   0.086  1.00 20.00     0.096 C 
HETATM    8  O7  UNL     1     -41.276   6.607  -2.192  1.00 20.00    -0.294 OA
ENDBRANCH   2   6
TORSDOF 2
ENDMDL
