MODEL 1
REMARK VINA RESULT:      -4.6      0.000      0.000
REMARK  0 active torsions:
REMARK  status: ('A' for Active; 'I' for Inactive)
ROOT
HETATM    1  C1  UNL     1     -34.187  16.083  -3.133  1.00 20.00    -0.074 C 
HETATM    2  C2  UNL     1     -34.143  16.963  -2.130  1.00 20.00    -0.085 C 
HETATM    3  C3  UNL     1     -33.714  16.319  -4.546  1.00 20.00     0.039 C 
HETATM    4  C4  UNL     1     -36.005  14.573  -3.817  1.00 20.00     0.009 C 
HETATM    5  C5  UNL     1     -35.576  14.783  -5.283  1.00 20.00     0.005 C 
HETATM    6  C6  UNL     1     -33.708  13.986  -4.038  1.00 20.00     0.014 C 
HETATM    7  C7  UNL     1     -34.672  14.652  -3.055  1.00 20.00     0.015 C 
HETATM    8  C8  UNL     1     -34.045  14.951  -5.179  1.00 20.00    -0.010 C 
HETATM    9  C9  UNL     1     -34.641  16.629  -0.752  1.00 20.00     0.043 C 
HETATM   10  C10 UNL     1     -33.592  18.350  -2.308  1.00 20.00     0.043 C 
ENDROOT
TORSDOF 0
ENDMDL
MODEL 2
REMARK VINA RESULT:      -4.5      1.509      3.922
REMARK  0 active torsions:
REMARK  status: ('A' for Active; 'I' for Inactive)
ROOT
HETATM    1  C1  UNL     1     -34.375  15.150  -5.537  1.00 20.00    -0.074 C 
HETATM    2  C2  UNL     1     -34.731  15.443  -6.790  1.00 20.00    -0.085 C 
HETATM    3  C3  UNL     1     -34.605  13.838  -4.829  1.00 20.00     0.039 C 
HETATM    4  C4  UNL     1     -34.609  16.488  -3.486  1.00 20.00     0.009 C 
HETATM    5  C5  UNL     1     -34.862  15.182  -2.708  1.00 20.00     0.005 C 
HETATM    6  C6  UNL     1     -32.775  15.013  -3.843  1.00 20.00     0.014 C 
HETATM    7  C7  UNL     1     -33.623  16.050  -4.581  1.00 20.00     0.015 C 
HETATM    8  C8  UNL     1     -33.983  14.155  -3.452  1.00 20.00    -0.010 C 
HETATM    9  C9  UNL     1     -34.454  16.785  -7.407  1.00 20.00     0.043 C 
HETATM   10  C10 UNL     1     -35.434  14.450  -7.673  1.00 20.00     0.043 C 
ENDROOT
TORSDOF 0
ENDMDL
MODEL 3
REMARK VINA RESULT:      -4.5      1.279      3.761
REMARK  0 active torsions:
REMARK  status: ('A' for Active; 'I' for Inactive)
ROOT
HETATM    1  C1  UNL     1     -34.700  15.392  -2.986  1.00 20.00    -0.074 C 
HETATM    2  C2  UNL     1     -34.281  14.267  -3.569  1.00 20.00    -0.085 C 
HETATM    3  C3  UNL     1     -36.121  15.896  -2.941  1.00 20.00     0.039 C 
HETATM    4  C4  UNL     1     -33.726  17.650  -3.050  1.00 20.00     0.009 C 
HETATM    5  C5  UNL     1     -35.155  18.226  -3.017  1.00 20.00     0.005 C 
HETATM    6  C6  UNL     1     -34.854  16.802  -1.132  1.00 20.00     0.014 C 
HETATM    7  C7  UNL     1     -33.852  16.372  -2.205  1.00 20.00     0.015 C 
HETATM    8  C8  UNL     1     -35.924  17.207  -2.150  1.00 20.00    -0.010 C 
HETATM    9  C9  UNL     1     -32.837  13.850  -3.557  1.00 20.00     0.043 C 
HETATM   10  C10 UNL     1     -35.224  13.336  -4.279  1.00 20.00     0.043 C 
ENDROOT
TORSDOF 0
ENDMDL
MODEL 4
REMARK VINA RESULT:      -4.4      1.620      3.536
REMARK  0 active torsions:
REMARK  status: ('A' for Active; 'I' for Inactive)
ROOT
HETATM    1  C1  UNL     1     -34.846  15.506  -5.347  1.00 20.00    -0.074 C 
HETATM    2  C2  UNL     1     -35.421  15.824  -6.508  1.00 20.00    -0.085 C 
HETATM    3  C3  UNL     1     -33.486  15.957  -4.873  1.00 20.00     0.039 C 
HETATM    4  C4  UNL     1     -34.700  13.328  -4.212  1.00 20.00     0.009 C 
HETATM    5  C5  UNL     1     -33.301  13.728  -3.706  1.00 20.00     0.005 C 
HETATM    6  C6  UNL     1     -34.871  15.380  -3.017  1.00 20.00     0.014 C 
HETATM    7  C7  UNL     1     -35.451  14.670  -4.241  1.00 20.00     0.015 C 
HETATM    8  C8  UNL     1     -33.424  15.253  -3.502  1.00 20.00    -0.010 C 
HETATM    9  C9  UNL     1     -36.786  15.322  -6.888  1.00 20.00     0.043 C 
HETATM   10  C10 UNL     1     -34.746  16.708  -7.519  1.00 20.00     0.043 C 
ENDROOT
TORSDOF 0
ENDMDL
MODEL 5
REMARK VINA RESULT:      -4.4     12.113     14.164
REMARK  0 active torsions:
REMARK  status: ('A' for Active; 'I' for Inactive)
ROOT
HETATM    1  C1  UNL     1     -41.832   4.134  -2.193  1.00 20.00    -0.074 C 
HETATM    2  C2  UNL     1     -42.117   3.189  -3.091  1.00 20.00    -0.085 C 
HETATM    3  C3  UNL     1     -40.560   4.243  -1.388  1.00 20.00     0.039 C 
HETATM    4  C4  UNL     1     -43.237   5.079  -0.409  1.00 20.00     0.009 C 
HETATM    5  C5  UNL     1     -41.975   5.206   0.467  1.00 20.00     0.005 C 
HETATM    6  C6  UNL     1     -41.618   6.375  -1.577  1.00 20.00     0.014 C 
HETATM    7  C7  UNL     1     -42.697   5.320  -1.827  1.00 20.00     0.015 C 
HETATM    8  C8  UNL     1     -40.865   5.510  -0.561  1.00 20.00    -0.010 C 
HETATM    9  C9  UNL     1     -43.417   3.169  -3.844  1.00 20.00     0.043 C 
HETATM   10  C10 UNL     1     -41.157   2.078  -3.414  1.00 20.00     0.043 C 
ENDROOT
TORSDOF 0
ENDMDL
MODEL 6
REMARK VINA RESULT:      -4.4      1.235      1.647
REMARK  0 active torsions:
REMARK  status: ('A' for Active; 'I' for Inactive)
ROOT
HETATM    1  C1  UNL     1     -34.772  16.300  -3.232  1.00 20.00    -0.074 C 
HETATM    2  C2  UNL     1     -35.270  16.841  -2.118  1.00 20.00    -0.085 C 
HETATM    3  C3  UNL     1     -35.345  16.437  -4.621  1.00 20.00     0.039 C 
HETATM    4  C4  UNL     1     -33.925  14.024  -3.628  1.00 20.00     0.009 C 
HETATM    5  C5  UNL     1     -34.497  14.100  -5.057  1.00 20.00     0.005 C 
HETATM    6  C6  UNL     1     -33.014  15.933  -4.721  1.00 20.00     0.014 C 
HETATM    7  C7  UNL     1     -33.508  15.477  -3.347  1.00 20.00     0.015 C 
HETATM    8  C8  UNL     1     -34.332  15.591  -5.421  1.00 20.00    -0.010 C 
HETATM    9  C9  UNL     1     -34.622  16.644  -0.776  1.00 20.00     0.043 C 
HETATM   10  C10 UNL     1     -36.512  17.687  -2.126  1.00 20.00     0.043 C 
ENDROOT
TORSDOF 0
ENDMDL
MODEL 7
REMARK VINA RESULT:      -4.3      1.184      4.347
REMARK  0 active torsions:
REMARK  status: ('A' for Active; 'I' for Inactive)
ROOT
HETATM    1  C1  UNL     1     -34.036  16.805  -2.266  1.00 20.00    -0.074 C 
HETATM    2  C2  UNL     1     -33.873  16.006  -3.323  1.00 20.00    -0.085 C 
HETATM    3  C3  UNL     1     -34.655  16.420  -0.946  1.00 20.00     0.039 C 
HETATM    4  C4  UNL     1     -34.857  19.122  -2.163  1.00 20.00     0.009 C 
HETATM    5  C5  UNL     1     -35.521  18.786  -0.813  1.00 20.00     0.005 C 
HETATM    6  C6  UNL     1     -33.196  18.290  -0.674  1.00 20.00     0.014 C 
HETATM    7  C7  UNL     1     -33.593  18.247  -2.150  1.00 20.00     0.015 C 
HETATM    8  C8  UNL     1     -34.550  17.761  -0.190  1.00 20.00    -0.010 C 
HETATM    9  C9  UNL     1     -33.241  16.487  -4.599  1.00 20.00     0.043 C 
HETATM   10  C10 UNL     1     -34.308  14.567  -3.311  1.00 20.00     0.043 C 
ENDROOT
TORSDOF 0
ENDMDL
MODEL 8
REMARK VINA RESULT:      -4.3      1.097      1.647
REMARK  0 active torsions:
REMARK  status: ('A' for Active; 'I' for Inactive)
ROOT
HETATM    1  C1  UNL     1     -34.850  15.545  -3.260  1.00 20.00    -0.074 C 
HETATM    2  C2  UNL     1     -34.941  16.538  -2.372  1.00 20.00    -0.085 C 
HETATM    3  C3  UNL     1     -33.627  14.707  -3.537  1.00 20.00     0.039 C 
HETATM    4  C4  UNL     1     -35.651  15.441  -5.584  1.00 20.00     0.009 C 
HETATM    5  C5  UNL     1     -34.414  14.589  -5.932  1.00 20.00     0.005 C 
HETATM    6  C6  UNL     1     -35.607  13.531  -4.163  1.00 20.00     0.014 C 
HETATM    7  C7  UNL     1     -35.963  15.018  -4.139  1.00 20.00     0.015 C 
HETATM    8  C8  UNL     1     -34.173  13.778  -4.641  1.00 20.00    -0.010 C 
HETATM    9  C9  UNL     1     -36.212  17.315  -2.170  1.00 20.00     0.043 C 
HETATM   10  C10 UNL     1     -33.779  16.948  -1.511  1.00 20.00     0.043 C 
ENDROOT
TORSDOF 0
ENDMDL
MODEL 9
REMARK VINA RESULT:      -4.3      1.240      4.035
REMARK  0 active torsions:
REMARK  status: ('A' for Active; 'I' for Inactive)
ROOT
HETATM    1  C1  UNL     1     -35.429  14.950  -5.160  1.00 20.00    -0.074 C 
HETATM    2  C2  UNL     1     -36.021  14.963  -6.357  1.00 20.00    -0.085 C 
HETATM    3  C3  UNL     1     -36.085  15.266  -3.839  1.00 20.00     0.039 C 
HETATM    4  C4  UNL     1     -33.245  15.855  -4.480  1.00 20.00     0.009 C 
HETATM    5  C5  UNL     1     -33.861  16.212  -3.113  1.00 20.00     0.005 C 
HETATM    6  C6  UNL     1     -34.166  13.884  -3.513  1.00 20.00     0.014 C 
HETATM    7  C7  UNL     1     -33.994  14.570  -4.869  1.00 20.00     0.015 C 
HETATM    8  C8  UNL     1     -34.886  15.081  -2.885  1.00 20.00    -0.010 C 
HETATM    9  C9  UNL     1     -35.277  14.631  -7.619  1.00 20.00     0.043 C 
HETATM   10  C10 UNL     1     -37.474  15.310  -6.526  1.00 20.00     0.043 C 
ENDROOT
TORSDOF 0
ENDMDL
