MODEL 1
REMARK VINA RESULT:      -3.5      0.000      0.000
REMARK  1 active torsions:
REMARK  status: ('A' for Active; 'I' for Inactive)
REMARK    1  A    between atoms: C1_1  and  C4_4 
ROOT
HETATM    1  C2  UNL     1     -34.889  15.381  -2.966  1.00 20.00     0.042 C 
HETATM    2  C3  UNL     1     -33.737  16.066  -5.109  1.00 20.00     0.042 C 
HETATM    3  C4  UNL     1     -34.064  14.909  -4.164  1.00 20.00     0.105 C 
HETATM    4 CL7  UNL     1     -32.499  14.270  -3.528  1.00 20.00    -0.110 Cl
ENDROOT
BRANCH   3   5
HETATM    5  C1  UNL     1     -34.763  13.757  -4.908  1.00 20.00     0.241 C 
HETATM    6  O5  UNL     1     -34.995  12.668  -4.390  1.00 20.00    -0.278 OA
HETATM    7 CL6  UNL     1     -35.192  14.151  -6.559  1.00 20.00    -0.042 Cl
ENDBRANCH   3   5
TORSDOF 1
ENDMDL
MODEL 2
REMARK VINA RESULT:      -3.5      1.671      2.162
REMARK  1 active torsions:
REMARK  status: ('A' for Active; 'I' for Inactive)
REMARK    1  A    between atoms: C1_1  and  C4_4 
ROOT
HETATM    1  C2  UNL     1     -35.944  15.498  -4.835  1.00 20.00     0.042 C 
HETATM    2  C3  UNL     1     -34.583  14.796  -6.845  1.00 20.00     0.042 C 
HETATM    3  C4  UNL     1     -34.604  14.947  -5.324  1.00 20.00     0.105 C 
HETATM    4 CL7  UNL     1     -33.329  16.146  -4.880  1.00 20.00    -0.110 Cl
ENDROOT
BRANCH   3   5
HETATM    5  C1  UNL     1     -34.253  13.621  -4.624  1.00 20.00     0.241 C 
HETATM    6  O5  UNL     1     -34.887  12.584  -4.798  1.00 20.00    -0.278 OA
HETATM    7 CL6  UNL     1     -32.869  13.739  -3.560  1.00 20.00    -0.042 Cl
ENDBRANCH   3   5
TORSDOF 1
ENDMDL
MODEL 3
REMARK VINA RESULT:      -3.5      1.749      2.086
REMARK  1 active torsions:
REMARK  status: ('A' for Active; 'I' for Inactive)
REMARK    1  A    between atoms: C1_1  and  C4_4 
ROOT
HETATM    1  C2  UNL     1     -34.082  15.863  -4.950  1.00 20.00     0.042 C 
HETATM    2  C3  UNL     1     -32.838  14.147  -3.573  1.00 20.00     0.042 C 
HETATM    3  C4  UNL     1     -34.183  14.827  -3.829  1.00 20.00     0.105 C 
HETATM    4 CL7  UNL     1     -34.643  15.704  -2.319  1.00 20.00    -0.110 Cl
ENDROOT
BRANCH   3   5
HETATM    5  C1  UNL     1     -35.288  13.795  -4.117  1.00 20.00     0.241 C 
HETATM    6  O5  UNL     1     -35.052  12.626  -4.412  1.00 20.00    -0.278 OA
HETATM    7 CL6  UNL     1     -36.905  14.449  -3.985  1.00 20.00    -0.042 Cl
ENDBRANCH   3   5
TORSDOF 1
ENDMDL
MODEL 4
REMARK VINA RESULT:      -3.5      1.223      1.709
REMARK  1 active torsions:
REMARK  status: ('A' for Active; 'I' for Inactive)
REMARK    1  A    between atoms: C1_1  and  C4_4 
ROOT
HETATM    1  C2  UNL     1     -32.609  14.275  -3.517  1.00 20.00     0.042 C 
HETATM    2  C3  UNL     1     -34.794  15.411  -2.951  1.00 20.00     0.042 C 
HETATM    3  C4  UNL     1     -33.927  14.824  -4.065  1.00 20.00     0.105 C 
HETATM    4 CL7  UNL     1     -33.525  16.165  -5.205  1.00 20.00    -0.110 Cl
ENDROOT
BRANCH   3   5
HETATM    5  C1  UNL     1     -34.691  13.753  -4.864  1.00 20.00     0.241 C 
HETATM    6  O5  UNL     1     -35.003  12.662  -4.394  1.00 20.00    -0.278 OA
HETATM    7 CL6  UNL     1     -35.067  14.241  -6.502  1.00 20.00    -0.042 Cl
ENDBRANCH   3   5
TORSDOF 1
ENDMDL
MODEL 5
REMARK VINA RESULT:      -3.5      1.415      2.643
REMARK  1 active torsions:
REMARK  status: ('A' for Active; 'I' for Inactive)
REMARK    1  A    between atoms: C1_1  and  C4_4 
ROOT
HETATM    1  C2  UNL     1     -34.450  14.838  -6.795  1.00 20.00     0.042 C 
HETATM    2  C3  UNL     1     -33.512  16.074  -4.799  1.00 20.00     0.042 C 
HETATM    3  C4  UNL     1     -34.474  14.983  -5.273  1.00 20.00     0.105 C 
HETATM    4 CL7  UNL     1     -36.142  15.489  -4.801  1.00 20.00    -0.110 Cl
ENDROOT
BRANCH   3   5
HETATM    5  C1  UNL     1     -34.186  13.641  -4.577  1.00 20.00     0.241 C 
HETATM    6  O5  UNL     1     -34.865  12.634  -4.757  1.00 20.00    -0.278 OA
HETATM    7 CL6  UNL     1     -32.801  13.692  -3.507  1.00 20.00    -0.042 Cl
ENDBRANCH   3   5
TORSDOF 1
ENDMDL
MODEL 6
REMARK VINA RESULT:      -3.5      1.245      1.747
REMARK  1 active torsions:
REMARK  status: ('A' for Active; 'I' for Inactive)
REMARK    1  A    between atoms: C1_1  and  C4_4 
ROOT
HETATM    1  C2  UNL     1     -33.633  16.052  -5.105  1.00 20.00     0.042 C 
HETATM    2  C3  UNL     1     -32.649  14.320  -3.550  1.00 20.00     0.042 C 
HETATM    3  C4  UNL     1     -33.926  14.860  -4.193  1.00 20.00     0.105 C 
HETATM    4 CL7  UNL     1     -34.999  15.444  -2.863  1.00 20.00    -0.110 Cl
ENDROOT
BRANCH   3   5
HETATM    5  C1  UNL     1     -34.687  13.753  -4.946  1.00 20.00     0.241 C 
HETATM    6  O5  UNL     1     -34.965  12.669  -4.439  1.00 20.00    -0.278 OA
HETATM    7 CL6  UNL     1     -35.113  14.189  -6.586  1.00 20.00    -0.042 Cl
ENDBRANCH   3   5
TORSDOF 1
ENDMDL
MODEL 7
REMARK VINA RESULT:      -3.3     12.090     12.879
REMARK  1 active torsions:
REMARK  status: ('A' for Active; 'I' for Inactive)
REMARK    1  A    between atoms: C1_1  and  C4_4 
ROOT
HETATM    1  C2  UNL     1     -36.034   5.946   3.740  1.00 20.00     0.042 C 
HETATM    2  C3  UNL     1     -34.877   4.004   4.870  1.00 20.00     0.042 C 
HETATM    3  C4  UNL     1     -34.693   5.280   4.048  1.00 20.00     0.105 C 
HETATM    4 CL7  UNL     1     -33.945   4.808   2.474  1.00 20.00    -0.110 Cl
ENDROOT
BRANCH   3   5
HETATM    5  C1  UNL     1     -33.727   6.258   4.741  1.00 20.00     0.241 C 
HETATM    6  O5  UNL     1     -32.795   6.805   4.157  1.00 20.00    -0.278 OA
HETATM    7 CL6  UNL     1     -34.086   6.512   6.435  1.00 20.00    -0.042 Cl
ENDBRANCH   3   5
TORSDOF 1
ENDMDL
MODEL 8
REMARK VINA RESULT:      -3.3      1.857      2.319
REMARK  1 active torsions:
REMARK  status: ('A' for Active; 'I' for Inactive)
REMARK    1  A    between atoms: C1_1  and  C4_4 
ROOT
HETATM    1  C2  UNL     1     -35.512  14.063  -4.257  1.00 20.00     0.042 C 
HETATM    2  C3  UNL     1     -34.392  15.657  -2.646  1.00 20.00     0.042 C 
HETATM    3  C4  UNL     1     -34.224  14.812  -3.909  1.00 20.00     0.105 C 
HETATM    4 CL7  UNL     1     -32.952  13.576  -3.570  1.00 20.00    -0.110 Cl
ENDROOT
BRANCH   3   5
HETATM    5  C1  UNL     1     -33.734  15.664  -5.094  1.00 20.00     0.241 C 
HETATM    6  O5  UNL     1     -32.975  16.621  -4.961  1.00 20.00    -0.278 OA
HETATM    7 CL6  UNL     1     -34.364  15.140  -6.639  1.00 20.00    -0.042 Cl
ENDBRANCH   3   5
TORSDOF 1
ENDMDL
MODEL 9
REMARK VINA RESULT:      -3.3      2.225      3.264
REMARK  1 active torsions:
REMARK  status: ('A' for Active; 'I' for Inactive)
REMARK    1  A    between atoms: C1_1  and  C4_4 
ROOT
HETATM    1  C2  UNL     1     -35.734  14.756  -3.733  1.00 20.00     0.042 C 
HETATM    2  C3  UNL     1     -33.560  13.475  -3.868  1.00 20.00     0.042 C 
HETATM    3  C4  UNL     1     -34.320  14.724  -4.314  1.00 20.00     0.105 C 
HETATM    4 CL7  UNL     1     -34.471  14.654  -6.112  1.00 20.00    -0.110 Cl
ENDROOT
BRANCH   3   5
HETATM    5  C1  UNL     1     -33.542  16.007  -3.966  1.00 20.00     0.241 C 
HETATM    6  O5  UNL     1     -32.894  16.642  -4.794  1.00 20.00    -0.278 OA
HETATM    7 CL6  UNL     1     -33.671  16.467  -2.283  1.00 20.00    -0.042 Cl
ENDBRANCH   3   5
TORSDOF 1
ENDMDL
