MODEL 1
REMARK VINA RESULT:      -4.4      0.000      0.000
REMARK  4 active torsions:
REMARK  status: ('A' for Active; 'I' for Inactive)
REMARK    1  A    between atoms: C3_3  and  C7_7 
REMARK    2  A    between atoms: C6_6  and  C7_7 
REMARK    3  A    between atoms: C6_6  and  N9_9 
REMARK    4  A    between atoms: C8_8  and  N9_9 
ROOT
HETATM    1  C6  UNL     1     -32.276   6.544   3.134  1.00 20.00     0.290 C 
ENDROOT
BRANCH   1   2
HETATM    2  C7  UNL     1     -33.613   6.419   3.868  1.00 20.00     0.114 C 
HETATM    3 CL10 UNL     1     -34.747   5.396   2.934  1.00 20.00    -0.123 Cl
BRANCH   2   4
HETATM    4  C3  UNL     1     -33.474   5.870   5.283  1.00 20.00     0.006 A 
HETATM    5  C1  UNL     1     -34.055   6.622   6.448  1.00 20.00     0.006 A 
HETATM    6  C2  UNL     1     -34.676   5.326   6.006  1.00 20.00     0.006 A 
ENDBRANCH   2   4
ENDBRANCH   1   2
BRANCH   1   7
HETATM    7  N9  UNL     1     -31.866   7.921   2.989  1.00 20.00     0.088 N 
HETATM    8  H26 UNL     1     -30.846   7.974   2.915  1.00 20.00     0.316 HD
BRANCH   7   9
HETATM    9  C8  UNL     1     -32.454   8.530   1.798  1.00 20.00     0.212 C 
HETATM   10  C4  UNL     1     -31.485   8.384   0.634  1.00 20.00     0.042 C 
HETATM   11  C5  UNL     1     -32.764   9.990   2.093  1.00 20.00     0.042 C 
ENDBRANCH   7   9
ENDBRANCH   1   7
TORSDOF 4
ENDMDL
MODEL 2
REMARK VINA RESULT:      -4.2     11.004     11.739
REMARK  4 active torsions:
REMARK  status: ('A' for Active; 'I' for Inactive)
REMARK    1  A    between atoms: C3_3  and  C7_7 
REMARK    2  A    between atoms: C6_6  and  C7_7 
REMARK    3  A    between atoms: C6_6  and  N9_9 
REMARK    4  A    between atoms: C8_8  and  N9_9 
ROOT
HETATM    1  C6  UNL     1     -33.346  16.161  -4.744  1.00 20.00     0.290 C 
ENDROOT
BRANCH   1   2
HETATM    2  C7  UNL     1     -33.948  17.049  -3.653  1.00 20.00     0.114 C 
HETATM    3 CL10 UNL     1     -35.693  17.311  -3.950  1.00 20.00    -0.123 Cl
BRANCH   2   4
HETATM    4  C3  UNL     1     -33.746  16.496  -2.247  1.00 20.00     0.006 A 
HETATM    5  C1  UNL     1     -33.640  17.430  -1.073  1.00 20.00     0.006 A 
HETATM    6  C2  UNL     1     -34.859  16.565  -1.238  1.00 20.00     0.006 A 
ENDBRANCH   2   4
ENDBRANCH   1   2
BRANCH   1   7
HETATM    7  N9  UNL     1     -33.271  14.779  -4.336  1.00 20.00     0.088 N 
HETATM    8  H26 UNL     1     -33.466  14.701  -3.333  1.00 20.00     0.316 HD
BRANCH   7   9
HETATM    9  C8  UNL     1     -34.233  13.953  -5.064  1.00 20.00     0.212 C 
HETATM   10  C4  UNL     1     -34.636  14.671  -6.343  1.00 20.00     0.042 C 
HETATM   11  C5  UNL     1     -35.431  13.685  -4.166  1.00 20.00     0.042 C 
ENDBRANCH   7   9
ENDBRANCH   1   7
TORSDOF 4
ENDMDL
MODEL 3
REMARK VINA RESULT:      -4.2      1.212      1.575
REMARK  4 active torsions:
REMARK  status: ('A' for Active; 'I' for Inactive)
REMARK    1  A    between atoms: C3_3  and  C7_7 
REMARK    2  A    between atoms: C6_6  and  C7_7 
REMARK    3  A    between atoms: C6_6  and  N9_9 
REMARK    4  A    between atoms: C8_8  and  N9_9 
ROOT
HETATM    1  C6  UNL     1     -33.546   5.595   2.740  1.00 20.00     0.290 C 
ENDROOT
BRANCH   1   2
HETATM    2  C7  UNL     1     -34.425   6.037   3.912  1.00 20.00     0.114 C 
HETATM    3 CL10 UNL     1     -36.120   5.526   3.651  1.00 20.00    -0.123 Cl
BRANCH   2   4
HETATM    4  C3  UNL     1     -33.935   5.520   5.260  1.00 20.00     0.006 A 
HETATM    5  C1  UNL     1     -34.053   6.378   6.489  1.00 20.00     0.006 A 
HETATM    6  C2  UNL     1     -34.921   5.160   6.337  1.00 20.00     0.006 A 
ENDBRANCH   2   4
ENDBRANCH   1   2
BRANCH   1   7
HETATM    7  N9  UNL     1     -32.198   6.099   2.854  1.00 20.00     0.088 N 
HETATM    8  H26 UNL     1     -31.668   5.872   2.008  1.00 20.00     0.316 HD
BRANCH   7   9
HETATM    9  C8  UNL     1     -32.184   7.549   3.040  1.00 20.00     0.212 C 
HETATM   10  C4  UNL     1     -31.913   8.219   1.701  1.00 20.00     0.042 C 
HETATM   11  C5  UNL     1     -31.123   7.903   4.071  1.00 20.00     0.042 C 
ENDBRANCH   7   9
ENDBRANCH   1   7
TORSDOF 4
ENDMDL
MODEL 4
REMARK VINA RESULT:      -4.1      1.789      2.369
REMARK  4 active torsions:
REMARK  status: ('A' for Active; 'I' for Inactive)
REMARK    1  A    between atoms: C3_3  and  C7_7 
REMARK    2  A    between atoms: C6_6  and  C7_7 
REMARK    3  A    between atoms: C6_6  and  N9_9 
REMARK    4  A    between atoms: C8_8  and  N9_9 
ROOT
HETATM    1  C6  UNL     1     -33.741   6.980   3.875  1.00 20.00     0.290 C 
ENDROOT
BRANCH   1   2
HETATM    2  C7  UNL     1     -33.774   6.079   5.110  1.00 20.00     0.114 C 
HETATM    3 CL10 UNL     1     -33.672   7.060   6.604  1.00 20.00    -0.123 Cl
BRANCH   2   4
HETATM    4  C3  UNL     1     -35.005   5.183   5.169  1.00 20.00     0.006 A 
HETATM    5  C1  UNL     1     -34.865   3.693   5.025  1.00 20.00     0.006 A 
HETATM    6  C2  UNL     1     -35.234   4.288   6.355  1.00 20.00     0.006 A 
ENDBRANCH   2   4
ENDBRANCH   1   2
BRANCH   1   7
HETATM    7  N9  UNL     1     -32.823   6.491   2.873  1.00 20.00     0.088 N 
HETATM    8  H26 UNL     1     -33.326   6.308   2.000  1.00 20.00     0.316 HD
BRANCH   7   9
HETATM    9  C8  UNL     1     -31.759   7.455   2.606  1.00 20.00     0.212 C 
HETATM   10  C4  UNL     1     -31.146   7.899   3.926  1.00 20.00     0.042 C 
HETATM   11  C5  UNL     1     -32.340   8.629   1.832  1.00 20.00     0.042 C 
ENDBRANCH   7   9
ENDBRANCH   1   7
TORSDOF 4
ENDMDL
MODEL 5
REMARK VINA RESULT:      -4.1     10.951     11.607
REMARK  4 active torsions:
REMARK  status: ('A' for Active; 'I' for Inactive)
REMARK    1  A    between atoms: C3_3  and  C7_7 
REMARK    2  A    between atoms: C6_6  and  C7_7 
REMARK    3  A    between atoms: C6_6  and  N9_9 
REMARK    4  A    between atoms: C8_8  and  N9_9 
ROOT
HETATM    1  C6  UNL     1     -33.277  14.879  -3.725  1.00 20.00     0.290 C 
ENDROOT
BRANCH   1   2
HETATM    2  C7  UNL     1     -33.499  16.176  -2.944  1.00 20.00     0.114 C 
HETATM    3 CL10 UNL     1     -33.707  17.555  -4.067  1.00 20.00    -0.123 Cl
BRANCH   2   4
HETATM    4  C3  UNL     1     -34.685  16.109  -1.989  1.00 20.00     0.006 A 
HETATM    5  C1  UNL     1     -34.600  16.748  -0.631  1.00 20.00     0.006 A 
HETATM    6  C2  UNL     1     -35.486  17.346  -1.688  1.00 20.00     0.006 A 
ENDBRANCH   2   4
ENDBRANCH   1   2
BRANCH   1   7
HETATM    7  N9  UNL     1     -33.605  15.028  -5.124  1.00 20.00     0.088 N 
HETATM    8  H26 UNL     1     -32.807  14.746  -5.700  1.00 20.00     0.316 HD
BRANCH   7   9
HETATM    9  C8  UNL     1     -34.759  14.211  -5.492  1.00 20.00     0.212 C 
HETATM   10  C4  UNL     1     -35.948  15.122  -5.762  1.00 20.00     0.042 C 
HETATM   11  C5  UNL     1     -35.047  13.229  -4.366  1.00 20.00     0.042 C 
ENDBRANCH   7   9
ENDBRANCH   1   7
TORSDOF 4
ENDMDL
MODEL 6
REMARK VINA RESULT:      -4.1      1.889      4.953
REMARK  4 active torsions:
REMARK  status: ('A' for Active; 'I' for Inactive)
REMARK    1  A    between atoms: C3_3  and  C7_7 
REMARK    2  A    between atoms: C6_6  and  C7_7 
REMARK    3  A    between atoms: C6_6  and  N9_9 
REMARK    4  A    between atoms: C8_8  and  N9_9 
ROOT
HETATM    1  C6  UNL     1     -33.219   6.116   3.150  1.00 20.00     0.290 C 
ENDROOT
BRANCH   1   2
HETATM    2  C7  UNL     1     -32.696   7.554   3.117  1.00 20.00     0.114 C 
HETATM    3 CL10 UNL     1     -31.061   7.642   3.840  1.00 20.00    -0.123 Cl
BRANCH   2   4
HETATM    4  C3  UNL     1     -32.670   8.152   1.715  1.00 20.00     0.006 A 
HETATM    5  C1  UNL     1     -32.544   9.639   1.529  1.00 20.00     0.006 A 
HETATM    6  C2  UNL     1     -31.398   8.736   1.165  1.00 20.00     0.006 A 
ENDBRANCH   2   4
ENDBRANCH   1   2
BRANCH   1   7
HETATM    7  N9  UNL     1     -34.382   5.983   3.996  1.00 20.00     0.088 N 
HETATM    8  H26 UNL     1     -35.083   5.398   3.533  1.00 20.00     0.316 HD
BRANCH   7   9
HETATM    9  C8  UNL     1     -34.041   5.377   5.281  1.00 20.00     0.212 C 
HETATM   10  C4  UNL     1     -35.016   4.245   5.571  1.00 20.00     0.042 C 
HETATM   11  C5  UNL     1     -34.087   6.450   6.359  1.00 20.00     0.042 C 
ENDBRANCH   7   9
ENDBRANCH   1   7
TORSDOF 4
ENDMDL
MODEL 7
REMARK VINA RESULT:      -4.1     10.611     11.507
REMARK  4 active torsions:
REMARK  status: ('A' for Active; 'I' for Inactive)
REMARK    1  A    between atoms: C3_3  and  C7_7 
REMARK    2  A    between atoms: C6_6  and  C7_7 
REMARK    3  A    between atoms: C6_6  and  N9_9 
REMARK    4  A    between atoms: C8_8  and  N9_9 
ROOT
HETATM    1  C6  UNL     1     -35.181  16.977  -2.853  1.00 20.00     0.290 C 
ENDROOT
BRANCH   1   2
HETATM    2  C7  UNL     1     -34.739  15.959  -3.907  1.00 20.00     0.114 C 
HETATM    3 CL10 UNL     1     -33.204  16.475  -4.670  1.00 20.00    -0.123 Cl
BRANCH   2   4
HETATM    4  C3  UNL     1     -34.588  14.547  -3.355  1.00 20.00     0.006 A 
HETATM    5  C1  UNL     1     -34.943  13.359  -4.205  1.00 20.00     0.006 A 
HETATM    6  C2  UNL     1     -33.504  13.643  -3.873  1.00 20.00     0.006 A 
ENDBRANCH   2   4
ENDBRANCH   1   2
BRANCH   1   7
HETATM    7  N9  UNL     1     -35.337  16.372  -1.551  1.00 20.00     0.088 N 
HETATM    8  H26 UNL     1     -35.182  15.362  -1.615  1.00 20.00     0.316 HD
BRANCH   7   9
HETATM    9  C8  UNL     1     -34.392  16.930  -0.586  1.00 20.00     0.212 C 
HETATM   10  C4  UNL     1     -35.160  17.453   0.618  1.00 20.00     0.042 C 
HETATM   11  C5  UNL     1     -33.588  18.030  -1.263  1.00 20.00     0.042 C 
ENDBRANCH   7   9
ENDBRANCH   1   7
TORSDOF 4
ENDMDL
MODEL 8
REMARK VINA RESULT:      -4.0     10.581     11.575
REMARK  4 active torsions:
REMARK  status: ('A' for Active; 'I' for Inactive)
REMARK    1  A    between atoms: C3_3  and  C7_7 
REMARK    2  A    between atoms: C6_6  and  C7_7 
REMARK    3  A    between atoms: C6_6  and  N9_9 
REMARK    4  A    between atoms: C8_8  and  N9_9 
ROOT
HETATM    1  C6  UNL     1     -35.544  14.101  -4.152  1.00 20.00     0.290 C 
ENDROOT
BRANCH   1   2
HETATM    2  C7  UNL     1     -34.550  14.615  -3.108  1.00 20.00     0.114 C 
HETATM    3 CL10 UNL     1     -32.878  14.532  -3.742  1.00 20.00    -0.123 Cl
BRANCH   2   4
HETATM    4  C3  UNL     1     -34.849  16.033  -2.638  1.00 20.00     0.006 A 
HETATM    5  C1  UNL     1     -34.715  16.394  -1.185  1.00 20.00     0.006 A 
HETATM    6  C2  UNL     1     -33.733  16.934  -2.187  1.00 20.00     0.006 A 
ENDBRANCH   2   4
ENDBRANCH   1   2
BRANCH   1   7
HETATM    7  N9  UNL     1     -34.880  13.631  -5.345  1.00 20.00     0.088 N 
HETATM    8  H26 UNL     1     -35.061  12.632  -5.473  1.00 20.00     0.316 HD
BRANCH   7   9
HETATM    9  C8  UNL     1     -35.345  14.347  -6.531  1.00 20.00     0.212 C 
HETATM   10  C4  UNL     1     -34.234  15.259  -7.029  1.00 20.00     0.042 C 
HETATM   11  C5  UNL     1     -36.600  15.130  -6.175  1.00 20.00     0.042 C 
ENDBRANCH   7   9
ENDBRANCH   1   7
TORSDOF 4
ENDMDL
MODEL 9
REMARK VINA RESULT:      -3.9     10.572     11.445
REMARK  4 active torsions:
REMARK  status: ('A' for Active; 'I' for Inactive)
REMARK    1  A    between atoms: C3_3  and  C7_7 
REMARK    2  A    between atoms: C6_6  and  C7_7 
REMARK    3  A    between atoms: C6_6  and  N9_9 
REMARK    4  A    between atoms: C8_8  and  N9_9 
ROOT
HETATM    1  C6  UNL     1     -35.347  16.033  -3.993  1.00 20.00     0.290 C 
ENDROOT
BRANCH   1   2
HETATM    2  C7  UNL     1     -35.270  17.060  -2.861  1.00 20.00     0.114 C 
HETATM    3 CL10 UNL     1     -36.913  17.560  -2.357  1.00 20.00    -0.123 Cl
BRANCH   2   4
HETATM    4  C3  UNL     1     -34.491  16.563  -1.649  1.00 20.00     0.006 A 
HETATM    5  C1  UNL     1     -33.562  17.490  -0.914  1.00 20.00     0.006 A 
HETATM    6  C2  UNL     1     -34.847  17.046  -0.270  1.00 20.00     0.006 A 
ENDBRANCH   2   4
ENDBRANCH   1   2
BRANCH   1   7
HETATM    7  N9  UNL     1     -35.640  14.707  -3.500  1.00 20.00     0.088 N 
HETATM    8  H26 UNL     1     -36.641  14.515  -3.592  1.00 20.00     0.316 HD
BRANCH   7   9
HETATM    9  C8  UNL     1     -34.898  13.687  -4.237  1.00 20.00     0.212 C 
HETATM   10  C4  UNL     1     -33.449  13.691  -3.771  1.00 20.00     0.042 C 
HETATM   11  C5  UNL     1     -35.011  13.975  -5.727  1.00 20.00     0.042 C 
ENDBRANCH   7   9
ENDBRANCH   1   7
TORSDOF 4
ENDMDL
