MODEL 1
REMARK VINA RESULT:      -5.2      0.000      0.000
REMARK  1 active torsions:
REMARK  status: ('A' for Active; 'I' for Inactive)
REMARK    1  A    between atoms: C5_5  and  C8_8 
ROOT
HETATM    1  C1  UNL     1     -35.755  14.635  -4.317  1.00 20.00     0.047 C 
HETATM    2  C2  UNL     1     -35.513  15.842  -3.790  1.00 20.00    -0.009 C 
HETATM    3  C3  UNL     1     -34.712  13.583  -4.292  1.00 20.00     0.149 C 
HETATM    4  C6  UNL     1     -33.412  13.874  -3.578  1.00 20.00     0.084 C 
HETATM    5  C7  UNL     1     -33.054  15.352  -3.671  1.00 20.00     0.025 C 
HETATM    6  C8  UNL     1     -34.193  16.279  -3.189  1.00 20.00    -0.003 C 
HETATM    7  C11 UNL     1     -34.312  16.254  -1.656  1.00 20.00     0.024 C 
HETATM    8  O12 UNL     1     -34.943  12.483  -4.790  1.00 20.00    -0.293 OA
ENDROOT
BRANCH   6   9
HETATM    9  C5  UNL     1     -33.863  17.691  -3.611  1.00 20.00    -0.076 C 
HETATM   10  C4  UNL     1     -33.701  18.011  -4.909  1.00 20.00    -0.027 C 
HETATM   11  C9  UNL     1     -33.804  17.116  -6.078  1.00 20.00     0.036 C 
HETATM   12  C10 UNL     1     -33.737  18.679  -2.486  1.00 20.00     0.044 C 
ENDBRANCH   6   9
TORSDOF 1
ENDMDL
MODEL 2
REMARK VINA RESULT:      -5.2      0.744      2.599
REMARK  1 active torsions:
REMARK  status: ('A' for Active; 'I' for Inactive)
REMARK    1  A    between atoms: C5_5  and  C8_8 
ROOT
HETATM    1  C1  UNL     1     -33.398  14.223  -3.791  1.00 20.00     0.047 C 
HETATM    2  C2  UNL     1     -33.069  15.521  -3.749  1.00 20.00    -0.009 C 
HETATM    3  C3  UNL     1     -34.722  13.801  -4.305  1.00 20.00     0.149 C 
HETATM    4  C6  UNL     1     -35.648  14.856  -4.863  1.00 20.00     0.084 C 
HETATM    5  C7  UNL     1     -35.456  16.188  -4.149  1.00 20.00     0.025 C 
HETATM    6  C8  UNL     1     -33.985  16.661  -4.143  1.00 20.00    -0.003 C 
HETATM    7  C11 UNL     1     -33.567  17.178  -5.530  1.00 20.00     0.024 C 
HETATM    8  O12 UNL     1     -35.015  12.607  -4.327  1.00 20.00    -0.293 OA
ENDROOT
BRANCH   6   9
HETATM    9  C5  UNL     1     -33.859  17.801  -3.160  1.00 20.00    -0.076 C 
HETATM   10  C4  UNL     1     -34.142  17.630  -1.855  1.00 20.00    -0.027 C 
HETATM   11  C9  UNL     1     -34.595  16.397  -1.184  1.00 20.00     0.036 C 
HETATM   12  C10 UNL     1     -33.402  19.104  -3.753  1.00 20.00     0.044 C 
ENDBRANCH   6   9
TORSDOF 1
ENDMDL
MODEL 3
REMARK VINA RESULT:      -4.7      0.996      2.241
REMARK  1 active torsions:
REMARK  status: ('A' for Active; 'I' for Inactive)
REMARK    1  A    between atoms: C5_5  and  C8_8 
ROOT
HETATM    1  C1  UNL     1     -33.499  14.022  -3.742  1.00 20.00     0.047 C 
HETATM    2  C2  UNL     1     -33.275  15.312  -3.460  1.00 20.00    -0.009 C 
HETATM    3  C3  UNL     1     -34.619  13.631  -4.630  1.00 20.00     0.149 C 
HETATM    4  C6  UNL     1     -35.438  14.723  -5.280  1.00 20.00     0.084 C 
HETATM    5  C7  UNL     1     -35.519  15.954  -4.385  1.00 20.00     0.025 C 
HETATM    6  C8  UNL     1     -34.130  16.466  -3.939  1.00 20.00    -0.003 C 
HETATM    7  C11 UNL     1     -33.407  17.175  -5.096  1.00 20.00     0.024 C 
HETATM    8  O12 UNL     1     -34.820  12.443  -4.872  1.00 20.00    -0.293 OA
ENDROOT
BRANCH   6   9
HETATM    9  C5  UNL     1     -34.332  17.469  -2.828  1.00 20.00    -0.076 C 
HETATM   10  C4  UNL     1     -34.979  18.629  -3.045  1.00 20.00    -0.027 C 
HETATM   11  C9  UNL     1     -35.569  19.111  -4.309  1.00 20.00     0.036 C 
HETATM   12  C10 UNL     1     -33.762  17.067  -1.497  1.00 20.00     0.044 C 
ENDBRANCH   6   9
TORSDOF 1
ENDMDL
MODEL 4
REMARK VINA RESULT:      -4.7      2.528      4.318
REMARK  1 active torsions:
REMARK  status: ('A' for Active; 'I' for Inactive)
REMARK    1  A    between atoms: C5_5  and  C8_8 
ROOT
HETATM    1  C1  UNL     1     -33.862  17.283  -1.024  1.00 20.00     0.047 C 
HETATM    2  C2  UNL     1     -34.684  16.371  -1.560  1.00 20.00    -0.009 C 
HETATM    3  C3  UNL     1     -33.400  18.440  -1.828  1.00 20.00     0.149 C 
HETATM    4  C6  UNL     1     -33.949  18.612  -3.224  1.00 20.00     0.084 C 
HETATM    5  C7  UNL     1     -34.252  17.264  -3.866  1.00 20.00     0.025 C 
HETATM    6  C8  UNL     1     -35.168  16.375  -2.995  1.00 20.00    -0.003 C 
HETATM    7  C11 UNL     1     -36.620  16.881  -3.029  1.00 20.00     0.024 C 
HETATM    8  O12 UNL     1     -32.636  19.263  -1.327  1.00 20.00    -0.293 OA
ENDROOT
BRANCH   6   9
HETATM    9  C5  UNL     1     -35.146  14.975  -3.562  1.00 20.00    -0.076 C 
HETATM   10  C4  UNL     1     -33.985  14.328  -3.774  1.00 20.00    -0.027 C 
HETATM   11  C9  UNL     1     -32.617  14.819  -3.517  1.00 20.00     0.036 C 
HETATM   12  C10 UNL     1     -36.497  14.387  -3.858  1.00 20.00     0.044 C 
ENDBRANCH   6   9
TORSDOF 1
ENDMDL
MODEL 5
REMARK VINA RESULT:      -4.7      2.317      4.184
REMARK  1 active torsions:
REMARK  status: ('A' for Active; 'I' for Inactive)
REMARK    1  A    between atoms: C5_5  and  C8_8 
ROOT
HETATM    1  C1  UNL     1     -33.846  17.830  -4.050  1.00 20.00     0.047 C 
HETATM    2  C2  UNL     1     -33.999  16.577  -4.496  1.00 20.00    -0.009 C 
HETATM    3  C3  UNL     1     -33.774  18.106  -2.596  1.00 20.00     0.149 C 
HETATM    4  C6  UNL     1     -33.783  16.936  -1.640  1.00 20.00     0.084 C 
HETATM    5  C7  UNL     1     -34.607  15.780  -2.194  1.00 20.00     0.025 C 
HETATM    6  C8  UNL     1     -34.170  15.356  -3.615  1.00 20.00    -0.003 C 
HETATM    7  C11 UNL     1     -32.841  14.582  -3.574  1.00 20.00     0.024 C 
HETATM    8  O12 UNL     1     -33.645  19.262  -2.200  1.00 20.00    -0.293 OA
ENDROOT
BRANCH   6   9
HETATM    9  C5  UNL     1     -35.229  14.441  -4.182  1.00 20.00    -0.076 C 
HETATM   10  C4  UNL     1     -36.529  14.789  -4.168  1.00 20.00    -0.027 C 
HETATM   11  C9  UNL     1     -37.127  16.030  -3.639  1.00 20.00     0.036 C 
HETATM   12  C10 UNL     1     -34.716  13.147  -4.746  1.00 20.00     0.044 C 
ENDBRANCH   6   9
TORSDOF 1
ENDMDL
MODEL 6
REMARK VINA RESULT:      -4.7      2.041      3.593
REMARK  1 active torsions:
REMARK  status: ('A' for Active; 'I' for Inactive)
REMARK    1  A    between atoms: C5_5  and  C8_8 
ROOT
HETATM    1  C1  UNL     1     -33.407  15.792  -2.992  1.00 20.00     0.047 C 
HETATM    2  C2  UNL     1     -33.412  15.435  -4.283  1.00 20.00    -0.009 C 
HETATM    3  C3  UNL     1     -34.682  15.937  -2.249  1.00 20.00     0.149 C 
HETATM    4  C6  UNL     1     -35.970  15.582  -2.954  1.00 20.00     0.084 C 
HETATM    5  C7  UNL     1     -35.878  15.874  -4.446  1.00 20.00     0.025 C 
HETATM    6  C8  UNL     1     -34.655  15.206  -5.116  1.00 20.00    -0.003 C 
HETATM    7  C11 UNL     1     -34.875  13.692  -5.277  1.00 20.00     0.024 C 
HETATM    8  O12 UNL     1     -34.663  16.277  -1.068  1.00 20.00    -0.293 OA
ENDROOT
BRANCH   6   9
HETATM    9  C5  UNL     1     -34.485  15.804  -6.492  1.00 20.00    -0.076 C 
HETATM   10  C4  UNL     1     -34.165  17.102  -6.653  1.00 20.00    -0.027 C 
HETATM   11  C9  UNL     1     -33.937  18.112  -5.602  1.00 20.00     0.036 C 
HETATM   12  C10 UNL     1     -34.698  14.848  -7.632  1.00 20.00     0.044 C 
ENDBRANCH   6   9
TORSDOF 1
ENDMDL
MODEL 7
REMARK VINA RESULT:      -4.6      2.073      3.681
REMARK  1 active torsions:
REMARK  status: ('A' for Active; 'I' for Inactive)
REMARK    1  A    between atoms: C5_5  and  C8_8 
ROOT
HETATM    1  C1  UNL     1     -35.871  16.464  -2.679  1.00 20.00     0.047 C 
HETATM    2  C2  UNL     1     -35.737  16.371  -4.009  1.00 20.00    -0.009 C 
HETATM    3  C3  UNL     1     -34.677  16.441  -1.802  1.00 20.00     0.149 C 
HETATM    4  C6  UNL     1     -33.311  16.407  -2.446  1.00 20.00     0.084 C 
HETATM    5  C7  UNL     1     -33.345  15.649  -3.767  1.00 20.00     0.025 C 
HETATM    6  C8  UNL     1     -34.424  16.181  -4.738  1.00 20.00    -0.003 C 
HETATM    7  C11 UNL     1     -33.997  17.525  -5.353  1.00 20.00     0.024 C 
HETATM    8  O12 UNL     1     -34.815  16.516  -0.583  1.00 20.00    -0.293 OA
ENDROOT
BRANCH   6   9
HETATM    9  C5  UNL     1     -34.584  15.182  -5.860  1.00 20.00    -0.076 C 
HETATM   10  C4  UNL     1     -34.870  13.892  -5.607  1.00 20.00    -0.027 C 
HETATM   11  C9  UNL     1     -35.067  13.251  -4.293  1.00 20.00     0.036 C 
HETATM   12  C10 UNL     1     -34.400  15.743  -7.242  1.00 20.00     0.044 C 
ENDBRANCH   6   9
TORSDOF 1
ENDMDL
MODEL 8
REMARK VINA RESULT:      -4.6      1.840      2.736
REMARK  1 active torsions:
REMARK  status: ('A' for Active; 'I' for Inactive)
REMARK    1  A    between atoms: C5_5  and  C8_8 
ROOT
HETATM    1  C1  UNL     1     -34.872  13.347  -4.217  1.00 20.00     0.047 C 
HETATM    2  C2  UNL     1     -35.780  14.260  -4.586  1.00 20.00    -0.009 C 
HETATM    3  C3  UNL     1     -33.497  13.762  -3.850  1.00 20.00     0.149 C 
HETATM    4  C6  UNL     1     -33.176  15.238  -3.812  1.00 20.00     0.084 C 
HETATM    5  C7  UNL     1     -33.992  16.004  -4.846  1.00 20.00     0.025 C 
HETATM    6  C8  UNL     1     -35.511  15.744  -4.726  1.00 20.00    -0.003 C 
HETATM    7  C11 UNL     1     -36.100  16.474  -3.506  1.00 20.00     0.024 C 
HETATM    8  O12 UNL     1     -32.671  12.912  -3.524  1.00 20.00    -0.293 OA
ENDROOT
BRANCH   6   9
HETATM    9  C5  UNL     1     -36.183  16.287  -5.965  1.00 20.00    -0.076 C 
HETATM   10  C4  UNL     1     -35.804  15.887  -7.194  1.00 20.00    -0.027 C 
HETATM   11  C9  UNL     1     -34.745  14.921  -7.542  1.00 20.00     0.036 C 
HETATM   12  C10 UNL     1     -37.279  17.282  -5.711  1.00 20.00     0.044 C 
ENDBRANCH   6   9
TORSDOF 1
ENDMDL
MODEL 9
REMARK VINA RESULT:      -4.6      2.349      3.844
REMARK  1 active torsions:
REMARK  status: ('A' for Active; 'I' for Inactive)
REMARK    1  A    between atoms: C5_5  and  C8_8 
ROOT
HETATM    1  C1  UNL     1     -34.548  16.254  -1.634  1.00 20.00     0.047 C 
HETATM    2  C2  UNL     1     -35.071  15.573  -2.662  1.00 20.00    -0.009 C 
HETATM    3  C3  UNL     1     -33.794  17.507  -1.870  1.00 20.00     0.149 C 
HETATM    4  C6  UNL     1     -33.710  18.042  -3.281  1.00 20.00     0.084 C 
HETATM    5  C7  UNL     1     -33.716  16.908  -4.299  1.00 20.00     0.025 C 
HETATM    6  C8  UNL     1     -34.912  15.945  -4.121  1.00 20.00    -0.003 C 
HETATM    7  C11 UNL     1     -36.217  16.591  -4.615  1.00 20.00     0.024 C 
HETATM    8  O12 UNL     1     -33.310  18.116  -0.919  1.00 20.00    -0.293 OA
ENDROOT
BRANCH   6   9
HETATM    9  C5  UNL     1     -34.654  14.712  -4.954  1.00 20.00    -0.076 C 
HETATM   10  C4  UNL     1     -34.463  14.798  -6.284  1.00 20.00    -0.027 C 
HETATM   11  C9  UNL     1     -34.468  16.014  -7.121  1.00 20.00     0.036 C 
HETATM   12  C10 UNL     1     -34.631  13.420  -4.188  1.00 20.00     0.044 C 
ENDBRANCH   6   9
TORSDOF 1
ENDMDL
