MODEL 1
REMARK VINA RESULT:      -5.2      0.000      0.000
REMARK  3 active torsions:
REMARK  status: ('A' for Active; 'I' for Inactive)
REMARK    1  A    between atoms: C2_2  and  C8_8 
REMARK    2  A    between atoms: C4_4  and  C7_7 
REMARK    3  A    between atoms: C7_7  and  C8_8 
ROOT
HETATM    1  C7  UNL     1     -33.531   6.003   3.150  1.00 20.00     0.034 C 
ENDROOT
BRANCH   1   2
HETATM    2  C4  UNL     1     -32.174   6.541   3.516  1.00 20.00    -0.030 C 
HETATM    3  C3  UNL     1     -31.619   7.619   2.942  1.00 20.00    -0.035 C 
HETATM    4  C5  UNL     1     -32.277   8.419   1.868  1.00 20.00     0.035 C 
ENDBRANCH   1   2
BRANCH   1   5
HETATM    5  C8  UNL     1     -34.531   6.065   4.321  1.00 20.00     0.007 C 
HETATM    6  C6  UNL     1     -33.821   6.541   5.590  1.00 20.00     0.014 C 
BRANCH   5   7
HETATM    7  C2  UNL     1     -35.166   4.719   4.577  1.00 20.00    -0.032 C 
HETATM    8  C1  UNL     1     -34.984   4.007   5.695  1.00 20.00     0.007 C 
ENDBRANCH   5   7
ENDBRANCH   1   5
TORSDOF 3
ENDMDL
MODEL 2
REMARK VINA RESULT:      -5.2      1.030      2.291
REMARK  3 active torsions:
REMARK  status: ('A' for Active; 'I' for Inactive)
REMARK    1  A    between atoms: C2_2  and  C8_8 
REMARK    2  A    between atoms: C4_4  and  C7_7 
REMARK    3  A    between atoms: C7_7  and  C8_8 
ROOT
HETATM    1  C7  UNL     1     -34.573   5.898   4.011  1.00 20.00     0.034 C 
ENDROOT
BRANCH   1   2
HETATM    2  C4  UNL     1     -33.645   5.548   2.880  1.00 20.00    -0.030 C 
HETATM    3  C3  UNL     1     -32.475   6.165   2.656  1.00 20.00    -0.035 C 
HETATM    4  C5  UNL     1     -31.948   7.277   3.499  1.00 20.00     0.035 C 
ENDBRANCH   1   2
BRANCH   1   5
HETATM    5  C8  UNL     1     -34.211   5.177   5.323  1.00 20.00     0.007 C 
HETATM    6  C6  UNL     1     -35.111   3.953   5.513  1.00 20.00     0.014 C 
BRANCH   5   7
HETATM    7  C2  UNL     1     -34.354   6.092   6.515  1.00 20.00    -0.032 C 
HETATM    8  C1  UNL     1     -33.604   7.182   6.715  1.00 20.00     0.007 C 
ENDBRANCH   5   7
ENDBRANCH   1   5
TORSDOF 3
ENDMDL
MODEL 3
REMARK VINA RESULT:      -5.0      0.789      1.856
REMARK  3 active torsions:
REMARK  status: ('A' for Active; 'I' for Inactive)
REMARK    1  A    between atoms: C2_2  and  C8_8 
REMARK    2  A    between atoms: C4_4  and  C7_7 
REMARK    3  A    between atoms: C7_7  and  C8_8 
ROOT
HETATM    1  C7  UNL     1     -33.764   6.459   3.855  1.00 20.00     0.034 C 
ENDROOT
BRANCH   1   2
HETATM    2  C4  UNL     1     -32.344   6.345   3.371  1.00 20.00    -0.030 C 
HETATM    3  C3  UNL     1     -31.738   7.270   2.610  1.00 20.00    -0.035 C 
HETATM    4  C5  UNL     1     -32.398   8.526   2.148  1.00 20.00     0.035 C 
ENDBRANCH   1   2
BRANCH   1   5
HETATM    5  C8  UNL     1     -34.104   5.428   4.948  1.00 20.00     0.007 C 
HETATM    6  C6  UNL     1     -35.372   4.661   4.566  1.00 20.00     0.014 C 
BRANCH   5   7
HETATM    7  C2  UNL     1     -34.305   6.091   6.290  1.00 20.00    -0.032 C 
HETATM    8  C1  UNL     1     -33.615   7.158   6.707  1.00 20.00     0.007 C 
ENDBRANCH   5   7
ENDBRANCH   1   5
TORSDOF 3
ENDMDL
MODEL 4
REMARK VINA RESULT:      -4.9      0.788      1.055
REMARK  3 active torsions:
REMARK  status: ('A' for Active; 'I' for Inactive)
REMARK    1  A    between atoms: C2_2  and  C8_8 
REMARK    2  A    between atoms: C4_4  and  C7_7 
REMARK    3  A    between atoms: C7_7  and  C8_8 
ROOT
HETATM    1  C7  UNL     1     -34.107   6.481   4.127  1.00 20.00     0.034 C 
ENDROOT
BRANCH   1   2
HETATM    2  C4  UNL     1     -32.701   6.075   3.781  1.00 20.00    -0.030 C 
HETATM    3  C3  UNL     1     -31.891   6.792   2.987  1.00 20.00    -0.035 C 
HETATM    4  C5  UNL     1     -32.286   8.081   2.345  1.00 20.00     0.035 C 
ENDBRANCH   1   2
BRANCH   1   5
HETATM    5  C8  UNL     1     -34.435   6.278   5.619  1.00 20.00     0.007 C 
HETATM    6  C6  UNL     1     -33.442   7.057   6.484  1.00 20.00     0.014 C 
BRANCH   5   7
HETATM    7  C2  UNL     1     -34.393   4.818   6.000  1.00 20.00    -0.032 C 
HETATM    8  C1  UNL     1     -35.087   3.860   5.374  1.00 20.00     0.007 C 
ENDBRANCH   5   7
ENDBRANCH   1   5
TORSDOF 3
ENDMDL
MODEL 5
REMARK VINA RESULT:      -4.8      0.965      4.449
REMARK  3 active torsions:
REMARK  status: ('A' for Active; 'I' for Inactive)
REMARK    1  A    between atoms: C2_2  and  C8_8 
REMARK    2  A    between atoms: C4_4  and  C7_7 
REMARK    3  A    between atoms: C7_7  and  C8_8 
ROOT
HETATM    1  C7  UNL     1     -34.005   6.633   3.867  1.00 20.00     0.034 C 
ENDROOT
BRANCH   1   2
HETATM    2  C4  UNL     1     -34.957   5.472   3.784  1.00 20.00    -0.030 C 
HETATM    3  C3  UNL     1     -35.249   4.670   4.819  1.00 20.00    -0.035 C 
HETATM    4  C5  UNL     1     -34.664   4.828   6.183  1.00 20.00     0.035 C 
ENDBRANCH   1   2
BRANCH   1   5
HETATM    5  C8  UNL     1     -32.904   6.578   2.791  1.00 20.00     0.007 C 
HETATM    6  C6  UNL     1     -31.904   5.468   3.122  1.00 20.00     0.014 C 
BRANCH   5   7
HETATM    7  C2  UNL     1     -32.172   7.894   2.681  1.00 20.00    -0.032 C 
HETATM    8  C1  UNL     1     -32.043   8.585   1.542  1.00 20.00     0.007 C 
ENDBRANCH   5   7
ENDBRANCH   1   5
TORSDOF 3
ENDMDL
MODEL 6
REMARK VINA RESULT:      -4.3      0.993      3.782
REMARK  3 active torsions:
REMARK  status: ('A' for Active; 'I' for Inactive)
REMARK    1  A    between atoms: C2_2  and  C8_8 
REMARK    2  A    between atoms: C4_4  and  C7_7 
REMARK    3  A    between atoms: C7_7  and  C8_8 
ROOT
HETATM    1  C7  UNL     1     -33.992   6.764   4.697  1.00 20.00     0.034 C 
ENDROOT
BRANCH   1   2
HETATM    2  C4  UNL     1     -33.977   6.288   6.124  1.00 20.00    -0.030 C 
HETATM    3  C3  UNL     1     -34.458   5.100   6.519  1.00 20.00    -0.035 C 
HETATM    4  C5  UNL     1     -35.069   4.102   5.593  1.00 20.00     0.035 C 
ENDBRANCH   1   2
BRANCH   1   5
HETATM    5  C8  UNL     1     -32.774   6.270   3.893  1.00 20.00     0.007 C 
HETATM    6  C6  UNL     1     -31.915   7.460   3.460  1.00 20.00     0.014 C 
BRANCH   5   7
HETATM    7  C2  UNL     1     -33.198   5.488   2.672  1.00 20.00    -0.032 C 
HETATM    8  C1  UNL     1     -34.472   5.274   2.327  1.00 20.00     0.007 C 
ENDBRANCH   5   7
ENDBRANCH   1   5
TORSDOF 3
ENDMDL
MODEL 7
REMARK VINA RESULT:      -4.3      1.009      4.125
REMARK  3 active torsions:
REMARK  status: ('A' for Active; 'I' for Inactive)
REMARK    1  A    between atoms: C2_2  and  C8_8 
REMARK    2  A    between atoms: C4_4  and  C7_7 
REMARK    3  A    between atoms: C7_7  and  C8_8 
ROOT
HETATM    1  C7  UNL     1     -35.285   5.733   3.795  1.00 20.00     0.034 C 
ENDROOT
BRANCH   1   2
HETATM    2  C4  UNL     1     -35.143   4.467   4.595  1.00 20.00    -0.030 C 
HETATM    3  C3  UNL     1     -34.806   4.438   5.893  1.00 20.00    -0.035 C 
HETATM    4  C5  UNL     1     -34.528   5.658   6.706  1.00 20.00     0.035 C 
ENDBRANCH   1   2
BRANCH   1   5
HETATM    5  C8  UNL     1     -34.078   5.992   2.873  1.00 20.00     0.007 C 
HETATM    6  C6  UNL     1     -33.740   4.725   2.085  1.00 20.00     0.014 C 
BRANCH   5   7
HETATM    7  C2  UNL     1     -32.866   6.431   3.659  1.00 20.00    -0.032 C 
HETATM    8  C1  UNL     1     -31.940   7.278   3.194  1.00 20.00     0.007 C 
ENDBRANCH   5   7
ENDBRANCH   1   5
TORSDOF 3
ENDMDL
MODEL 8
REMARK VINA RESULT:      -4.2      1.050      1.979
REMARK  3 active torsions:
REMARK  status: ('A' for Active; 'I' for Inactive)
REMARK    1  A    between atoms: C2_2  and  C8_8 
REMARK    2  A    between atoms: C4_4  and  C7_7 
REMARK    3  A    between atoms: C7_7  and  C8_8 
ROOT
HETATM    1  C7  UNL     1     -32.346   7.483   3.430  1.00 20.00     0.034 C 
ENDROOT
BRANCH   1   2
HETATM    2  C4  UNL     1     -31.933   7.487   1.984  1.00 20.00    -0.030 C 
HETATM    3  C3  UNL     1     -31.979   8.573   1.197  1.00 20.00    -0.035 C 
HETATM    4  C5  UNL     1     -32.448   9.912   1.659  1.00 20.00     0.035 C 
ENDBRANCH   1   2
BRANCH   1   5
HETATM    5  C8  UNL     1     -33.070   6.186   3.838  1.00 20.00     0.007 C 
HETATM    6  C6  UNL     1     -34.142   5.837   2.802  1.00 20.00     0.014 C 
BRANCH   5   7
HETATM    7  C2  UNL     1     -33.713   6.316   5.198  1.00 20.00    -0.032 C 
HETATM    8  C1  UNL     1     -34.560   5.418   5.714  1.00 20.00     0.007 C 
ENDBRANCH   5   7
ENDBRANCH   1   5
TORSDOF 3
ENDMDL
MODEL 9
REMARK VINA RESULT:      -4.0     10.870     11.840
REMARK  3 active torsions:
REMARK  status: ('A' for Active; 'I' for Inactive)
REMARK    1  A    between atoms: C2_2  and  C8_8 
REMARK    2  A    between atoms: C4_4  and  C7_7 
REMARK    3  A    between atoms: C7_7  and  C8_8 
ROOT
HETATM    1  C7  UNL     1     -34.944  15.227  -3.024  1.00 20.00     0.034 C 
ENDROOT
BRANCH   1   2
HETATM    2  C4  UNL     1     -33.849  16.218  -2.738  1.00 20.00    -0.030 C 
HETATM    3  C3  UNL     1     -33.762  16.927  -1.603  1.00 20.00    -0.035 C 
HETATM    4  C5  UNL     1     -34.743  16.823  -0.482  1.00 20.00     0.035 C 
ENDBRANCH   1   2
BRANCH   1   5
HETATM    5  C8  UNL     1     -34.405  13.863  -3.495  1.00 20.00     0.007 C 
HETATM    6  C6  UNL     1     -32.877  13.906  -3.582  1.00 20.00     0.014 C 
BRANCH   5   7
HETATM    7  C2  UNL     1     -34.972  13.478  -4.840  1.00 20.00    -0.032 C 
HETATM    8  C1  UNL     1     -34.876  14.237  -5.937  1.00 20.00     0.007 C 
ENDBRANCH   5   7
ENDBRANCH   1   5
TORSDOF 3
ENDMDL
