MODEL 1
REMARK VINA RESULT:      -4.2      0.000      0.000
REMARK  2 active torsions:
REMARK  status: ('A' for Active; 'I' for Inactive)
REMARK    1  A    between atoms: C1_1  and  C4_4 
REMARK    2  A    between atoms: C4_4  and  C6_6 
ROOT
HETATM    1  C2  UNL     1     -34.413  15.441  -5.682  1.00 20.00     0.062 A 
HETATM    2  C3  UNL     1     -33.276  15.800  -4.782  1.00 20.00     0.190 A 
HETATM    3  C4  UNL     1     -34.413  14.968  -4.241  1.00 20.00     0.081 A 
HETATM    4  F9  UNL     1     -33.176  17.119  -4.374  1.00 20.00    -0.248 F 
ENDROOT
BRANCH   3   5
HETATM    5  C1  UNL     1     -34.128  13.555  -4.027  1.00 20.00     0.184 C 
HETATM    6  O7  UNL     1     -32.958  13.294  -3.633  1.00 20.00    -0.647 OA
HETATM    7  O8  UNL     1     -35.095  12.778  -4.264  1.00 20.00    -0.647 OA
ENDBRANCH   3   5
BRANCH   3   8
HETATM    8  C6  UNL     1     -35.379  15.635  -3.297  1.00 20.00     0.019 C 
HETATM    9  C5  UNL     1     -34.768  15.915  -1.955  1.00 20.00     0.006 C 
ENDBRANCH   3   8
TORSDOF 2
ENDMDL
MODEL 2
REMARK VINA RESULT:      -4.2      1.187      2.689
REMARK  2 active torsions:
REMARK  status: ('A' for Active; 'I' for Inactive)
REMARK    1  A    between atoms: C1_1  and  C4_4 
REMARK    2  A    between atoms: C4_4  and  C6_6 
ROOT
HETATM    1  C2  UNL     1     -34.580  15.483  -2.581  1.00 20.00     0.062 A 
HETATM    2  C3  UNL     1     -35.768  15.280  -3.463  1.00 20.00     0.190 A 
HETATM    3  C4  UNL     1     -34.400  14.884  -3.962  1.00 20.00     0.081 A 
HETATM    4  F9  UNL     1     -36.363  16.407  -4.003  1.00 20.00    -0.248 F 
ENDROOT
BRANCH   3   5
HETATM    5  C1  UNL     1     -34.125  13.453  -4.013  1.00 20.00     0.184 C 
HETATM    6  O7  UNL     1     -35.113  12.723  -4.303  1.00 20.00    -0.647 OA
HETATM    7  O8  UNL     1     -32.930  13.135  -3.760  1.00 20.00    -0.647 OA
ENDBRANCH   3   5
BRANCH   3   8
HETATM    8  C6  UNL     1     -33.761  15.754  -5.014  1.00 20.00     0.019 C 
HETATM    9  C5  UNL     1     -34.250  15.434  -6.397  1.00 20.00     0.006 C 
ENDBRANCH   3   8
TORSDOF 2
ENDMDL
MODEL 3
REMARK VINA RESULT:      -4.2     12.379     13.281
REMARK  2 active torsions:
REMARK  status: ('A' for Active; 'I' for Inactive)
REMARK    1  A    between atoms: C1_1  and  C4_4 
REMARK    2  A    between atoms: C4_4  and  C6_6 
ROOT
HETATM    1  C2  UNL     1     -33.641   4.894   6.337  1.00 20.00     0.062 A 
HETATM    2  C3  UNL     1     -34.562   6.058   6.505  1.00 20.00     0.190 A 
HETATM    3  C4  UNL     1     -34.197   5.600   5.115  1.00 20.00     0.081 A 
HETATM    4  F9  UNL     1     -34.016   7.242   6.970  1.00 20.00    -0.248 F 
ENDROOT
BRANCH   3   5
HETATM    5  C1  UNL     1     -35.236   4.892   4.378  1.00 20.00     0.184 C 
HETATM    6  O7  UNL     1     -35.248   3.639   4.531  1.00 20.00    -0.647 OA
HETATM    7  O8  UNL     1     -35.989   5.629   3.684  1.00 20.00    -0.647 OA
ENDBRANCH   3   5
BRANCH   3   8
HETATM    8  C6  UNL     1     -33.245   6.459   4.323  1.00 20.00     0.019 C 
HETATM    9  C5  UNL     1     -32.818   5.808   3.040  1.00 20.00     0.006 C 
ENDBRANCH   3   8
TORSDOF 2
ENDMDL
MODEL 4
REMARK VINA RESULT:      -4.1     11.943     12.768
REMARK  2 active torsions:
REMARK  status: ('A' for Active; 'I' for Inactive)
REMARK    1  A    between atoms: C1_1  and  C4_4 
REMARK    2  A    between atoms: C4_4  and  C6_6 
ROOT
HETATM    1  C2  UNL     1     -35.741   5.763   3.778  1.00 20.00     0.062 A 
HETATM    2  C3  UNL     1     -34.655   4.783   3.476  1.00 20.00     0.190 A 
HETATM    3  C4  UNL     1     -34.361   5.957   4.378  1.00 20.00     0.081 A 
HETATM    4  F9  UNL     1     -34.127   4.791   2.196  1.00 20.00    -0.248 F 
ENDROOT
BRANCH   3   5
HETATM    5  C1  UNL     1     -34.228   5.657   5.798  1.00 20.00     0.184 C 
HETATM    6  O7  UNL     1     -34.292   4.433   6.099  1.00 20.00    -0.647 OA
HETATM    7  O8  UNL     1     -34.064   6.666   6.539  1.00 20.00    -0.647 OA
ENDBRANCH   3   5
BRANCH   3   8
HETATM    8  C6  UNL     1     -33.517   7.074   3.819  1.00 20.00     0.019 C 
HETATM    9  C5  UNL     1     -32.129   6.623   3.469  1.00 20.00     0.006 C 
ENDBRANCH   3   8
TORSDOF 2
ENDMDL
MODEL 5
REMARK VINA RESULT:      -3.9      1.800      2.262
REMARK  2 active torsions:
REMARK  status: ('A' for Active; 'I' for Inactive)
REMARK    1  A    between atoms: C1_1  and  C4_4 
REMARK    2  A    between atoms: C4_4  and  C6_6 
ROOT
HETATM    1  C2  UNL     1     -36.028  15.306  -6.323  1.00 20.00     0.062 A 
HETATM    2  C3  UNL     1     -34.723  14.604  -6.512  1.00 20.00     0.190 A 
HETATM    3  C4  UNL     1     -35.216  14.882  -5.114  1.00 20.00     0.081 A 
HETATM    4  F9  UNL     1     -33.661  15.349  -6.994  1.00 20.00    -0.248 F 
ENDROOT
BRANCH   3   5
HETATM    5  C1  UNL     1     -35.720  13.734  -4.370  1.00 20.00     0.184 C 
HETATM    6  O7  UNL     1     -36.780  13.938  -3.716  1.00 20.00    -0.647 OA
HETATM    7  O8  UNL     1     -35.026  12.685  -4.481  1.00 20.00    -0.647 OA
ENDBRANCH   3   5
BRANCH   3   8
HETATM    8  C6  UNL     1     -34.525  15.969  -4.332  1.00 20.00     0.019 C 
HETATM    9  C5  UNL     1     -33.293  15.475  -3.630  1.00 20.00     0.006 C 
ENDBRANCH   3   8
TORSDOF 2
ENDMDL
MODEL 6
REMARK VINA RESULT:      -3.9      1.512      2.682
REMARK  2 active torsions:
REMARK  status: ('A' for Active; 'I' for Inactive)
REMARK    1  A    between atoms: C1_1  and  C4_4 
REMARK    2  A    between atoms: C4_4  and  C6_6 
ROOT
HETATM    1  C2  UNL     1     -33.821  15.498  -3.992  1.00 20.00     0.062 A 
HETATM    2  C3  UNL     1     -35.119  16.174  -4.292  1.00 20.00     0.190 A 
HETATM    3  C4  UNL     1     -34.825  14.831  -4.913  1.00 20.00     0.081 A 
HETATM    4  F9  UNL     1     -35.083  17.295  -5.104  1.00 20.00    -0.248 F 
ENDROOT
BRANCH   3   5
HETATM    5  C1  UNL     1     -35.551  13.694  -4.359  1.00 20.00     0.184 C 
HETATM    6  O7  UNL     1     -34.941  12.590  -4.405  1.00 20.00    -0.647 OA
HETATM    7  O8  UNL     1     -36.697  13.968  -3.906  1.00 20.00    -0.647 OA
ENDBRANCH   3   5
BRANCH   3   8
HETATM    8  C6  UNL     1     -34.495  14.797  -6.383  1.00 20.00     0.019 C 
HETATM    9  C5  UNL     1     -35.705  14.547  -7.235  1.00 20.00     0.006 C 
ENDBRANCH   3   8
TORSDOF 2
ENDMDL
MODEL 7
REMARK VINA RESULT:      -3.9      1.153      1.370
REMARK  2 active torsions:
REMARK  status: ('A' for Active; 'I' for Inactive)
REMARK    1  A    between atoms: C1_1  and  C4_4 
REMARK    2  A    between atoms: C4_4  and  C6_6 
ROOT
HETATM    1  C2  UNL     1     -35.070  15.657  -5.774  1.00 20.00     0.062 A 
HETATM    2  C3  UNL     1     -33.856  15.173  -5.051  1.00 20.00     0.190 A 
HETATM    3  C4  UNL     1     -35.183  15.201  -4.332  1.00 20.00     0.081 A 
HETATM    4  F9  UNL     1     -32.902  16.114  -4.705  1.00 20.00    -0.248 F 
ENDROOT
BRANCH   3   5
HETATM    5  C1  UNL     1     -35.821  13.909  -4.113  1.00 20.00     0.184 C 
HETATM    6  O7  UNL     1     -35.061  12.907  -4.219  1.00 20.00    -0.647 OA
HETATM    7  O8  UNL     1     -37.053  13.966  -3.844  1.00 20.00    -0.647 OA
ENDBRANCH   3   5
BRANCH   3   8
HETATM    8  C6  UNL     1     -35.388  16.266  -3.286  1.00 20.00     0.019 C 
HETATM    9  C5  UNL     1     -34.711  15.933  -1.989  1.00 20.00     0.006 C 
ENDBRANCH   3   8
TORSDOF 2
ENDMDL
MODEL 8
REMARK VINA RESULT:      -3.8      1.756      2.208
REMARK  2 active torsions:
REMARK  status: ('A' for Active; 'I' for Inactive)
REMARK    1  A    between atoms: C1_1  and  C4_4 
REMARK    2  A    between atoms: C4_4  and  C6_6 
ROOT
HETATM    1  C2  UNL     1     -33.671  15.673  -4.330  1.00 20.00     0.062 A 
HETATM    2  C3  UNL     1     -34.127  14.834  -3.182  1.00 20.00     0.190 A 
HETATM    3  C4  UNL     1     -34.978  14.909  -4.425  1.00 20.00     0.081 A 
HETATM    4  F9  UNL     1     -34.565  15.492  -2.045  1.00 20.00    -0.248 F 
ENDROOT
BRANCH   3   5
HETATM    5  C1  UNL     1     -34.974  13.728  -5.279  1.00 20.00     0.184 C 
HETATM    6  O7  UNL     1     -34.773  12.633  -4.683  1.00 20.00    -0.647 OA
HETATM    7  O8  UNL     1     -35.172  13.958  -6.504  1.00 20.00    -0.647 OA
ENDBRANCH   3   5
BRANCH   3   8
HETATM    8  C6  UNL     1     -36.252  15.712  -4.353  1.00 20.00     0.019 C 
HETATM    9  C5  UNL     1     -37.404  14.911  -3.819  1.00 20.00     0.006 C 
ENDBRANCH   3   8
TORSDOF 2
ENDMDL
MODEL 9
REMARK VINA RESULT:      -3.8      1.733      2.367
REMARK  2 active torsions:
REMARK  status: ('A' for Active; 'I' for Inactive)
REMARK    1  A    between atoms: C1_1  and  C4_4 
REMARK    2  A    between atoms: C4_4  and  C6_6 
ROOT
HETATM    1  C2  UNL     1     -36.925  14.799  -3.788  1.00 20.00     0.062 A 
HETATM    2  C3  UNL     1     -36.300  15.843  -4.654  1.00 20.00     0.190 A 
HETATM    3  C4  UNL     1     -35.450  14.711  -4.131  1.00 20.00     0.081 A 
HETATM    4  F9  UNL     1     -36.123  17.103  -4.109  1.00 20.00    -0.248 F 
ENDROOT
BRANCH   3   5
HETATM    5  C1  UNL     1     -35.074  13.690  -5.100  1.00 20.00     0.184 C 
HETATM    6  O7  UNL     1     -35.010  14.080  -6.298  1.00 20.00    -0.647 OA
HETATM    7  O8  UNL     1     -34.860  12.547  -4.608  1.00 20.00    -0.647 OA
ENDBRANCH   3   5
BRANCH   3   8
HETATM    8  C6  UNL     1     -34.467  15.026  -3.032  1.00 20.00     0.019 C 
HETATM    9  C5  UNL     1     -33.122  15.423  -3.565  1.00 20.00     0.006 C 
ENDBRANCH   3   8
TORSDOF 2
ENDMDL
