MODEL 1
REMARK VINA RESULT:      -3.9      0.000      0.000
REMARK  0 active torsions:
REMARK  status: ('A' for Active; 'I' for Inactive)
ROOT
HETATM    1  C1  UNL     1     -33.540   5.837   3.868  1.00 20.00     0.001 C 
HETATM    2  C2  UNL     1     -34.034   5.689   5.107  1.00 20.00     0.076 C 
HETATM    3  C3  UNL     1     -32.691   6.953   3.348  1.00 20.00     0.038 C 
HETATM    4 CL4  UNL     1     -33.744   6.840   6.369  1.00 20.00    -0.076 Cl
HETATM    5 BR5  UNL     1     -35.087   4.211   5.569  1.00 20.00    -0.038 Br
ENDROOT
TORSDOF 0
ENDMDL
MODEL 2
REMARK VINA RESULT:      -3.8      2.089      2.810
REMARK  0 active torsions:
REMARK  status: ('A' for Active; 'I' for Inactive)
ROOT
HETATM    1  C1  UNL     1     -34.487   4.907   4.843  1.00 20.00     0.001 C 
HETATM    2  C2  UNL     1     -33.774   6.040   4.937  1.00 20.00     0.076 C 
HETATM    3  C3  UNL     1     -35.260   4.219   5.923  1.00 20.00     0.038 C 
HETATM    4 CL4  UNL     1     -33.635   6.933   6.414  1.00 20.00    -0.076 Cl
HETATM    5 BR5  UNL     1     -32.867   6.749   3.460  1.00 20.00    -0.038 Br
ENDROOT
TORSDOF 0
ENDMDL
MODEL 3
REMARK VINA RESULT:      -3.7      2.751      3.283
REMARK  0 active torsions:
REMARK  status: ('A' for Active; 'I' for Inactive)
ROOT
HETATM    1  C1  UNL     1     -33.649   6.260   5.467  1.00 20.00     0.001 C 
HETATM    2  C2  UNL     1     -33.643   6.159   4.129  1.00 20.00     0.076 C 
HETATM    3  C3  UNL     1     -34.619   5.650   6.428  1.00 20.00     0.038 C 
HETATM    4 CL4  UNL     1     -34.832   5.248   3.259  1.00 20.00    -0.076 Cl
HETATM    5 BR5  UNL     1     -32.334   7.003   3.091  1.00 20.00    -0.038 Br
ENDROOT
TORSDOF 0
ENDMDL
MODEL 4
REMARK VINA RESULT:      -3.7      1.855      1.855
REMARK  0 active torsions:
REMARK  status: ('A' for Active; 'I' for Inactive)
ROOT
HETATM    1  C1  UNL     1     -32.933   6.518   4.208  1.00 20.00     0.001 C 
HETATM    2  C2  UNL     1     -34.094   5.924   4.524  1.00 20.00     0.076 C 
HETATM    3  C3  UNL     1     -32.472   6.968   2.859  1.00 20.00     0.038 C 
HETATM    4 CL4  UNL     1     -35.310   5.569   3.343  1.00 20.00    -0.076 Cl
HETATM    5 BR5  UNL     1     -34.491   5.429   6.285  1.00 20.00    -0.038 Br
ENDROOT
TORSDOF 0
ENDMDL
MODEL 5
REMARK VINA RESULT:      -3.4      1.822      2.363
REMARK  0 active torsions:
REMARK  status: ('A' for Active; 'I' for Inactive)
ROOT
HETATM    1  C1  UNL     1     -34.133   6.327   6.375  1.00 20.00     0.001 C 
HETATM    2  C2  UNL     1     -34.117   5.825   5.131  1.00 20.00     0.076 C 
HETATM    3  C3  UNL     1     -33.326   7.465   6.914  1.00 20.00     0.038 C 
HETATM    4 CL4  UNL     1     -33.096   6.459   3.884  1.00 20.00    -0.076 Cl
HETATM    5 BR5  UNL     1     -35.209   4.383   4.645  1.00 20.00    -0.038 Br
ENDROOT
TORSDOF 0
ENDMDL
MODEL 6
REMARK VINA RESULT:      -3.4      2.095      2.229
REMARK  0 active torsions:
REMARK  status: ('A' for Active; 'I' for Inactive)
ROOT
HETATM    1  C1  UNL     1     -33.999   6.086   3.960  1.00 20.00     0.001 C 
HETATM    2  C2  UNL     1     -34.226   5.745   5.238  1.00 20.00     0.076 C 
HETATM    3  C3  UNL     1     -34.299   5.286   2.732  1.00 20.00     0.038 C 
HETATM    4 CL4  UNL     1     -34.947   4.235   5.685  1.00 20.00    -0.076 Cl
HETATM    5 BR5  UNL     1     -33.775   6.890   6.649  1.00 20.00    -0.038 Br
ENDROOT
TORSDOF 0
ENDMDL
MODEL 7
REMARK VINA RESULT:      -3.3      2.540      3.052
REMARK  0 active torsions:
REMARK  status: ('A' for Active; 'I' for Inactive)
ROOT
HETATM    1  C1  UNL     1     -34.671   5.031   6.048  1.00 20.00     0.001 C 
HETATM    2  C2  UNL     1     -34.008   6.129   5.653  1.00 20.00     0.076 C 
HETATM    3  C3  UNL     1     -35.173   3.909   5.196  1.00 20.00     0.038 C 
HETATM    4 CL4  UNL     1     -33.606   6.428   3.996  1.00 20.00    -0.076 Cl
HETATM    5 BR5  UNL     1     -33.460   7.433   6.880  1.00 20.00    -0.038 Br
ENDROOT
TORSDOF 0
ENDMDL
MODEL 8
REMARK VINA RESULT:      -2.9     12.186     12.311
REMARK  0 active torsions:
REMARK  status: ('A' for Active; 'I' for Inactive)
ROOT
HETATM    1  C1  UNL     1     -34.837  15.506  -2.473  1.00 20.00     0.001 C 
HETATM    2  C2  UNL     1     -34.191  14.729  -3.356  1.00 20.00     0.076 C 
HETATM    3  C3  UNL     1     -34.258  16.567  -1.591  1.00 20.00     0.038 C 
HETATM    4 CL4  UNL     1     -32.484  14.846  -3.625  1.00 20.00    -0.076 Cl
HETATM    5 BR5  UNL     1     -35.097  13.446  -4.375  1.00 20.00    -0.038 Br
ENDROOT
TORSDOF 0
ENDMDL
MODEL 9
REMARK VINA RESULT:      -2.8     12.453     12.642
REMARK  0 active torsions:
REMARK  status: ('A' for Active; 'I' for Inactive)
ROOT
HETATM    1  C1  UNL     1     -34.564  14.163  -3.443  1.00 20.00     0.001 C 
HETATM    2  C2  UNL     1     -34.116  15.411  -3.237  1.00 20.00     0.076 C 
HETATM    3  C3  UNL     1     -34.316  13.285  -4.628  1.00 20.00     0.038 C 
HETATM    4 CL4  UNL     1     -33.122  16.245  -4.384  1.00 20.00    -0.076 Cl
HETATM    5 BR5  UNL     1     -34.538  16.356  -1.676  1.00 20.00    -0.038 Br
ENDROOT
TORSDOF 0
ENDMDL
