MODEL 1
REMARK VINA RESULT:      -4.9      0.000      0.000
REMARK  1 active torsions:
REMARK  status: ('A' for Active; 'I' for Inactive)
REMARK    1  A    between atoms: C3_3  and  C8_8 
ROOT
HETATM    1  C1  UNL     1     -34.565  16.558  -0.822  1.00 20.00     0.022 A 
HETATM    2  C2  UNL     1     -33.872  17.494  -2.834  1.00 20.00     0.057 A 
HETATM    3  C3  UNL     1     -34.410  16.379  -2.227  1.00 20.00    -0.045 A 
HETATM    4  C4  UNL     1     -34.141  17.802  -0.408  1.00 20.00    -0.021 A 
HETATM    5  C10 UNL     1     -34.139  18.366   0.959  1.00 20.00     0.056 C 
HETATM    6  S11 UNL     1     -33.559  18.748  -1.711  1.00 20.00    -0.106 SA
ENDROOT
BRANCH   3   7
HETATM    7  C8  UNL     1     -34.789  15.116  -2.964  1.00 20.00     0.033 C 
HETATM    8  C6  UNL     1     -33.586  14.371  -3.555  1.00 20.00     0.010 C 
HETATM    9  C5  UNL     1     -34.175  13.455  -4.628  1.00 20.00     0.002 C 
HETATM   10  C7  UNL     1     -35.577  13.985  -4.932  1.00 20.00     0.016 C 
HETATM   11  C9  UNL     1     -35.678  15.313  -4.193  1.00 20.00     0.066 C 
HETATM   12 BR12 UNL     1     -37.515  15.692  -3.699  1.00 20.00    -0.090 Br
ENDBRANCH   3   7
TORSDOF 1
ENDMDL
MODEL 2
REMARK VINA RESULT:      -4.5      2.225      5.332
REMARK  1 active torsions:
REMARK  status: ('A' for Active; 'I' for Inactive)
REMARK    1  A    between atoms: C3_3  and  C8_8 
ROOT
HETATM    1  C1  UNL     1     -34.042  16.637  -1.522  1.00 20.00     0.022 A 
HETATM    2  C2  UNL     1     -33.667  18.599  -2.711  1.00 20.00     0.057 A 
HETATM    3  C3  UNL     1     -33.727  18.026  -1.460  1.00 20.00    -0.045 A 
HETATM    4  C4  UNL     1     -34.211  16.203  -2.818  1.00 20.00    -0.021 A 
HETATM    5  C10 UNL     1     -34.542  14.843  -3.298  1.00 20.00     0.056 C 
HETATM    6  S11 UNL     1     -33.990  17.465  -3.953  1.00 20.00    -0.106 SA
ENDROOT
BRANCH   3   7
HETATM    7  C8  UNL     1     -33.487  18.779  -0.172  1.00 20.00     0.033 C 
HETATM    8  C6  UNL     1     -32.003  18.888   0.202  1.00 20.00     0.010 C 
HETATM    9  C5  UNL     1     -31.994  19.213   1.695  1.00 20.00     0.002 C 
HETATM   10  C7  UNL     1     -33.384  18.862   2.227  1.00 20.00     0.016 C 
HETATM   11  C9  UNL     1     -34.086  18.142   1.083  1.00 20.00     0.066 C 
HETATM   12 BR12 UNL     1     -36.006  18.404   1.176  1.00 20.00    -0.090 Br
ENDBRANCH   3   7
TORSDOF 1
ENDMDL
MODEL 3
REMARK VINA RESULT:      -4.5      1.428      1.569
REMARK  1 active torsions:
REMARK  status: ('A' for Active; 'I' for Inactive)
REMARK    1  A    between atoms: C3_3  and  C8_8 
ROOT
HETATM    1  C1  UNL     1     -33.884  16.630  -2.020  1.00 20.00     0.022 A 
HETATM    2  C2  UNL     1     -36.122  17.201  -2.289  1.00 20.00     0.057 A 
HETATM    3  C3  UNL     1     -35.112  16.353  -2.689  1.00 20.00    -0.045 A 
HETATM    4  C4  UNL     1     -34.003  17.679  -1.134  1.00 20.00    -0.021 A 
HETATM    5  C10 UNL     1     -32.966  18.264  -0.257  1.00 20.00     0.056 C 
HETATM    6  S11 UNL     1     -35.589  18.324  -1.111  1.00 20.00    -0.106 SA
ENDROOT
BRANCH   3   7
HETATM    7  C8  UNL     1     -35.283  15.259  -3.717  1.00 20.00     0.033 C 
HETATM    8  C6  UNL     1     -34.429  14.017  -3.431  1.00 20.00     0.010 C 
HETATM    9  C5  UNL     1     -34.353  13.274  -4.764  1.00 20.00     0.002 C 
HETATM   10  C7  UNL     1     -34.764  14.274  -5.846  1.00 20.00     0.016 C 
HETATM   11  C9  UNL     1     -34.854  15.620  -5.140  1.00 20.00     0.066 C 
HETATM   12 BR12 UNL     1     -36.150  16.772  -6.010  1.00 20.00    -0.090 Br
ENDBRANCH   3   7
TORSDOF 1
ENDMDL
MODEL 4
REMARK VINA RESULT:      -4.4      2.660      5.103
REMARK  1 active torsions:
REMARK  status: ('A' for Active; 'I' for Inactive)
REMARK    1  A    between atoms: C3_3  and  C8_8 
ROOT
HETATM    1  C1  UNL     1     -34.294  15.976  -5.053  1.00 20.00     0.022 A 
HETATM    2  C2  UNL     1     -34.366  14.325  -3.418  1.00 20.00     0.057 A 
HETATM    3  C3  UNL     1     -34.205  15.671  -3.664  1.00 20.00    -0.045 A 
HETATM    4  C4  UNL     1     -34.521  14.851  -5.816  1.00 20.00    -0.021 A 
HETATM    5  C10 UNL     1     -34.675  14.750  -7.283  1.00 20.00     0.056 C 
HETATM    6  S11 UNL     1     -34.625  13.436  -4.858  1.00 20.00    -0.106 SA
ENDROOT
BRANCH   3   7
HETATM    7  C8  UNL     1     -33.961  16.704  -2.588  1.00 20.00     0.033 C 
HETATM    8  C6  UNL     1     -34.568  16.326  -1.232  1.00 20.00     0.010 C 
HETATM    9  C5  UNL     1     -34.655  17.639  -0.456  1.00 20.00     0.002 C 
HETATM   10  C7  UNL     1     -34.522  18.763  -1.485  1.00 20.00     0.016 C 
HETATM   11  C9  UNL     1     -34.583  18.079  -2.844  1.00 20.00     0.066 C 
HETATM   12 BR12 UNL     1     -33.585  19.084  -4.170  1.00 20.00    -0.090 Br
ENDBRANCH   3   7
TORSDOF 1
ENDMDL
MODEL 5
REMARK VINA RESULT:      -4.4      1.358      1.489
REMARK  1 active torsions:
REMARK  status: ('A' for Active; 'I' for Inactive)
REMARK    1  A    between atoms: C3_3  and  C8_8 
ROOT
HETATM    1  C1  UNL     1     -34.854  16.207  -1.896  1.00 20.00     0.022 A 
HETATM    2  C2  UNL     1     -33.865  17.742  -3.335  1.00 20.00     0.057 A 
HETATM    3  C3  UNL     1     -34.457  16.502  -3.233  1.00 20.00    -0.045 A 
HETATM    4  C4  UNL     1     -34.550  17.233  -1.028  1.00 20.00    -0.021 A 
HETATM    5  C10 UNL     1     -34.800  17.311   0.428  1.00 20.00     0.056 C 
HETATM    6  S11 UNL     1     -33.790  18.545  -1.824  1.00 20.00    -0.106 SA
ENDROOT
BRANCH   3   7
HETATM    7  C8  UNL     1     -34.662  15.564  -4.399  1.00 20.00     0.033 C 
HETATM    8  C6  UNL     1     -33.710  15.834  -5.572  1.00 20.00     0.010 C 
HETATM    9  C5  UNL     1     -34.368  15.164  -6.777  1.00 20.00     0.002 C 
HETATM   10  C7  UNL     1     -35.829  14.917  -6.397  1.00 20.00     0.016 C 
HETATM   11  C9  UNL     1     -36.032  15.645  -5.075  1.00 20.00     0.066 C 
HETATM   12 BR12 UNL     1     -37.408  14.781  -4.015  1.00 20.00    -0.090 Br
ENDBRANCH   3   7
TORSDOF 1
ENDMDL
MODEL 6
REMARK VINA RESULT:      -4.4      1.683      2.091
REMARK  1 active torsions:
REMARK  status: ('A' for Active; 'I' for Inactive)
REMARK    1  A    between atoms: C3_3  and  C8_8 
ROOT
HETATM    1  C1  UNL     1     -34.826  16.915  -0.739  1.00 20.00     0.022 A 
HETATM    2  C2  UNL     1     -33.773  18.206  -2.360  1.00 20.00     0.057 A 
HETATM    3  C3  UNL     1     -34.534  17.083  -2.124  1.00 20.00    -0.045 A 
HETATM    4  C4  UNL     1     -34.277  17.917   0.031  1.00 20.00    -0.021 A 
HETATM    5  C10 UNL     1     -34.354  18.099   1.496  1.00 20.00     0.056 C 
HETATM    6  S11 UNL     1     -33.414  19.053  -0.915  1.00 20.00    -0.106 SA
ENDROOT
BRANCH   3   7
HETATM    7  C8  UNL     1     -35.005  16.138  -3.205  1.00 20.00     0.033 C 
HETATM    8  C6  UNL     1     -36.523  15.916  -3.201  1.00 20.00     0.010 C 
HETATM    9  C5  UNL     1     -36.736  14.622  -3.984  1.00 20.00     0.002 C 
HETATM   10  C7  UNL     1     -35.380  13.916  -4.039  1.00 20.00     0.016 C 
HETATM   11  C9  UNL     1     -34.473  14.707  -3.105  1.00 20.00     0.066 C 
HETATM   12 BR12 UNL     1     -32.622  14.587  -3.673  1.00 20.00    -0.090 Br
ENDBRANCH   3   7
TORSDOF 1
ENDMDL
MODEL 7
REMARK VINA RESULT:      -4.3      2.150      2.630
REMARK  1 active torsions:
REMARK  status: ('A' for Active; 'I' for Inactive)
REMARK    1  A    between atoms: C3_3  and  C8_8 
ROOT
HETATM    1  C1  UNL     1     -34.434  16.134  -2.954  1.00 20.00     0.022 A 
HETATM    2  C2  UNL     1     -33.696  18.028  -4.082  1.00 20.00     0.057 A 
HETATM    3  C3  UNL     1     -34.066  16.707  -4.207  1.00 20.00    -0.045 A 
HETATM    4  C4  UNL     1     -34.332  17.040  -1.921  1.00 20.00    -0.021 A 
HETATM    5  C10 UNL     1     -34.621  16.834  -0.485  1.00 20.00     0.056 C 
HETATM    6  S11 UNL     1     -33.794  18.573  -2.461  1.00 20.00    -0.106 SA
ENDROOT
BRANCH   3   7
HETATM    7  C8  UNL     1     -34.081  15.952  -5.515  1.00 20.00     0.033 C 
HETATM    8  C6  UNL     1     -34.449  16.828  -6.719  1.00 20.00     0.010 C 
HETATM    9  C5  UNL     1     -34.884  15.846  -7.806  1.00 20.00     0.002 C 
HETATM   10  C7  UNL     1     -35.173  14.518  -7.104  1.00 20.00     0.016 C 
HETATM   11  C9  UNL     1     -35.111  14.826  -5.613  1.00 20.00     0.066 C 
HETATM   12 BR12 UNL     1     -34.563  13.261  -4.607  1.00 20.00    -0.090 Br
ENDBRANCH   3   7
TORSDOF 1
ENDMDL
MODEL 8
REMARK VINA RESULT:      -4.3      3.824      5.316
REMARK  1 active torsions:
REMARK  status: ('A' for Active; 'I' for Inactive)
REMARK    1  A    between atoms: C3_3  and  C8_8 
ROOT
HETATM    1  C1  UNL     1     -37.135  15.212  -5.437  1.00 20.00     0.022 A 
HETATM    2  C2  UNL     1     -36.157  14.827  -7.511  1.00 20.00     0.057 A 
HETATM    3  C3  UNL     1     -35.940  14.908  -6.152  1.00 20.00    -0.045 A 
HETATM    4  C4  UNL     1     -38.219  15.351  -6.276  1.00 20.00    -0.021 A 
HETATM    5  C10 UNL     1     -39.621  15.662  -5.923  1.00 20.00     0.056 C 
HETATM    6  S11 UNL     1     -37.795  15.116  -7.918  1.00 20.00    -0.106 SA
ENDROOT
BRANCH   3   7
HETATM    7  C8  UNL     1     -34.595  14.699  -5.497  1.00 20.00     0.033 C 
HETATM    8  C6  UNL     1     -34.517  13.415  -4.662  1.00 20.00     0.010 C 
HETATM    9  C5  UNL     1     -33.329  13.623  -3.724  1.00 20.00     0.002 C 
HETATM   10  C7  UNL     1     -33.033  15.124  -3.721  1.00 20.00     0.016 C 
HETATM   11  C9  UNL     1     -34.188  15.766  -4.479  1.00 20.00     0.066 C 
HETATM   12 BR12 UNL     1     -33.619  17.406  -5.345  1.00 20.00    -0.090 Br
ENDBRANCH   3   7
TORSDOF 1
ENDMDL
MODEL 9
REMARK VINA RESULT:      -4.3      2.149      2.521
REMARK  1 active torsions:
REMARK  status: ('A' for Active; 'I' for Inactive)
REMARK    1  A    between atoms: C3_3  and  C8_8 
ROOT
HETATM    1  C1  UNL     1     -34.764  16.947  -0.415  1.00 20.00     0.022 A 
HETATM    2  C2  UNL     1     -36.370  18.122  -1.618  1.00 20.00     0.057 A 
HETATM    3  C3  UNL     1     -35.340  17.209  -1.692  1.00 20.00    -0.045 A 
HETATM    4  C4  UNL     1     -35.375  17.669   0.586  1.00 20.00    -0.021 A 
HETATM    5  C10 UNL     1     -35.070  17.676   2.033  1.00 20.00     0.056 C 
HETATM    6  S11 UNL     1     -36.638  18.658  -0.013  1.00 20.00    -0.106 SA
ENDROOT
BRANCH   3   7
HETATM    7  C8  UNL     1     -34.876  16.561  -2.976  1.00 20.00     0.033 C 
HETATM    8  C6  UNL     1     -34.542  15.072  -2.820  1.00 20.00     0.010 C 
HETATM    9  C5  UNL     1     -33.660  14.736  -4.021  1.00 20.00     0.002 C 
HETATM   10  C7  UNL     1     -33.155  16.068  -4.579  1.00 20.00     0.016 C 
HETATM   11  C9  UNL     1     -33.577  17.119  -3.561  1.00 20.00     0.066 C 
HETATM   12 BR12 UNL     1     -33.854  18.838  -4.416  1.00 20.00    -0.090 Br
ENDBRANCH   3   7
TORSDOF 1
ENDMDL
