MODEL 1
REMARK VINA RESULT:      -5.0      0.000      0.000
REMARK  2 active torsions:
REMARK  status: ('A' for Active; 'I' for Inactive)
REMARK    1  A    between atoms: C8_8  and  C10_10 
REMARK    2  A    between atoms: C10_10  and  C11_11 
ROOT
HETATM    1  C1  UNL     1     -35.502  14.559  -7.125  1.00 20.00     0.064 C 
HETATM    2  C2  UNL     1     -34.943  16.899  -5.093  1.00 20.00     0.002 C 
HETATM    3  C3  UNL     1     -33.953  15.982  -5.810  1.00 20.00     0.019 C 
HETATM    4  C4  UNL     1     -34.837  13.699  -4.898  1.00 20.00     0.019 C 
HETATM    5  C5  UNL     1     -35.756  16.281  -3.960  1.00 20.00     0.005 C 
HETATM    6  C6  UNL     1     -34.268  14.180  -3.563  1.00 20.00     0.006 C 
HETATM    7  C7  UNL     1     -34.426  14.552  -6.116  1.00 20.00     0.093 C 
HETATM    8  C8  UNL     1     -34.992  15.400  -2.959  1.00 20.00    -0.014 C 
HETATM    9  N12 UNL     1     -36.349  14.565  -7.918  1.00 20.00    -0.197 NA
ENDROOT
BRANCH   8  10
HETATM   10  C10 UNL     1     -34.025  16.225  -2.105  1.00 20.00     0.004 C 
BRANCH  10  11
HETATM   11  C11 UNL     1     -34.689  16.678  -0.813  1.00 20.00    -0.004 C 
HETATM   12  C9  UNL     1     -33.940  17.848  -0.197  1.00 20.00     0.005 C 
ENDBRANCH  10  11
ENDBRANCH   8  10
TORSDOF 2
ENDMDL
MODEL 2
REMARK VINA RESULT:      -5.0      2.658      4.831
REMARK  2 active torsions:
REMARK  status: ('A' for Active; 'I' for Inactive)
REMARK    1  A    between atoms: C8_8  and  C10_10 
REMARK    2  A    between atoms: C10_10  and  C11_11 
ROOT
HETATM    1  C1  UNL     1     -34.171  17.164  -1.657  1.00 20.00     0.064 C 
HETATM    2  C2  UNL     1     -32.908  15.215  -3.784  1.00 20.00     0.002 C 
HETATM    3  C3  UNL     1     -33.686  16.513  -4.001  1.00 20.00     0.019 C 
HETATM    4  C4  UNL     1     -35.904  15.817  -2.808  1.00 20.00     0.019 C 
HETATM    5  C5  UNL     1     -33.711  13.999  -3.335  1.00 20.00     0.005 C 
HETATM    6  C6  UNL     1     -36.075  14.873  -3.997  1.00 20.00     0.006 C 
HETATM    7  C7  UNL     1     -34.772  16.853  -2.968  1.00 20.00     0.093 C 
HETATM    8  C8  UNL     1     -35.037  13.735  -4.068  1.00 20.00    -0.014 C 
HETATM    9  N12 UNL     1     -33.698  17.408  -0.626  1.00 20.00    -0.197 NA
ENDROOT
BRANCH   8  10
HETATM   10  C10 UNL     1     -34.803  13.314  -5.521  1.00 20.00     0.004 C 
BRANCH  10  11
HETATM   11  C11 UNL     1     -35.437  14.307  -6.485  1.00 20.00    -0.004 C 
HETATM   12  C9  UNL     1     -34.378  15.014  -7.314  1.00 20.00     0.005 C 
ENDBRANCH  10  11
ENDBRANCH   8  10
TORSDOF 2
ENDMDL
MODEL 3
REMARK VINA RESULT:      -4.9      1.205      1.912
REMARK  2 active torsions:
REMARK  status: ('A' for Active; 'I' for Inactive)
REMARK    1  A    between atoms: C8_8  and  C10_10 
REMARK    2  A    between atoms: C10_10  and  C11_11 
ROOT
HETATM    1  C1  UNL     1     -34.764  14.603  -6.344  1.00 20.00     0.064 C 
HETATM    2  C2  UNL     1     -33.082  15.282  -3.770  1.00 20.00     0.002 C 
HETATM    3  C3  UNL     1     -33.988  14.082  -4.047  1.00 20.00     0.019 C 
HETATM    4  C4  UNL     1     -36.206  15.390  -4.489  1.00 20.00     0.019 C 
HETATM    5  C5  UNL     1     -33.769  16.619  -3.517  1.00 20.00     0.005 C 
HETATM    6  C6  UNL     1     -36.150  15.698  -2.993  1.00 20.00     0.006 C 
HETATM    7  C7  UNL     1     -35.198  14.322  -4.962  1.00 20.00     0.093 C 
HETATM    8  C8  UNL     1     -34.979  16.608  -2.568  1.00 20.00    -0.014 C 
HETATM    9  N12 UNL     1     -34.422  14.825  -7.431  1.00 20.00    -0.197 NA
ENDROOT
BRANCH   8  10
HETATM   10  C10 UNL     1     -34.562  16.304  -1.127  1.00 20.00     0.004 C 
BRANCH  10  11
HETATM   11  C11 UNL     1     -34.315  17.588  -0.348  1.00 20.00    -0.004 C 
HETATM   12  C9  UNL     1     -35.186  17.647   0.896  1.00 20.00     0.005 C 
ENDBRANCH  10  11
ENDBRANCH   8  10
TORSDOF 2
ENDMDL
MODEL 4
REMARK VINA RESULT:      -4.7      2.425      4.782
REMARK  2 active torsions:
REMARK  status: ('A' for Active; 'I' for Inactive)
REMARK    1  A    between atoms: C8_8  and  C10_10 
REMARK    2  A    between atoms: C10_10  and  C11_11 
ROOT
HETATM    1  C1  UNL     1     -34.763  16.217  -1.681  1.00 20.00     0.064 C 
HETATM    2  C2  UNL     1     -35.057  17.380  -4.592  1.00 20.00     0.002 C 
HETATM    3  C3  UNL     1     -35.963  16.402  -3.844  1.00 20.00     0.019 C 
HETATM    4  C4  UNL     1     -34.198  14.527  -3.404  1.00 20.00     0.019 C 
HETATM    5  C5  UNL     1     -33.718  16.839  -5.082  1.00 20.00     0.005 C 
HETATM    6  C6  UNL     1     -34.279  14.301  -4.913  1.00 20.00     0.006 C 
HETATM    7  C7  UNL     1     -35.287  15.461  -2.835  1.00 20.00     0.093 C 
HETATM    8  C8  UNL     1     -33.735  15.463  -5.767  1.00 20.00    -0.014 C 
HETATM    9  N12 UNL     1     -34.351  16.811  -0.774  1.00 20.00    -0.197 NA
ENDROOT
BRANCH   8  10
HETATM   10  C10 UNL     1     -34.453  15.515  -7.118  1.00 20.00     0.004 C 
BRANCH  10  11
HETATM   11  C11 UNL     1     -35.549  14.462  -7.194  1.00 20.00    -0.004 C 
HETATM   12  C9  UNL     1     -36.912  15.108  -7.381  1.00 20.00     0.005 C 
ENDBRANCH  10  11
ENDBRANCH   8  10
TORSDOF 2
ENDMDL
MODEL 5
REMARK VINA RESULT:      -4.7      1.984      3.049
REMARK  2 active torsions:
REMARK  status: ('A' for Active; 'I' for Inactive)
REMARK    1  A    between atoms: C8_8  and  C10_10 
REMARK    2  A    between atoms: C10_10  and  C11_11 
ROOT
HETATM    1  C1  UNL     1     -35.094  13.608  -4.229  1.00 20.00     0.064 C 
HETATM    2  C2  UNL     1     -32.871  15.819  -3.927  1.00 20.00     0.002 C 
HETATM    3  C3  UNL     1     -34.000  15.442  -2.967  1.00 20.00     0.019 C 
HETATM    4  C4  UNL     1     -36.013  15.884  -4.572  1.00 20.00     0.019 C 
HETATM    5  C5  UNL     1     -33.268  16.572  -5.192  1.00 20.00     0.005 C 
HETATM    6  C6  UNL     1     -35.627  17.354  -4.412  1.00 20.00     0.006 C 
HETATM    7  C7  UNL     1     -35.303  14.924  -3.595  1.00 20.00     0.093 C 
HETATM    8  C8  UNL     1     -34.264  17.731  -5.025  1.00 20.00    -0.014 C 
HETATM    9  N12 UNL     1     -34.929  12.573  -4.728  1.00 20.00    -0.197 NA
ENDROOT
BRANCH   8  10
HETATM   10  C10 UNL     1     -33.641  18.904  -4.262  1.00 20.00     0.004 C 
BRANCH  10  11
HETATM   11  C11 UNL     1     -34.338  19.117  -2.926  1.00 20.00    -0.004 C 
HETATM   12  C9  UNL     1     -33.365  18.951  -1.771  1.00 20.00     0.005 C 
ENDBRANCH  10  11
ENDBRANCH   8  10
TORSDOF 2
ENDMDL
MODEL 6
REMARK VINA RESULT:      -4.7      1.327      1.746
REMARK  2 active torsions:
REMARK  status: ('A' for Active; 'I' for Inactive)
REMARK    1  A    between atoms: C8_8  and  C10_10 
REMARK    2  A    between atoms: C10_10  and  C11_11 
ROOT
HETATM    1  C1  UNL     1     -34.234  15.594  -6.429  1.00 20.00     0.064 C 
HETATM    2  C2  UNL     1     -36.116  16.729  -4.173  1.00 20.00     0.002 C 
HETATM    3  C3  UNL     1     -34.905  17.379  -4.841  1.00 20.00     0.019 C 
HETATM    4  C4  UNL     1     -33.125  15.572  -4.213  1.00 20.00     0.019 C 
HETATM    5  C5  UNL     1     -35.836  15.597  -3.191  1.00 20.00     0.005 C 
HETATM    6  C6  UNL     1     -33.311  16.097  -2.789  1.00 20.00     0.006 C 
HETATM    7  C7  UNL     1     -33.781  16.440  -5.307  1.00 20.00     0.093 C 
HETATM    8  C8  UNL     1     -34.701  15.823  -2.180  1.00 20.00    -0.014 C 
HETATM    9  N12 UNL     1     -34.591  14.930  -7.310  1.00 20.00    -0.197 NA
ENDROOT
BRANCH   8  10
HETATM   10  C10 UNL     1     -35.060  16.907  -1.161  1.00 20.00     0.004 C 
BRANCH  10  11
HETATM   11  C11 UNL     1     -33.813  17.629  -0.670  1.00 20.00    -0.004 C 
HETATM   12  C9  UNL     1     -34.025  18.195   0.725  1.00 20.00     0.005 C 
ENDBRANCH  10  11
ENDBRANCH   8  10
TORSDOF 2
ENDMDL
MODEL 7
REMARK VINA RESULT:      -4.6      1.392      2.450
REMARK  2 active torsions:
REMARK  status: ('A' for Active; 'I' for Inactive)
REMARK    1  A    between atoms: C8_8  and  C10_10 
REMARK    2  A    between atoms: C10_10  and  C11_11 
ROOT
HETATM    1  C1  UNL     1     -37.412  15.321  -7.063  1.00 20.00     0.064 C 
HETATM    2  C2  UNL     1     -36.655  14.331  -4.171  1.00 20.00     0.002 C 
HETATM    3  C3  UNL     1     -36.820  15.758  -4.695  1.00 20.00     0.019 C 
HETATM    4  C4  UNL     1     -35.008  15.673  -6.575  1.00 20.00     0.019 C 
HETATM    5  C5  UNL     1     -35.408  13.575  -4.617  1.00 20.00     0.005 C 
HETATM    6  C6  UNL     1     -34.016  15.629  -5.413  1.00 20.00     0.006 C 
HETATM    7  C7  UNL     1     -36.459  16.004  -6.168  1.00 20.00     0.093 C 
HETATM    8  C8  UNL     1     -34.077  14.342  -4.565  1.00 20.00    -0.014 C 
HETATM    9  N12 UNL     1     -38.162  14.783  -7.767  1.00 20.00    -0.197 NA
ENDROOT
BRANCH   8  10
HETATM   10  C10 UNL     1     -33.649  14.632  -3.124  1.00 20.00     0.004 C 
BRANCH  10  11
HETATM   11  C11 UNL     1     -33.706  16.124  -2.828  1.00 20.00    -0.004 C 
HETATM   12  C9  UNL     1     -34.576  16.405  -1.614  1.00 20.00     0.005 C 
ENDBRANCH  10  11
ENDBRANCH   8  10
TORSDOF 2
ENDMDL
MODEL 8
REMARK VINA RESULT:      -4.5      2.610      4.973
REMARK  2 active torsions:
REMARK  status: ('A' for Active; 'I' for Inactive)
REMARK    1  A    between atoms: C8_8  and  C10_10 
REMARK    2  A    between atoms: C10_10  and  C11_11 
ROOT
HETATM    1  C1  UNL     1     -34.418  16.681  -1.105  1.00 20.00     0.064 C 
HETATM    2  C2  UNL     1     -36.273  15.609  -3.413  1.00 20.00     0.002 C 
HETATM    3  C3  UNL     1     -34.859  15.177  -3.027  1.00 20.00     0.019 C 
HETATM    4  C4  UNL     1     -33.673  17.485  -3.327  1.00 20.00     0.019 C 
HETATM    5  C5  UNL     1     -36.416  16.962  -4.101  1.00 20.00     0.005 C 
HETATM    6  C6  UNL     1     -33.928  17.257  -4.817  1.00 20.00     0.006 C 
HETATM    7  C7  UNL     1     -33.939  16.256  -2.434  1.00 20.00     0.093 C 
HETATM    8  C8  UNL     1     -35.415  17.277  -5.225  1.00 20.00    -0.014 C 
HETATM    9  N12 UNL     1     -34.795  17.014  -0.060  1.00 20.00    -0.197 NA
ENDROOT
BRANCH   8  10
HETATM   10  C10 UNL     1     -35.644  16.387  -6.450  1.00 20.00     0.004 C 
BRANCH  10  11
HETATM   11  C11 UNL     1     -34.437  15.498  -6.712  1.00 20.00    -0.004 C 
HETATM   12  C9  UNL     1     -34.797  14.030  -6.553  1.00 20.00     0.005 C 
ENDBRANCH  10  11
ENDBRANCH   8  10
TORSDOF 2
ENDMDL
MODEL 9
REMARK VINA RESULT:      -4.4      2.496      5.115
REMARK  2 active torsions:
REMARK  status: ('A' for Active; 'I' for Inactive)
REMARK    1  A    between atoms: C8_8  and  C10_10 
REMARK    2  A    between atoms: C10_10  and  C11_11 
ROOT
HETATM    1  C1  UNL     1     -34.142  16.610  -1.748  1.00 20.00     0.064 C 
HETATM    2  C2  UNL     1     -34.654  14.092  -3.569  1.00 20.00     0.002 C 
HETATM    3  C3  UNL     1     -33.381  14.920  -3.396  1.00 20.00     0.019 C 
HETATM    4  C4  UNL     1     -34.341  17.233  -4.138  1.00 20.00     0.019 C 
HETATM    5  C5  UNL     1     -35.790  14.734  -4.358  1.00 20.00     0.005 C 
HETATM    6  C6  UNL     1     -34.397  16.599  -5.528  1.00 20.00     0.006 C 
HETATM    7  C7  UNL     1     -33.560  16.415  -3.090  1.00 20.00     0.093 C 
HETATM    8  C8  UNL     1     -35.409  15.445  -5.667  1.00 20.00    -0.014 C 
HETATM    9  N12 UNL     1     -34.600  16.763  -0.693  1.00 20.00    -0.197 NA
ENDROOT
BRANCH   8  10
HETATM   10  C10 UNL     1     -34.942  14.450  -6.733  1.00 20.00     0.004 C 
BRANCH  10  11
HETATM   11  C11 UNL     1     -35.897  14.432  -7.918  1.00 20.00    -0.004 C 
HETATM   12  C9  UNL     1     -37.199  15.138  -7.579  1.00 20.00     0.005 C 
ENDBRANCH  10  11
ENDBRANCH   8  10
TORSDOF 2
ENDMDL
