MODEL 1
REMARK VINA RESULT:      -4.1      0.000      0.000
REMARK  4 active torsions:
REMARK  status: ('A' for Active; 'I' for Inactive)
REMARK    1  A    between atoms: C5_5  and  C7_7 
REMARK    2  A    between atoms: C5_5  and  O10_10 
REMARK    3  A    between atoms: C6_6  and  C7_7 
REMARK    4  A    between atoms: C7_7  and  N8_8 
ROOT
HETATM    1  C1  UNL     1     -34.121  13.383  -4.118  1.00 20.00     0.332 C 
HETATM    2  N8  UNL     1     -33.256  14.035  -3.674  1.00 20.00    -0.240 NA
HETATM    3  O9  UNL     1     -34.983  12.718  -4.565  1.00 20.00    -0.260 OA
ENDROOT
BRANCH   2   4
HETATM    4  C7  UNL     1     -33.598  15.459  -3.523  1.00 20.00     0.139 C 
BRANCH   4   5
HETATM    5  C5  UNL     1     -33.914  16.020  -4.909  1.00 20.00     0.194 C 
BRANCH   5   6
HETATM    6  O10 UNL     1     -32.990  17.061  -5.211  1.00 20.00    -0.394 OA
HETATM    7  C4  UNL     1     -33.625  18.331  -5.224  1.00 20.00     0.201 C 
ENDBRANCH   5   6
ENDBRANCH   4   5
BRANCH   4   8
HETATM    8  C6  UNL     1     -34.770  15.613  -2.529  1.00 20.00     0.004 C 
HETATM    9  C2  UNL     1     -36.021  16.154  -3.230  1.00 20.00     0.012 C 
HETATM   10  C3  UNL     1     -34.438  16.486  -1.315  1.00 20.00     0.012 C 
ENDBRANCH   4   8
ENDBRANCH   2   4
TORSDOF 4
ENDMDL
MODEL 2
REMARK VINA RESULT:      -3.9      1.163      1.650
REMARK  4 active torsions:
REMARK  status: ('A' for Active; 'I' for Inactive)
REMARK    1  A    between atoms: C5_5  and  C7_7 
REMARK    2  A    between atoms: C5_5  and  O10_10 
REMARK    3  A    between atoms: C6_6  and  C7_7 
REMARK    4  A    between atoms: C7_7  and  N8_8 
ROOT
HETATM    1  C1  UNL     1     -35.196  13.634  -4.117  1.00 20.00     0.332 C 
HETATM    2  N8  UNL     1     -35.465  14.661  -3.624  1.00 20.00    -0.240 NA
HETATM    3  O9  UNL     1     -34.936  12.600  -4.616  1.00 20.00    -0.260 OA
ENDROOT
BRANCH   2   4
HETATM    4  C7  UNL     1     -34.342  15.296  -2.914  1.00 20.00     0.139 C 
BRANCH   4   5
HETATM    5  C5  UNL     1     -33.191  15.465  -3.905  1.00 20.00     0.194 C 
BRANCH   5   6
HETATM    6  O10 UNL     1     -33.207  16.796  -4.412  1.00 20.00    -0.394 OA
HETATM    7  C4  UNL     1     -33.619  16.828  -5.771  1.00 20.00     0.201 C 
ENDBRANCH   5   6
ENDBRANCH   4   5
BRANCH   4   8
HETATM    8  C6  UNL     1     -34.805  16.632  -2.292  1.00 20.00     0.004 C 
HETATM    9  C2  UNL     1     -34.651  16.613  -0.767  1.00 20.00     0.012 C 
HETATM   10  C3  UNL     1     -36.237  17.022  -2.665  1.00 20.00     0.012 C 
ENDBRANCH   4   8
ENDBRANCH   2   4
TORSDOF 4
ENDMDL
MODEL 3
REMARK VINA RESULT:      -3.9      1.575      3.108
REMARK  4 active torsions:
REMARK  status: ('A' for Active; 'I' for Inactive)
REMARK    1  A    between atoms: C5_5  and  C7_7 
REMARK    2  A    between atoms: C5_5  and  O10_10 
REMARK    3  A    between atoms: C6_6  and  C7_7 
REMARK    4  A    between atoms: C7_7  and  N8_8 
ROOT
HETATM    1  C1  UNL     1     -34.164  13.443  -4.279  1.00 20.00     0.332 C 
HETATM    2  N8  UNL     1     -33.415  14.293  -3.983  1.00 20.00    -0.240 NA
HETATM    3  O9  UNL     1     -34.908  12.582  -4.575  1.00 20.00    -0.260 OA
ENDROOT
BRANCH   2   4
HETATM    4  C7  UNL     1     -33.999  15.644  -4.017  1.00 20.00     0.139 C 
BRANCH   4   5
HETATM    5  C5  UNL     1     -33.683  16.330  -2.688  1.00 20.00     0.194 C 
BRANCH   5   6
HETATM    6  O10 UNL     1     -34.693  15.997  -1.741  1.00 20.00    -0.394 OA
HETATM    7  C4  UNL     1     -34.605  16.811  -0.581  1.00 20.00     0.201 C 
ENDBRANCH   5   6
ENDBRANCH   4   5
BRANCH   4   8
HETATM    8  C6  UNL     1     -33.459  16.418  -5.239  1.00 20.00     0.004 C 
HETATM    9  C2  UNL     1     -33.507  17.931  -4.999  1.00 20.00     0.012 C 
HETATM   10  C3  UNL     1     -34.174  16.077  -6.549  1.00 20.00     0.012 C 
ENDBRANCH   4   8
ENDBRANCH   2   4
TORSDOF 4
ENDMDL
MODEL 4
REMARK VINA RESULT:      -3.9      2.298      3.976
REMARK  4 active torsions:
REMARK  status: ('A' for Active; 'I' for Inactive)
REMARK    1  A    between atoms: C5_5  and  C7_7 
REMARK    2  A    between atoms: C5_5  and  O10_10 
REMARK    3  A    between atoms: C6_6  and  C7_7 
REMARK    4  A    between atoms: C7_7  and  N8_8 
ROOT
HETATM    1  C1  UNL     1     -33.343  13.949  -3.888  1.00 20.00     0.332 C 
HETATM    2  N8  UNL     1     -34.162  13.198  -4.261  1.00 20.00    -0.240 NA
HETATM    3  O9  UNL     1     -32.515  14.694  -3.509  1.00 20.00    -0.260 OA
ENDROOT
BRANCH   2   4
HETATM    4  C7  UNL     1     -35.327  13.846  -4.886  1.00 20.00     0.139 C 
BRANCH   4   5
HETATM    5  C5  UNL     1     -36.109  14.571  -3.792  1.00 20.00     0.194 C 
BRANCH   5   6
HETATM    6  O10 UNL     1     -37.441  14.068  -3.762  1.00 20.00    -0.394 OA
HETATM    7  C4  UNL     1     -38.392  15.121  -3.709  1.00 20.00     0.201 C 
ENDBRANCH   5   6
ENDBRANCH   4   5
BRANCH   4   8
HETATM    8  C6  UNL     1     -34.858  14.788  -6.017  1.00 20.00     0.004 C 
HETATM    9  C2  UNL     1     -35.321  16.227  -5.764  1.00 20.00     0.012 C 
HETATM   10  C3  UNL     1     -35.297  14.340  -7.414  1.00 20.00     0.012 C 
ENDBRANCH   4   8
ENDBRANCH   2   4
TORSDOF 4
ENDMDL
MODEL 5
REMARK VINA RESULT:      -3.8      1.405      1.821
REMARK  4 active torsions:
REMARK  status: ('A' for Active; 'I' for Inactive)
REMARK    1  A    between atoms: C5_5  and  C7_7 
REMARK    2  A    between atoms: C5_5  and  O10_10 
REMARK    3  A    between atoms: C6_6  and  C7_7 
REMARK    4  A    between atoms: C7_7  and  N8_8 
ROOT
HETATM    1  C1  UNL     1     -34.909  13.576  -4.022  1.00 20.00     0.332 C 
HETATM    2  N8  UNL     1     -34.958  14.549  -3.372  1.00 20.00    -0.240 NA
HETATM    3  O9  UNL     1     -34.868  12.594  -4.668  1.00 20.00    -0.260 OA
ENDROOT
BRANCH   2   4
HETATM    4  C7  UNL     1     -34.044  15.613  -3.819  1.00 20.00     0.139 C 
BRANCH   4   5
HETATM    5  C5  UNL     1     -34.686  16.318  -5.014  1.00 20.00     0.194 C 
BRANCH   5   6
HETATM    6  O10 UNL     1     -33.816  16.216  -6.137  1.00 20.00    -0.394 OA
HETATM    7  C4  UNL     1     -34.318  15.303  -7.102  1.00 20.00     0.201 C 
ENDBRANCH   5   6
ENDBRANCH   4   5
BRANCH   4   8
HETATM    8  C6  UNL     1     -33.740  16.571  -2.646  1.00 20.00     0.004 C 
HETATM    9  C2  UNL     1     -34.665  16.294  -1.455  1.00 20.00     0.012 C 
HETATM   10  C3  UNL     1     -33.812  18.052  -3.026  1.00 20.00     0.012 C 
ENDBRANCH   4   8
ENDBRANCH   2   4
TORSDOF 4
ENDMDL
MODEL 6
REMARK VINA RESULT:      -3.8      2.081      3.138
REMARK  4 active torsions:
REMARK  status: ('A' for Active; 'I' for Inactive)
REMARK    1  A    between atoms: C5_5  and  C7_7 
REMARK    2  A    between atoms: C5_5  and  O10_10 
REMARK    3  A    between atoms: C6_6  and  C7_7 
REMARK    4  A    between atoms: C7_7  and  N8_8 
ROOT
HETATM    1  C1  UNL     1     -36.737  15.163  -3.498  1.00 20.00     0.332 C 
HETATM    2  N8  UNL     1     -35.857  15.933  -3.426  1.00 20.00    -0.240 NA
HETATM    3  O9  UNL     1     -37.627  14.398  -3.575  1.00 20.00    -0.260 OA
ENDROOT
BRANCH   2   4
HETATM    4  C7  UNL     1     -34.696  15.445  -2.663  1.00 20.00     0.139 C 
BRANCH   4   5
HETATM    5  C5  UNL     1     -33.735  14.773  -3.643  1.00 20.00     0.194 C 
BRANCH   5   6
HETATM    6  O10 UNL     1     -34.023  13.379  -3.695  1.00 20.00    -0.394 OA
HETATM    7  C4  UNL     1     -34.434  12.982  -4.995  1.00 20.00     0.201 C 
ENDBRANCH   5   6
ENDBRANCH   4   5
BRANCH   4   8
HETATM    8  C6  UNL     1     -34.049  16.614  -1.889  1.00 20.00     0.004 C 
HETATM    9  C2  UNL     1     -34.698  16.789  -0.511  1.00 20.00     0.012 C 
HETATM   10  C3  UNL     1     -34.075  17.944  -2.647  1.00 20.00     0.012 C 
ENDBRANCH   4   8
ENDBRANCH   2   4
TORSDOF 4
ENDMDL
MODEL 7
REMARK VINA RESULT:      -3.8      2.319      3.116
REMARK  4 active torsions:
REMARK  status: ('A' for Active; 'I' for Inactive)
REMARK    1  A    between atoms: C5_5  and  C7_7 
REMARK    2  A    between atoms: C5_5  and  O10_10 
REMARK    3  A    between atoms: C6_6  and  C7_7 
REMARK    4  A    between atoms: C7_7  and  N8_8 
ROOT
HETATM    1  C1  UNL     1     -37.254  14.740  -3.919  1.00 20.00     0.332 C 
HETATM    2  N8  UNL     1     -36.250  15.314  -4.105  1.00 20.00    -0.240 NA
HETATM    3  O9  UNL     1     -38.267  14.173  -3.732  1.00 20.00    -0.260 OA
ENDROOT
BRANCH   2   4
HETATM    4  C7  UNL     1     -35.048  14.474  -3.977  1.00 20.00     0.139 C 
BRANCH   4   5
HETATM    5  C5  UNL     1     -34.858  13.716  -5.291  1.00 20.00     0.194 C 
BRANCH   5   6
HETATM    6  O10 UNL     1     -34.588  14.650  -6.331  1.00 20.00    -0.394 OA
HETATM    7  C4  UNL     1     -35.404  14.410  -7.468  1.00 20.00     0.201 C 
ENDBRANCH   5   6
ENDBRANCH   4   5
BRANCH   4   8
HETATM    8  C6  UNL     1     -33.833  15.352  -3.606  1.00 20.00     0.004 C 
HETATM    9  C2  UNL     1     -32.553  14.512  -3.519  1.00 20.00     0.012 C 
HETATM   10  C3  UNL     1     -34.020  16.148  -2.312  1.00 20.00     0.012 C 
ENDBRANCH   4   8
ENDBRANCH   2   4
TORSDOF 4
ENDMDL
MODEL 8
REMARK VINA RESULT:      -3.7      1.785      3.119
REMARK  4 active torsions:
REMARK  status: ('A' for Active; 'I' for Inactive)
REMARK    1  A    between atoms: C5_5  and  C7_7 
REMARK    2  A    between atoms: C5_5  and  O10_10 
REMARK    3  A    between atoms: C6_6  and  C7_7 
REMARK    4  A    between atoms: C7_7  and  N8_8 
ROOT
HETATM    1  C1  UNL     1     -33.841  16.041  -6.062  1.00 20.00     0.332 C 
HETATM    2  N8  UNL     1     -33.409  16.441  -5.050  1.00 20.00    -0.240 NA
HETATM    3  O9  UNL     1     -34.270  15.647  -7.085  1.00 20.00    -0.260 OA
ENDROOT
BRANCH   2   4
HETATM    4  C7  UNL     1     -33.903  15.724  -3.863  1.00 20.00     0.139 C 
BRANCH   4   5
HETATM    5  C5  UNL     1     -33.167  14.387  -3.778  1.00 20.00     0.194 C 
BRANCH   5   6
HETATM    6  O10 UNL     1     -34.094  13.368  -3.415  1.00 20.00    -0.394 OA
HETATM    7  C4  UNL     1     -35.225  13.366  -4.274  1.00 20.00     0.201 C 
ENDBRANCH   5   6
ENDBRANCH   4   5
BRANCH   4   8
HETATM    8  C6  UNL     1     -33.713  16.599  -2.605  1.00 20.00     0.004 C 
HETATM    9  C2  UNL     1     -34.726  16.228  -1.517  1.00 20.00     0.012 C 
HETATM   10  C3  UNL     1     -33.779  18.103  -2.885  1.00 20.00     0.012 C 
ENDBRANCH   4   8
ENDBRANCH   2   4
TORSDOF 4
ENDMDL
MODEL 9
REMARK VINA RESULT:      -3.7      2.587      3.853
REMARK  4 active torsions:
REMARK  status: ('A' for Active; 'I' for Inactive)
REMARK    1  A    between atoms: C5_5  and  C7_7 
REMARK    2  A    between atoms: C5_5  and  O10_10 
REMARK    3  A    between atoms: C6_6  and  C7_7 
REMARK    4  A    between atoms: C7_7  and  N8_8 
ROOT
HETATM    1  C1  UNL     1     -37.296  14.815  -3.755  1.00 20.00     0.332 C 
HETATM    2  N8  UNL     1     -36.317  15.453  -3.682  1.00 20.00    -0.240 NA
HETATM    3  O9  UNL     1     -38.284  14.180  -3.821  1.00 20.00    -0.260 OA
ENDROOT
BRANCH   2   4
HETATM    4  C7  UNL     1     -35.213  14.953  -4.517  1.00 20.00     0.139 C 
BRANCH   4   5
HETATM    5  C5  UNL     1     -35.184  13.430  -4.401  1.00 20.00     0.194 C 
BRANCH   5   6
HETATM    6  O10 UNL     1     -34.154  13.052  -3.492  1.00 20.00    -0.394 OA
HETATM    7  C4  UNL     1     -33.020  13.898  -3.614  1.00 20.00     0.201 C 
ENDBRANCH   5   6
ENDBRANCH   4   5
BRANCH   4   8
HETATM    8  C6  UNL     1     -35.392  15.444  -5.971  1.00 20.00     0.004 C 
HETATM    9  C2  UNL     1     -35.283  14.280  -6.963  1.00 20.00     0.012 C 
HETATM   10  C3  UNL     1     -34.420  16.558  -6.368  1.00 20.00     0.012 C 
ENDBRANCH   4   8
ENDBRANCH   2   4
TORSDOF 4
ENDMDL
