MODEL 1
REMARK VINA RESULT:      -4.6      0.000      0.000
REMARK  1 active torsions:
REMARK  status: ('A' for Active; 'I' for Inactive)
REMARK    1  A    between atoms: C8_8  and  C11_11 
ROOT
HETATM    1  C1  UNL     1     -34.432  14.724  -6.015  1.00 20.00     0.064 C 
HETATM    2  C2  UNL     1     -36.265  15.597  -3.709  1.00 20.00     0.002 C 
HETATM    3  C3  UNL     1     -35.192  14.512  -3.658  1.00 20.00     0.019 C 
HETATM    4  C4  UNL     1     -33.144  15.955  -4.291  1.00 20.00     0.019 C 
HETATM    5  C5  UNL     1     -36.023  16.777  -2.774  1.00 20.00     0.005 C 
HETATM    6  C6  UNL     1     -33.884  17.291  -4.171  1.00 20.00     0.006 C 
HETATM    7  C7  UNL     1     -34.002  14.724  -4.601  1.00 20.00     0.093 C 
HETATM    8  C8  UNL     1     -34.679  17.518  -2.876  1.00 20.00    -0.011 C 
HETATM    9  N12 UNL     1     -34.769  14.725  -7.126  1.00 20.00    -0.197 NA
ENDROOT
BRANCH   8  10
HETATM   10  C11 UNL     1     -33.834  17.289  -1.617  1.00 20.00    -0.019 C 
HETATM   11  C9  UNL     1     -33.163  18.589  -1.187  1.00 20.00     0.010 C 
HETATM   12  C10 UNL     1     -34.698  16.727  -0.493  1.00 20.00     0.010 C 
ENDBRANCH   8  10
TORSDOF 1
ENDMDL
MODEL 2
REMARK VINA RESULT:      -4.6      1.684      3.000
REMARK  1 active torsions:
REMARK  status: ('A' for Active; 'I' for Inactive)
REMARK    1  A    between atoms: C8_8  and  C11_11 
ROOT
HETATM    1  C1  UNL     1     -36.947  15.180  -7.356  1.00 20.00     0.064 C 
HETATM    2  C2  UNL     1     -35.068  13.558  -5.547  1.00 20.00     0.002 C 
HETATM    3  C3  UNL     1     -34.687  14.754  -6.417  1.00 20.00     0.019 C 
HETATM    4  C4  UNL     1     -36.269  16.514  -5.380  1.00 20.00     0.019 C 
HETATM    5  C5  UNL     1     -34.867  13.770  -4.050  1.00 20.00     0.005 C 
HETATM    6  C6  UNL     1     -36.679  15.637  -4.194  1.00 20.00     0.006 C 
HETATM    7  C7  UNL     1     -35.802  15.781  -6.642  1.00 20.00     0.093 C 
HETATM    8  C8  UNL     1     -35.537  14.990  -3.395  1.00 20.00    -0.011 C 
HETATM    9  N12 UNL     1     -37.848  14.708  -7.918  1.00 20.00    -0.197 NA
ENDROOT
BRANCH   8  10
HETATM   10  C11 UNL     1     -34.486  16.008  -2.937  1.00 20.00    -0.019 C 
HETATM   11  C9  UNL     1     -34.648  16.303  -1.450  1.00 20.00     0.010 C 
HETATM   12  C10 UNL     1     -33.083  15.492  -3.237  1.00 20.00     0.010 C 
ENDBRANCH   8  10
TORSDOF 1
ENDMDL
MODEL 3
REMARK VINA RESULT:      -4.6      2.440      4.778
REMARK  1 active torsions:
REMARK  status: ('A' for Active; 'I' for Inactive)
REMARK    1  A    between atoms: C8_8  and  C11_11 
ROOT
HETATM    1  C1  UNL     1     -34.520  16.108  -1.739  1.00 20.00     0.064 C 
HETATM    2  C2  UNL     1     -33.369  16.704  -4.525  1.00 20.00     0.002 C 
HETATM    3  C3  UNL     1     -33.404  15.346  -3.825  1.00 20.00     0.019 C 
HETATM    4  C4  UNL     1     -35.959  15.135  -3.507  1.00 20.00     0.019 C 
HETATM    5  C5  UNL     1     -34.164  16.771  -5.824  1.00 20.00     0.005 C 
HETATM    6  C6  UNL     1     -36.301  16.334  -4.396  1.00 20.00     0.006 C 
HETATM    7  C7  UNL     1     -34.573  15.141  -2.855  1.00 20.00     0.093 C 
HETATM    8  C8  UNL     1     -35.647  16.361  -5.787  1.00 20.00    -0.011 C 
HETATM    9  N12 UNL     1     -34.478  16.868  -0.862  1.00 20.00    -0.197 NA
ENDROOT
BRANCH   8  10
HETATM   10  C11 UNL     1     -35.873  15.064  -6.572  1.00 20.00    -0.019 C 
HETATM   11  C9  UNL     1     -37.176  15.142  -7.359  1.00 20.00     0.010 C 
HETATM   12  C10 UNL     1     -34.694  14.794  -7.500  1.00 20.00     0.010 C 
ENDBRANCH   8  10
TORSDOF 1
ENDMDL
MODEL 4
REMARK VINA RESULT:      -4.5      1.681      2.421
REMARK  1 active torsions:
REMARK  status: ('A' for Active; 'I' for Inactive)
REMARK    1  A    between atoms: C8_8  and  C11_11 
ROOT
HETATM    1  C1  UNL     1     -35.206  13.549  -4.359  1.00 20.00     0.064 C 
HETATM    2  C2  UNL     1     -34.911  16.271  -5.752  1.00 20.00     0.002 C 
HETATM    3  C3  UNL     1     -36.087  15.810  -4.894  1.00 20.00     0.019 C 
HETATM    4  C4  UNL     1     -34.813  15.345  -2.696  1.00 20.00     0.019 C 
HETATM    5  C5  UNL     1     -34.157  17.478  -5.203  1.00 20.00     0.005 C 
HETATM    6  C6  UNL     1     -33.506  15.991  -3.164  1.00 20.00     0.006 C 
HETATM    7  C7  UNL     1     -35.739  14.805  -3.791  1.00 20.00     0.093 C 
HETATM    8  C8  UNL     1     -33.618  17.402  -3.764  1.00 20.00    -0.011 C 
HETATM    9  N12 UNL     1     -34.788  12.562  -4.805  1.00 20.00    -0.197 NA
ENDROOT
BRANCH   8  10
HETATM   10  C11 UNL     1     -34.369  18.376  -2.848  1.00 20.00    -0.019 C 
HETATM   11  C9  UNL     1     -33.381  19.218  -2.049  1.00 20.00     0.010 C 
HETATM   12  C10 UNL     1     -35.300  19.263  -3.668  1.00 20.00     0.010 C 
ENDBRANCH   8  10
TORSDOF 1
ENDMDL
MODEL 5
REMARK VINA RESULT:      -4.5      2.320      4.607
REMARK  1 active torsions:
REMARK  status: ('A' for Active; 'I' for Inactive)
REMARK    1  A    between atoms: C8_8  and  C11_11 
ROOT
HETATM    1  C1  UNL     1     -35.066  16.420  -1.914  1.00 20.00     0.064 C 
HETATM    2  C2  UNL     1     -34.895  14.024  -3.830  1.00 20.00     0.002 C 
HETATM    3  C3  UNL     1     -36.139  14.856  -3.520  1.00 20.00     0.019 C 
HETATM    4  C4  UNL     1     -35.262  17.168  -4.269  1.00 20.00     0.019 C 
HETATM    5  C5  UNL     1     -34.442  14.076  -5.285  1.00 20.00     0.005 C 
HETATM    6  C6  UNL     1     -33.995  16.618  -4.930  1.00 20.00     0.006 C 
HETATM    7  C7  UNL     1     -35.871  16.319  -3.149  1.00 20.00     0.093 C 
HETATM    8  C8  UNL     1     -34.187  15.455  -5.916  1.00 20.00    -0.011 C 
HETATM    9  N12 UNL     1     -34.433  16.500  -0.944  1.00 20.00    -0.197 NA
ENDROOT
BRANCH   8  10
HETATM   10  C11 UNL     1     -35.232  15.762  -6.995  1.00 20.00    -0.019 C 
HETATM   11  C9  UNL     1     -34.742  16.886  -7.901  1.00 20.00     0.010 C 
HETATM   12  C10 UNL     1     -35.542  14.508  -7.805  1.00 20.00     0.010 C 
ENDBRANCH   8  10
TORSDOF 1
ENDMDL
MODEL 6
REMARK VINA RESULT:      -4.4      2.499      4.611
REMARK  1 active torsions:
REMARK  status: ('A' for Active; 'I' for Inactive)
REMARK    1  A    between atoms: C8_8  and  C11_11 
ROOT
HETATM    1  C1  UNL     1     -34.419  16.741  -1.008  1.00 20.00     0.064 C 
HETATM    2  C2  UNL     1     -35.349  18.078  -3.613  1.00 20.00     0.002 C 
HETATM    3  C3  UNL     1     -33.911  17.732  -3.230  1.00 20.00     0.019 C 
HETATM    4  C4  UNL     1     -34.189  15.182  -2.922  1.00 20.00     0.019 C 
HETATM    5  C5  UNL     1     -35.868  17.355  -4.851  1.00 20.00     0.005 C 
HETATM    6  C6  UNL     1     -35.598  15.132  -3.519  1.00 20.00     0.006 C 
HETATM    7  C7  UNL     1     -33.754  16.517  -2.309  1.00 20.00     0.093 C 
HETATM    8  C8  UNL     1     -35.788  15.819  -4.880  1.00 20.00    -0.011 C 
HETATM    9  N12 UNL     1     -34.941  16.915   0.014  1.00 20.00    -0.197 NA
ENDROOT
BRANCH   8  10
HETATM   10  C11 UNL     1     -34.774  15.346  -5.928  1.00 20.00    -0.019 C 
HETATM   11  C9  UNL     1     -35.393  14.271  -6.815  1.00 20.00     0.010 C 
HETATM   12  C10 UNL     1     -34.288  16.525  -6.764  1.00 20.00     0.010 C 
ENDBRANCH   8  10
TORSDOF 1
ENDMDL
MODEL 7
REMARK VINA RESULT:      -4.3      1.258      2.494
REMARK  1 active torsions:
REMARK  status: ('A' for Active; 'I' for Inactive)
REMARK    1  A    between atoms: C8_8  and  C11_11 
ROOT
HETATM    1  C1  UNL     1     -35.905  15.628  -6.289  1.00 20.00     0.064 C 
HETATM    2  C2  UNL     1     -33.358  15.822  -4.582  1.00 20.00     0.002 C 
HETATM    3  C3  UNL     1     -34.128  16.985  -5.205  1.00 20.00     0.019 C 
HETATM    4  C4  UNL     1     -36.414  16.600  -4.066  1.00 20.00     0.019 C 
HETATM    5  C5  UNL     1     -33.305  15.839  -3.058  1.00 20.00     0.005 C 
HETATM    6  C6  UNL     1     -35.894  15.547  -3.083  1.00 20.00     0.006 C 
HETATM    7  C7  UNL     1     -35.634  16.757  -5.375  1.00 20.00     0.093 C 
HETATM    8  C8  UNL     1     -34.633  15.920  -2.287  1.00 20.00    -0.011 C 
HETATM    9  N12 UNL     1     -36.120  14.741  -7.007  1.00 20.00    -0.197 NA
ENDROOT
BRANCH   8  10
HETATM   10  C11 UNL     1     -34.765  17.267  -1.567  1.00 20.00    -0.019 C 
HETATM   11  C9  UNL     1     -34.894  17.053  -0.063  1.00 20.00     0.010 C 
HETATM   12  C10 UNL     1     -33.570  18.158  -1.888  1.00 20.00     0.010 C 
ENDBRANCH   8  10
TORSDOF 1
ENDMDL
MODEL 8
REMARK VINA RESULT:      -4.3      1.523      2.611
REMARK  1 active torsions:
REMARK  status: ('A' for Active; 'I' for Inactive)
REMARK    1  A    between atoms: C8_8  and  C11_11 
ROOT
HETATM    1  C1  UNL     1     -34.747  13.741  -5.010  1.00 20.00     0.064 C 
HETATM    2  C2  UNL     1     -33.243  15.581  -3.064  1.00 20.00     0.002 C 
HETATM    3  C3  UNL     1     -33.460  15.817  -4.557  1.00 20.00     0.019 C 
HETATM    4  C4  UNL     1     -36.043  15.811  -4.586  1.00 20.00     0.019 C 
HETATM    5  C5  UNL     1     -33.878  16.629  -2.156  1.00 20.00     0.005 C 
HETATM    6  C6  UNL     1     -36.190  15.840  -3.062  1.00 20.00     0.006 C 
HETATM    7  C7  UNL     1     -34.744  15.213  -5.136  1.00 20.00     0.093 C 
HETATM    8  C8  UNL     1     -35.381  16.914  -2.318  1.00 20.00    -0.011 C 
HETATM    9  N12 UNL     1     -34.751  12.584  -4.912  1.00 20.00    -0.197 NA
ENDROOT
BRANCH   8  10
HETATM   10  C11 UNL     1     -35.611  18.322  -2.879  1.00 20.00    -0.019 C 
HETATM   11  C9  UNL     1     -36.695  19.039  -2.080  1.00 20.00     0.010 C 
HETATM   12  C10 UNL     1     -34.311  19.118  -2.863  1.00 20.00     0.010 C 
ENDBRANCH   8  10
TORSDOF 1
ENDMDL
MODEL 9
REMARK VINA RESULT:      -4.3      2.506      4.589
REMARK  1 active torsions:
REMARK  status: ('A' for Active; 'I' for Inactive)
REMARK    1  A    between atoms: C8_8  and  C11_11 
ROOT
HETATM    1  C1  UNL     1     -35.524  18.222  -2.137  1.00 20.00     0.064 C 
HETATM    2  C2  UNL     1     -33.547  15.960  -2.777  1.00 20.00     0.002 C 
HETATM    3  C3  UNL     1     -34.962  15.803  -2.222  1.00 20.00     0.019 C 
HETATM    4  C4  UNL     1     -36.264  16.954  -4.134  1.00 20.00     0.019 C 
HETATM    5  C5  UNL     1     -33.329  15.327  -4.147  1.00 20.00     0.005 C 
HETATM    6  C6  UNL     1     -35.062  17.034  -5.080  1.00 20.00     0.006 C 
HETATM    7  C7  UNL     1     -35.951  16.899  -2.635  1.00 20.00     0.093 C 
HETATM    8  C8  UNL     1     -34.272  15.734  -5.292  1.00 20.00    -0.011 C 
HETATM    9  N12 UNL     1     -35.189  19.263  -1.746  1.00 20.00    -0.197 NA
ENDROOT
BRANCH   8  10
HETATM   10  C11 UNL     1     -35.166  14.559  -5.705  1.00 20.00    -0.019 C 
HETATM   11  C9  UNL     1     -35.180  14.412  -7.222  1.00 20.00     0.010 C 
HETATM   12  C10 UNL     1     -34.691  13.272  -5.039  1.00 20.00     0.010 C 
ENDBRANCH   8  10
TORSDOF 1
ENDMDL
