MODEL 1
REMARK VINA RESULT:      -4.9      0.000      0.000
REMARK  1 active torsions:
REMARK  status: ('A' for Active; 'I' for Inactive)
REMARK    1  A    between atoms: C7_7  and  C10_10 
ROOT
HETATM    1  C1  UNL     1     -33.915  13.606  -3.900  1.00 20.00     0.004 C 
HETATM    2  C2  UNL     1     -34.329  14.782  -3.015  1.00 20.00     0.005 C 
HETATM    3  C3  UNL     1     -34.096  16.678  -4.752  1.00 20.00     0.007 C 
HETATM    4  C4  UNL     1     -34.766  13.436  -5.154  1.00 20.00     0.040 C 
HETATM    5  C5  UNL     1     -33.877  15.745  -5.942  1.00 20.00     0.040 C 
HETATM    6  C6  UNL     1     -36.296  15.012  -6.549  1.00 20.00     0.207 A 
HETATM    7  C7  UNL     1     -33.646  16.106  -3.398  1.00 20.00    -0.015 C 
HETATM    8  C8  UNL     1     -34.922  14.667  -6.003  1.00 20.00     0.082 A 
HETATM    9  O11 UNL     1     -35.319  14.349  -7.352  1.00 20.00    -0.375 OA
ENDROOT
BRANCH   7  10
HETATM   10  C10 UNL     1     -33.898  17.148  -2.301  1.00 20.00     0.000 C 
HETATM   11  C9  UNL     1     -34.585  16.545  -1.123  1.00 20.00     0.005 C 
ENDBRANCH   7  10
TORSDOF 1
ENDMDL
MODEL 2
REMARK VINA RESULT:      -4.9      1.064      1.224
REMARK  1 active torsions:
REMARK  status: ('A' for Active; 'I' for Inactive)
REMARK    1  A    between atoms: C7_7  and  C10_10 
ROOT
HETATM    1  C1  UNL     1     -34.182  13.783  -4.100  1.00 20.00     0.004 C 
HETATM    2  C2  UNL     1     -34.805  14.663  -3.016  1.00 20.00     0.005 C 
HETATM    3  C3  UNL     1     -33.817  16.934  -3.744  1.00 20.00     0.007 C 
HETATM    4  C4  UNL     1     -34.527  14.206  -5.525  1.00 20.00     0.040 C 
HETATM    5  C5  UNL     1     -33.247  16.418  -5.064  1.00 20.00     0.040 C 
HETATM    6  C6  UNL     1     -35.324  16.424  -6.627  1.00 20.00     0.207 A 
HETATM    7  C7  UNL     1     -33.934  15.874  -2.637  1.00 20.00    -0.015 C 
HETATM    8  C8  UNL     1     -34.272  15.652  -5.851  1.00 20.00     0.082 A 
HETATM    9  O11 UNL     1     -34.172  15.878  -7.271  1.00 20.00    -0.375 OA
ENDROOT
BRANCH   7  10
HETATM   10  C10 UNL     1     -34.494  16.528  -1.368  1.00 20.00     0.000 C 
HETATM   11  C9  UNL     1     -33.609  17.627  -0.886  1.00 20.00     0.005 C 
ENDBRANCH   7  10
TORSDOF 1
ENDMDL
MODEL 3
REMARK VINA RESULT:      -4.7      1.327      1.890
REMARK  1 active torsions:
REMARK  status: ('A' for Active; 'I' for Inactive)
REMARK    1  A    between atoms: C7_7  and  C10_10 
ROOT
HETATM    1  C1  UNL     1     -36.506  15.144  -3.427  1.00 20.00     0.004 C 
HETATM    2  C2  UNL     1     -35.790  16.296  -2.720  1.00 20.00     0.005 C 
HETATM    3  C3  UNL     1     -33.353  15.605  -3.218  1.00 20.00     0.007 C 
HETATM    4  C4  UNL     1     -36.166  15.011  -4.908  1.00 20.00     0.040 C 
HETATM    5  C5  UNL     1     -33.726  14.488  -4.192  1.00 20.00     0.040 C 
HETATM    6  C6  UNL     1     -34.179  15.780  -6.401  1.00 20.00     0.207 A 
HETATM    7  C7  UNL     1     -34.417  15.904  -2.149  1.00 20.00    -0.015 C 
HETATM    8  C8  UNL     1     -34.699  14.960  -5.234  1.00 20.00     0.082 A 
HETATM    9  O11 UNL     1     -34.451  14.385  -6.533  1.00 20.00    -0.375 OA
ENDROOT
BRANCH   7  10
HETATM   10  C10 UNL     1     -33.907  17.021  -1.229  1.00 20.00     0.000 C 
HETATM   11  C9  UNL     1     -34.794  17.199  -0.044  1.00 20.00     0.005 C 
ENDBRANCH   7  10
TORSDOF 1
ENDMDL
MODEL 4
REMARK VINA RESULT:      -4.5     11.968     13.473
REMARK  1 active torsions:
REMARK  status: ('A' for Active; 'I' for Inactive)
REMARK    1  A    between atoms: C7_7  and  C10_10 
ROOT
HETATM    1  C1  UNL     1     -35.333   5.604   3.204  1.00 20.00     0.004 C 
HETATM    2  C2  UNL     1     -33.865   5.818   2.835  1.00 20.00     0.005 C 
HETATM    3  C3  UNL     1     -33.017   6.696   5.110  1.00 20.00     0.007 C 
HETATM    4  C4  UNL     1     -35.552   4.657   4.380  1.00 20.00     0.040 C 
HETATM    5  C5  UNL     1     -34.308   6.385   5.865  1.00 20.00     0.040 C 
HETATM    6  C6  UNL     1     -34.081   3.845   6.366  1.00 20.00     0.207 A 
HETATM    7  C7  UNL     1     -33.203   6.971   3.609  1.00 20.00    -0.015 C 
HETATM    8  C8  UNL     1     -34.768   4.976   5.623  1.00 20.00     0.082 A 
HETATM    9  O11 UNL     1     -35.339   4.364   6.796  1.00 20.00    -0.375 OA
ENDROOT
BRANCH   7  10
HETATM   10  C10 UNL     1     -31.840   7.291   2.982  1.00 20.00     0.000 C 
HETATM   11  C9  UNL     1     -31.968   8.280   1.873  1.00 20.00     0.005 C 
ENDBRANCH   7  10
TORSDOF 1
ENDMDL
MODEL 5
REMARK VINA RESULT:      -4.5      1.521      2.646
REMARK  1 active torsions:
REMARK  status: ('A' for Active; 'I' for Inactive)
REMARK    1  A    between atoms: C7_7  and  C10_10 
ROOT
HETATM    1  C1  UNL     1     -34.501  16.532  -5.531  1.00 20.00     0.004 C 
HETATM    2  C2  UNL     1     -33.691  17.219  -4.431  1.00 20.00     0.005 C 
HETATM    3  C3  UNL     1     -34.630  15.936  -2.397  1.00 20.00     0.007 C 
HETATM    4  C4  UNL     1     -34.321  15.018  -5.588  1.00 20.00     0.040 C 
HETATM    5  C5  UNL     1     -35.397  14.908  -3.228  1.00 20.00     0.040 C 
HETATM    6  C6  UNL     1     -33.545  13.208  -3.888  1.00 20.00     0.207 A 
HETATM    7  C7  UNL     1     -34.432  17.297  -3.085  1.00 20.00    -0.015 C 
HETATM    8  C8  UNL     1     -34.530  14.292  -4.289  1.00 20.00     0.082 A 
HETATM    9  O11 UNL     1     -34.801  12.890  -4.489  1.00 20.00    -0.375 OA
ENDROOT
BRANCH   7  10
HETATM   10  C10 UNL     1     -33.675  18.235  -2.137  1.00 20.00     0.000 C 
HETATM   11  C9  UNL     1     -33.664  17.710  -0.742  1.00 20.00     0.005 C 
ENDBRANCH   7  10
TORSDOF 1
ENDMDL
MODEL 6
REMARK VINA RESULT:      -4.5      1.069      2.206
REMARK  1 active torsions:
REMARK  status: ('A' for Active; 'I' for Inactive)
REMARK    1  A    between atoms: C7_7  and  C10_10 
ROOT
HETATM    1  C1  UNL     1     -33.651  17.005  -4.758  1.00 20.00     0.004 C 
HETATM    2  C2  UNL     1     -33.540  16.657  -3.273  1.00 20.00     0.005 C 
HETATM    3  C3  UNL     1     -35.789  15.421  -2.993  1.00 20.00     0.007 C 
HETATM    4  C4  UNL     1     -33.838  15.797  -5.671  1.00 20.00     0.040 C 
HETATM    5  C5  UNL     1     -36.112  15.387  -4.486  1.00 20.00     0.040 C 
HETATM    6  C6  UNL     1     -34.708  13.369  -5.330  1.00 20.00     0.207 A 
HETATM    7  C7  UNL     1     -34.900  16.597  -2.556  1.00 20.00    -0.015 C 
HETATM    8  C8  UNL     1     -34.957  14.866  -5.293  1.00 20.00     0.082 A 
HETATM    9  O11 UNL     1     -35.374  14.041  -6.399  1.00 20.00    -0.375 OA
ENDROOT
BRANCH   7  10
HETATM   10  C10 UNL     1     -34.676  16.524  -1.040  1.00 20.00     0.000 C 
HETATM   11  C9  UNL     1     -33.835  17.656  -0.557  1.00 20.00     0.005 C 
ENDBRANCH   7  10
TORSDOF 1
ENDMDL
MODEL 7
REMARK VINA RESULT:      -4.4      1.900      2.964
REMARK  1 active torsions:
REMARK  status: ('A' for Active; 'I' for Inactive)
REMARK    1  A    between atoms: C7_7  and  C10_10 
ROOT
HETATM    1  C1  UNL     1     -36.455  16.124  -3.413  1.00 20.00     0.004 C 
HETATM    2  C2  UNL     1     -35.671  17.115  -4.274  1.00 20.00     0.005 C 
HETATM    3  C3  UNL     1     -33.342  16.013  -4.112  1.00 20.00     0.007 C 
HETATM    4  C4  UNL     1     -36.392  14.681  -3.905  1.00 20.00     0.040 C 
HETATM    5  C5  UNL     1     -33.841  14.742  -3.426  1.00 20.00     0.040 C 
HETATM    6  C6  UNL     1     -34.753  13.339  -5.415  1.00 20.00     0.207 A 
HETATM    7  C7  UNL     1     -34.199  17.262  -3.849  1.00 20.00    -0.015 C 
HETATM    8  C8  UNL     1     -35.011  14.141  -4.152  1.00 20.00     0.082 A 
HETATM    9  O11 UNL     1     -34.985  12.700  -4.159  1.00 20.00    -0.375 OA
ENDROOT
BRANCH   7  10
HETATM   10  C10 UNL     1     -33.576  18.463  -4.571  1.00 20.00     0.000 C 
HETATM   11  C9  UNL     1     -33.748  18.361  -6.048  1.00 20.00     0.005 C 
ENDBRANCH   7  10
TORSDOF 1
ENDMDL
MODEL 8
REMARK VINA RESULT:      -4.3      2.313      3.852
REMARK  1 active torsions:
REMARK  status: ('A' for Active; 'I' for Inactive)
REMARK    1  A    between atoms: C7_7  and  C10_10 
ROOT
HETATM    1  C1  UNL     1     -34.088  18.748  -3.366  1.00 20.00     0.004 C 
HETATM    2  C2  UNL     1     -33.411  18.768  -1.995  1.00 20.00     0.005 C 
HETATM    3  C3  UNL     1     -34.378  16.569  -1.050  1.00 20.00     0.007 C 
HETATM    4  C4  UNL     1     -33.784  17.504  -4.195  1.00 20.00     0.040 C 
HETATM    5  C5  UNL     1     -35.003  16.118  -2.369  1.00 20.00     0.040 C 
HETATM    6  C6  UNL     1     -32.982  15.092  -3.641  1.00 20.00     0.207 A 
HETATM    7  C7  UNL     1     -34.243  18.092  -0.892  1.00 20.00    -0.015 C 
HETATM    8  C8  UNL     1     -34.021  16.190  -3.504  1.00 20.00     0.082 A 
HETATM    9  O11 UNL     1     -34.166  15.103  -4.439  1.00 20.00    -0.375 OA
ENDROOT
BRANCH   7  10
HETATM   10  C10 UNL     1     -33.627  18.405   0.478  1.00 20.00     0.000 C 
HETATM   11  C9  UNL     1     -32.214  18.862   0.349  1.00 20.00     0.005 C 
ENDBRANCH   7  10
TORSDOF 1
ENDMDL
MODEL 9
REMARK VINA RESULT:      -4.2      1.897      3.333
REMARK  1 active torsions:
REMARK  status: ('A' for Active; 'I' for Inactive)
REMARK    1  A    between atoms: C7_7  and  C10_10 
ROOT
HETATM    1  C1  UNL     1     -32.852  15.821  -4.375  1.00 20.00     0.004 C 
HETATM    2  C2  UNL     1     -33.680  16.977  -4.938  1.00 20.00     0.005 C 
HETATM    3  C3  UNL     1     -35.070  15.654  -6.665  1.00 20.00     0.007 C 
HETATM    4  C4  UNL     1     -33.683  14.681  -3.792  1.00 20.00     0.040 C 
HETATM    5  C5  UNL     1     -34.611  14.278  -6.184  1.00 20.00     0.040 C 
HETATM    6  C6  UNL     1     -36.129  13.857  -4.117  1.00 20.00     0.207 A 
HETATM    7  C7  UNL     1     -34.064  16.789  -6.416  1.00 20.00    -0.015 C 
HETATM    8  C8  UNL     1     -34.753  14.133  -4.695  1.00 20.00     0.082 A 
HETATM    9  O11 UNL     1     -35.173  12.812  -4.299  1.00 20.00    -0.375 OA
ENDROOT
BRANCH   7  10
HETATM   10  C10 UNL     1     -34.638  18.101  -6.966  1.00 20.00     0.000 C 
HETATM   11  C9  UNL     1     -33.684  19.232  -6.784  1.00 20.00     0.005 C 
ENDBRANCH   7  10
TORSDOF 1
ENDMDL
