MODEL 1
REMARK VINA RESULT:      -5.2      0.000      0.000
REMARK  2 active torsions:
REMARK  status: ('A' for Active; 'I' for Inactive)
REMARK    1  A    between atoms: C6_6  and  C9_9 
REMARK    2  A    between atoms: C9_9  and  C10_10 
ROOT
HETATM    1  C1  UNL     1     -34.704   5.141   2.914  1.00 20.00     0.002 C 
HETATM    2  C2  UNL     1     -33.276   5.678   2.983  1.00 20.00     0.005 C 
HETATM    3  C3  UNL     1     -32.952   6.745   5.266  1.00 20.00     0.006 C 
HETATM    4  C4  UNL     1     -35.627   5.371   4.108  1.00 20.00     0.020 C 
HETATM    5  C5  UNL     1     -34.253   6.416   5.995  1.00 20.00     0.020 C 
HETATM    6  C6  UNL     1     -33.089   6.990   3.754  1.00 20.00    -0.014 C 
HETATM    7  C7  UNL     1     -35.050   5.201   5.513  1.00 20.00     0.082 C 
HETATM    8 CL11 UNL     1     -34.134   3.681   5.697  1.00 20.00    -0.125 Cl
ENDROOT
BRANCH   6   9
HETATM    9  C9  UNL     1     -31.817   7.690   3.253  1.00 20.00     0.004 C 
BRANCH   9  10
HETATM   10  C10 UNL     1     -31.967   8.119   1.799  1.00 20.00    -0.004 C 
HETATM   11  C8  UNL     1     -32.488   9.545   1.703  1.00 20.00     0.005 C 
ENDBRANCH   9  10
ENDBRANCH   6   9
TORSDOF 2
ENDMDL
MODEL 2
REMARK VINA RESULT:      -5.0     11.320     12.022
REMARK  2 active torsions:
REMARK  status: ('A' for Active; 'I' for Inactive)
REMARK    1  A    between atoms: C6_6  and  C9_9 
REMARK    2  A    between atoms: C9_9  and  C10_10 
ROOT
HETATM    1  C1  UNL     1     -36.505  15.179  -3.936  1.00 20.00     0.002 C 
HETATM    2  C2  UNL     1     -35.538  16.242  -3.420  1.00 20.00     0.005 C 
HETATM    3  C3  UNL     1     -33.225  15.196  -3.291  1.00 20.00     0.006 C 
HETATM    4  C4  UNL     1     -35.969  13.777  -4.208  1.00 20.00     0.020 C 
HETATM    5  C5  UNL     1     -33.428  13.818  -3.915  1.00 20.00     0.020 C 
HETATM    6  C6  UNL     1     -34.422  15.741  -2.494  1.00 20.00    -0.014 C 
HETATM    7  C7  UNL     1     -34.603  13.641  -4.880  1.00 20.00     0.082 C 
HETATM    8 CL11 UNL     1     -34.446  14.675  -6.325  1.00 20.00    -0.125 Cl
ENDROOT
BRANCH   6   9
HETATM    9  C9  UNL     1     -33.939  16.904  -1.615  1.00 20.00     0.004 C 
BRANCH   9  10
HETATM   10  C10 UNL     1     -34.732  16.973  -0.317  1.00 20.00    -0.004 C 
HETATM   11  C8  UNL     1     -34.199  18.071   0.590  1.00 20.00     0.005 C 
ENDBRANCH   9  10
ENDBRANCH   6   9
TORSDOF 2
ENDMDL
MODEL 3
REMARK VINA RESULT:      -4.8     11.570     12.698
REMARK  2 active torsions:
REMARK  status: ('A' for Active; 'I' for Inactive)
REMARK    1  A    between atoms: C6_6  and  C9_9 
REMARK    2  A    between atoms: C9_9  and  C10_10 
ROOT
HETATM    1  C1  UNL     1     -35.190  14.014  -3.807  1.00 20.00     0.002 C 
HETATM    2  C2  UNL     1     -35.130  15.295  -2.978  1.00 20.00     0.005 C 
HETATM    3  C3  UNL     1     -33.742  16.992  -4.265  1.00 20.00     0.006 C 
HETATM    4  C4  UNL     1     -34.424  13.962  -5.125  1.00 20.00     0.020 C 
HETATM    5  C5  UNL     1     -33.475  16.291  -5.594  1.00 20.00     0.020 C 
HETATM    6  C6  UNL     1     -33.807  16.070  -3.036  1.00 20.00    -0.014 C 
HETATM    7  C7  UNL     1     -34.451  15.195  -6.029  1.00 20.00     0.082 C 
HETATM    8 CL11 UNL     1     -36.102  15.825  -6.274  1.00 20.00    -0.125 Cl
ENDROOT
BRANCH   6   9
HETATM    9  C9  UNL     1     -33.673  16.928  -1.769  1.00 20.00     0.004 C 
BRANCH   9  10
HETATM   10  C10 UNL     1     -34.765  16.590  -0.763  1.00 20.00    -0.004 C 
HETATM   11  C8  UNL     1     -34.758  17.571   0.399  1.00 20.00     0.005 C 
ENDBRANCH   9  10
ENDBRANCH   6   9
TORSDOF 2
ENDMDL
MODEL 4
REMARK VINA RESULT:      -4.6     11.564     12.458
REMARK  2 active torsions:
REMARK  status: ('A' for Active; 'I' for Inactive)
REMARK    1  A    between atoms: C6_6  and  C9_9 
REMARK    2  A    between atoms: C9_9  and  C10_10 
ROOT
HETATM    1  C1  UNL     1     -33.006  15.840  -4.532  1.00 20.00     0.002 C 
HETATM    2  C2  UNL     1     -33.413  15.628  -3.075  1.00 20.00     0.005 C 
HETATM    3  C3  UNL     1     -35.944  15.420  -2.995  1.00 20.00     0.006 C 
HETATM    4  C4  UNL     1     -34.103  15.939  -5.588  1.00 20.00     0.020 C 
HETATM    5  C5  UNL     1     -36.343  15.420  -4.468  1.00 20.00     0.020 C 
HETATM    6  C6  UNL     1     -34.727  16.291  -2.642  1.00 20.00    -0.014 C 
HETATM    7  C7  UNL     1     -35.291  14.982  -5.490  1.00 20.00     0.082 C 
HETATM    8 CL11 UNL     1     -34.787  13.288  -5.250  1.00 20.00    -0.125 Cl
ENDROOT
BRANCH   6   9
HETATM    9  C9  UNL     1     -34.702  16.508  -1.122  1.00 20.00     0.004 C 
BRANCH   9  10
HETATM   10  C10 UNL     1     -33.768  17.653  -0.750  1.00 20.00    -0.004 C 
HETATM   11  C8  UNL     1     -34.071  18.171   0.647  1.00 20.00     0.005 C 
ENDBRANCH   9  10
ENDBRANCH   6   9
TORSDOF 2
ENDMDL
MODEL 5
REMARK VINA RESULT:      -4.4     11.588     12.883
REMARK  2 active torsions:
REMARK  status: ('A' for Active; 'I' for Inactive)
REMARK    1  A    between atoms: C6_6  and  C9_9 
REMARK    2  A    between atoms: C9_9  and  C10_10 
ROOT
HETATM    1  C1  UNL     1     -34.518  14.642  -3.321  1.00 20.00     0.002 C 
HETATM    2  C2  UNL     1     -34.733  15.752  -2.294  1.00 20.00     0.005 C 
HETATM    3  C3  UNL     1     -33.976  17.940  -3.342  1.00 20.00     0.006 C 
HETATM    4  C4  UNL     1     -33.886  15.002  -4.662  1.00 20.00     0.020 C 
HETATM    5  C5  UNL     1     -33.648  17.546  -4.780  1.00 20.00     0.020 C 
HETATM    6  C6  UNL     1     -33.680  16.867  -2.281  1.00 20.00    -0.014 C 
HETATM    7  C7  UNL     1     -34.326  16.296  -5.346  1.00 20.00     0.082 C 
HETATM    8 CL11 UNL     1     -36.101  16.466  -5.411  1.00 20.00    -0.125 Cl
ENDROOT
BRANCH   6   9
HETATM    9  C9  UNL     1     -33.672  17.533  -0.897  1.00 20.00     0.004 C 
BRANCH   9  10
HETATM   10  C10 UNL     1     -34.809  17.007  -0.032  1.00 20.00    -0.004 C 
HETATM   11  C8  UNL     1     -35.061  17.924   1.155  1.00 20.00     0.005 C 
ENDBRANCH   9  10
ENDBRANCH   6   9
TORSDOF 2
ENDMDL
MODEL 6
REMARK VINA RESULT:      -4.4      9.513     10.778
REMARK  2 active torsions:
REMARK  status: ('A' for Active; 'I' for Inactive)
REMARK    1  A    between atoms: C6_6  and  C9_9 
REMARK    2  A    between atoms: C9_9  and  C10_10 
ROOT
HETATM    1  C1  UNL     1     -41.225   7.256  -0.572  1.00 20.00     0.002 C 
HETATM    2  C2  UNL     1     -42.367   7.472  -1.563  1.00 20.00     0.005 C 
HETATM    3  C3  UNL     1     -42.805   5.263  -2.740  1.00 20.00     0.006 C 
HETATM    4  C4  UNL     1     -40.564   5.882  -0.509  1.00 20.00     0.020 C 
HETATM    5  C5  UNL     1     -41.885   4.288  -2.010  1.00 20.00     0.020 C 
HETATM    6  C6  UNL     1     -42.265   6.696  -2.882  1.00 20.00    -0.014 C 
HETATM    7  C7  UNL     1     -41.458   4.645  -0.585  1.00 20.00     0.082 C 
HETATM    8 CL11 UNL     1     -42.849   4.736   0.529  1.00 20.00    -0.125 Cl
ENDROOT
BRANCH   6   9
HETATM    9  C9  UNL     1     -43.084   7.426  -3.957  1.00 20.00     0.004 C 
BRANCH   9  10
HETATM   10  C10 UNL     1     -42.607   8.862  -4.126  1.00 20.00    -0.004 C 
HETATM   11  C8  UNL     1     -41.794   9.020  -5.402  1.00 20.00     0.005 C 
ENDBRANCH   9  10
ENDBRANCH   6   9
TORSDOF 2
ENDMDL
MODEL 7
REMARK VINA RESULT:      -4.4      9.568     11.317
REMARK  2 active torsions:
REMARK  status: ('A' for Active; 'I' for Inactive)
REMARK    1  A    between atoms: C6_6  and  C9_9 
REMARK    2  A    between atoms: C9_9  and  C10_10 
ROOT
HETATM    1  C1  UNL     1     -43.036   6.461  -3.348  1.00 20.00     0.002 C 
HETATM    2  C2  UNL     1     -43.240   5.017  -2.892  1.00 20.00     0.005 C 
HETATM    3  C3  UNL     1     -41.558   4.536  -1.049  1.00 20.00     0.006 C 
HETATM    4  C4  UNL     1     -41.915   7.275  -2.710  1.00 20.00     0.020 C 
HETATM    5  C5  UNL     1     -40.901   5.894  -0.811  1.00 20.00     0.020 C 
HETATM    6  C6  UNL     1     -41.970   4.251  -2.503  1.00 20.00    -0.014 C 
HETATM    7  C7  UNL     1     -41.691   7.144  -1.204  1.00 20.00     0.082 C 
HETATM    8 CL11 UNL     1     -43.204   7.303  -0.271  1.00 20.00    -0.125 Cl
ENDROOT
BRANCH   6   9
HETATM    9  C9  UNL     1     -42.227   2.745  -2.655  1.00 20.00     0.004 C 
BRANCH   9  10
HETATM   10  C10 UNL     1     -41.285   2.131  -3.683  1.00 20.00    -0.004 C 
HETATM   11  C8  UNL     1     -41.662   0.687  -3.974  1.00 20.00     0.005 C 
ENDBRANCH   9  10
ENDBRANCH   6   9
TORSDOF 2
ENDMDL
MODEL 8
REMARK VINA RESULT:      -4.3     11.200     13.334
REMARK  2 active torsions:
REMARK  status: ('A' for Active; 'I' for Inactive)
REMARK    1  A    between atoms: C6_6  and  C9_9 
REMARK    2  A    between atoms: C9_9  and  C10_10 
ROOT
HETATM    1  C1  UNL     1     -33.304  16.615  -4.853  1.00 20.00     0.002 C 
HETATM    2  C2  UNL     1     -34.392  16.381  -5.899  1.00 20.00     0.005 C 
HETATM    3  C3  UNL     1     -35.184  13.976  -5.675  1.00 20.00     0.006 C 
HETATM    4  C4  UNL     1     -32.879  15.446  -3.970  1.00 20.00     0.020 C 
HETATM    5  C5  UNL     1     -34.439  13.475  -4.441  1.00 20.00     0.020 C 
HETATM    6  C6  UNL     1     -34.416  14.988  -6.542  1.00 20.00    -0.014 C 
HETATM    7  C7  UNL     1     -33.964  14.517  -3.426  1.00 20.00     0.082 C 
HETATM    8 CL11 UNL     1     -35.324  15.410  -2.693  1.00 20.00    -0.125 Cl
ENDROOT
BRANCH   6   9
HETATM    9  C9  UNL     1     -35.101  15.081  -7.914  1.00 20.00     0.004 C 
BRANCH   9  10
HETATM   10  C10 UNL     1     -36.596  14.817  -7.796  1.00 20.00    -0.004 C 
HETATM   11  C8  UNL     1     -37.389  16.109  -7.918  1.00 20.00     0.005 C 
ENDBRANCH   9  10
ENDBRANCH   6   9
TORSDOF 2
ENDMDL
MODEL 9
REMARK VINA RESULT:      -4.2     11.210     12.893
REMARK  2 active torsions:
REMARK  status: ('A' for Active; 'I' for Inactive)
REMARK    1  A    between atoms: C6_6  and  C9_9 
REMARK    2  A    between atoms: C9_9  and  C10_10 
ROOT
HETATM    1  C1  UNL     1     -33.691  18.460  -4.070  1.00 20.00     0.002 C 
HETATM    2  C2  UNL     1     -33.880  16.962  -4.294  1.00 20.00     0.005 C 
HETATM    3  C3  UNL     1     -34.513  15.914  -2.067  1.00 20.00     0.006 C 
HETATM    4  C4  UNL     1     -33.847  19.011  -2.656  1.00 20.00     0.020 C 
HETATM    5  C5  UNL     1     -34.671  17.120  -1.144  1.00 20.00     0.020 C 
HETATM    6  C6  UNL     1     -33.427  16.050  -3.147  1.00 20.00    -0.014 C 
HETATM    7  C7  UNL     1     -34.985  18.472  -1.789  1.00 20.00     0.082 C 
HETATM    8 CL11 UNL     1     -36.550  18.461  -2.646  1.00 20.00    -0.125 Cl
ENDROOT
BRANCH   6   9
HETATM    9  C9  UNL     1     -33.115  14.655  -3.708  1.00 20.00     0.004 C 
BRANCH   9  10
HETATM   10  C10 UNL     1     -34.316  13.728  -3.567  1.00 20.00    -0.004 C 
HETATM   11  C8  UNL     1     -34.737  13.172  -4.918  1.00 20.00     0.005 C 
ENDBRANCH   9  10
ENDBRANCH   6   9
TORSDOF 2
ENDMDL
