MODEL 1
REMARK VINA RESULT:      -5.1      0.000      0.000
REMARK  2 active torsions:
REMARK  status: ('A' for Active; 'I' for Inactive)
REMARK    1  A    between atoms: C8_8  and  C10_10 
REMARK    2  A    between atoms: C10_10  and  C11_11 
ROOT
HETATM    1  C1  UNL     1     -36.092  14.987  -7.162  1.00 20.00     0.064 C 
HETATM    2  C2  UNL     1     -33.925  13.567  -4.340  1.00 20.00     0.002 C 
HETATM    3  C3  UNL     1     -35.070  13.692  -5.341  1.00 20.00     0.019 C 
HETATM    4  C4  UNL     1     -34.047  15.940  -6.155  1.00 20.00     0.019 C 
HETATM    5  C5  UNL     1     -34.001  14.611  -3.226  1.00 20.00     0.005 C 
HETATM    6  C6  UNL     1     -34.428  16.593  -4.824  1.00 20.00     0.006 C 
HETATM    7  C7  UNL     1     -34.810  14.655  -6.505  1.00 20.00     0.093 C 
HETATM    8  C8  UNL     1     -33.624  16.042  -3.633  1.00 20.00    -0.014 C 
HETATM    9  N12 UNL     1     -37.099  15.245  -7.677  1.00 20.00    -0.197 NA
ENDROOT
BRANCH   8  10
HETATM   10  C10 UNL     1     -33.797  16.970  -2.424  1.00 20.00     0.004 C 
BRANCH  10  11
HETATM   11  C11 UNL     1     -34.731  16.354  -1.392  1.00 20.00    -0.004 C 
HETATM   12  C9  UNL     1     -34.714  17.149  -0.097  1.00 20.00     0.005 C 
ENDBRANCH  10  11
ENDBRANCH   8  10
TORSDOF 2
ENDMDL
MODEL 2
REMARK VINA RESULT:      -4.9      1.137      1.288
REMARK  2 active torsions:
REMARK  status: ('A' for Active; 'I' for Inactive)
REMARK    1  A    between atoms: C8_8  and  C10_10 
REMARK    2  A    between atoms: C10_10  and  C11_11 
ROOT
HETATM    1  C1  UNL     1     -34.901  16.425  -7.207  1.00 20.00     0.064 C 
HETATM    2  C2  UNL     1     -34.189  13.713  -4.597  1.00 20.00     0.002 C 
HETATM    3  C3  UNL     1     -34.816  14.413  -5.800  1.00 20.00     0.019 C 
HETATM    4  C4  UNL     1     -33.366  16.507  -5.272  1.00 20.00     0.019 C 
HETATM    5  C5  UNL     1     -34.622  14.328  -3.266  1.00 20.00     0.005 C 
HETATM    6  C6  UNL     1     -34.198  16.762  -4.013  1.00 20.00     0.006 C 
HETATM    7  C7  UNL     1     -34.027  15.615  -6.332  1.00 20.00     0.093 C 
HETATM    8  C8  UNL     1     -33.994  15.688  -2.930  1.00 20.00    -0.014 C 
HETATM    9  N12 UNL     1     -35.587  17.059  -7.895  1.00 20.00    -0.197 NA
ENDROOT
BRANCH   8  10
HETATM   10  C10 UNL     1     -34.563  16.188  -1.596  1.00 20.00     0.004 C 
BRANCH  10  11
HETATM   11  C11 UNL     1     -33.829  17.434  -1.122  1.00 20.00    -0.004 C 
HETATM   12  C9  UNL     1     -34.273  17.830   0.277  1.00 20.00     0.005 C 
ENDBRANCH  10  11
ENDBRANCH   8  10
TORSDOF 2
ENDMDL
MODEL 3
REMARK VINA RESULT:      -4.9      2.466      3.900
REMARK  2 active torsions:
REMARK  status: ('A' for Active; 'I' for Inactive)
REMARK    1  A    between atoms: C8_8  and  C10_10 
REMARK    2  A    between atoms: C10_10  and  C11_11 
ROOT
HETATM    1  C1  UNL     1     -33.857  14.275  -3.764  1.00 20.00     0.064 C 
HETATM    2  C2  UNL     1     -33.904  18.105  -3.829  1.00 20.00     0.002 C 
HETATM    3  C3  UNL     1     -33.487  16.673  -4.151  1.00 20.00     0.019 C 
HETATM    4  C4  UNL     1     -35.269  15.826  -2.457  1.00 20.00     0.019 C 
HETATM    5  C5  UNL     1     -33.520  18.525  -2.410  1.00 20.00     0.005 C 
HETATM    6  C6  UNL     1     -34.431  16.379  -1.302  1.00 20.00     0.006 C 
HETATM    7  C7  UNL     1     -34.515  15.599  -3.774  1.00 20.00     0.093 C 
HETATM    8  C8  UNL     1     -34.371  17.916  -1.286  1.00 20.00    -0.014 C 
HETATM    9  N12 UNL     1     -33.340  13.237  -3.757  1.00 20.00    -0.197 NA
ENDROOT
BRANCH   8  10
HETATM   10  C10 UNL     1     -33.831  18.395   0.068  1.00 20.00     0.004 C 
BRANCH  10  11
HETATM   11  C11 UNL     1     -32.422  18.953  -0.074  1.00 20.00    -0.004 C 
HETATM   12  C9  UNL     1     -31.726  19.025   1.276  1.00 20.00     0.005 C 
ENDBRANCH  10  11
ENDBRANCH   8  10
TORSDOF 2
ENDMDL
MODEL 4
REMARK VINA RESULT:      -4.8      1.906      2.890
REMARK  2 active torsions:
REMARK  status: ('A' for Active; 'I' for Inactive)
REMARK    1  A    between atoms: C8_8  and  C10_10 
REMARK    2  A    between atoms: C10_10  and  C11_11 
ROOT
HETATM    1  C1  UNL     1     -35.047  13.670  -4.699  1.00 20.00     0.064 C 
HETATM    2  C2  UNL     1     -34.242  17.415  -4.745  1.00 20.00     0.002 C 
HETATM    3  C3  UNL     1     -34.174  15.931  -5.098  1.00 20.00     0.019 C 
HETATM    4  C4  UNL     1     -36.000  15.473  -3.304  1.00 20.00     0.019 C 
HETATM    5  C5  UNL     1     -33.693  17.714  -3.351  1.00 20.00     0.005 C 
HETATM    6  C6  UNL     1     -34.995  15.806  -2.199  1.00 20.00     0.006 C 
HETATM    7  C7  UNL     1     -35.392  15.106  -4.664  1.00 20.00     0.093 C 
HETATM    8  C8  UNL     1     -34.592  17.290  -2.180  1.00 20.00    -0.014 C 
HETATM    9  N12 UNL     1     -34.775  12.542  -4.727  1.00 20.00    -0.197 NA
ENDROOT
BRANCH   8  10
HETATM   10  C10 UNL     1     -33.882  17.614  -0.859  1.00 20.00     0.004 C 
BRANCH  10  11
HETATM   11  C11 UNL     1     -34.796  17.352   0.329  1.00 20.00    -0.004 C 
HETATM   12  C9  UNL     1     -34.432  18.245   1.504  1.00 20.00     0.005 C 
ENDBRANCH  10  11
ENDBRANCH   8  10
TORSDOF 2
ENDMDL
MODEL 5
REMARK VINA RESULT:      -4.8      1.988      2.262
REMARK  2 active torsions:
REMARK  status: ('A' for Active; 'I' for Inactive)
REMARK    1  A    between atoms: C8_8  and  C10_10 
REMARK    2  A    between atoms: C10_10  and  C11_11 
ROOT
HETATM    1  C1  UNL     1     -37.913  14.693  -4.181  1.00 20.00     0.064 C 
HETATM    2  C2  UNL     1     -34.088  14.509  -4.238  1.00 20.00     0.002 C 
HETATM    3  C3  UNL     1     -35.542  14.051  -4.179  1.00 20.00     0.019 C 
HETATM    4  C4  UNL     1     -36.278  16.545  -4.247  1.00 20.00     0.019 C 
HETATM    5  C5  UNL     1     -33.643  15.221  -2.961  1.00 20.00     0.005 C 
HETATM    6  C6  UNL     1     -35.723  16.744  -2.834  1.00 20.00     0.006 C 
HETATM    7  C7  UNL     1     -36.568  15.091  -4.646  1.00 20.00     0.093 C 
HETATM    8  C8  UNL     1     -34.189  16.644  -2.771  1.00 20.00    -0.014 C 
HETATM    9  N12 UNL     1     -38.969  14.380  -3.816  1.00 20.00    -0.197 NA
ENDROOT
BRANCH   8  10
HETATM   10  C10 UNL     1     -33.693  17.197  -1.429  1.00 20.00     0.004 C 
BRANCH  10  11
HETATM   11  C11 UNL     1     -34.694  16.914  -0.319  1.00 20.00    -0.004 C 
HETATM   12  C9  UNL     1     -34.611  17.970   0.772  1.00 20.00     0.005 C 
ENDBRANCH  10  11
ENDBRANCH   8  10
TORSDOF 2
ENDMDL
MODEL 6
REMARK VINA RESULT:      -4.6      2.165      4.006
REMARK  2 active torsions:
REMARK  status: ('A' for Active; 'I' for Inactive)
REMARK    1  A    between atoms: C8_8  and  C10_10 
REMARK    2  A    between atoms: C10_10  and  C11_11 
ROOT
HETATM    1  C1  UNL     1     -34.571  13.559  -4.094  1.00 20.00     0.064 C 
HETATM    2  C2  UNL     1     -35.088  16.928  -2.347  1.00 20.00     0.002 C 
HETATM    3  C3  UNL     1     -35.395  15.536  -2.891  1.00 20.00     0.019 C 
HETATM    4  C4  UNL     1     -32.986  15.441  -3.867  1.00 20.00     0.019 C 
HETATM    5  C5  UNL     1     -34.929  17.971  -3.453  1.00 20.00     0.005 C 
HETATM    6  C6  UNL     1     -33.362  16.511  -4.894  1.00 20.00     0.006 C 
HETATM    7  C7  UNL     1     -34.163  14.688  -3.232  1.00 20.00     0.093 C 
HETATM    8  C8  UNL     1     -33.625  17.887  -4.259  1.00 20.00    -0.014 C 
HETATM    9  N12 UNL     1     -34.892  12.672  -4.770  1.00 20.00    -0.197 NA
ENDROOT
BRANCH   8  10
HETATM   10  C10 UNL     1     -33.641  18.963  -5.353  1.00 20.00     0.004 C 
BRANCH  10  11
HETATM   11  C11 UNL     1     -34.010  18.363  -6.702  1.00 20.00    -0.004 C 
HETATM   12  C9  UNL     1     -35.409  18.786  -7.122  1.00 20.00     0.005 C 
ENDBRANCH  10  11
ENDBRANCH   8  10
TORSDOF 2
ENDMDL
MODEL 7
REMARK VINA RESULT:      -4.4      2.446      4.815
REMARK  2 active torsions:
REMARK  status: ('A' for Active; 'I' for Inactive)
REMARK    1  A    between atoms: C8_8  and  C10_10 
REMARK    2  A    between atoms: C10_10  and  C11_11 
ROOT
HETATM    1  C1  UNL     1     -34.005  17.215  -2.116  1.00 20.00     0.064 C 
HETATM    2  C2  UNL     1     -33.766  13.834  -3.902  1.00 20.00     0.002 C 
HETATM    3  C3  UNL     1     -33.328  15.127  -3.220  1.00 20.00     0.019 C 
HETATM    4  C4  UNL     1     -35.831  15.787  -2.974  1.00 20.00     0.019 C 
HETATM    5  C5  UNL     1     -34.382  14.076  -5.280  1.00 20.00     0.005 C 
HETATM    6  C6  UNL     1     -35.925  15.988  -4.488  1.00 20.00     0.006 C 
HETATM    7  C7  UNL     1     -34.413  15.820  -2.387  1.00 20.00     0.093 C 
HETATM    8  C8  UNL     1     -35.796  14.674  -5.277  1.00 20.00    -0.014 C 
HETATM    9  N12 UNL     1     -33.684  18.309  -1.903  1.00 20.00    -0.197 NA
ENDROOT
BRANCH   8  10
HETATM   10  C10 UNL     1     -36.249  14.898  -6.726  1.00 20.00     0.004 C 
BRANCH  10  11
HETATM   11  C11 UNL     1     -35.059  15.179  -7.632  1.00 20.00    -0.004 C 
HETATM   12  C9  UNL     1     -34.929  16.666  -7.917  1.00 20.00     0.005 C 
ENDBRANCH  10  11
ENDBRANCH   8  10
TORSDOF 2
ENDMDL
MODEL 8
REMARK VINA RESULT:      -4.4      2.936      5.536
REMARK  2 active torsions:
REMARK  status: ('A' for Active; 'I' for Inactive)
REMARK    1  A    between atoms: C8_8  and  C10_10 
REMARK    2  A    between atoms: C10_10  and  C11_11 
ROOT
HETATM    1  C1  UNL     1     -36.491  18.402  -0.007  1.00 20.00     0.064 C 
HETATM    2  C2  UNL     1     -33.551  18.967  -2.397  1.00 20.00     0.002 C 
HETATM    3  C3  UNL     1     -34.864  19.214  -1.659  1.00 20.00     0.019 C 
HETATM    4  C4  UNL     1     -34.572  16.917  -0.475  1.00 20.00     0.019 C 
HETATM    5  C5  UNL     1     -33.654  17.834  -3.419  1.00 20.00     0.005 C 
HETATM    6  C6  UNL     1     -34.832  16.202  -1.803  1.00 20.00     0.006 C 
HETATM    7  C7  UNL     1     -35.065  18.368  -0.396  1.00 20.00     0.093 C 
HETATM    8  C8  UNL     1     -33.709  16.417  -2.831  1.00 20.00    -0.014 C 
HETATM    9  N12 UNL     1     -37.609  18.429   0.298  1.00 20.00    -0.197 NA
ENDROOT
BRANCH   8  10
HETATM   10  C10 UNL     1     -33.859  15.405  -3.975  1.00 20.00     0.004 C 
BRANCH  10  11
HETATM   11  C11 UNL     1     -34.217  14.026  -3.440  1.00 20.00    -0.004 C 
HETATM   12  C9  UNL     1     -35.161  13.303  -4.387  1.00 20.00     0.005 C 
ENDBRANCH  10  11
ENDBRANCH   8  10
TORSDOF 2
ENDMDL
MODEL 9
REMARK VINA RESULT:      -4.4      2.492      4.769
REMARK  2 active torsions:
REMARK  status: ('A' for Active; 'I' for Inactive)
REMARK    1  A    between atoms: C8_8  and  C10_10 
REMARK    2  A    between atoms: C10_10  and  C11_11 
ROOT
HETATM    1  C1  UNL     1     -36.392  18.381  -1.662  1.00 20.00     0.064 C 
HETATM    2  C2  UNL     1     -33.595  18.072  -4.261  1.00 20.00     0.002 C 
HETATM    3  C3  UNL     1     -34.939  18.446  -3.642  1.00 20.00     0.019 C 
HETATM    4  C4  UNL     1     -34.212  17.235  -1.458  1.00 20.00     0.019 C 
HETATM    5  C5  UNL     1     -33.460  16.571  -4.514  1.00 20.00     0.005 C 
HETATM    6  C6  UNL     1     -34.311  15.887  -2.175  1.00 20.00     0.006 C 
HETATM    7  C7  UNL     1     -34.984  18.391  -2.110  1.00 20.00     0.093 C 
HETATM    8  C8  UNL     1     -33.240  15.706  -3.264  1.00 20.00    -0.014 C 
HETATM    9  N12 UNL     1     -37.498  18.374  -1.312  1.00 20.00    -0.197 NA
ENDROOT
BRANCH   8  10
HETATM   10  C10 UNL     1     -33.174  14.231  -3.680  1.00 20.00     0.004 C 
BRANCH  10  11
HETATM   11  C11 UNL     1     -34.566  13.621  -3.749  1.00 20.00    -0.004 C 
HETATM   12  C9  UNL     1     -34.908  13.203  -5.170  1.00 20.00     0.005 C 
ENDBRANCH  10  11
ENDBRANCH   8  10
TORSDOF 2
ENDMDL
