MODEL 1
REMARK VINA RESULT:      -4.5      0.000      0.000
REMARK  3 active torsions:
REMARK  status: ('A' for Active; 'I' for Inactive)
REMARK    1  A    between atoms: C4_4  and  C9_9 
REMARK    2  A    between atoms: C8_8  and  C9_9 
REMARK    3  A    between atoms: C9_9  and  O10_10 
ROOT
HETATM    1  C9  UNL     1     -33.905  15.959  -3.903  1.00 20.00     0.155 C 
ENDROOT
BRANCH   1   2
HETATM    2  C4  UNL     1     -33.869  17.008  -2.813  1.00 20.00    -0.022 A 
HETATM    3  C1  UNL     1     -34.029  16.720  -1.427  1.00 20.00     0.017 A 
HETATM    4  C2  UNL     1     -33.956  17.855  -0.651  1.00 20.00     0.050 A 
HETATM    5  S11 UNL     1     -33.695  19.262  -1.593  1.00 20.00    -0.113 SA
HETATM    6  C3  UNL     1     -33.680  18.353  -3.044  1.00 20.00     0.059 A 
ENDBRANCH   1   2
BRANCH   1   7
HETATM    7  C8  UNL     1     -34.363  14.601  -3.394  1.00 20.00     0.019 C 
HETATM    8  C6  UNL     1     -33.600  13.373  -3.953  1.00 20.00     0.007 C 
HETATM    9  C5  UNL     1     -34.713  13.228  -5.009  1.00 20.00     0.001 C 
HETATM   10  C7  UNL     1     -35.635  14.019  -4.061  1.00 20.00     0.007 C 
ENDBRANCH   1   7
BRANCH   1  11
HETATM   11  O10 UNL     1     -32.588  15.838  -4.445  1.00 20.00    -0.391 OA
HETATM   12  H23 UNL     1     -31.990  16.244  -3.799  1.00 20.00     0.210 HD
ENDBRANCH   1  11
TORSDOF 3
ENDMDL
MODEL 2
REMARK VINA RESULT:      -4.5      2.729      4.907
REMARK  3 active torsions:
REMARK  status: ('A' for Active; 'I' for Inactive)
REMARK    1  A    between atoms: C4_4  and  C9_9 
REMARK    2  A    between atoms: C8_8  and  C9_9 
REMARK    3  A    between atoms: C9_9  and  O10_10 
ROOT
HETATM    1  C9  UNL     1     -35.158  16.825  -2.102  1.00 20.00     0.155 C 
ENDROOT
BRANCH   1   2
HETATM    2  C4  UNL     1     -34.886  15.593  -2.938  1.00 20.00    -0.022 A 
HETATM    3  C1  UNL     1     -33.584  15.074  -3.189  1.00 20.00     0.017 A 
HETATM    4  C2  UNL     1     -33.619  13.947  -3.980  1.00 20.00     0.050 A 
HETATM    5  S11 UNL     1     -35.218  13.518  -4.417  1.00 20.00    -0.113 SA
HETATM    6  C3  UNL     1     -35.868  14.842  -3.547  1.00 20.00     0.059 A 
ENDBRANCH   1   2
BRANCH   1   7
HETATM    7  C8  UNL     1     -34.415  16.808  -0.775  1.00 20.00     0.019 C 
HETATM    8  C6  UNL     1     -35.152  17.454   0.425  1.00 20.00     0.007 C 
HETATM    9  C5  UNL     1     -34.377  18.754   0.134  1.00 20.00     0.001 C 
HETATM   10  C7  UNL     1     -33.325  17.894  -0.593  1.00 20.00     0.007 C 
ENDBRANCH   1   7
BRANCH   1  11
HETATM   11  O10 UNL     1     -36.564  16.889  -1.852  1.00 20.00    -0.391 OA
HETATM   12  H23 UNL     1     -36.997  16.529  -2.641  1.00 20.00     0.210 HD
ENDBRANCH   1  11
TORSDOF 3
ENDMDL
MODEL 3
REMARK VINA RESULT:      -4.4      1.527      1.836
REMARK  3 active torsions:
REMARK  status: ('A' for Active; 'I' for Inactive)
REMARK    1  A    between atoms: C4_4  and  C9_9 
REMARK    2  A    between atoms: C8_8  and  C9_9 
REMARK    3  A    between atoms: C9_9  and  O10_10 
ROOT
HETATM    1  C9  UNL     1     -35.026  15.458  -2.431  1.00 20.00     0.155 C 
ENDROOT
BRANCH   1   2
HETATM    2  C4  UNL     1     -34.499  16.676  -1.704  1.00 20.00    -0.022 A 
HETATM    3  C1  UNL     1     -34.691  16.917  -0.314  1.00 20.00     0.017 A 
HETATM    4  C2  UNL     1     -34.111  18.099   0.092  1.00 20.00     0.050 A 
HETATM    5  S11 UNL     1     -33.339  18.913  -1.202  1.00 20.00    -0.113 SA
HETATM    6  C3  UNL     1     -33.780  17.684  -2.309  1.00 20.00     0.059 A 
ENDBRANCH   1   2
BRANCH   1   7
HETATM    7  C8  UNL     1     -34.285  15.185  -3.731  1.00 20.00     0.019 C 
HETATM    8  C6  UNL     1     -35.151  14.679  -4.912  1.00 20.00     0.007 C 
HETATM    9  C5  UNL     1     -34.757  13.243  -4.517  1.00 20.00     0.001 C 
HETATM   10  C7  UNL     1     -33.524  13.838  -3.810  1.00 20.00     0.007 C 
ENDBRANCH   1   7
BRANCH   1  11
HETATM   11  O10 UNL     1     -36.409  15.675  -2.715  1.00 20.00    -0.391 OA
HETATM   12  H23 UNL     1     -36.467  15.861  -3.664  1.00 20.00     0.210 HD
ENDBRANCH   1  11
TORSDOF 3
ENDMDL
MODEL 4
REMARK VINA RESULT:      -4.2      2.905      4.562
REMARK  3 active torsions:
REMARK  status: ('A' for Active; 'I' for Inactive)
REMARK    1  A    between atoms: C4_4  and  C9_9 
REMARK    2  A    between atoms: C8_8  and  C9_9 
REMARK    3  A    between atoms: C9_9  and  O10_10 
ROOT
HETATM    1  C9  UNL     1     -36.041  15.891  -3.271  1.00 20.00     0.155 C 
ENDROOT
BRANCH   1   2
HETATM    2  C4  UNL     1     -35.711  15.617  -4.722  1.00 20.00    -0.022 A 
HETATM    3  C1  UNL     1     -35.462  14.318  -5.250  1.00 20.00     0.017 A 
HETATM    4  C2  UNL     1     -35.185  14.351  -6.598  1.00 20.00     0.050 A 
HETATM    5  S11 UNL     1     -35.226  15.945  -7.224  1.00 20.00    -0.113 SA
HETATM    6  C3  UNL     1     -35.615  16.595  -5.688  1.00 20.00     0.059 A 
ENDBRANCH   1   2
BRANCH   1   7
HETATM    7  C8  UNL     1     -34.876  15.595  -2.339  1.00 20.00     0.019 C 
HETATM    8  C6  UNL     1     -34.778  16.480  -1.071  1.00 20.00     0.007 C 
HETATM    9  C5  UNL     1     -33.791  17.380  -1.839  1.00 20.00     0.001 C 
HETATM   10  C7  UNL     1     -33.504  16.178  -2.761  1.00 20.00     0.007 C 
ENDBRANCH   1   7
BRANCH   1  11
HETATM   11  O10 UNL     1     -37.153  15.070  -2.908  1.00 20.00    -0.391 OA
HETATM   12  H23 UNL     1     -37.930  15.650  -2.902  1.00 20.00     0.210 HD
ENDBRANCH   1  11
TORSDOF 3
ENDMDL
MODEL 5
REMARK VINA RESULT:      -4.2      1.112      1.201
REMARK  3 active torsions:
REMARK  status: ('A' for Active; 'I' for Inactive)
REMARK    1  A    between atoms: C4_4  and  C9_9 
REMARK    2  A    between atoms: C8_8  and  C9_9 
REMARK    3  A    between atoms: C9_9  and  O10_10 
ROOT
HETATM    1  C9  UNL     1     -33.932  16.219  -4.271  1.00 20.00     0.155 C 
ENDROOT
BRANCH   1   2
HETATM    2  C4  UNL     1     -34.039  16.841  -2.896  1.00 20.00    -0.022 A 
HETATM    3  C1  UNL     1     -34.515  16.149  -1.745  1.00 20.00     0.017 A 
HETATM    4  C2  UNL     1     -34.510  16.947  -0.623  1.00 20.00     0.050 A 
HETATM    5  S11 UNL     1     -33.934  18.525  -0.957  1.00 20.00    -0.113 SA
HETATM    6  C3  UNL     1     -33.689  18.142  -2.609  1.00 20.00     0.059 A 
ENDBRANCH   1   2
BRANCH   1   7
HETATM    7  C8  UNL     1     -34.931  15.091  -4.483  1.00 20.00     0.019 C 
HETATM    8  C6  UNL     1     -34.408  13.859  -5.263  1.00 20.00     0.007 C 
HETATM    9  C5  UNL     1     -35.006  14.479  -6.540  1.00 20.00     0.001 C 
HETATM   10  C7  UNL     1     -35.950  15.292  -5.633  1.00 20.00     0.007 C 
ENDBRANCH   1   7
BRANCH   1  11
HETATM   11  O10 UNL     1     -32.607  15.708  -4.424  1.00 20.00    -0.391 OA
HETATM   12  H23 UNL     1     -32.694  14.748  -4.521  1.00 20.00     0.210 HD
ENDBRANCH   1  11
TORSDOF 3
ENDMDL
MODEL 6
REMARK VINA RESULT:      -4.1      3.063      4.650
REMARK  3 active torsions:
REMARK  status: ('A' for Active; 'I' for Inactive)
REMARK    1  A    between atoms: C4_4  and  C9_9 
REMARK    2  A    between atoms: C8_8  and  C9_9 
REMARK    3  A    between atoms: C9_9  and  O10_10 
ROOT
HETATM    1  C9  UNL     1     -33.735  15.526  -4.411  1.00 20.00     0.155 C 
ENDROOT
BRANCH   1   2
HETATM    2  C4  UNL     1     -34.373  15.441  -5.781  1.00 20.00    -0.022 A 
HETATM    3  C1  UNL     1     -34.378  16.510  -6.723  1.00 20.00     0.017 A 
HETATM    4  C2  UNL     1     -35.027  16.169  -7.889  1.00 20.00     0.050 A 
HETATM    5  S11 UNL     1     -35.627  14.565  -7.846  1.00 20.00    -0.113 SA
HETATM    6  C3  UNL     1     -35.019  14.324  -6.263  1.00 20.00     0.059 A 
ENDBRANCH   1   2
BRANCH   1   7
HETATM    7  C8  UNL     1     -34.237  16.714  -3.604  1.00 20.00     0.019 C 
HETATM    8  C6  UNL     1     -33.584  16.913  -2.213  1.00 20.00     0.007 C 
HETATM    9  C5  UNL     1     -34.770  16.141  -1.603  1.00 20.00     0.001 C 
HETATM   10  C7  UNL     1     -35.581  16.512  -2.860  1.00 20.00     0.007 C 
ENDBRANCH   1   7
BRANCH   1  11
HETATM   11  O10 UNL     1     -32.322  15.640  -4.587  1.00 20.00    -0.391 OA
HETATM   12  H23 UNL     1     -32.106  16.576  -4.457  1.00 20.00     0.210 HD
ENDBRANCH   1  11
TORSDOF 3
ENDMDL
MODEL 7
REMARK VINA RESULT:      -4.1     13.357     15.281
REMARK  3 active torsions:
REMARK  status: ('A' for Active; 'I' for Inactive)
REMARK    1  A    between atoms: C4_4  and  C9_9 
REMARK    2  A    between atoms: C8_8  and  C9_9 
REMARK    3  A    between atoms: C9_9  and  O10_10 
ROOT
HETATM    1  C9  UNL     1     -42.418   4.320  -1.132  1.00 20.00     0.155 C 
ENDROOT
BRANCH   1   2
HETATM    2  C4  UNL     1     -42.450   3.085  -2.007  1.00 20.00    -0.022 A 
HETATM    3  C1  UNL     1     -41.483   2.797  -3.012  1.00 20.00     0.017 A 
HETATM    4  C2  UNL     1     -41.747   1.612  -3.661  1.00 20.00     0.050 A 
HETATM    5  S11 UNL     1     -43.158   0.849  -3.058  1.00 20.00    -0.113 SA
HETATM    6  C3  UNL     1     -43.417   2.107  -1.925  1.00 20.00     0.059 A 
ENDBRANCH   1   2
BRANCH   1   7
HETATM    7  C8  UNL     1     -41.345   5.310  -1.557  1.00 20.00     0.019 C 
HETATM    8  C6  UNL     1     -40.795   6.235  -0.442  1.00 20.00     0.007 C 
HETATM    9  C5  UNL     1     -41.805   7.303  -0.901  1.00 20.00     0.001 C 
HETATM   10  C7  UNL     1     -41.846   6.592  -2.268  1.00 20.00     0.007 C 
ENDBRANCH   1   7
BRANCH   1  11
HETATM   11  O10 UNL     1     -42.169   3.904   0.212  1.00 20.00    -0.391 OA
HETATM   12  H23 UNL     1     -42.581   4.569   0.784  1.00 20.00     0.210 HD
ENDBRANCH   1  11
TORSDOF 3
ENDMDL
MODEL 8
REMARK VINA RESULT:      -4.1      3.026      4.855
REMARK  3 active torsions:
REMARK  status: ('A' for Active; 'I' for Inactive)
REMARK    1  A    between atoms: C4_4  and  C9_9 
REMARK    2  A    between atoms: C8_8  and  C9_9 
REMARK    3  A    between atoms: C9_9  and  O10_10 
ROOT
HETATM    1  C9  UNL     1     -35.398  14.148  -4.028  1.00 20.00     0.155 C 
ENDROOT
BRANCH   1   2
HETATM    2  C4  UNL     1     -35.728  14.505  -5.462  1.00 20.00    -0.022 A 
HETATM    3  C1  UNL     1     -34.925  14.135  -6.578  1.00 20.00     0.017 A 
HETATM    4  C2  UNL     1     -35.451  14.586  -7.767  1.00 20.00     0.050 A 
HETATM    5  S11 UNL     1     -36.911  15.453  -7.536  1.00 20.00    -0.113 SA
HETATM    6  C3  UNL     1     -36.839  15.225  -5.840  1.00 20.00     0.059 A 
ENDBRANCH   1   2
BRANCH   1   7
HETATM    7  C8  UNL     1     -34.234  14.958  -3.477  1.00 20.00     0.019 C 
HETATM    8  C6  UNL     1     -34.521  15.767  -2.187  1.00 20.00     0.007 C 
HETATM    9  C5  UNL     1     -34.804  16.990  -3.079  1.00 20.00     0.001 C 
HETATM   10  C7  UNL     1     -33.958  16.313  -4.175  1.00 20.00     0.007 C 
ENDBRANCH   1   7
BRANCH   1  11
HETATM   11  O10 UNL     1     -35.067  12.759  -3.983  1.00 20.00    -0.391 OA
HETATM   12  H23 UNL     1     -34.247  12.657  -4.490  1.00 20.00     0.210 HD
ENDBRANCH   1  11
TORSDOF 3
ENDMDL
MODEL 9
REMARK VINA RESULT:      -4.0      2.377      4.632
REMARK  3 active torsions:
REMARK  status: ('A' for Active; 'I' for Inactive)
REMARK    1  A    between atoms: C4_4  and  C9_9 
REMARK    2  A    between atoms: C8_8  and  C9_9 
REMARK    3  A    between atoms: C9_9  and  O10_10 
ROOT
HETATM    1  C9  UNL     1     -33.893  16.727  -2.576  1.00 20.00     0.155 C 
ENDROOT
BRANCH   1   2
HETATM    2  C4  UNL     1     -34.515  15.538  -3.276  1.00 20.00    -0.022 A 
HETATM    3  C1  UNL     1     -35.919  15.316  -3.371  1.00 20.00     0.017 A 
HETATM    4  C2  UNL     1     -36.215  14.160  -4.058  1.00 20.00     0.050 A 
HETATM    5  S11 UNL     1     -34.803  13.347  -4.587  1.00 20.00    -0.113 SA
HETATM    6  C3  UNL     1     -33.791  14.542  -3.895  1.00 20.00     0.059 A 
ENDBRANCH   1   2
BRANCH   1   7
HETATM    7  C8  UNL     1     -34.853  17.406  -1.610  1.00 20.00     0.019 C 
HETATM    8  C6  UNL     1     -34.439  18.816  -1.121  1.00 20.00     0.007 C 
HETATM    9  C5  UNL     1     -33.832  18.148   0.128  1.00 20.00     0.001 C 
HETATM   10  C7  UNL     1     -34.766  16.950  -0.132  1.00 20.00     0.007 C 
ENDBRANCH   1   7
BRANCH   1  11
HETATM   11  O10 UNL     1     -33.487  17.666  -3.573  1.00 20.00    -0.391 OA
HETATM   12  H23 UNL     1     -33.881  17.365  -4.407  1.00 20.00     0.210 HD
ENDBRANCH   1  11
TORSDOF 3
ENDMDL
