MODEL 1
REMARK VINA RESULT:      -5.0      0.000      0.000
REMARK  0 active torsions:
REMARK  status: ('A' for Active; 'I' for Inactive)
ROOT
HETATM    1  C1  UNL     1     -32.591  15.179  -3.752  1.00 20.00     0.004 C 
HETATM    2  C2  UNL     1     -33.383  13.899  -3.486  1.00 20.00     0.040 C 
HETATM    3  C3  UNL     1     -35.828  14.782  -3.597  1.00 20.00     0.041 C 
HETATM    4  C4  UNL     1     -33.412  16.461  -3.911  1.00 20.00     0.009 C 
HETATM    5  C5  UNL     1     -35.399  15.669  -2.424  1.00 20.00     0.012 C 
HETATM    6  C6  UNL     1     -34.843  13.417  -5.580  1.00 20.00     0.207 A 
HETATM    7  C7  UNL     1     -34.732  13.897  -4.147  1.00 20.00     0.082 A 
HETATM    8  C8  UNL     1     -34.408  16.811  -2.778  1.00 20.00    -0.048 C 
HETATM    9  C9  UNL     1     -33.635  17.202  -1.502  1.00 20.00     0.015 C 
HETATM   10  C10 UNL     1     -35.214  18.047  -3.237  1.00 20.00     0.015 C 
HETATM   11  O11 UNL     1     -35.194  12.574  -4.479  1.00 20.00    -0.375 OA
ENDROOT
TORSDOF 0
ENDMDL
MODEL 2
REMARK VINA RESULT:      -4.6      2.316      4.224
REMARK  0 active torsions:
REMARK  status: ('A' for Active; 'I' for Inactive)
ROOT
HETATM    1  C1  UNL     1     -34.792  15.890  -1.917  1.00 20.00     0.004 C 
HETATM    2  C2  UNL     1     -33.769  17.021  -2.011  1.00 20.00     0.040 C 
HETATM    3  C3  UNL     1     -33.663  17.399  -4.583  1.00 20.00     0.041 C 
HETATM    4  C4  UNL     1     -35.321  15.345  -3.247  1.00 20.00     0.009 C 
HETATM    5  C5  UNL     1     -33.192  15.943  -4.624  1.00 20.00     0.012 C 
HETATM    6  C6  UNL     1     -34.951  19.078  -3.071  1.00 20.00     0.207 A 
HETATM    7  C7  UNL     1     -33.990  17.914  -3.200  1.00 20.00     0.082 A 
HETATM    8  C8  UNL     1     -34.275  14.880  -4.290  1.00 20.00    -0.048 C 
HETATM    9  C9  UNL     1     -33.570  13.602  -3.793  1.00 20.00     0.015 C 
HETATM   10  C10 UNL     1     -35.040  14.523  -5.584  1.00 20.00     0.015 C 
HETATM   11  O11 UNL     1     -33.536  19.263  -2.982  1.00 20.00    -0.375 OA
ENDROOT
TORSDOF 0
ENDMDL
MODEL 3
REMARK VINA RESULT:      -4.6      1.635      2.512
REMARK  0 active torsions:
REMARK  status: ('A' for Active; 'I' for Inactive)
ROOT
HETATM    1  C1  UNL     1     -34.810  13.940  -5.452  1.00 20.00     0.004 C 
HETATM    2  C2  UNL     1     -35.863  13.522  -4.426  1.00 20.00     0.040 C 
HETATM    3  C3  UNL     1     -36.211  15.744  -3.119  1.00 20.00     0.041 C 
HETATM    4  C4  UNL     1     -34.294  15.377  -5.343  1.00 20.00     0.009 C 
HETATM    5  C5  UNL     1     -34.723  15.602  -2.784  1.00 20.00     0.012 C 
HETATM    6  C6  UNL     1     -37.992  14.953  -4.842  1.00 20.00     0.207 A 
HETATM    7  C7  UNL     1     -36.759  14.654  -4.012  1.00 20.00     0.082 A 
HETATM    8  C8  UNL     1     -33.746  15.832  -3.968  1.00 20.00    -0.048 C 
HETATM    9  C9  UNL     1     -32.424  15.100  -3.663  1.00 20.00     0.015 C 
HETATM   10  C10 UNL     1     -33.435  17.343  -4.072  1.00 20.00     0.015 C 
HETATM   11  O11 UNL     1     -38.074  14.216  -3.618  1.00 20.00    -0.375 OA
ENDROOT
TORSDOF 0
ENDMDL
MODEL 4
REMARK VINA RESULT:      -4.5      1.618      1.800
REMARK  0 active torsions:
REMARK  status: ('A' for Active; 'I' for Inactive)
ROOT
HETATM    1  C1  UNL     1     -33.652  14.181  -3.781  1.00 20.00     0.004 C 
HETATM    2  C2  UNL     1     -34.915  13.924  -4.603  1.00 20.00     0.040 C 
HETATM    3  C3  UNL     1     -35.597  16.348  -5.260  1.00 20.00     0.041 C 
HETATM    4  C4  UNL     1     -33.272  15.649  -3.569  1.00 20.00     0.009 C 
HETATM    5  C5  UNL     1     -35.704  16.565  -3.748  1.00 20.00     0.012 C 
HETATM    6  C6  UNL     1     -34.485  14.784  -7.016  1.00 20.00     0.207 A 
HETATM    7  C7  UNL     1     -35.146  14.962  -5.664  1.00 20.00     0.082 A 
HETATM    8  C8  UNL     1     -34.355  16.585  -2.979  1.00 20.00    -0.048 C 
HETATM    9  C9  UNL     1     -34.624  16.212  -1.507  1.00 20.00     0.015 C 
HETATM   10  C10 UNL     1     -33.787  18.022  -3.004  1.00 20.00     0.015 C 
HETATM   11  O11 UNL     1     -35.859  14.451  -6.806  1.00 20.00    -0.375 OA
ENDROOT
TORSDOF 0
ENDMDL
MODEL 5
REMARK VINA RESULT:      -4.5      2.192      3.827
REMARK  0 active torsions:
REMARK  status: ('A' for Active; 'I' for Inactive)
ROOT
HETATM    1  C1  UNL     1     -34.057  13.886  -3.817  1.00 20.00     0.004 C 
HETATM    2  C2  UNL     1     -33.298  15.145  -3.401  1.00 20.00     0.040 C 
HETATM    3  C3  UNL     1     -35.054  16.993  -3.923  1.00 20.00     0.041 C 
HETATM    4  C4  UNL     1     -35.448  14.103  -4.418  1.00 20.00     0.009 C 
HETATM    5  C5  UNL     1     -34.943  16.478  -5.361  1.00 20.00     0.012 C 
HETATM    6  C6  UNL     1     -34.617  16.267  -1.463  1.00 20.00     0.207 A 
HETATM    7  C7  UNL     1     -34.204  16.244  -2.921  1.00 20.00     0.082 A 
HETATM    8  C8  UNL     1     -35.559  15.076  -5.617  1.00 20.00    -0.048 C 
HETATM    9  C9  UNL     1     -34.878  14.461  -6.856  1.00 20.00     0.015 C 
HETATM   10  C10 UNL     1     -37.061  15.242  -5.940  1.00 20.00     0.015 C 
HETATM   11  O11 UNL     1     -33.575  17.112  -1.959  1.00 20.00    -0.375 OA
ENDROOT
TORSDOF 0
ENDMDL
MODEL 6
REMARK VINA RESULT:      -4.5      1.146      1.531
REMARK  0 active torsions:
REMARK  status: ('A' for Active; 'I' for Inactive)
ROOT
HETATM    1  C1  UNL     1     -33.297  16.617  -4.877  1.00 20.00     0.004 C 
HETATM    2  C2  UNL     1     -32.984  15.362  -4.063  1.00 20.00     0.040 C 
HETATM    3  C3  UNL     1     -34.983  15.324  -2.397  1.00 20.00     0.041 C 
HETATM    4  C4  UNL     1     -34.530  17.413  -4.443  1.00 20.00     0.009 C 
HETATM    5  C5  UNL     1     -34.434  16.681  -1.945  1.00 20.00     0.012 C 
HETATM    6  C6  UNL     1     -34.933  13.680  -4.412  1.00 20.00     0.207 A 
HETATM    7  C7  UNL     1     -34.216  14.685  -3.533  1.00 20.00     0.082 A 
HETATM    8  C8  UNL     1     -34.611  17.845  -2.958  1.00 20.00    -0.048 C 
HETATM    9  C9  UNL     1     -33.543  18.917  -2.664  1.00 20.00     0.015 C 
HETATM   10  C10 UNL     1     -35.999  18.489  -2.739  1.00 20.00     0.015 C 
HETATM   11  O11 UNL     1     -34.050  13.264  -3.367  1.00 20.00    -0.375 OA
ENDROOT
TORSDOF 0
ENDMDL
MODEL 7
REMARK VINA RESULT:      -4.4      2.220      4.161
REMARK  0 active torsions:
REMARK  status: ('A' for Active; 'I' for Inactive)
ROOT
HETATM    1  C1  UNL     1     -33.654  17.409  -4.783  1.00 20.00     0.004 C 
HETATM    2  C2  UNL     1     -34.684  17.975  -3.805  1.00 20.00     0.040 C 
HETATM    3  C3  UNL     1     -34.708  16.132  -1.968  1.00 20.00     0.041 C 
HETATM    4  C4  UNL     1     -33.076  16.035  -4.435  1.00 20.00     0.009 C 
HETATM    5  C5  UNL     1     -35.163  15.216  -3.108  1.00 20.00     0.012 C 
HETATM    6  C6  UNL     1     -33.487  18.388  -1.537  1.00 20.00     0.207 A 
HETATM    7  C7  UNL     1     -34.433  17.560  -2.383  1.00 20.00     0.082 A 
HETATM    8  C8  UNL     1     -34.082  14.887  -4.173  1.00 20.00    -0.048 C 
HETATM    9  C9  UNL     1     -34.790  14.501  -5.487  1.00 20.00     0.015 C 
HETATM   10  C10 UNL     1     -33.270  13.661  -3.698  1.00 20.00     0.015 C 
HETATM   11  O11 UNL     1     -34.906  18.523  -1.424  1.00 20.00    -0.375 OA
ENDROOT
TORSDOF 0
ENDMDL
MODEL 8
REMARK VINA RESULT:      -4.4      2.081      3.271
REMARK  0 active torsions:
REMARK  status: ('A' for Active; 'I' for Inactive)
ROOT
HETATM    1  C1  UNL     1     -36.244  14.336  -4.365  1.00 20.00     0.004 C 
HETATM    2  C2  UNL     1     -36.474  15.375  -5.462  1.00 20.00     0.040 C 
HETATM    3  C3  UNL     1     -34.028  15.945  -6.143  1.00 20.00     0.041 C 
HETATM    4  C4  UNL     1     -34.785  14.047  -4.004  1.00 20.00     0.009 C 
HETATM    5  C5  UNL     1     -33.889  16.396  -4.687  1.00 20.00     0.012 C 
HETATM    6  C6  UNL     1     -35.488  14.430  -7.673  1.00 20.00     0.207 A 
HETATM    7  C7  UNL     1     -35.386  15.383  -6.499  1.00 20.00     0.082 A 
HETATM    8  C8  UNL     1     -33.892  15.256  -3.631  1.00 20.00    -0.048 C 
HETATM    9  C9  UNL     1     -34.342  15.843  -2.278  1.00 20.00     0.015 C 
HETATM   10  C10 UNL     1     -32.449  14.730  -3.461  1.00 20.00     0.015 C 
HETATM   11  O11 UNL     1     -35.847  15.809  -7.795  1.00 20.00    -0.375 OA
ENDROOT
TORSDOF 0
ENDMDL
MODEL 9
REMARK VINA RESULT:      -4.4      2.341      3.255
REMARK  0 active torsions:
REMARK  status: ('A' for Active; 'I' for Inactive)
ROOT
HETATM    1  C1  UNL     1     -34.234  15.204  -6.531  1.00 20.00     0.004 C 
HETATM    2  C2  UNL     1     -35.558  14.561  -6.941  1.00 20.00     0.040 C 
HETATM    3  C3  UNL     1     -36.998  14.958  -4.811  1.00 20.00     0.041 C 
HETATM    4  C4  UNL     1     -34.165  15.758  -5.106  1.00 20.00     0.009 C 
HETATM    5  C5  UNL     1     -35.926  14.115  -4.115  1.00 20.00     0.012 C 
HETATM    6  C6  UNL     1     -37.380  16.414  -6.933  1.00 20.00     0.207 A 
HETATM    7  C7  UNL     1     -36.748  15.199  -6.283  1.00 20.00     0.082 A 
HETATM    8  C8  UNL     1     -34.541  14.796  -3.951  1.00 20.00    -0.048 C 
HETATM    9  C9  UNL     1     -33.467  13.698  -3.813  1.00 20.00     0.015 C 
HETATM   10  C10 UNL     1     -34.541  15.622  -2.645  1.00 20.00     0.015 C 
HETATM   11  O11 UNL     1     -37.947  15.109  -7.076  1.00 20.00    -0.375 OA
ENDROOT
TORSDOF 0
ENDMDL
