MODEL 1
REMARK VINA RESULT:      -4.1      0.000      0.000
REMARK  5 active torsions:
REMARK  status: ('A' for Active; 'I' for Inactive)
REMARK    1  A    between atoms: C5_5  and  C7_7 
REMARK    2  A    between atoms: C6_6  and  C8_8 
REMARK    3  A    between atoms: C7_7  and  C9_9 
REMARK    4  A    between atoms: C8_8  and  C9_9 
REMARK    5  A    between atoms: C9_9  and  S11_11 
ROOT
HETATM    1  C1  UNL     1     -34.969  13.776  -4.311  1.00 20.00     0.080 C 
HETATM    2  C9  UNL     1     -35.017  15.212  -3.957  1.00 20.00     0.096 C 
HETATM    3  N10 UNL     1     -34.928  12.650  -4.591  1.00 20.00    -0.196 NA
ENDROOT
BRANCH   2   4
HETATM    4  C7  UNL     1     -34.660  16.074  -5.200  1.00 20.00     0.035 C 
BRANCH   4   5
HETATM    5  C5  UNL     1     -33.335  16.846  -5.101  1.00 20.00    -0.002 C 
HETATM    6  C2  UNL     1     -33.572  18.350  -5.093  1.00 20.00     0.005 C 
ENDBRANCH   4   5
ENDBRANCH   2   4
BRANCH   2   7
HETATM    7  C8  UNL     1     -34.070  15.510  -2.766  1.00 20.00     0.035 C 
BRANCH   7   8
HETATM    8  C6  UNL     1     -34.678  16.296  -1.592  1.00 20.00    -0.002 C 
HETATM    9  C3  UNL     1     -33.741  17.402  -1.128  1.00 20.00     0.005 C 
ENDBRANCH   7   8
ENDBRANCH   2   7
BRANCH   2  10
HETATM   10  S11 UNL     1     -36.763  15.647  -3.516  1.00 20.00    -0.148 SA
HETATM   11  C4  UNL     1     -37.125  16.636  -4.978  1.00 20.00     0.091 C 
ENDBRANCH   2  10
TORSDOF 5
ENDMDL
MODEL 2
REMARK VINA RESULT:      -4.0      1.448      3.374
REMARK  5 active torsions:
REMARK  status: ('A' for Active; 'I' for Inactive)
REMARK    1  A    between atoms: C5_5  and  C7_7 
REMARK    2  A    between atoms: C6_6  and  C8_8 
REMARK    3  A    between atoms: C7_7  and  C9_9 
REMARK    4  A    between atoms: C8_8  and  C9_9 
REMARK    5  A    between atoms: C9_9  and  S11_11 
ROOT
HETATM    1  C1  UNL     1     -35.000  13.776  -4.267  1.00 20.00     0.080 C 
HETATM    2  C9  UNL     1     -35.240  15.175  -3.847  1.00 20.00     0.096 C 
HETATM    3  N10 UNL     1     -34.812  12.678  -4.594  1.00 20.00    -0.196 NA
ENDROOT
BRANCH   2   4
HETATM    4  C7  UNL     1     -34.151  15.613  -2.828  1.00 20.00     0.035 C 
BRANCH   4   5
HETATM    5  C5  UNL     1     -34.684  16.255  -1.538  1.00 20.00    -0.002 C 
HETATM    6  C2  UNL     1     -33.763  17.368  -1.056  1.00 20.00     0.005 C 
ENDBRANCH   4   5
ENDBRANCH   2   4
BRANCH   2   7
HETATM    7  C8  UNL     1     -36.665  15.328  -3.258  1.00 20.00     0.035 C 
BRANCH   7   8
HETATM    8  C6  UNL     1     -37.822  14.809  -4.128  1.00 20.00    -0.002 C 
HETATM    9  C3  UNL     1     -39.171  15.160  -3.515  1.00 20.00     0.005 C 
ENDBRANCH   7   8
ENDBRANCH   2   7
BRANCH   2  10
HETATM   10  S11 UNL     1     -35.031  16.273  -5.324  1.00 20.00    -0.148 SA
HETATM   11  C4  UNL     1     -33.320  16.747  -5.013  1.00 20.00     0.091 C 
ENDBRANCH   2  10
TORSDOF 5
ENDMDL
MODEL 3
REMARK VINA RESULT:      -4.0      1.734      2.457
REMARK  5 active torsions:
REMARK  status: ('A' for Active; 'I' for Inactive)
REMARK    1  A    between atoms: C5_5  and  C7_7 
REMARK    2  A    between atoms: C6_6  and  C8_8 
REMARK    3  A    between atoms: C7_7  and  C9_9 
REMARK    4  A    between atoms: C8_8  and  C9_9 
REMARK    5  A    between atoms: C9_9  and  S11_11 
ROOT
HETATM    1  C1  UNL     1     -36.469  14.768  -3.890  1.00 20.00     0.080 C 
HETATM    2  C9  UNL     1     -35.131  15.366  -4.093  1.00 20.00     0.096 C 
HETATM    3  N10 UNL     1     -37.518  14.296  -3.731  1.00 20.00    -0.196 NA
ENDROOT
BRANCH   2   4
HETATM    4  C7  UNL     1     -34.385  14.616  -5.232  1.00 20.00     0.035 C 
BRANCH   4   5
HETATM    5  C5  UNL     1     -35.244  14.268  -6.457  1.00 20.00    -0.002 C 
HETATM    6  C2  UNL     1     -34.694  14.920  -7.719  1.00 20.00     0.005 C 
ENDBRANCH   4   5
ENDBRANCH   2   4
BRANCH   2   7
HETATM    7  C8  UNL     1     -34.320  15.345  -2.772  1.00 20.00     0.035 C 
BRANCH   7   8
HETATM    8  C6  UNL     1     -34.814  16.279  -1.654  1.00 20.00    -0.002 C 
HETATM    9  C3  UNL     1     -33.717  17.241  -1.217  1.00 20.00     0.005 C 
ENDBRANCH   7   8
ENDBRANCH   2   7
BRANCH   2  10
HETATM   10  S11 UNL     1     -35.352  17.107  -4.685  1.00 20.00    -0.148 SA
HETATM   11  C4  UNL     1     -33.623  17.432  -5.079  1.00 20.00     0.091 C 
ENDBRANCH   2  10
TORSDOF 5
ENDMDL
MODEL 4
REMARK VINA RESULT:      -3.9      1.892      3.783
REMARK  5 active torsions:
REMARK  status: ('A' for Active; 'I' for Inactive)
REMARK    1  A    between atoms: C5_5  and  C7_7 
REMARK    2  A    between atoms: C6_6  and  C8_8 
REMARK    3  A    between atoms: C7_7  and  C9_9 
REMARK    4  A    between atoms: C8_8  and  C9_9 
REMARK    5  A    between atoms: C9_9  and  S11_11 
ROOT
HETATM    1  C1  UNL     1     -33.643  14.051  -3.908  1.00 20.00     0.080 C 
HETATM    2  C9  UNL     1     -34.464  15.259  -4.141  1.00 20.00     0.096 C 
HETATM    3  N10 UNL     1     -33.000  13.101  -3.723  1.00 20.00    -0.196 NA
ENDROOT
BRANCH   2   4
HETATM    4  C7  UNL     1     -35.066  15.755  -2.796  1.00 20.00     0.035 C 
BRANCH   4   5
HETATM    5  C5  UNL     1     -34.071  16.443  -1.849  1.00 20.00    -0.002 C 
HETATM    6  C2  UNL     1     -34.733  16.815  -0.529  1.00 20.00     0.005 C 
ENDBRANCH   4   5
ENDBRANCH   2   4
BRANCH   2   7
HETATM    7  C8  UNL     1     -35.571  14.970  -5.187  1.00 20.00     0.035 C 
BRANCH   7   8
HETATM    8  C6  UNL     1     -35.181  14.046  -6.354  1.00 20.00    -0.002 C 
HETATM    9  C3  UNL     1     -35.007  14.834  -7.645  1.00 20.00     0.005 C 
ENDBRANCH   7   8
ENDBRANCH   2   7
BRANCH   2  10
HETATM   10  S11 UNL     1     -33.353  16.616  -4.736  1.00 20.00    -0.148 SA
HETATM   11  C4  UNL     1     -34.647  17.730  -5.315  1.00 20.00     0.091 C 
ENDBRANCH   2  10
TORSDOF 5
ENDMDL
MODEL 5
REMARK VINA RESULT:      -3.9      1.598      3.340
REMARK  5 active torsions:
REMARK  status: ('A' for Active; 'I' for Inactive)
REMARK    1  A    between atoms: C5_5  and  C7_7 
REMARK    2  A    between atoms: C6_6  and  C8_8 
REMARK    3  A    between atoms: C7_7  and  C9_9 
REMARK    4  A    between atoms: C8_8  and  C9_9 
REMARK    5  A    between atoms: C9_9  and  S11_11 
ROOT
HETATM    1  C1  UNL     1     -36.911  14.851  -3.832  1.00 20.00     0.080 C 
HETATM    2  C9  UNL     1     -35.611  15.556  -3.782  1.00 20.00     0.096 C 
HETATM    3  N10 UNL     1     -37.932  14.300  -3.871  1.00 20.00    -0.196 NA
ENDROOT
BRANCH   2   4
HETATM    4  C7  UNL     1     -35.586  16.529  -2.570  1.00 20.00     0.035 C 
BRANCH   4   5
HETATM    5  C5  UNL     1     -34.497  16.242  -1.525  1.00 20.00    -0.002 C 
HETATM    6  C2  UNL     1     -33.683  17.492  -1.219  1.00 20.00     0.005 C 
ENDBRANCH   4   5
ENDBRANCH   2   4
BRANCH   2   7
HETATM    7  C8  UNL     1     -35.345  16.301  -5.116  1.00 20.00     0.035 C 
BRANCH   7   8
HETATM    8  C6  UNL     1     -33.877  16.637  -5.428  1.00 20.00    -0.002 C 
HETATM    9  C3  UNL     1     -33.604  18.124  -5.252  1.00 20.00     0.005 C 
ENDBRANCH   7   8
ENDBRANCH   2   7
BRANCH   2  10
HETATM   10  S11 UNL     1     -34.280  14.308  -3.465  1.00 20.00    -0.148 SA
HETATM   11  C4  UNL     1     -34.692  13.190  -4.818  1.00 20.00     0.091 C 
ENDBRANCH   2  10
TORSDOF 5
ENDMDL
MODEL 6
REMARK VINA RESULT:      -3.9      1.535      3.342
REMARK  5 active torsions:
REMARK  status: ('A' for Active; 'I' for Inactive)
REMARK    1  A    between atoms: C5_5  and  C7_7 
REMARK    2  A    between atoms: C6_6  and  C8_8 
REMARK    3  A    between atoms: C7_7  and  C9_9 
REMARK    4  A    between atoms: C8_8  and  C9_9 
REMARK    5  A    between atoms: C9_9  and  S11_11 
ROOT
HETATM    1  C1  UNL     1     -34.821  13.853  -4.288  1.00 20.00     0.080 C 
HETATM    2  C9  UNL     1     -34.885  15.285  -3.920  1.00 20.00     0.096 C 
HETATM    3  N10 UNL     1     -34.772  12.729  -4.575  1.00 20.00    -0.196 NA
ENDROOT
BRANCH   2   4
HETATM    4  C7  UNL     1     -34.926  15.430  -2.373  1.00 20.00     0.035 C 
BRANCH   4   5
HETATM    5  C5  UNL     1     -34.121  16.610  -1.806  1.00 20.00    -0.002 C 
HETATM    6  C2  UNL     1     -34.616  17.000  -0.420  1.00 20.00     0.005 C 
ENDBRANCH   4   5
ENDBRANCH   2   4
BRANCH   2   7
HETATM    7  C8  UNL     1     -36.110  15.963  -4.587  1.00 20.00     0.035 C 
BRANCH   7   8
HETATM    8  C6  UNL     1     -37.382  16.066  -3.729  1.00 20.00    -0.002 C 
HETATM    9  C3  UNL     1     -38.306  14.880  -3.971  1.00 20.00     0.005 C 
ENDBRANCH   7   8
ENDBRANCH   2   7
BRANCH   2  10
HETATM   10  S11 UNL     1     -33.317  16.102  -4.471  1.00 20.00    -0.148 SA
HETATM   11  C4  UNL     1     -34.068  17.310  -5.578  1.00 20.00     0.091 C 
ENDBRANCH   2  10
TORSDOF 5
ENDMDL
MODEL 7
REMARK VINA RESULT:      -3.9      1.228      1.562
REMARK  5 active torsions:
REMARK  status: ('A' for Active; 'I' for Inactive)
REMARK    1  A    between atoms: C5_5  and  C7_7 
REMARK    2  A    between atoms: C6_6  and  C8_8 
REMARK    3  A    between atoms: C7_7  and  C9_9 
REMARK    4  A    between atoms: C8_8  and  C9_9 
REMARK    5  A    between atoms: C9_9  and  S11_11 
ROOT
HETATM    1  C1  UNL     1     -34.782  13.989  -4.199  1.00 20.00     0.080 C 
HETATM    2  C9  UNL     1     -34.607  15.459  -4.186  1.00 20.00     0.096 C 
HETATM    3  N10 UNL     1     -34.918  12.836  -4.209  1.00 20.00    -0.196 NA
ENDROOT
BRANCH   2   4
HETATM    4  C7  UNL     1     -33.910  15.917  -5.498  1.00 20.00     0.035 C 
BRANCH   4   5
HETATM    5  C5  UNL     1     -34.380  15.200  -6.773  1.00 20.00    -0.002 C 
HETATM    6  C2  UNL     1     -34.918  16.190  -7.796  1.00 20.00     0.005 C 
ENDBRANCH   4   5
ENDBRANCH   2   4
BRANCH   2   7
HETATM    7  C8  UNL     1     -33.808  15.900  -2.933  1.00 20.00     0.035 C 
BRANCH   7   8
HETATM    8  C6  UNL     1     -34.629  16.159  -1.659  1.00 20.00    -0.002 C 
HETATM    9  C3  UNL     1     -34.037  17.304  -0.847  1.00 20.00     0.005 C 
ENDBRANCH   7   8
ENDBRANCH   2   7
BRANCH   2  10
HETATM   10  S11 UNL     1     -36.282  16.248  -4.193  1.00 20.00    -0.148 SA
HETATM   11  C4  UNL     1     -35.742  17.922  -4.588  1.00 20.00     0.091 C 
ENDBRANCH   2  10
TORSDOF 5
ENDMDL
MODEL 8
REMARK VINA RESULT:      -3.8      1.942      3.734
REMARK  5 active torsions:
REMARK  status: ('A' for Active; 'I' for Inactive)
REMARK    1  A    between atoms: C5_5  and  C7_7 
REMARK    2  A    between atoms: C6_6  and  C8_8 
REMARK    3  A    between atoms: C7_7  and  C9_9 
REMARK    4  A    between atoms: C8_8  and  C9_9 
REMARK    5  A    between atoms: C9_9  and  S11_11 
ROOT
HETATM    1  C1  UNL     1     -33.811  16.829  -4.238  1.00 20.00     0.080 C 
HETATM    2  C9  UNL     1     -34.662  16.491  -3.076  1.00 20.00     0.096 C 
HETATM    3  N10 UNL     1     -33.141  17.092  -5.150  1.00 20.00    -0.196 NA
ENDROOT
BRANCH   2   4
HETATM    4  C7  UNL     1     -33.850  16.660  -1.761  1.00 20.00     0.035 C 
BRANCH   4   5
HETATM    5  C5  UNL     1     -34.692  16.892  -0.498  1.00 20.00    -0.002 C 
HETATM    6  C2  UNL     1     -34.110  18.012   0.355  1.00 20.00     0.005 C 
ENDBRANCH   4   5
ENDBRANCH   2   4
BRANCH   2   7
HETATM    7  C8  UNL     1     -35.226  15.054  -3.215  1.00 20.00     0.035 C 
BRANCH   7   8
HETATM    8  C6  UNL     1     -34.214  13.958  -3.589  1.00 20.00    -0.002 C 
HETATM    9  C3  UNL     1     -34.645  13.217  -4.847  1.00 20.00     0.005 C 
ENDBRANCH   7   8
ENDBRANCH   2   7
BRANCH   2  10
HETATM   10  S11 UNL     1     -36.044  17.720  -2.986  1.00 20.00    -0.148 SA
HETATM   11  C4  UNL     1     -37.373  16.602  -3.470  1.00 20.00     0.091 C 
ENDBRANCH   2  10
TORSDOF 5
ENDMDL
MODEL 9
REMARK VINA RESULT:      -3.7      2.146      3.079
REMARK  5 active torsions:
REMARK  status: ('A' for Active; 'I' for Inactive)
REMARK    1  A    between atoms: C5_5  and  C7_7 
REMARK    2  A    between atoms: C6_6  and  C8_8 
REMARK    3  A    between atoms: C7_7  and  C9_9 
REMARK    4  A    between atoms: C8_8  and  C9_9 
REMARK    5  A    between atoms: C9_9  and  S11_11 
ROOT
HETATM    1  C1  UNL     1     -35.678  16.369  -3.646  1.00 20.00     0.080 C 
HETATM    2  C9  UNL     1     -34.215  16.530  -3.500  1.00 20.00     0.096 C 
HETATM    3  N10 UNL     1     -36.827  16.241  -3.759  1.00 20.00    -0.196 NA
ENDROOT
BRANCH   2   4
HETATM    4  C7  UNL     1     -33.508  15.169  -3.753  1.00 20.00     0.035 C 
BRANCH   4   5
HETATM    5  C5  UNL     1     -34.388  13.927  -3.546  1.00 20.00    -0.002 C 
HETATM    6  C2  UNL     1     -34.572  13.158  -4.847  1.00 20.00     0.005 C 
ENDBRANCH   4   5
ENDBRANCH   2   4
BRANCH   2   7
HETATM    7  C8  UNL     1     -33.867  17.099  -2.101  1.00 20.00     0.035 C 
BRANCH   7   8
HETATM    8  C6  UNL     1     -34.650  16.513  -0.913  1.00 20.00    -0.002 C 
HETATM    9  C3  UNL     1     -34.715  17.501   0.244  1.00 20.00     0.005 C 
ENDBRANCH   7   8
ENDBRANCH   2   7
BRANCH   2  10
HETATM   10  S11 UNL     1     -33.616  17.673  -4.828  1.00 20.00    -0.148 SA
HETATM   11  C4  UNL     1     -34.146  16.680  -6.236  1.00 20.00     0.091 C 
ENDBRANCH   2  10
TORSDOF 5
ENDMDL
