MODEL 1
REMARK VINA RESULT:      -4.9      0.000      0.000
REMARK  2 active torsions:
REMARK  status: ('A' for Active; 'I' for Inactive)
REMARK    1  A    between atoms: C6_6  and  C9_9 
REMARK    2  A    between atoms: C9_9  and  C10_10 
ROOT
HETATM    1  C1  UNL     1     -34.533  16.878  -5.457  1.00 20.00     0.002 C 
HETATM    2  C2  UNL     1     -33.233  16.279  -4.927  1.00 20.00     0.005 C 
HETATM    3  C3  UNL     1     -34.270  14.407  -3.434  1.00 20.00     0.006 C 
HETATM    4  C4  UNL     1     -35.794  16.032  -5.292  1.00 20.00     0.020 C 
HETATM    5  C5  UNL     1     -34.631  13.752  -4.767  1.00 20.00     0.020 C 
HETATM    6  C6  UNL     1     -33.290  15.596  -3.550  1.00 20.00    -0.014 C 
HETATM    7  C7  UNL     1     -35.670  14.534  -5.589  1.00 20.00     0.082 C 
HETATM    8 CL11 UNL     1     -35.387  14.260  -7.338  1.00 20.00    -0.125 Cl
ENDROOT
BRANCH   6   9
HETATM    9  C9  UNL     1     -33.540  16.605  -2.428  1.00 20.00     0.004 C 
BRANCH   9  10
HETATM   10  C10 UNL     1     -34.741  16.198  -1.585  1.00 20.00    -0.004 C 
HETATM   11  C8  UNL     1     -34.782  16.979  -0.282  1.00 20.00     0.005 C 
ENDBRANCH   9  10
ENDBRANCH   6   9
TORSDOF 2
ENDMDL
MODEL 2
REMARK VINA RESULT:      -4.6      1.548      2.864
REMARK  2 active torsions:
REMARK  status: ('A' for Active; 'I' for Inactive)
REMARK    1  A    between atoms: C6_6  and  C9_9 
REMARK    2  A    between atoms: C9_9  and  C10_10 
ROOT
HETATM    1  C1  UNL     1     -34.311  14.642  -3.285  1.00 20.00     0.002 C 
HETATM    2  C2  UNL     1     -35.462  15.584  -2.943  1.00 20.00     0.005 C 
HETATM    3  C3  UNL     1     -34.131  17.829  -3.000  1.00 20.00     0.006 C 
HETATM    4  C4  UNL     1     -33.055  15.281  -3.874  1.00 20.00     0.020 C 
HETATM    5  C5  UNL     1     -34.092  17.593  -4.510  1.00 20.00     0.020 C 
HETATM    6  C6  UNL     1     -35.099  16.900  -2.234  1.00 20.00    -0.014 C 
HETATM    7  C7  UNL     1     -33.260  16.371  -4.932  1.00 20.00     0.082 C 
HETATM    8 CL11 UNL     1     -33.938  15.669  -6.436  1.00 20.00    -0.125 Cl
ENDROOT
BRANCH   6   9
HETATM    9  C9  UNL     1     -34.588  16.653  -0.813  1.00 20.00     0.004 C 
BRANCH   9  10
HETATM   10  C10 UNL     1     -33.635  17.756  -0.376  1.00 20.00    -0.004 C 
HETATM   11  C8  UNL     1     -34.030  18.313   0.983  1.00 20.00     0.005 C 
ENDBRANCH   9  10
ENDBRANCH   6   9
TORSDOF 2
ENDMDL
MODEL 3
REMARK VINA RESULT:      -4.5     11.311     12.558
REMARK  2 active torsions:
REMARK  status: ('A' for Active; 'I' for Inactive)
REMARK    1  A    between atoms: C6_6  and  C9_9 
REMARK    2  A    between atoms: C9_9  and  C10_10 
ROOT
HETATM    1  C1  UNL     1     -34.128   5.322   2.709  1.00 20.00     0.002 C 
HETATM    2  C2  UNL     1     -32.705   5.647   3.154  1.00 20.00     0.005 C 
HETATM    3  C3  UNL     1     -33.295   7.209   5.160  1.00 20.00     0.006 C 
HETATM    4  C4  UNL     1     -35.245   5.633   3.702  1.00 20.00     0.020 C 
HETATM    5  C5  UNL     1     -33.761   5.919   5.833  1.00 20.00     0.020 C 
HETATM    6  C6  UNL     1     -32.487   6.996   3.861  1.00 20.00    -0.014 C 
HETATM    7  C7  UNL     1     -34.990   5.274   5.170  1.00 20.00     0.082 C 
HETATM    8 CL11 UNL     1     -34.927   3.495   5.382  1.00 20.00    -0.125 Cl
ENDROOT
BRANCH   6   9
HETATM    9  C9  UNL     1     -32.692   8.173   2.905  1.00 20.00     0.004 C 
BRANCH   9  10
HETATM   10  C10 UNL     1     -31.802   8.042   1.677  1.00 20.00    -0.004 C 
HETATM   11  C8  UNL     1     -32.137   9.104   0.643  1.00 20.00     0.005 C 
ENDBRANCH   9  10
ENDBRANCH   6   9
TORSDOF 2
ENDMDL
MODEL 4
REMARK VINA RESULT:      -4.5      1.105      2.073
REMARK  2 active torsions:
REMARK  status: ('A' for Active; 'I' for Inactive)
REMARK    1  A    between atoms: C6_6  and  C9_9 
REMARK    2  A    between atoms: C9_9  and  C10_10 
ROOT
HETATM    1  C1  UNL     1     -35.942  14.143  -4.341  1.00 20.00     0.002 C 
HETATM    2  C2  UNL     1     -35.989  15.626  -3.985  1.00 20.00     0.005 C 
HETATM    3  C3  UNL     1     -33.596  16.276  -4.798  1.00 20.00     0.006 C 
HETATM    4  C4  UNL     1     -34.836  13.702  -5.297  1.00 20.00     0.020 C 
HETATM    5  C5  UNL     1     -34.176  16.065  -6.196  1.00 20.00     0.020 C 
HETATM    6  C6  UNL     1     -34.648  16.310  -3.668  1.00 20.00    -0.014 C 
HETATM    7  C7  UNL     1     -34.557  14.607  -6.502  1.00 20.00     0.082 C 
HETATM    8 CL11 UNL     1     -35.936  14.571  -7.648  1.00 20.00    -0.125 Cl
ENDROOT
BRANCH   6   9
HETATM    9  C9  UNL     1     -34.045  15.791  -2.361  1.00 20.00     0.004 C 
BRANCH   9  10
HETATM   10  C10 UNL     1     -34.636  16.518  -1.160  1.00 20.00    -0.004 C 
HETATM   11  C8  UNL     1     -33.755  17.683  -0.741  1.00 20.00     0.005 C 
ENDBRANCH   9  10
ENDBRANCH   6   9
TORSDOF 2
ENDMDL
MODEL 5
REMARK VINA RESULT:      -4.3      2.488      4.330
REMARK  2 active torsions:
REMARK  status: ('A' for Active; 'I' for Inactive)
REMARK    1  A    between atoms: C6_6  and  C9_9 
REMARK    2  A    between atoms: C9_9  and  C10_10 
ROOT
HETATM    1  C1  UNL     1     -34.348  14.657  -3.279  1.00 20.00     0.002 C 
HETATM    2  C2  UNL     1     -33.109  15.317  -3.878  1.00 20.00     0.005 C 
HETATM    3  C3  UNL     1     -34.190  17.598  -4.540  1.00 20.00     0.006 C 
HETATM    4  C4  UNL     1     -35.518  15.578  -2.937  1.00 20.00     0.020 C 
HETATM    5  C5  UNL     1     -34.227  17.848  -3.033  1.00 20.00     0.020 C 
HETATM    6  C6  UNL     1     -33.342  16.379  -4.966  1.00 20.00    -0.014 C 
HETATM    7  C7  UNL     1     -35.178  16.914  -2.266  1.00 20.00     0.082 C 
HETATM    8 CL11 UNL     1     -34.552  16.644  -0.608  1.00 20.00    -0.125 Cl
ENDROOT
BRANCH   6   9
HETATM    9  C9  UNL     1     -33.902  15.761  -6.248  1.00 20.00     0.004 C 
BRANCH   9  10
HETATM   10  C10 UNL     1     -35.284  16.316  -6.563  1.00 20.00    -0.004 C 
HETATM   11  C8  UNL     1     -36.321  15.204  -6.608  1.00 20.00     0.005 C 
ENDBRANCH   9  10
ENDBRANCH   6   9
TORSDOF 2
ENDMDL
MODEL 6
REMARK VINA RESULT:      -4.3      2.468      4.311
REMARK  2 active torsions:
REMARK  status: ('A' for Active; 'I' for Inactive)
REMARK    1  A    between atoms: C6_6  and  C9_9 
REMARK    2  A    between atoms: C9_9  and  C10_10 
ROOT
HETATM    1  C1  UNL     1     -36.414  15.337  -3.635  1.00 20.00     0.002 C 
HETATM    2  C2  UNL     1     -35.539  14.111  -3.879  1.00 20.00     0.005 C 
HETATM    3  C3  UNL     1     -33.357  15.351  -4.594  1.00 20.00     0.006 C 
HETATM    4  C4  UNL     1     -35.694  16.677  -3.503  1.00 20.00     0.020 C 
HETATM    5  C5  UNL     1     -33.281  15.752  -3.121  1.00 20.00     0.020 C 
HETATM    6  C6  UNL     1     -34.403  14.257  -4.905  1.00 20.00    -0.014 C 
HETATM    7  C7  UNL     1     -34.408  16.696  -2.670  1.00 20.00     0.082 C 
HETATM    8 CL11 UNL     1     -34.775  16.413  -0.938  1.00 20.00    -0.125 Cl
ENDROOT
BRANCH   6   9
HETATM    9  C9  UNL     1     -34.943  14.425  -6.326  1.00 20.00     0.004 C 
BRANCH   9  10
HETATM   10  C10 UNL     1     -34.303  15.622  -7.016  1.00 20.00    -0.004 C 
HETATM   11  C8  UNL     1     -35.352  16.647  -7.417  1.00 20.00     0.005 C 
ENDBRANCH   9  10
ENDBRANCH   6   9
TORSDOF 2
ENDMDL
MODEL 7
REMARK VINA RESULT:      -4.2     12.095     13.760
REMARK  2 active torsions:
REMARK  status: ('A' for Active; 'I' for Inactive)
REMARK    1  A    between atoms: C6_6  and  C9_9 
REMARK    2  A    between atoms: C9_9  and  C10_10 
ROOT
HETATM    1  C1  UNL     1     -43.101   5.910  -2.926  1.00 20.00     0.002 C 
HETATM    2  C2  UNL     1     -43.197   4.760  -1.927  1.00 20.00     0.005 C 
HETATM    3  C3  UNL     1     -40.827   4.999  -0.861  1.00 20.00     0.006 C 
HETATM    4  C4  UNL     1     -41.981   6.923  -2.699  1.00 20.00     0.020 C 
HETATM    5  C5  UNL     1     -41.400   6.271  -0.237  1.00 20.00     0.020 C 
HETATM    6  C6  UNL     1     -41.880   4.079  -1.519  1.00 20.00    -0.014 C 
HETATM    7  C7  UNL     1     -41.733   7.373  -1.255  1.00 20.00     0.082 C 
HETATM    8 CL11 UNL     1     -43.109   8.353  -0.656  1.00 20.00    -0.125 Cl
ENDROOT
BRANCH   6   9
HETATM    9  C9  UNL     1     -41.260   3.305  -2.683  1.00 20.00     0.004 C 
BRANCH   9  10
HETATM   10  C10 UNL     1     -42.190   2.197  -3.159  1.00 20.00    -0.004 C 
HETATM   11  C8  UNL     1     -41.488   1.285  -4.153  1.00 20.00     0.005 C 
ENDBRANCH   9  10
ENDBRANCH   6   9
TORSDOF 2
ENDMDL
MODEL 8
REMARK VINA RESULT:      -3.9      2.169      3.983
REMARK  2 active torsions:
REMARK  status: ('A' for Active; 'I' for Inactive)
REMARK    1  A    between atoms: C6_6  and  C9_9 
REMARK    2  A    between atoms: C9_9  and  C10_10 
ROOT
HETATM    1  C1  UNL     1     -34.910  13.425  -4.960  1.00 20.00     0.002 C 
HETATM    2  C2  UNL     1     -34.860  14.329  -6.189  1.00 20.00     0.005 C 
HETATM    3  C3  UNL     1     -35.389  16.592  -5.003  1.00 20.00     0.006 C 
HETATM    4  C4  UNL     1     -34.842  14.114  -3.599  1.00 20.00     0.020 C 
HETATM    5  C5  UNL     1     -33.985  16.442  -4.418  1.00 20.00     0.020 C 
HETATM    6  C6  UNL     1     -35.713  15.607  -6.149  1.00 20.00    -0.014 C 
HETATM    7  C7  UNL     1     -33.833  15.258  -3.449  1.00 20.00     0.082 C 
HETATM    8 CL11 UNL     1     -32.155  14.631  -3.519  1.00 20.00    -0.125 Cl
ENDROOT
BRANCH   6   9
HETATM    9  C9  UNL     1     -37.209  15.290  -6.173  1.00 20.00     0.004 C 
BRANCH   9  10
HETATM   10  C10 UNL     1     -37.905  15.847  -4.939  1.00 20.00    -0.004 C 
HETATM   11  C8  UNL     1     -38.516  14.732  -4.106  1.00 20.00     0.005 C 
ENDBRANCH   9  10
ENDBRANCH   6   9
TORSDOF 2
ENDMDL
MODEL 9
REMARK VINA RESULT:      -3.9      2.468      4.305
REMARK  2 active torsions:
REMARK  status: ('A' for Active; 'I' for Inactive)
REMARK    1  A    between atoms: C6_6  and  C9_9 
REMARK    2  A    between atoms: C9_9  and  C10_10 
ROOT
HETATM    1  C1  UNL     1     -34.965  17.699  -4.645  1.00 20.00     0.002 C 
HETATM    2  C2  UNL     1     -36.308  17.084  -4.262  1.00 20.00     0.005 C 
HETATM    3  C3  UNL     1     -35.469  14.674  -3.716  1.00 20.00     0.006 C 
HETATM    4  C4  UNL     1     -33.715  16.927  -4.230  1.00 20.00     0.020 C 
HETATM    5  C5  UNL     1     -34.838  15.334  -2.490  1.00 20.00     0.020 C 
HETATM    6  C6  UNL     1     -36.469  15.570  -4.480  1.00 20.00    -0.014 C 
HETATM    7  C7  UNL     1     -33.707  16.321  -2.822  1.00 20.00     0.082 C 
HETATM    8 CL11 UNL     1     -33.650  17.614  -1.582  1.00 20.00    -0.125 Cl
ENDROOT
BRANCH   6   9
HETATM    9  C9  UNL     1     -36.480  15.211  -5.967  1.00 20.00     0.004 C 
BRANCH   9  10
HETATM   10  C10 UNL     1     -35.298  14.320  -6.322  1.00 20.00    -0.004 C 
HETATM   11  C8  UNL     1     -34.387  14.998  -7.332  1.00 20.00     0.005 C 
ENDBRANCH   9  10
ENDBRANCH   6   9
TORSDOF 2
ENDMDL
