MODEL 1
REMARK VINA RESULT:      -5.0      0.000      0.000
REMARK  1 active torsions:
REMARK  status: ('A' for Active; 'I' for Inactive)
REMARK    1  A    between atoms: C3_3  and  C8_8 
ROOT
HETATM    1  C1  UNL     1     -34.758  16.338  -1.416  1.00 20.00     0.022 A 
HETATM    2  C2  UNL     1     -33.713  17.964  -2.705  1.00 20.00     0.057 A 
HETATM    3  C3  UNL     1     -34.226  16.687  -2.690  1.00 20.00    -0.046 A 
HETATM    4  C4  UNL     1     -34.630  17.362  -0.503  1.00 20.00    -0.021 A 
HETATM    5  C10 UNL     1     -35.054  17.393   0.914  1.00 20.00     0.056 C 
HETATM    6  S11 UNL     1     -33.873  18.738  -1.185  1.00 20.00    -0.106 SA
ENDROOT
BRANCH   3   7
HETATM    7  C8  UNL     1     -34.227  15.759  -3.889  1.00 20.00     0.020 C 
HETATM    8  C5  UNL     1     -33.753  14.332  -3.576  1.00 20.00     0.010 C 
HETATM    9  C6  UNL     1     -34.310  13.439  -4.690  1.00 20.00     0.016 C 
HETATM   10  C9  UNL     1     -35.340  14.278  -5.437  1.00 20.00     0.058 C 
HETATM   11  C7  UNL     1     -35.582  15.501  -4.566  1.00 20.00     0.025 C 
HETATM   12 BR12 UNL     1     -34.634  14.821  -7.180  1.00 20.00    -0.091 Br
ENDBRANCH   3   7
TORSDOF 1
ENDMDL
MODEL 2
REMARK VINA RESULT:      -4.7      1.656      2.501
REMARK  1 active torsions:
REMARK  status: ('A' for Active; 'I' for Inactive)
REMARK    1  A    between atoms: C3_3  and  C8_8 
ROOT
HETATM    1  C1  UNL     1     -35.079  17.261   0.505  1.00 20.00     0.022 A 
HETATM    2  C2  UNL     1     -33.217  17.980  -0.684  1.00 20.00     0.057 A 
HETATM    3  C3  UNL     1     -34.330  17.170  -0.704  1.00 20.00    -0.046 A 
HETATM    4  C4  UNL     1     -34.509  18.136   1.403  1.00 20.00    -0.021 A 
HETATM    5  C10 UNL     1     -34.978  18.502   2.757  1.00 20.00     0.056 C 
HETATM    6  S11 UNL     1     -33.077  18.845   0.787  1.00 20.00    -0.106 SA
ENDROOT
BRANCH   3   7
HETATM    7  C8  UNL     1     -34.716  16.286  -1.873  1.00 20.00     0.020 C 
HETATM    8  C5  UNL     1     -35.925  16.798  -2.672  1.00 20.00     0.010 C 
HETATM    9  C6  UNL     1     -35.840  16.139  -4.052  1.00 20.00     0.016 C 
HETATM   10  C9  UNL     1     -34.449  15.524  -4.148  1.00 20.00     0.058 C 
HETATM   11  C7  UNL     1     -33.664  16.097  -2.977  1.00 20.00     0.025 C 
HETATM   12 BR12 UNL     1     -34.558  13.576  -3.995  1.00 20.00    -0.091 Br
ENDBRANCH   3   7
TORSDOF 1
ENDMDL
MODEL 3
REMARK VINA RESULT:      -4.6      3.441      5.474
REMARK  1 active torsions:
REMARK  status: ('A' for Active; 'I' for Inactive)
REMARK    1  A    between atoms: C3_3  and  C8_8 
ROOT
HETATM    1  C1  UNL     1     -34.374  14.885  -2.922  1.00 20.00     0.022 A 
HETATM    2  C2  UNL     1     -36.324  16.139  -3.073  1.00 20.00     0.057 A 
HETATM    3  C3  UNL     1     -35.167  15.926  -2.358  1.00 20.00    -0.046 A 
HETATM    4  C4  UNL     1     -34.956  14.342  -4.046  1.00 20.00    -0.021 A 
HETATM    5  C10 UNL     1     -34.452  13.252  -4.909  1.00 20.00     0.056 C 
HETATM    6  S11 UNL     1     -36.451  15.088  -4.419  1.00 20.00    -0.106 SA
ENDROOT
BRANCH   3   7
HETATM    7  C8  UNL     1     -34.781  16.705  -1.117  1.00 20.00     0.020 C 
HETATM    8  C5  UNL     1     -33.420  17.412  -1.221  1.00 20.00     0.010 C 
HETATM    9  C6  UNL     1     -33.436  18.533  -0.177  1.00 20.00     0.016 C 
HETATM   10  C9  UNL     1     -34.882  18.669   0.284  1.00 20.00     0.058 C 
HETATM   11  C7  UNL     1     -35.707  17.861  -0.707  1.00 20.00     0.025 C 
HETATM   12 BR12 UNL     1     -35.089  17.936   2.087  1.00 20.00    -0.091 Br
ENDBRANCH   3   7
TORSDOF 1
ENDMDL
MODEL 4
REMARK VINA RESULT:      -4.5     13.573     14.888
REMARK  1 active torsions:
REMARK  status: ('A' for Active; 'I' for Inactive)
REMARK    1  A    between atoms: C3_3  and  C8_8 
ROOT
HETATM    1  C1  UNL     1     -41.306   4.275  -1.457  1.00 20.00     0.022 A 
HETATM    2  C2  UNL     1     -42.719   5.222  -3.040  1.00 20.00     0.057 A 
HETATM    3  C3  UNL     1     -42.173   4.050  -2.564  1.00 20.00    -0.046 A 
HETATM    4  C4  UNL     1     -41.220   5.611  -1.129  1.00 20.00    -0.021 A 
HETATM    5  C10 UNL     1     -40.432   6.246  -0.051  1.00 20.00     0.056 C 
HETATM    6  S11 UNL     1     -42.185   6.586  -2.154  1.00 20.00    -0.106 SA
ENDROOT
BRANCH   3   7
HETATM    7  C8  UNL     1     -42.462   2.682  -3.148  1.00 20.00     0.020 C 
HETATM    8  C5  UNL     1     -43.417   2.704  -4.351  1.00 20.00     0.010 C 
HETATM    9  C6  UNL     1     -43.177   1.398  -5.116  1.00 20.00     0.016 C 
HETATM   10  C9  UNL     1     -41.896   0.800  -4.549  1.00 20.00     0.058 C 
HETATM   11  C7  UNL     1     -41.264   1.900  -3.709  1.00 20.00     0.025 C 
HETATM   12 BR12 UNL     1     -42.311  -0.749  -3.428  1.00 20.00    -0.091 Br
ENDBRANCH   3   7
TORSDOF 1
ENDMDL
MODEL 5
REMARK VINA RESULT:      -4.5      3.214      5.470
REMARK  1 active torsions:
REMARK  status: ('A' for Active; 'I' for Inactive)
REMARK    1  A    between atoms: C3_3  and  C8_8 
ROOT
HETATM    1  C1  UNL     1     -34.352  16.071  -5.054  1.00 20.00     0.022 A 
HETATM    2  C2  UNL     1     -34.330  14.507  -3.335  1.00 20.00     0.057 A 
HETATM    3  C3  UNL     1     -34.258  15.846  -3.651  1.00 20.00    -0.046 A 
HETATM    4  C4  UNL     1     -34.490  14.895  -5.759  1.00 20.00    -0.021 A 
HETATM    5  C10 UNL     1     -34.616  14.706  -7.221  1.00 20.00     0.056 C 
HETATM    6  S11 UNL     1     -34.509  13.528  -4.728  1.00 20.00    -0.106 SA
ENDROOT
BRANCH   3   7
HETATM    7  C8  UNL     1     -34.101  16.951  -2.626  1.00 20.00     0.020 C 
HETATM    8  C5  UNL     1     -35.028  18.155  -2.856  1.00 20.00     0.010 C 
HETATM    9  C6  UNL     1     -35.135  18.880  -1.511  1.00 20.00     0.016 C 
HETATM   10  C9  UNL     1     -34.547  17.937  -0.468  1.00 20.00     0.058 C 
HETATM   11  C7  UNL     1     -34.406  16.592  -1.164  1.00 20.00     0.025 C 
HETATM   12 BR12 UNL     1     -32.793  18.581   0.114  1.00 20.00    -0.091 Br
ENDBRANCH   3   7
TORSDOF 1
ENDMDL
MODEL 6
REMARK VINA RESULT:      -4.4     13.427     15.140
REMARK  1 active torsions:
REMARK  status: ('A' for Active; 'I' for Inactive)
REMARK    1  A    between atoms: C3_3  and  C8_8 
ROOT
HETATM    1  C1  UNL     1     -41.573   2.732  -3.145  1.00 20.00     0.022 A 
HETATM    2  C2  UNL     1     -43.417   2.401  -1.771  1.00 20.00     0.057 A 
HETATM    3  C3  UNL     1     -42.436   3.287  -2.156  1.00 20.00    -0.046 A 
HETATM    4  C4  UNL     1     -41.927   1.442  -3.476  1.00 20.00    -0.021 A 
HETATM    5  C10 UNL     1     -41.286   0.532  -4.450  1.00 20.00     0.056 C 
HETATM    6  S11 UNL     1     -43.296   0.906  -2.598  1.00 20.00    -0.106 SA
ENDROOT
BRANCH   3   7
HETATM    7  C8  UNL     1     -42.291   4.688  -1.598  1.00 20.00     0.020 C 
HETATM    8  C5  UNL     1     -40.982   4.922  -0.827  1.00 20.00     0.010 C 
HETATM    9  C6  UNL     1     -40.755   6.437  -0.814  1.00 20.00     0.016 C 
HETATM   10  C9  UNL     1     -41.732   7.025  -1.824  1.00 20.00     0.058 C 
HETATM   11  C7  UNL     1     -42.271   5.841  -2.613  1.00 20.00     0.025 C 
HETATM   12 BR12 UNL     1     -43.194   7.939  -0.899  1.00 20.00    -0.091 Br
ENDBRANCH   3   7
TORSDOF 1
ENDMDL
MODEL 7
REMARK VINA RESULT:      -4.3      3.292      5.470
REMARK  1 active torsions:
REMARK  status: ('A' for Active; 'I' for Inactive)
REMARK    1  A    between atoms: C3_3  and  C8_8 
ROOT
HETATM    1  C1  UNL     1     -34.511  15.139  -3.150  1.00 20.00     0.022 A 
HETATM    2  C2  UNL     1     -36.603  16.149  -3.125  1.00 20.00     0.057 A 
HETATM    3  C3  UNL     1     -35.306  16.218  -2.668  1.00 20.00    -0.046 A 
HETATM    4  C4  UNL     1     -35.231  14.285  -3.956  1.00 20.00    -0.021 A 
HETATM    5  C10 UNL     1     -34.771  13.058  -4.643  1.00 20.00     0.056 C 
HETATM    6  S11 UNL     1     -36.859  14.787  -4.130  1.00 20.00    -0.106 SA
ENDROOT
BRANCH   3   7
HETATM    7  C8  UNL     1     -34.783  17.313  -1.760  1.00 20.00     0.020 C 
HETATM    8  C5  UNL     1     -35.702  18.541  -1.668  1.00 20.00     0.010 C 
HETATM    9  C6  UNL     1     -35.330  19.262  -0.368  1.00 20.00     0.016 C 
HETATM   10  C9  UNL     1     -34.451  18.298   0.419  1.00 20.00     0.058 C 
HETATM   11  C7  UNL     1     -34.588  16.953  -0.279  1.00 20.00     0.025 C 
HETATM   12 BR12 UNL     1     -32.587  18.893   0.374  1.00 20.00    -0.091 Br
ENDBRANCH   3   7
TORSDOF 1
ENDMDL
MODEL 8
REMARK VINA RESULT:      -4.2     14.071     15.862
REMARK  1 active torsions:
REMARK  status: ('A' for Active; 'I' for Inactive)
REMARK    1  A    between atoms: C3_3  and  C8_8 
ROOT
HETATM    1  C1  UNL     1     -41.916   1.659  -3.043  1.00 20.00     0.022 A 
HETATM    2  C2  UNL     1     -43.412   3.036  -4.169  1.00 20.00     0.057 A 
HETATM    3  C3  UNL     1     -42.568   2.925  -3.087  1.00 20.00    -0.046 A 
HETATM    4  C4  UNL     1     -42.288   0.849  -4.093  1.00 20.00    -0.021 A 
HETATM    5  C10 UNL     1     -41.839  -0.527  -4.400  1.00 20.00     0.056 C 
HETATM    6  S11 UNL     1     -43.417   1.616  -5.127  1.00 20.00    -0.106 SA
ENDROOT
BRANCH   3   7
HETATM    7  C8  UNL     1     -42.355   4.022  -2.062  1.00 20.00     0.020 C 
HETATM    8  C5  UNL     1     -43.085   3.785  -0.731  1.00 20.00     0.010 C 
HETATM    9  C6  UNL     1     -42.363   4.641   0.315  1.00 20.00     0.016 C 
HETATM   10  C9  UNL     1     -41.062   5.099  -0.332  1.00 20.00     0.058 C 
HETATM   11  C7  UNL     1     -40.911   4.262  -1.593  1.00 20.00     0.025 C 
HETATM   12 BR12 UNL     1     -41.169   6.998  -0.794  1.00 20.00    -0.091 Br
ENDBRANCH   3   7
TORSDOF 1
ENDMDL
MODEL 9
REMARK VINA RESULT:      -4.2      3.186      5.330
REMARK  1 active torsions:
REMARK  status: ('A' for Active; 'I' for Inactive)
REMARK    1  A    between atoms: C3_3  and  C8_8 
ROOT
HETATM    1  C1  UNL     1     -35.137  15.894  -4.967  1.00 20.00     0.022 A 
HETATM    2  C2  UNL     1     -34.752  14.205  -3.417  1.00 20.00     0.057 A 
HETATM    3  C3  UNL     1     -35.127  15.519  -3.592  1.00 20.00    -0.046 A 
HETATM    4  C4  UNL     1     -34.767  14.853  -5.790  1.00 20.00    -0.021 A 
HETATM    5  C10 UNL     1     -34.654  14.840  -7.265  1.00 20.00     0.056 C 
HETATM    6  S11 UNL     1     -34.413  13.430  -4.906  1.00 20.00    -0.106 SA
ENDROOT
BRANCH   3   7
HETATM    7  C8  UNL     1     -35.489  16.456  -2.458  1.00 20.00     0.020 C 
HETATM    8  C5  UNL     1     -34.573  16.335  -1.230  1.00 20.00     0.010 C 
HETATM    9  C6  UNL     1     -34.716  17.648  -0.453  1.00 20.00     0.016 C 
HETATM   10  C9  UNL     1     -35.441  18.616  -1.380  1.00 20.00     0.058 C 
HETATM   11  C7  UNL     1     -35.422  17.963  -2.754  1.00 20.00     0.025 C 
HETATM   12 BR12 UNL     1     -37.287  18.871  -0.782  1.00 20.00    -0.091 Br
ENDBRANCH   3   7
TORSDOF 1
ENDMDL
