MODEL 1
REMARK VINA RESULT:      -5.1      0.000      0.000
REMARK  1 active torsions:
REMARK  status: ('A' for Active; 'I' for Inactive)
REMARK    1  A    between atoms: C4_4  and  C10_10 
ROOT
HETATM    1  C5  UNL     1     -33.771  17.860  -2.792  1.00 20.00     0.135 C 
HETATM    2  C6  UNL     1     -33.362  19.022  -1.911  1.00 20.00     0.079 C 
HETATM    3  C7  UNL     1     -34.208  19.071  -0.648  1.00 20.00     0.007 C 
HETATM    4  C8  UNL     1     -34.204  17.733   0.086  1.00 20.00     0.001 C 
HETATM    5  C9  UNL     1     -34.712  16.614  -0.822  1.00 20.00     0.017 C 
HETATM    6  C10 UNL     1     -33.874  16.500  -2.106  1.00 20.00     0.088 C 
HETATM    7  O11 UNL     1     -33.899  18.011  -4.008  1.00 20.00    -0.297 OA
ENDROOT
BRANCH   6   8
HETATM    8  C4  UNL     1     -34.396  15.411  -3.025  1.00 20.00    -0.040 A 
HETATM    9  C1  UNL     1     -35.779  15.183  -3.281  1.00 20.00     0.015 A 
HETATM   10  C2  UNL     1     -35.979  14.135  -4.153  1.00 20.00     0.050 A 
HETATM   11  S12 UNL     1     -34.502  13.431  -4.658  1.00 20.00    -0.113 SA
HETATM   12  C3  UNL     1     -33.591  14.529  -3.711  1.00 20.00     0.057 A 
ENDBRANCH   6   8
TORSDOF 1
ENDMDL
MODEL 2
REMARK VINA RESULT:      -5.0      2.246      4.681
REMARK  1 active torsions:
REMARK  status: ('A' for Active; 'I' for Inactive)
REMARK    1  A    between atoms: C4_4  and  C10_10 
ROOT
HETATM    1  C5  UNL     1     -36.009  15.478  -3.310  1.00 20.00     0.135 C 
HETATM    2  C6  UNL     1     -36.366  14.271  -4.153  1.00 20.00     0.079 C 
HETATM    3  C7  UNL     1     -35.197  13.860  -5.036  1.00 20.00     0.007 C 
HETATM    4  C8  UNL     1     -33.919  13.666  -4.225  1.00 20.00     0.001 C 
HETATM    5  C9  UNL     1     -33.558  14.943  -3.467  1.00 20.00     0.017 C 
HETATM    6  C10 UNL     1     -34.696  15.392  -2.536  1.00 20.00     0.088 C 
HETATM    7  O11 UNL     1     -36.802  16.412  -3.187  1.00 20.00    -0.297 OA
ENDROOT
BRANCH   6   8
HETATM    8  C4  UNL     1     -34.354  16.678  -1.807  1.00 20.00    -0.040 A 
HETATM    9  C1  UNL     1     -34.634  16.908  -0.429  1.00 20.00     0.015 A 
HETATM   10  C2  UNL     1     -34.220  18.157  -0.017  1.00 20.00     0.050 A 
HETATM   11  S12 UNL     1     -33.498  19.044  -1.291  1.00 20.00    -0.113 SA
HETATM   12  C3  UNL     1     -33.737  17.759  -2.396  1.00 20.00     0.057 A 
ENDBRANCH   6   8
TORSDOF 1
ENDMDL
MODEL 3
REMARK VINA RESULT:      -4.8     12.884     14.535
REMARK  1 active torsions:
REMARK  status: ('A' for Active; 'I' for Inactive)
REMARK    1  A    between atoms: C4_4  and  C10_10 
ROOT
HETATM    1  C5  UNL     1     -42.405   5.678  -2.716  1.00 20.00     0.135 C 
HETATM    2  C6  UNL     1     -42.025   7.082  -2.295  1.00 20.00     0.079 C 
HETATM    3  C7  UNL     1     -41.790   7.155  -0.794  1.00 20.00     0.007 C 
HETATM    4  C8  UNL     1     -40.792   6.100  -0.327  1.00 20.00     0.001 C 
HETATM    5  C9  UNL     1     -41.272   4.697  -0.698  1.00 20.00     0.017 C 
HETATM    6  C10 UNL     1     -41.500   4.556  -2.212  1.00 20.00     0.088 C 
HETATM    7  O11 UNL     1     -43.330   5.490  -3.509  1.00 20.00    -0.297 OA
ENDROOT
BRANCH   6   8
HETATM    8  C4  UNL     1     -42.008   3.175  -2.580  1.00 20.00    -0.040 A 
HETATM    9  C1  UNL     1     -41.382   2.328  -3.540  1.00 20.00     0.015 A 
HETATM   10  C2  UNL     1     -42.046   1.129  -3.684  1.00 20.00     0.050 A 
HETATM   11  S12 UNL     1     -43.417   1.029  -2.664  1.00 20.00    -0.113 SA
HETATM   12  C3  UNL     1     -43.126   2.591  -2.026  1.00 20.00     0.057 A 
ENDBRANCH   6   8
TORSDOF 1
ENDMDL
MODEL 4
REMARK VINA RESULT:      -4.7      2.272      4.610
REMARK  1 active torsions:
REMARK  status: ('A' for Active; 'I' for Inactive)
REMARK    1  A    between atoms: C4_4  and  C10_10 
ROOT
HETATM    1  C5  UNL     1     -33.682  15.031  -3.823  1.00 20.00     0.135 C 
HETATM    2  C6  UNL     1     -34.115  13.962  -4.804  1.00 20.00     0.079 C 
HETATM    3  C7  UNL     1     -35.432  13.331  -4.377  1.00 20.00     0.007 C 
HETATM    4  C8  UNL     1     -36.507  14.385  -4.128  1.00 20.00     0.001 C 
HETATM    5  C9  UNL     1     -36.053  15.383  -3.064  1.00 20.00     0.017 C 
HETATM    6  C10 UNL     1     -34.737  16.073  -3.457  1.00 20.00     0.088 C 
HETATM    7  O11 UNL     1     -32.512  15.096  -3.444  1.00 20.00    -0.297 OA
ENDROOT
BRANCH   6   8
HETATM    8  C4  UNL     1     -34.266  17.041  -2.387  1.00 20.00    -0.040 A 
HETATM    9  C1  UNL     1     -34.361  16.786  -0.988  1.00 20.00     0.015 A 
HETATM   10  C2  UNL     1     -33.860  17.827  -0.237  1.00 20.00     0.050 A 
HETATM   11  S12 UNL     1     -33.278  19.103  -1.218  1.00 20.00    -0.113 SA
HETATM   12  C3  UNL     1     -33.695  18.266  -2.652  1.00 20.00     0.057 A 
ENDBRANCH   6   8
TORSDOF 1
ENDMDL
MODEL 5
REMARK VINA RESULT:      -4.4      3.078      4.327
REMARK  1 active torsions:
REMARK  status: ('A' for Active; 'I' for Inactive)
REMARK    1  A    between atoms: C4_4  and  C10_10 
ROOT
HETATM    1  C5  UNL     1     -35.057  13.785  -3.974  1.00 20.00     0.135 C 
HETATM    2  C6  UNL     1     -33.654  13.754  -3.405  1.00 20.00     0.079 C 
HETATM    3  C7  UNL     1     -32.901  15.032  -3.742  1.00 20.00     0.007 C 
HETATM    4  C8  UNL     1     -33.686  16.274  -3.330  1.00 20.00     0.001 C 
HETATM    5  C9  UNL     1     -35.057  16.299  -4.005  1.00 20.00     0.017 C 
HETATM    6  C10 UNL     1     -35.875  15.040  -3.676  1.00 20.00     0.088 C 
HETATM    7  O11 UNL     1     -35.523  12.799  -4.545  1.00 20.00    -0.297 OA
ENDROOT
BRANCH   6   8
HETATM    8  C4  UNL     1     -37.224  15.045  -4.372  1.00 20.00    -0.040 A 
HETATM    9  C1  UNL     1     -37.407  15.373  -5.747  1.00 20.00     0.015 A 
HETATM   10  C2  UNL     1     -38.729  15.300  -6.125  1.00 20.00     0.050 A 
HETATM   11  S12 UNL     1     -39.743  14.839  -4.825  1.00 20.00    -0.113 SA
HETATM   12  C3  UNL     1     -38.413  14.734  -3.752  1.00 20.00     0.057 A 
ENDBRANCH   6   8
TORSDOF 1
ENDMDL
MODEL 6
REMARK VINA RESULT:      -4.4      2.575      4.674
REMARK  1 active torsions:
REMARK  status: ('A' for Active; 'I' for Inactive)
REMARK    1  A    between atoms: C4_4  and  C10_10 
ROOT
HETATM    1  C5  UNL     1     -33.863  16.115  -5.320  1.00 20.00     0.135 C 
HETATM    2  C6  UNL     1     -34.120  15.580  -6.714  1.00 20.00     0.079 C 
HETATM    3  C7  UNL     1     -35.217  14.527  -6.699  1.00 20.00     0.007 C 
HETATM    4  C8  UNL     1     -36.480  15.037  -6.012  1.00 20.00     0.001 C 
HETATM    5  C9  UNL     1     -36.179  15.478  -4.580  1.00 20.00     0.017 C 
HETATM    6  C10 UNL     1     -35.094  16.565  -4.536  1.00 20.00     0.088 C 
HETATM    7  O11 UNL     1     -32.712  16.270  -4.911  1.00 20.00    -0.297 OA
ENDROOT
BRANCH   6   8
HETATM    8  C4  UNL     1     -34.769  16.981  -3.113  1.00 20.00    -0.040 A 
HETATM    9  C1  UNL     1     -34.822  16.098  -1.996  1.00 20.00     0.015 A 
HETATM   10  C2  UNL     1     -34.479  16.730  -0.820  1.00 20.00     0.050 A 
HETATM   11  S12 UNL     1     -34.096  18.380  -1.067  1.00 20.00    -0.113 SA
HETATM   12  C3  UNL     1     -34.388  18.253  -2.749  1.00 20.00     0.057 A 
ENDBRANCH   6   8
TORSDOF 1
ENDMDL
MODEL 7
REMARK VINA RESULT:      -4.3      2.048      2.809
REMARK  1 active torsions:
REMARK  status: ('A' for Active; 'I' for Inactive)
REMARK    1  A    between atoms: C4_4  and  C10_10 
ROOT
HETATM    1  C5  UNL     1     -33.084  18.639  -0.242  1.00 20.00     0.135 C 
HETATM    2  C6  UNL     1     -32.732  19.058   1.170  1.00 20.00     0.079 C 
HETATM    3  C7  UNL     1     -33.980  19.171   2.032  1.00 20.00     0.007 C 
HETATM    4  C8  UNL     1     -34.820  17.899   1.978  1.00 20.00     0.001 C 
HETATM    5  C9  UNL     1     -35.224  17.576   0.540  1.00 20.00     0.017 C 
HETATM    6  C10 UNL     1     -33.997  17.422  -0.374  1.00 20.00     0.088 C 
HETATM    7  O11 UNL     1     -32.564  19.197  -1.209  1.00 20.00    -0.297 OA
ENDROOT
BRANCH   6   8
HETATM    8  C4  UNL     1     -34.395  17.133  -1.809  1.00 20.00    -0.040 A 
HETATM    9  C1  UNL     1     -33.726  16.193  -2.645  1.00 20.00     0.015 A 
HETATM   10  C2  UNL     1     -34.289  16.124  -3.901  1.00 20.00     0.050 A 
HETATM   11  S12 UNL     1     -35.618  17.191  -4.067  1.00 20.00    -0.113 SA
HETATM   12  C3  UNL     1     -35.443  17.747  -2.457  1.00 20.00     0.057 A 
ENDBRANCH   6   8
TORSDOF 1
ENDMDL
MODEL 8
REMARK VINA RESULT:      -4.3      2.967      4.115
REMARK  1 active torsions:
REMARK  status: ('A' for Active; 'I' for Inactive)
REMARK    1  A    between atoms: C4_4  and  C10_10 
ROOT
HETATM    1  C5  UNL     1     -34.376  18.159   1.727  1.00 20.00     0.135 C 
HETATM    2  C6  UNL     1     -33.620  18.766   2.890  1.00 20.00     0.079 C 
HETATM    3  C7  UNL     1     -32.118  18.677   2.668  1.00 20.00     0.007 C 
HETATM    4  C8  UNL     1     -31.711  19.262   1.320  1.00 20.00     0.001 C 
HETATM    5  C9  UNL     1     -32.436  18.551   0.178  1.00 20.00     0.017 C 
HETATM    6  C10 UNL     1     -33.963  18.633   0.335  1.00 20.00     0.088 C 
HETATM    7  O11 UNL     1     -35.336  17.413   1.925  1.00 20.00    -0.297 OA
ENDROOT
BRANCH   6   8
HETATM    8  C4  UNL     1     -34.685  17.898  -0.779  1.00 20.00    -0.040 A 
HETATM    9  C1  UNL     1     -34.310  16.608  -1.253  1.00 20.00     0.015 A 
HETATM   10  C2  UNL     1     -35.132  16.171  -2.269  1.00 20.00     0.050 A 
HETATM   11  S12 UNL     1     -36.349  17.314  -2.647  1.00 20.00    -0.113 SA
HETATM   12  C3  UNL     1     -35.779  18.398  -1.450  1.00 20.00     0.057 A 
ENDBRANCH   6   8
TORSDOF 1
ENDMDL
MODEL 9
REMARK VINA RESULT:      -4.2      2.731      4.660
REMARK  1 active torsions:
REMARK  status: ('A' for Active; 'I' for Inactive)
REMARK    1  A    between atoms: C4_4  and  C10_10 
ROOT
HETATM    1  C5  UNL     1     -35.285  15.247  -3.686  1.00 20.00     0.135 C 
HETATM    2  C6  UNL     1     -34.826  14.512  -4.928  1.00 20.00     0.079 C 
HETATM    3  C7  UNL     1     -34.283  15.483  -5.965  1.00 20.00     0.007 C 
HETATM    4  C8  UNL     1     -33.209  16.394  -5.377  1.00 20.00     0.001 C 
HETATM    5  C9  UNL     1     -33.755  17.177  -4.185  1.00 20.00     0.017 C 
HETATM    6  C10 UNL     1     -34.294  16.243  -3.089  1.00 20.00     0.088 C 
HETATM    7  O11 UNL     1     -36.355  14.958  -3.148  1.00 20.00    -0.297 OA
ENDROOT
BRANCH   6   8
HETATM    8  C4  UNL     1     -34.868  17.018  -1.918  1.00 20.00    -0.040 A 
HETATM    9  C1  UNL     1     -34.603  16.707  -0.553  1.00 20.00     0.015 A 
HETATM   10  C2  UNL     1     -35.247  17.567   0.309  1.00 20.00     0.050 A 
HETATM   11  S12 UNL     1     -36.166  18.744  -0.527  1.00 20.00    -0.113 SA
HETATM   12  C3  UNL     1     -35.703  18.105  -2.047  1.00 20.00     0.057 A 
ENDBRANCH   6   8
TORSDOF 1
ENDMDL
