MODEL 1
REMARK VINA RESULT:      -4.7      0.000      0.000
REMARK  1 active torsions:
REMARK  status: ('A' for Active; 'I' for Inactive)
REMARK    1  A    between atoms: C4_4  and  C9_9 
ROOT
HETATM    1  C5  UNL     1     -33.348  16.304  -5.131  1.00 20.00     0.002 C 
HETATM    2  C6  UNL     1     -32.976  15.498  -3.883  1.00 20.00     0.009 C 
HETATM    3  C7  UNL     1     -34.714  15.915  -5.685  1.00 20.00     0.020 C 
HETATM    4  C8  UNL     1     -35.425  15.107  -3.409  1.00 20.00     0.029 C 
HETATM    5  C9  UNL     1     -34.063  15.488  -2.784  1.00 20.00     0.020 C 
HETATM    6  C10 UNL     1     -35.787  15.992  -4.603  1.00 20.00     0.083 C 
HETATM    7 CL12 UNL     1     -37.359  15.478  -5.281  1.00 20.00    -0.125 Cl
ENDROOT
BRANCH   5   8
HETATM    8  C4  UNL     1     -34.155  16.721  -1.888  1.00 20.00    -0.047 A 
HETATM    9  C1  UNL     1     -34.690  16.706  -0.568  1.00 20.00     0.015 A 
HETATM   10  C2  UNL     1     -34.655  17.951   0.020  1.00 20.00     0.050 A 
HETATM   11  S11 UNL     1     -33.981  19.134  -1.021  1.00 20.00    -0.113 SA
HETATM   12  C3  UNL     1     -33.732  17.979  -2.261  1.00 20.00     0.057 A 
ENDBRANCH   5   8
TORSDOF 1
ENDMDL
MODEL 2
REMARK VINA RESULT:      -4.5      1.250      1.390
REMARK  1 active torsions:
REMARK  status: ('A' for Active; 'I' for Inactive)
REMARK    1  A    between atoms: C4_4  and  C9_9 
ROOT
HETATM    1  C5  UNL     1     -34.420  14.937  -5.907  1.00 20.00     0.002 C 
HETATM    2  C6  UNL     1     -34.031  14.267  -4.586  1.00 20.00     0.009 C 
HETATM    3  C7  UNL     1     -35.916  14.840  -6.186  1.00 20.00     0.020 C 
HETATM    4  C8  UNL     1     -36.378  14.613  -3.721  1.00 20.00     0.029 C 
HETATM    5  C9  UNL     1     -34.875  14.715  -3.371  1.00 20.00     0.020 C 
HETATM    6  C10 UNL     1     -36.729  15.365  -5.007  1.00 20.00     0.083 C 
HETATM    7 CL12 UNL     1     -38.474  15.184  -5.354  1.00 20.00    -0.125 Cl
ENDROOT
BRANCH   5   8
HETATM    8  C4  UNL     1     -34.513  16.053  -2.731  1.00 20.00    -0.047 A 
HETATM    9  C1  UNL     1     -34.659  16.335  -1.342  1.00 20.00     0.015 A 
HETATM   10  C2  UNL     1     -34.259  17.615  -1.028  1.00 20.00     0.050 A 
HETATM   11  S11 UNL     1     -33.711  18.473  -2.406  1.00 20.00    -0.113 SA
HETATM   12  C3  UNL     1     -34.007  17.130  -3.427  1.00 20.00     0.057 A 
ENDBRANCH   5   8
TORSDOF 1
ENDMDL
MODEL 3
REMARK VINA RESULT:      -4.4      3.078      4.885
REMARK  1 active torsions:
REMARK  status: ('A' for Active; 'I' for Inactive)
REMARK    1  A    between atoms: C4_4  and  C9_9 
ROOT
HETATM    1  C5  UNL     1     -34.332  15.016  -2.834  1.00 20.00     0.002 C 
HETATM    2  C6  UNL     1     -33.146  15.137  -3.796  1.00 20.00     0.009 C 
HETATM    3  C7  UNL     1     -34.689  16.348  -2.186  1.00 20.00     0.020 C 
HETATM    4  C8  UNL     1     -33.667  17.585  -4.126  1.00 20.00     0.029 C 
HETATM    5  C9  UNL     1     -33.286  16.267  -4.840  1.00 20.00     0.020 C 
HETATM    6  C10 UNL     1     -34.904  17.431  -3.239  1.00 20.00     0.083 C 
HETATM    7 CL12 UNL     1     -35.267  18.986  -2.435  1.00 20.00    -0.125 Cl
ENDROOT
BRANCH   5   8
HETATM    8  C4  UNL     1     -34.167  15.985  -6.055  1.00 20.00    -0.047 A 
HETATM    9  C1  UNL     1     -34.712  16.999  -6.894  1.00 20.00     0.015 A 
HETATM   10  C2  UNL     1     -35.469  16.472  -7.918  1.00 20.00     0.050 A 
HETATM   11  S11 UNL     1     -35.521  14.761  -7.864  1.00 20.00    -0.113 SA
HETATM   12  C3  UNL     1     -34.528  14.721  -6.469  1.00 20.00     0.057 A 
ENDBRANCH   5   8
TORSDOF 1
ENDMDL
MODEL 4
REMARK VINA RESULT:      -4.4      1.706      2.319
REMARK  1 active torsions:
REMARK  status: ('A' for Active; 'I' for Inactive)
REMARK    1  A    between atoms: C4_4  and  C9_9 
ROOT
HETATM    1  C5  UNL     1     -34.442  13.862  -5.339  1.00 20.00     0.002 C 
HETATM    2  C6  UNL     1     -35.372  13.546  -4.164  1.00 20.00     0.009 C 
HETATM    3  C7  UNL     1     -35.198  14.402  -6.548  1.00 20.00     0.020 C 
HETATM    4  C8  UNL     1     -37.047  15.217  -5.047  1.00 20.00     0.029 C 
HETATM    5  C9  UNL     1     -36.326  14.700  -3.780  1.00 20.00     0.020 C 
HETATM    6  C10 UNL     1     -36.070  15.592  -6.162  1.00 20.00     0.083 C 
HETATM    7 CL12 UNL     1     -36.978  16.160  -7.594  1.00 20.00    -0.125 Cl
ENDROOT
BRANCH   5   8
HETATM    8  C4  UNL     1     -35.741  15.832  -2.937  1.00 20.00    -0.047 A 
HETATM    9  C1  UNL     1     -34.495  15.750  -2.253  1.00 20.00     0.015 A 
HETATM   10  C2  UNL     1     -34.203  16.909  -1.567  1.00 20.00     0.050 A 
HETATM   11  S11 UNL     1     -35.432  18.089  -1.748  1.00 20.00    -0.113 SA
HETATM   12  C3  UNL     1     -36.357  17.050  -2.747  1.00 20.00     0.057 A 
ENDBRANCH   5   8
TORSDOF 1
ENDMDL
MODEL 5
REMARK VINA RESULT:      -4.4      1.514      1.853
REMARK  1 active torsions:
REMARK  status: ('A' for Active; 'I' for Inactive)
REMARK    1  A    between atoms: C4_4  and  C9_9 
ROOT
HETATM    1  C5  UNL     1     -34.970  16.884  -5.962  1.00 20.00     0.002 C 
HETATM    2  C6  UNL     1     -33.685  17.397  -5.306  1.00 20.00     0.009 C 
HETATM    3  C7  UNL     1     -35.008  15.362  -6.048  1.00 20.00     0.020 C 
HETATM    4  C8  UNL     1     -33.428  15.196  -4.094  1.00 20.00     0.029 C 
HETATM    5  C9  UNL     1     -33.354  16.734  -3.950  1.00 20.00     0.020 C 
HETATM    6  C10 UNL     1     -34.762  14.729  -4.682  1.00 20.00     0.083 C 
HETATM    7 CL12 UNL     1     -34.763  12.948  -4.837  1.00 20.00    -0.125 Cl
ENDROOT
BRANCH   5   8
HETATM    8  C4  UNL     1     -34.113  17.244  -2.726  1.00 20.00    -0.047 A 
HETATM    9  C1  UNL     1     -34.265  16.501  -1.520  1.00 20.00     0.015 A 
HETATM   10  C2  UNL     1     -34.993  17.191  -0.575  1.00 20.00     0.050 A 
HETATM   11  S11 UNL     1     -35.490  18.729  -1.144  1.00 20.00    -0.113 SA
HETATM   12  C3  UNL     1     -34.731  18.474  -2.658  1.00 20.00     0.057 A 
ENDBRANCH   5   8
TORSDOF 1
ENDMDL
MODEL 6
REMARK VINA RESULT:      -4.4      2.042      2.760
REMARK  1 active torsions:
REMARK  status: ('A' for Active; 'I' for Inactive)
REMARK    1  A    between atoms: C4_4  and  C9_9 
ROOT
HETATM    1  C5  UNL     1     -36.914  14.961  -3.886  1.00 20.00     0.002 C 
HETATM    2  C6  UNL     1     -36.573  16.429  -4.157  1.00 20.00     0.009 C 
HETATM    3  C7  UNL     1     -35.727  14.036  -4.132  1.00 20.00     0.020 C 
HETATM    4  C8  UNL     1     -34.135  15.941  -3.715  1.00 20.00     0.029 C 
HETATM    5  C9  UNL     1     -35.295  16.928  -3.445  1.00 20.00     0.020 C 
HETATM    6  C10 UNL     1     -34.500  14.500  -3.355  1.00 20.00     0.083 C 
HETATM    7 CL12 UNL     1     -33.120  13.421  -3.713  1.00 20.00    -0.125 Cl
ENDROOT
BRANCH   5   8
HETATM    8  C4  UNL     1     -35.422  17.291  -1.967  1.00 20.00    -0.047 A 
HETATM    9  C1  UNL     1     -34.540  16.818  -0.954  1.00 20.00     0.015 A 
HETATM   10  C2  UNL     1     -34.878  17.297   0.293  1.00 20.00     0.050 A 
HETATM   11  S11 UNL     1     -36.256  18.313   0.238  1.00 20.00    -0.113 SA
HETATM   12  C3  UNL     1     -36.403  18.114  -1.456  1.00 20.00     0.057 A 
ENDBRANCH   5   8
TORSDOF 1
ENDMDL
MODEL 7
REMARK VINA RESULT:      -4.4      2.947      4.765
REMARK  1 active torsions:
REMARK  status: ('A' for Active; 'I' for Inactive)
REMARK    1  A    between atoms: C4_4  and  C9_9 
ROOT
HETATM    1  C5  UNL     1     -34.110  15.055  -2.786  1.00 20.00     0.002 C 
HETATM    2  C6  UNL     1     -33.013  15.260  -3.834  1.00 20.00     0.009 C 
HETATM    3  C7  UNL     1     -34.496  16.356  -2.090  1.00 20.00     0.020 C 
HETATM    4  C8  UNL     1     -33.706  17.675  -4.084  1.00 20.00     0.029 C 
HETATM    5  C9  UNL     1     -33.303  16.391  -4.846  1.00 20.00     0.020 C 
HETATM    6  C10 UNL     1     -34.858  17.435  -3.106  1.00 20.00     0.083 C 
HETATM    7 CL12 UNL     1     -35.252  18.955  -2.252  1.00 20.00    -0.125 Cl
ENDROOT
BRANCH   5   8
HETATM    8  C4  UNL     1     -34.257  16.068  -5.994  1.00 20.00    -0.047 A 
HETATM    9  C1  UNL     1     -34.512  14.749  -6.468  1.00 20.00     0.015 A 
HETATM   10  C2  UNL     1     -35.413  14.738  -7.511  1.00 20.00     0.050 A 
HETATM   11  S11 UNL     1     -35.946  16.315  -7.915  1.00 20.00    -0.113 SA
HETATM   12  C3  UNL     1     -34.972  17.016  -6.693  1.00 20.00     0.057 A 
ENDBRANCH   5   8
TORSDOF 1
ENDMDL
MODEL 8
REMARK VINA RESULT:      -4.3      2.746      4.254
REMARK  1 active torsions:
REMARK  status: ('A' for Active; 'I' for Inactive)
REMARK    1  A    between atoms: C4_4  and  C9_9 
ROOT
HETATM    1  C5  UNL     1     -34.771  16.764  -0.775  1.00 20.00     0.002 C 
HETATM    2  C6  UNL     1     -33.561  16.895  -1.705  1.00 20.00     0.009 C 
HETATM    3  C7  UNL     1     -35.802  17.861  -1.009  1.00 20.00     0.020 C 
HETATM    4  C8  UNL     1     -34.982  18.150  -3.372  1.00 20.00     0.029 C 
HETATM    5  C9  UNL     1     -33.920  17.038  -3.201  1.00 20.00     0.020 C 
HETATM    6  C10 UNL     1     -36.205  17.931  -2.479  1.00 20.00     0.083 C 
HETATM    7 CL12 UNL     1     -37.373  19.263  -2.718  1.00 20.00    -0.125 Cl
ENDROOT
BRANCH   5   8
HETATM    8  C4  UNL     1     -34.285  15.760  -3.952  1.00 20.00    -0.047 A 
HETATM    9  C1  UNL     1     -34.244  14.459  -3.374  1.00 20.00     0.015 A 
HETATM   10  C2  UNL     1     -34.621  13.482  -4.269  1.00 20.00     0.050 A 
HETATM   11  S11 UNL     1     -35.022  14.134  -5.801  1.00 20.00    -0.113 SA
HETATM   12  C3  UNL     1     -34.692  15.728  -5.269  1.00 20.00     0.057 A 
ENDBRANCH   5   8
TORSDOF 1
ENDMDL
MODEL 9
REMARK VINA RESULT:      -4.2      3.475      4.877
REMARK  1 active torsions:
REMARK  status: ('A' for Active; 'I' for Inactive)
REMARK    1  A    between atoms: C4_4  and  C9_9 
ROOT
HETATM    1  C5  UNL     1     -34.649  13.288  -4.554  1.00 20.00     0.002 C 
HETATM    2  C6  UNL     1     -34.969  14.134  -5.791  1.00 20.00     0.009 C 
HETATM    3  C7  UNL     1     -34.055  14.120  -3.423  1.00 20.00     0.020 C 
HETATM    4  C8  UNL     1     -35.172  16.185  -4.333  1.00 20.00     0.029 C 
HETATM    5  C9  UNL     1     -35.812  15.396  -5.499  1.00 20.00     0.020 C 
HETATM    6  C10 UNL     1     -34.944  15.315  -3.095  1.00 20.00     0.083 C 
HETATM    7 CL12 UNL     1     -34.186  16.290  -1.803  1.00 20.00    -0.125 Cl
ENDROOT
BRANCH   5   8
HETATM    8  C4  UNL     1     -37.316  15.200  -5.316  1.00 20.00    -0.047 A 
HETATM    9  C1  UNL     1     -37.918  14.764  -4.101  1.00 20.00     0.015 A 
HETATM   10  C2  UNL     1     -39.288  14.670  -4.207  1.00 20.00     0.050 A 
HETATM   11  S11 UNL     1     -39.843  15.105  -5.769  1.00 20.00    -0.113 SA
HETATM   12  C3  UNL     1     -38.248  15.421  -6.307  1.00 20.00     0.057 A 
ENDBRANCH   5   8
TORSDOF 1
ENDMDL
