MODEL 1
REMARK VINA RESULT:      -5.1      0.000      0.000
REMARK  2 active torsions:
REMARK  status: ('A' for Active; 'I' for Inactive)
REMARK    1  A    between atoms: C7_7  and  C10_10 
REMARK    2  A    between atoms: C10_10  and  C11_11 
ROOT
HETATM    1  C1  UNL     1     -33.179  16.590  -5.158  1.00 20.00     0.004 C 
HETATM    2  C2  UNL     1     -33.980  16.899  -3.893  1.00 20.00     0.005 C 
HETATM    3  C3  UNL     1     -35.001  14.561  -3.499  1.00 20.00     0.007 C 
HETATM    4  C4  UNL     1     -34.016  16.054  -6.314  1.00 20.00     0.040 C 
HETATM    5  C5  UNL     1     -34.537  13.984  -4.836  1.00 20.00     0.040 C 
HETATM    6  C6  UNL     1     -36.327  14.873  -6.497  1.00 20.00     0.207 A 
HETATM    7  C7  UNL     1     -34.120  15.693  -2.948  1.00 20.00    -0.014 C 
HETATM    8  C8  UNL     1     -34.898  14.882  -5.985  1.00 20.00     0.082 A 
HETATM    9  O12 UNL     1     -35.291  14.151  -7.165  1.00 20.00    -0.375 OA
ENDROOT
BRANCH   7  10
HETATM   10  C10 UNL     1     -34.684  16.160  -1.601  1.00 20.00     0.004 C 
BRANCH  10  11
HETATM   11  C11 UNL     1     -33.850  17.296  -1.023  1.00 20.00    -0.004 C 
HETATM   12  C9  UNL     1     -34.411  17.763   0.310  1.00 20.00     0.005 C 
ENDBRANCH  10  11
ENDBRANCH   7  10
TORSDOF 2
ENDMDL
MODEL 2
REMARK VINA RESULT:      -4.9      1.333      1.832
REMARK  2 active torsions:
REMARK  status: ('A' for Active; 'I' for Inactive)
REMARK    1  A    between atoms: C7_7  and  C10_10 
REMARK    2  A    between atoms: C10_10  and  C11_11 
ROOT
HETATM    1  C1  UNL     1     -33.914  16.312  -6.023  1.00 20.00     0.004 C 
HETATM    2  C2  UNL     1     -34.411  17.183  -4.870  1.00 20.00     0.005 C 
HETATM    3  C3  UNL     1     -33.651  15.694  -2.903  1.00 20.00     0.007 C 
HETATM    4  C4  UNL     1     -34.485  14.898  -6.032  1.00 20.00     0.040 C 
HETATM    5  C5  UNL     1     -33.259  14.504  -3.777  1.00 20.00     0.040 C 
HETATM    6  C6  UNL     1     -35.543  13.348  -4.230  1.00 20.00     0.207 A 
HETATM    7  C7  UNL     1     -33.554  17.061  -3.598  1.00 20.00    -0.014 C 
HETATM    8  C8  UNL     1     -34.352  14.138  -4.742  1.00 20.00     0.082 A 
HETATM    9  O12 UNL     1     -34.475  12.714  -4.935  1.00 20.00    -0.375 OA
ENDROOT
BRANCH   7  10
HETATM   10  C10 UNL     1     -33.951  18.160  -2.606  1.00 20.00     0.004 C 
BRANCH  10  11
HETATM   11  C11 UNL     1     -33.908  17.646  -1.173  1.00 20.00    -0.004 C 
HETATM   12  C9  UNL     1     -32.938  18.457  -0.329  1.00 20.00     0.005 C 
ENDBRANCH  10  11
ENDBRANCH   7  10
TORSDOF 2
ENDMDL
MODEL 3
REMARK VINA RESULT:      -4.8      1.415      1.809
REMARK  2 active torsions:
REMARK  status: ('A' for Active; 'I' for Inactive)
REMARK    1  A    between atoms: C7_7  and  C10_10 
REMARK    2  A    between atoms: C10_10  and  C11_11 
ROOT
HETATM    1  C1  UNL     1     -34.121  13.694  -4.112  1.00 20.00     0.004 C 
HETATM    2  C2  UNL     1     -33.602  14.948  -3.409  1.00 20.00     0.005 C 
HETATM    3  C3  UNL     1     -35.826  16.249  -3.241  1.00 20.00     0.007 C 
HETATM    4  C4  UNL     1     -34.808  13.964  -5.447  1.00 20.00     0.040 C 
HETATM    5  C5  UNL     1     -36.613  15.286  -4.129  1.00 20.00     0.040 C 
HETATM    6  C6  UNL     1     -35.946  16.041  -6.525  1.00 20.00     0.207 A 
HETATM    7  C7  UNL     1     -34.644  15.611  -2.492  1.00 20.00    -0.014 C 
HETATM    8  C8  UNL     1     -35.894  15.004  -5.418  1.00 20.00     0.082 A 
HETATM    9  O12 UNL     1     -36.788  14.887  -6.544  1.00 20.00    -0.375 OA
ENDROOT
BRANCH   7  10
HETATM   10  C10 UNL     1     -33.962  16.677  -1.627  1.00 20.00     0.004 C 
BRANCH  10  11
HETATM   11  C11 UNL     1     -34.761  16.946  -0.359  1.00 20.00    -0.004 C 
HETATM   12  C9  UNL     1     -34.115  18.042   0.473  1.00 20.00     0.005 C 
ENDBRANCH  10  11
ENDBRANCH   7  10
TORSDOF 2
ENDMDL
MODEL 4
REMARK VINA RESULT:      -4.8      0.975      1.166
REMARK  2 active torsions:
REMARK  status: ('A' for Active; 'I' for Inactive)
REMARK    1  A    between atoms: C7_7  and  C10_10 
REMARK    2  A    between atoms: C10_10  and  C11_11 
ROOT
HETATM    1  C1  UNL     1     -33.294  16.992  -5.226  1.00 20.00     0.004 C 
HETATM    2  C2  UNL     1     -33.940  17.613  -3.989  1.00 20.00     0.005 C 
HETATM    3  C3  UNL     1     -34.316  15.456  -2.621  1.00 20.00     0.007 C 
HETATM    4  C4  UNL     1     -34.151  15.937  -5.918  1.00 20.00     0.040 C 
HETATM    5  C5  UNL     1     -33.942  14.507  -3.760  1.00 20.00     0.040 C 
HETATM    6  C6  UNL     1     -36.124  14.414  -5.169  1.00 20.00     0.207 A 
HETATM    7  C7  UNL     1     -33.648  16.839  -2.692  1.00 20.00    -0.014 C 
HETATM    8  C8  UNL     1     -34.675  14.843  -5.028  1.00 20.00     0.082 A 
HETATM    9  O12 UNL     1     -35.064  13.674  -5.776  1.00 20.00    -0.375 OA
ENDROOT
BRANCH   7  10
HETATM   10  C10 UNL     1     -34.091  17.674  -1.485  1.00 20.00     0.004 C 
BRANCH  10  11
HETATM   11  C11 UNL     1     -34.742  16.798  -0.422  1.00 20.00    -0.004 C 
HETATM   12  C9  UNL     1     -35.088  17.607   0.817  1.00 20.00     0.005 C 
ENDBRANCH  10  11
ENDBRANCH   7  10
TORSDOF 2
ENDMDL
MODEL 5
REMARK VINA RESULT:      -4.7     11.967     13.331
REMARK  2 active torsions:
REMARK  status: ('A' for Active; 'I' for Inactive)
REMARK    1  A    between atoms: C7_7  and  C10_10 
REMARK    2  A    between atoms: C10_10  and  C11_11 
ROOT
HETATM    1  C1  UNL     1     -33.730   7.195   5.939  1.00 20.00     0.004 C 
HETATM    2  C2  UNL     1     -32.698   7.038   4.822  1.00 20.00     0.005 C 
HETATM    3  C3  UNL     1     -34.096   5.596   3.201  1.00 20.00     0.007 C 
HETATM    4  C4  UNL     1     -34.227   5.876   6.521  1.00 20.00     0.040 C 
HETATM    5  C5  UNL     1     -35.237   5.349   4.187  1.00 20.00     0.040 C 
HETATM    6  C6  UNL     1     -34.311   3.421   5.664  1.00 20.00     0.207 A 
HETATM    7  C7  UNL     1     -33.325   6.907   3.423  1.00 20.00    -0.014 C 
HETATM    8  C8  UNL     1     -34.727   4.873   5.519  1.00 20.00     0.082 A 
HETATM    9  O12 UNL     1     -35.582   3.882   6.123  1.00 20.00    -0.375 OA
ENDROOT
BRANCH   7  10
HETATM   10  C10 UNL     1     -32.232   7.036   2.357  1.00 20.00     0.004 C 
BRANCH  10  11
HETATM   11  C11 UNL     1     -31.831   8.492   2.158  1.00 20.00    -0.004 C 
HETATM   12  C9  UNL     1     -32.191   8.973   0.762  1.00 20.00     0.005 C 
ENDBRANCH  10  11
ENDBRANCH   7  10
TORSDOF 2
ENDMDL
MODEL 6
REMARK VINA RESULT:      -4.6      1.324      1.984
REMARK  2 active torsions:
REMARK  status: ('A' for Active; 'I' for Inactive)
REMARK    1  A    between atoms: C7_7  and  C10_10 
REMARK    2  A    between atoms: C10_10  and  C11_11 
ROOT
HETATM    1  C1  UNL     1     -36.132  16.965  -4.221  1.00 20.00     0.004 C 
HETATM    2  C2  UNL     1     -35.626  16.967  -2.779  1.00 20.00     0.005 C 
HETATM    3  C3  UNL     1     -33.362  15.784  -3.160  1.00 20.00     0.007 C 
HETATM    4  C4  UNL     1     -36.232  15.579  -4.847  1.00 20.00     0.040 C 
HETATM    5  C5  UNL     1     -33.652  15.403  -4.611  1.00 20.00     0.040 C 
HETATM    6  C6  UNL     1     -35.123  13.275  -4.363  1.00 20.00     0.207 A 
HETATM    7  C7  UNL     1     -34.093  17.045  -2.669  1.00 20.00    -0.014 C 
HETATM    8  C8  UNL     1     -34.990  14.735  -4.755  1.00 20.00     0.082 A 
HETATM    9  O12 UNL     1     -34.983  13.671  -5.728  1.00 20.00    -0.375 OA
ENDROOT
BRANCH   7  10
HETATM   10  C10 UNL     1     -33.696  17.322  -1.214  1.00 20.00     0.004 C 
BRANCH  10  11
HETATM   11  C11 UNL     1     -34.825  16.954  -0.260  1.00 20.00    -0.004 C 
HETATM   12  C9  UNL     1     -34.808  17.841   0.974  1.00 20.00     0.005 C 
ENDBRANCH  10  11
ENDBRANCH   7  10
TORSDOF 2
ENDMDL
MODEL 7
REMARK VINA RESULT:      -4.5      1.507      2.065
REMARK  2 active torsions:
REMARK  status: ('A' for Active; 'I' for Inactive)
REMARK    1  A    between atoms: C7_7  and  C10_10 
REMARK    2  A    between atoms: C10_10  and  C11_11 
ROOT
HETATM    1  C1  UNL     1     -33.880  16.265  -6.166  1.00 20.00     0.004 C 
HETATM    2  C2  UNL     1     -34.434  17.201  -5.093  1.00 20.00     0.005 C 
HETATM    3  C3  UNL     1     -33.688  15.880  -3.003  1.00 20.00     0.007 C 
HETATM    4  C4  UNL     1     -34.411  14.838  -6.088  1.00 20.00     0.040 C 
HETATM    5  C5  UNL     1     -33.238  14.643  -3.779  1.00 20.00     0.040 C 
HETATM    6  C6  UNL     1     -35.475  13.389  -4.206  1.00 20.00     0.207 A 
HETATM    7  C7  UNL     1     -33.610  17.197  -3.793  1.00 20.00    -0.014 C 
HETATM    8  C8  UNL     1     -34.293  14.176  -4.743  1.00 20.00     0.082 A 
HETATM    9  O12 UNL     1     -34.371  12.739  -4.835  1.00 20.00    -0.375 OA
ENDROOT
BRANCH   7  10
HETATM   10  C10 UNL     1     -34.065  18.351  -2.894  1.00 20.00     0.004 C 
BRANCH  10  11
HETATM   11  C11 UNL     1     -34.875  17.837  -1.711  1.00 20.00    -0.004 C 
HETATM   12  C9  UNL     1     -36.327  18.273  -1.812  1.00 20.00     0.005 C 
ENDBRANCH  10  11
ENDBRANCH   7  10
TORSDOF 2
ENDMDL
MODEL 8
REMARK VINA RESULT:      -4.5      2.264      5.010
REMARK  2 active torsions:
REMARK  status: ('A' for Active; 'I' for Inactive)
REMARK    1  A    between atoms: C7_7  and  C10_10 
REMARK    2  A    between atoms: C10_10  and  C11_11 
ROOT
HETATM    1  C1  UNL     1     -34.166  13.859  -4.060  1.00 20.00     0.004 C 
HETATM    2  C2  UNL     1     -35.104  13.980  -5.260  1.00 20.00     0.005 C 
HETATM    3  C3  UNL     1     -34.182  16.178  -6.254  1.00 20.00     0.007 C 
HETATM    4  C4  UNL     1     -34.202  15.054  -3.114  1.00 20.00     0.040 C 
HETATM    5  C5  UNL     1     -33.273  16.492  -5.066  1.00 20.00     0.040 C 
HETATM    6  C6  UNL     1     -34.916  17.545  -3.349  1.00 20.00     0.207 A 
HETATM    7  C7  UNL     1     -34.462  14.682  -6.470  1.00 20.00    -0.014 C 
HETATM    8  C8  UNL     1     -34.011  16.398  -3.760  1.00 20.00     0.082 A 
HETATM    9  O12 UNL     1     -33.600  17.403  -2.812  1.00 20.00    -0.375 OA
ENDROOT
BRANCH   7  10
HETATM   10  C10 UNL     1     -35.362  14.510  -7.699  1.00 20.00     0.004 C 
BRANCH  10  11
HETATM   11  C11 UNL     1     -36.378  15.641  -7.796  1.00 20.00    -0.004 C 
HETATM   12  C9  UNL     1     -37.795  15.119  -7.625  1.00 20.00     0.005 C 
ENDBRANCH  10  11
ENDBRANCH   7  10
TORSDOF 2
ENDMDL
MODEL 9
REMARK VINA RESULT:      -4.5      2.116      2.963
REMARK  2 active torsions:
REMARK  status: ('A' for Active; 'I' for Inactive)
REMARK    1  A    between atoms: C7_7  and  C10_10 
REMARK    2  A    between atoms: C10_10  and  C11_11 
ROOT
HETATM    1  C1  UNL     1     -34.160  15.424  -6.980  1.00 20.00     0.004 C 
HETATM    2  C2  UNL     1     -34.381  16.772  -6.296  1.00 20.00     0.005 C 
HETATM    3  C3  UNL     1     -33.575  16.141  -3.925  1.00 20.00     0.007 C 
HETATM    4  C4  UNL     1     -34.911  14.264  -6.336  1.00 20.00     0.040 C 
HETATM    5  C5  UNL     1     -33.464  14.645  -4.214  1.00 20.00     0.040 C 
HETATM    6  C6  UNL     1     -35.921  13.831  -3.977  1.00 20.00     0.207 A 
HETATM    7  C7  UNL     1     -33.388  17.048  -5.152  1.00 20.00    -0.014 C 
HETATM    8  C8  UNL     1     -34.713  14.107  -4.854  1.00 20.00     0.082 A 
HETATM    9  O12 UNL     1     -35.049  12.781  -4.398  1.00 20.00    -0.375 OA
ENDROOT
BRANCH   7  10
HETATM   10  C10 UNL     1     -33.501  18.513  -4.718  1.00 20.00     0.004 C 
BRANCH  10  11
HETATM   11  C11 UNL     1     -34.893  19.063  -5.001  1.00 20.00    -0.004 C 
HETATM   12  C9  UNL     1     -35.678  19.254  -3.714  1.00 20.00     0.005 C 
ENDBRANCH  10  11
ENDBRANCH   7  10
TORSDOF 2
ENDMDL
