MODEL 1
REMARK VINA RESULT:      -5.0      0.000      0.000
REMARK  0 active torsions:
REMARK  status: ('A' for Active; 'I' for Inactive)
ROOT
HETATM    1  C1  UNL     1     -34.156  16.258  -2.017  1.00 20.00     0.064 C 
HETATM    2  C2  UNL     1     -34.802  13.714  -4.019  1.00 20.00     0.002 C 
HETATM    3  C3  UNL     1     -33.531  14.403  -3.523  1.00 20.00     0.019 C 
HETATM    4  C4  UNL     1     -34.456  16.664  -4.420  1.00 20.00     0.020 C 
HETATM    5  C5  UNL     1     -34.882  13.659  -5.546  1.00 20.00     0.008 C 
HETATM    6  C6  UNL     1     -34.291  16.157  -5.854  1.00 20.00     0.010 C 
HETATM    7  C7  UNL     1     -33.632  15.925  -3.359  1.00 20.00     0.093 C 
HETATM    8  C8  UNL     1     -35.206  14.981  -6.280  1.00 20.00    -0.048 C 
HETATM    9  C9  UNL     1     -36.697  15.332  -6.097  1.00 20.00     0.015 C 
HETATM   10  C10 UNL     1     -34.978  14.740  -7.791  1.00 20.00     0.015 C 
HETATM   11  N11 UNL     1     -34.566  16.519  -0.964  1.00 20.00    -0.197 NA
ENDROOT
TORSDOF 0
ENDMDL
MODEL 2
REMARK VINA RESULT:      -4.7      1.828      3.119
REMARK  0 active torsions:
REMARK  status: ('A' for Active; 'I' for Inactive)
ROOT
HETATM    1  C1  UNL     1     -33.589  18.553  -2.056  1.00 20.00     0.064 C 
HETATM    2  C2  UNL     1     -33.405  16.850  -4.878  1.00 20.00     0.002 C 
HETATM    3  C3  UNL     1     -34.448  17.761  -4.233  1.00 20.00     0.019 C 
HETATM    4  C4  UNL     1     -34.410  16.239  -2.121  1.00 20.00     0.020 C 
HETATM    5  C5  UNL     1     -33.969  15.473  -5.236  1.00 20.00     0.008 C 
HETATM    6  C6  UNL     1     -35.072  15.118  -2.925  1.00 20.00     0.010 C 
HETATM    7  C7  UNL     1     -34.562  17.648  -2.707  1.00 20.00     0.093 C 
HETATM    8  C8  UNL     1     -34.228  14.496  -4.066  1.00 20.00    -0.048 C 
HETATM    9  C9  UNL     1     -32.888  13.941  -3.539  1.00 20.00     0.015 C 
HETATM   10  C10 UNL     1     -35.026  13.297  -4.632  1.00 20.00     0.015 C 
HETATM   11  N11 UNL     1     -32.827  19.263  -1.547  1.00 20.00    -0.197 NA
ENDROOT
TORSDOF 0
ENDMDL
MODEL 3
REMARK VINA RESULT:      -4.6      2.466      4.243
REMARK  0 active torsions:
REMARK  status: ('A' for Active; 'I' for Inactive)
ROOT
HETATM    1  C1  UNL     1     -34.240  13.724  -4.251  1.00 20.00     0.064 C 
HETATM    2  C2  UNL     1     -33.843  16.913  -5.004  1.00 20.00     0.002 C 
HETATM    3  C3  UNL     1     -32.918  15.790  -4.537  1.00 20.00     0.019 C 
HETATM    4  C4  UNL     1     -34.477  15.415  -2.486  1.00 20.00     0.020 C 
HETATM    5  C5  UNL     1     -33.784  18.140  -4.091  1.00 20.00     0.008 C 
HETATM    6  C6  UNL     1     -34.042  16.766  -1.916  1.00 20.00     0.010 C 
HETATM    7  C7  UNL     1     -33.535  14.808  -3.533  1.00 20.00     0.093 C 
HETATM    8  C8  UNL     1     -34.475  18.023  -2.713  1.00 20.00    -0.048 C 
HETATM    9  C9  UNL     1     -36.007  18.080  -2.888  1.00 20.00     0.015 C 
HETATM   10  C10 UNL     1     -34.066  19.263  -1.883  1.00 20.00     0.015 C 
HETATM   11  N11 UNL     1     -34.793  12.873  -4.814  1.00 20.00    -0.197 NA
ENDROOT
TORSDOF 0
ENDMDL
MODEL 4
REMARK VINA RESULT:      -4.6      2.824      5.144
REMARK  0 active torsions:
REMARK  status: ('A' for Active; 'I' for Inactive)
ROOT
HETATM    1  C1  UNL     1     -36.874  15.016  -3.689  1.00 20.00     0.064 C 
HETATM    2  C2  UNL     1     -36.524  18.058  -2.456  1.00 20.00     0.002 C 
HETATM    3  C3  UNL     1     -36.143  17.374  -3.769  1.00 20.00     0.019 C 
HETATM    4  C4  UNL     1     -34.856  15.568  -2.405  1.00 20.00     0.020 C 
HETATM    5  C5  UNL     1     -35.325  18.707  -1.762  1.00 20.00     0.008 C 
HETATM    6  C6  UNL     1     -33.819  16.619  -2.004  1.00 20.00     0.010 C 
HETATM    7  C7  UNL     1     -35.698  15.912  -3.640  1.00 20.00     0.093 C 
HETATM    8  C8  UNL     1     -34.314  17.759  -1.077  1.00 20.00    -0.048 C 
HETATM    9  C9  UNL     1     -34.918  17.202   0.229  1.00 20.00     0.015 C 
HETATM   10  C10 UNL     1     -33.079  18.605  -0.683  1.00 20.00     0.015 C 
HETATM   11  N11 UNL     1     -37.798  14.314  -3.729  1.00 20.00    -0.197 NA
ENDROOT
TORSDOF 0
ENDMDL
MODEL 5
REMARK VINA RESULT:      -4.5      2.474      4.329
REMARK  0 active torsions:
REMARK  status: ('A' for Active; 'I' for Inactive)
ROOT
HETATM    1  C1  UNL     1     -35.399  14.295  -6.492  1.00 20.00     0.064 C 
HETATM    2  C2  UNL     1     -33.193  15.224  -4.219  1.00 20.00     0.002 C 
HETATM    3  C3  UNL     1     -34.001  13.955  -4.484  1.00 20.00     0.019 C 
HETATM    4  C4  UNL     1     -36.178  15.380  -4.432  1.00 20.00     0.020 C 
HETATM    5  C5  UNL     1     -33.406  15.772  -2.806  1.00 20.00     0.008 C 
HETATM    6  C6  UNL     1     -35.983  15.612  -2.933  1.00 20.00     0.010 C 
HETATM    7  C7  UNL     1     -35.421  14.182  -5.018  1.00 20.00     0.093 C 
HETATM    8  C8  UNL     1     -34.757  16.466  -2.520  1.00 20.00    -0.048 C 
HETATM    9  C9  UNL     1     -34.786  17.856  -3.190  1.00 20.00     0.015 C 
HETATM   10  C10 UNL     1     -34.845  16.696  -0.992  1.00 20.00     0.015 C 
HETATM   11  N11 UNL     1     -35.381  14.382  -7.649  1.00 20.00    -0.197 NA
ENDROOT
TORSDOF 0
ENDMDL
MODEL 6
REMARK VINA RESULT:      -4.5      2.326      4.443
REMARK  0 active torsions:
REMARK  status: ('A' for Active; 'I' for Inactive)
ROOT
HETATM    1  C1  UNL     1     -34.638  13.801  -4.682  1.00 20.00     0.064 C 
HETATM    2  C2  UNL     1     -36.563  16.077  -3.262  1.00 20.00     0.002 C 
HETATM    3  C3  UNL     1     -35.897  15.926  -4.629  1.00 20.00     0.019 C 
HETATM    4  C4  UNL     1     -33.602  15.644  -3.434  1.00 20.00     0.020 C 
HETATM    5  C5  UNL     1     -36.190  17.389  -2.568  1.00 20.00     0.008 C 
HETATM    6  C6  UNL     1     -33.655  17.111  -3.000  1.00 20.00     0.010 C 
HETATM    7  C7  UNL     1     -34.509  15.273  -4.613  1.00 20.00     0.093 C 
HETATM    8  C8  UNL     1     -34.762  17.490  -1.983  1.00 20.00    -0.048 C 
HETATM    9  C9  UNL     1     -34.660  16.644  -0.697  1.00 20.00     0.015 C 
HETATM   10  C10 UNL     1     -34.532  18.965  -1.576  1.00 20.00     0.015 C 
HETATM   11  N11 UNL     1     -34.741  12.647  -4.737  1.00 20.00    -0.197 NA
ENDROOT
TORSDOF 0
ENDMDL
MODEL 7
REMARK VINA RESULT:      -4.5      1.217      2.187
REMARK  0 active torsions:
REMARK  status: ('A' for Active; 'I' for Inactive)
ROOT
HETATM    1  C1  UNL     1     -34.981  16.771  -1.479  1.00 20.00     0.064 C 
HETATM    2  C2  UNL     1     -33.346  16.308  -4.310  1.00 20.00     0.002 C 
HETATM    3  C3  UNL     1     -34.332  17.354  -3.790  1.00 20.00     0.019 C 
HETATM    4  C4  UNL     1     -36.018  15.441  -3.264  1.00 20.00     0.020 C 
HETATM    5  C5  UNL     1     -33.807  15.665  -5.619  1.00 20.00     0.008 C 
HETATM    6  C6  UNL     1     -36.202  15.199  -4.763  1.00 20.00     0.010 C 
HETATM    7  C7  UNL     1     -35.444  16.812  -2.883  1.00 20.00     0.093 C 
HETATM    8  C8  UNL     1     -34.971  14.652  -5.531  1.00 20.00    -0.048 C 
HETATM    9  C9  UNL     1     -34.470  13.327  -4.920  1.00 20.00     0.015 C 
HETATM   10  C10 UNL     1     -35.427  14.342  -6.977  1.00 20.00     0.015 C 
HETATM   11  N11 UNL     1     -34.617  16.740  -0.378  1.00 20.00    -0.197 NA
ENDROOT
TORSDOF 0
ENDMDL
MODEL 8
REMARK VINA RESULT:      -4.5      1.400      2.332
REMARK  0 active torsions:
REMARK  status: ('A' for Active; 'I' for Inactive)
ROOT
HETATM    1  C1  UNL     1     -34.608  16.541  -1.059  1.00 20.00     0.064 C 
HETATM    2  C2  UNL     1     -36.232  16.897  -3.911  1.00 20.00     0.002 C 
HETATM    3  C3  UNL     1     -36.089  15.777  -2.881  1.00 20.00     0.019 C 
HETATM    4  C4  UNL     1     -33.504  15.906  -3.158  1.00 20.00     0.020 C 
HETATM    5  C5  UNL     1     -35.851  16.447  -5.323  1.00 20.00     0.008 C 
HETATM    6  C6  UNL     1     -33.635  15.345  -4.576  1.00 20.00     0.010 C 
HETATM    7  C7  UNL     1     -34.703  15.652  -2.236  1.00 20.00     0.093 C 
HETATM    8  C8  UNL     1     -34.345  16.250  -5.614  1.00 20.00    -0.048 C 
HETATM    9  C9  UNL     1     -33.649  17.622  -5.736  1.00 20.00     0.015 C 
HETATM   10  C10 UNL     1     -34.226  15.557  -6.992  1.00 20.00     0.015 C 
HETATM   11  N11 UNL     1     -34.534  17.239  -0.135  1.00 20.00    -0.197 NA
ENDROOT
TORSDOF 0
ENDMDL
MODEL 9
REMARK VINA RESULT:      -4.4      2.435      4.457
REMARK  0 active torsions:
REMARK  status: ('A' for Active; 'I' for Inactive)
ROOT
HETATM    1  C1  UNL     1     -34.935  14.599  -6.425  1.00 20.00     0.064 C 
HETATM    2  C2  UNL     1     -33.919  17.245  -4.733  1.00 20.00     0.002 C 
HETATM    3  C3  UNL     1     -33.293  15.906  -5.123  1.00 20.00     0.019 C 
HETATM    4  C4  UNL     1     -35.301  14.689  -3.999  1.00 20.00     0.020 C 
HETATM    5  C5  UNL     1     -33.881  17.494  -3.224  1.00 20.00     0.008 C 
HETATM    6  C6  UNL     1     -34.808  15.155  -2.628  1.00 20.00     0.010 C 
HETATM    7  C7  UNL     1     -34.253  14.709  -5.118  1.00 20.00     0.093 C 
HETATM    8  C8  UNL     1     -34.867  16.679  -2.354  1.00 20.00    -0.048 C 
HETATM    9  C9  UNL     1     -36.299  17.229  -2.528  1.00 20.00     0.015 C 
HETATM   10  C10 UNL     1     -34.472  16.901  -0.875  1.00 20.00     0.015 C 
HETATM   11  N11 UNL     1     -35.470  14.513  -7.451  1.00 20.00    -0.197 NA
ENDROOT
TORSDOF 0
ENDMDL
