MODEL 1
REMARK VINA RESULT:      -4.8      0.000      0.000
REMARK  0 active torsions:
REMARK  status: ('A' for Active; 'I' for Inactive)
ROOT
HETATM    1  C1  UNL     1     -34.421  16.227  -1.943  1.00 20.00     0.085 C 
HETATM    2  C2  UNL     1     -33.718  17.185  -5.623  1.00 20.00     0.004 C 
HETATM    3  C3  UNL     1     -34.173  17.211  -4.164  1.00 20.00     0.041 C 
HETATM    4  C4  UNL     1     -35.507  15.059  -3.792  1.00 20.00     0.042 C 
HETATM    5  C5  UNL     1     -34.008  15.970  -6.500  1.00 20.00     0.009 C 
HETATM    6  C6  UNL     1     -35.505  14.396  -5.169  1.00 20.00     0.011 C 
HETATM    7  C7  UNL     1     -34.282  15.897  -3.381  1.00 20.00     0.125 C 
HETATM    8  C8  UNL     1     -35.395  15.301  -6.417  1.00 20.00    -0.048 C 
HETATM    9  C9  UNL     1     -35.527  14.372  -7.653  1.00 20.00     0.015 C 
HETATM   10  C10 UNL     1     -36.543  16.321  -6.494  1.00 20.00     0.015 C 
HETATM   11  N11 UNL     1     -34.530  16.486  -0.817  1.00 20.00    -0.195 NA
HETATM   12 CL12 UNL     1     -32.765  14.947  -3.482  1.00 20.00    -0.103 Cl
ENDROOT
TORSDOF 0
ENDMDL
MODEL 2
REMARK VINA RESULT:      -4.6      1.700      2.608
REMARK  0 active torsions:
REMARK  status: ('A' for Active; 'I' for Inactive)
ROOT
HETATM    1  C1  UNL     1     -33.824  17.320  -1.880  1.00 20.00     0.085 C 
HETATM    2  C2  UNL     1     -36.539  15.153  -3.581  1.00 20.00     0.004 C 
HETATM    3  C3  UNL     1     -35.483  15.684  -2.611  1.00 20.00     0.041 C 
HETATM    4  C4  UNL     1     -33.419  16.222  -4.024  1.00 20.00     0.042 C 
HETATM    5  C5  UNL     1     -36.263  15.129  -5.083  1.00 20.00     0.009 C 
HETATM    6  C6  UNL     1     -33.831  15.799  -5.433  1.00 20.00     0.011 C 
HETATM    7  C7  UNL     1     -34.503  16.768  -3.077  1.00 20.00     0.125 C 
HETATM    8  C8  UNL     1     -34.878  14.671  -5.582  1.00 20.00    -0.048 C 
HETATM    9  C9  UNL     1     -35.013  14.389  -7.101  1.00 20.00     0.015 C 
HETATM   10  C10 UNL     1     -34.418  13.365  -4.918  1.00 20.00     0.015 C 
HETATM   11  N11 UNL     1     -33.293  17.751  -0.944  1.00 20.00    -0.195 NA
HETATM   12 CL12 UNL     1     -35.366  18.167  -3.792  1.00 20.00    -0.103 Cl
ENDROOT
TORSDOF 0
ENDMDL
MODEL 3
REMARK VINA RESULT:      -4.5      2.989      4.475
REMARK  0 active torsions:
REMARK  status: ('A' for Active; 'I' for Inactive)
ROOT
HETATM    1  C1  UNL     1     -37.691  14.895  -3.884  1.00 20.00     0.085 C 
HETATM    2  C2  UNL     1     -33.881  15.221  -3.310  1.00 20.00     0.004 C 
HETATM    3  C3  UNL     1     -35.339  14.769  -3.239  1.00 20.00     0.041 C 
HETATM    4  C4  UNL     1     -36.726  16.883  -2.845  1.00 20.00     0.042 C 
HETATM    5  C5  UNL     1     -33.530  16.706  -3.245  1.00 20.00     0.009 C 
HETATM    6  C6  UNL     1     -35.673  17.986  -2.738  1.00 20.00     0.011 C 
HETATM    7  C7  UNL     1     -36.444  15.688  -3.774  1.00 20.00     0.125 C 
HETATM    8  C8  UNL     1     -34.264  17.605  -2.230  1.00 20.00    -0.048 C 
HETATM    9  C9  UNL     1     -33.457  18.926  -2.127  1.00 20.00     0.015 C 
HETATM   10  C10 UNL     1     -34.304  16.989  -0.823  1.00 20.00     0.015 C 
HETATM   11  N11 UNL     1     -38.667  14.273  -3.968  1.00 20.00    -0.195 NA
HETATM   12 CL12 UNL     1     -36.099  16.220  -5.451  1.00 20.00    -0.103 Cl
ENDROOT
TORSDOF 0
ENDMDL
MODEL 4
REMARK VINA RESULT:      -4.4      2.480      4.456
REMARK  0 active torsions:
REMARK  status: ('A' for Active; 'I' for Inactive)
ROOT
HETATM    1  C1  UNL     1     -34.761  14.893  -6.761  1.00 20.00     0.085 C 
HETATM    2  C2  UNL     1     -36.462  15.329  -3.316  1.00 20.00     0.004 C 
HETATM    3  C3  UNL     1     -36.146  15.382  -4.810  1.00 20.00     0.041 C 
HETATM    4  C4  UNL     1     -33.746  16.252  -5.003  1.00 20.00     0.042 C 
HETATM    5  C5  UNL     1     -35.385  15.666  -2.287  1.00 20.00     0.009 C 
HETATM    6  C6  UNL     1     -33.346  16.520  -3.553  1.00 20.00     0.011 C 
HETATM    7  C7  UNL     1     -34.719  15.094  -5.293  1.00 20.00     0.125 C 
HETATM    8  C8  UNL     1     -34.460  16.873  -2.540  1.00 20.00    -0.048 C 
HETATM    9  C9  UNL     1     -33.752  17.193  -1.197  1.00 20.00     0.015 C 
HETATM   10  C10 UNL     1     -35.238  18.132  -2.953  1.00 20.00     0.015 C 
HETATM   11  N11 UNL     1     -34.794  14.736  -7.910  1.00 20.00    -0.195 NA
HETATM   12 CL12 UNL     1     -34.110  13.538  -4.642  1.00 20.00    -0.103 Cl
ENDROOT
TORSDOF 0
ENDMDL
MODEL 5
REMARK VINA RESULT:      -4.4      2.608      4.077
REMARK  0 active torsions:
REMARK  status: ('A' for Active; 'I' for Inactive)
ROOT
HETATM    1  C1  UNL     1     -34.844  13.730  -4.672  1.00 20.00     0.085 C 
HETATM    2  C2  UNL     1     -33.427  17.328  -4.768  1.00 20.00     0.004 C 
HETATM    3  C3  UNL     1     -33.568  15.813  -4.629  1.00 20.00     0.041 C 
HETATM    4  C4  UNL     1     -35.545  15.419  -3.052  1.00 20.00     0.042 C 
HETATM    5  C5  UNL     1     -34.438  18.260  -4.105  1.00 20.00     0.009 C 
HETATM    6  C6  UNL     1     -35.978  16.831  -2.663  1.00 20.00     0.011 C 
HETATM    7  C7  UNL     1     -34.960  15.193  -4.459  1.00 20.00     0.125 C 
HETATM    8  C8  UNL     1     -34.912  17.951  -2.670  1.00 20.00    -0.048 C 
HETATM    9  C9  UNL     1     -35.609  19.230  -2.136  1.00 20.00     0.015 C 
HETATM   10  C10 UNL     1     -33.744  17.643  -1.721  1.00 20.00     0.015 C 
HETATM   11  N11 UNL     1     -34.751  12.586  -4.838  1.00 20.00    -0.195 NA
HETATM   12 CL12 UNL     1     -36.084  15.747  -5.741  1.00 20.00    -0.103 Cl
ENDROOT
TORSDOF 0
ENDMDL
MODEL 6
REMARK VINA RESULT:      -4.4      1.917      2.354
REMARK  0 active torsions:
REMARK  status: ('A' for Active; 'I' for Inactive)
ROOT
HETATM    1  C1  UNL     1     -36.235  18.284  -2.241  1.00 20.00     0.085 C 
HETATM    2  C2  UNL     1     -33.331  16.636  -4.192  1.00 20.00     0.004 C 
HETATM    3  C3  UNL     1     -34.454  17.576  -3.754  1.00 20.00     0.041 C 
HETATM    4  C4  UNL     1     -36.489  16.095  -3.294  1.00 20.00     0.042 C 
HETATM    5  C5  UNL     1     -33.545  15.125  -4.186  1.00 20.00     0.009 C 
HETATM    6  C6  UNL     1     -35.997  14.692  -3.649  1.00 20.00     0.011 C 
HETATM    7  C7  UNL     1     -35.478  17.101  -2.716  1.00 20.00     0.125 C 
HETATM    8  C8  UNL     1     -34.879  14.555  -4.708  1.00 20.00    -0.048 C 
HETATM    9  C9  UNL     1     -34.667  13.036  -4.936  1.00 20.00     0.015 C 
HETATM   10  C10 UNL     1     -35.287  15.162  -6.060  1.00 20.00     0.015 C 
HETATM   11  N11 UNL     1     -36.828  19.210  -1.871  1.00 20.00    -0.195 NA
HETATM   12 CL12 UNL     1     -34.673  16.463  -1.247  1.00 20.00    -0.103 Cl
ENDROOT
TORSDOF 0
ENDMDL
MODEL 7
REMARK VINA RESULT:      -4.4      2.373      3.315
REMARK  0 active torsions:
REMARK  status: ('A' for Active; 'I' for Inactive)
ROOT
HETATM    1  C1  UNL     1     -35.079  17.552   0.550  1.00 20.00     0.085 C 
HETATM    2  C2  UNL     1     -34.757  19.263  -2.903  1.00 20.00     0.004 C 
HETATM    3  C3  UNL     1     -35.306  18.708  -1.589  1.00 20.00     0.041 C 
HETATM    4  C4  UNL     1     -34.522  16.275  -1.456  1.00 20.00     0.042 C 
HETATM    5  C5  UNL     1     -33.845  18.408  -3.780  1.00 20.00     0.009 C 
HETATM    6  C6  UNL     1     -33.773  16.070  -2.771  1.00 20.00     0.011 C 
HETATM    7  C7  UNL     1     -34.492  17.671  -0.806  1.00 20.00     0.125 C 
HETATM    8  C8  UNL     1     -34.190  16.920  -3.993  1.00 20.00    -0.048 C 
HETATM    9  C9  UNL     1     -33.340  16.423  -5.192  1.00 20.00     0.015 C 
HETATM   10  C10 UNL     1     -35.666  16.709  -4.366  1.00 20.00     0.015 C 
HETATM   11  N11 UNL     1     -35.540  17.460   1.611  1.00 20.00    -0.195 NA
HETATM   12 CL12 UNL     1     -32.814  18.234  -0.523  1.00 20.00    -0.103 Cl
ENDROOT
TORSDOF 0
ENDMDL
MODEL 8
REMARK VINA RESULT:      -4.3      2.794      4.358
REMARK  0 active torsions:
REMARK  status: ('A' for Active; 'I' for Inactive)
ROOT
HETATM    1  C1  UNL     1     -36.961  16.571  -6.800  1.00 20.00     0.085 C 
HETATM    2  C2  UNL     1     -36.046  13.931  -4.127  1.00 20.00     0.004 C 
HETATM    3  C3  UNL     1     -36.703  15.090  -4.876  1.00 20.00     0.041 C 
HETATM    4  C4  UNL     1     -34.797  16.603  -5.669  1.00 20.00     0.042 C 
HETATM    5  C5  UNL     1     -34.524  13.816  -4.066  1.00 20.00     0.009 C 
HETATM    6  C6  UNL     1     -33.547  15.926  -5.108  1.00 20.00     0.011 C 
HETATM    7  C7  UNL     1     -35.988  15.717  -6.079  1.00 20.00     0.125 C 
HETATM    8  C8  UNL     1     -33.687  15.087  -3.817  1.00 20.00    -0.048 C 
HETATM    9  C9  UNL     1     -32.258  14.621  -3.433  1.00 20.00     0.015 C 
HETATM   10  C10 UNL     1     -34.222  15.920  -2.641  1.00 20.00     0.015 C 
HETATM   11  N11 UNL     1     -37.724  17.240  -7.363  1.00 20.00    -0.195 NA
HETATM   12 CL12 UNL     1     -35.507  14.472  -7.276  1.00 20.00    -0.103 Cl
ENDROOT
TORSDOF 0
ENDMDL
MODEL 9
REMARK VINA RESULT:      -4.3      3.094      4.487
REMARK  0 active torsions:
REMARK  status: ('A' for Active; 'I' for Inactive)
ROOT
HETATM    1  C1  UNL     1     -37.801  15.114  -7.214  1.00 20.00     0.085 C 
HETATM    2  C2  UNL     1     -34.074  15.542  -6.275  1.00 20.00     0.004 C 
HETATM    3  C3  UNL     1     -35.395  14.993  -6.813  1.00 20.00     0.041 C 
HETATM    4  C4  UNL     1     -37.070  15.142  -4.884  1.00 20.00     0.042 C 
HETATM    5  C5  UNL     1     -33.997  16.123  -4.865  1.00 20.00     0.009 C 
HETATM    6  C6  UNL     1     -36.235  15.692  -3.728  1.00 20.00     0.011 C 
HETATM    7  C7  UNL     1     -36.720  15.585  -6.316  1.00 20.00     0.125 C 
HETATM    8  C8  UNL     1     -34.719  15.394  -3.714  1.00 20.00    -0.048 C 
HETATM    9  C9  UNL     1     -34.163  15.976  -2.388  1.00 20.00     0.015 C 
HETATM   10  C10 UNL     1     -34.427  13.885  -3.703  1.00 20.00     0.015 C 
HETATM   11  N11 UNL     1     -38.646  14.743  -7.917  1.00 20.00    -0.195 NA
HETATM   12 CL12 UNL     1     -36.742  17.370  -6.482  1.00 20.00    -0.103 Cl
ENDROOT
TORSDOF 0
ENDMDL
