MODEL 1
REMARK VINA RESULT:      -5.1      0.000      0.000
REMARK  1 active torsions:
REMARK  status: ('A' for Active; 'I' for Inactive)
REMARK    1  A    between atoms: C3_3  and  C8_8 
ROOT
HETATM    1  C1  UNL     1     -34.463  16.194  -1.491  1.00 20.00     0.022 A 
HETATM    2  C2  UNL     1     -33.788  17.774  -3.057  1.00 20.00     0.057 A 
HETATM    3  C3  UNL     1     -33.949  16.430  -2.799  1.00 20.00    -0.046 A 
HETATM    4  C4  UNL     1     -34.676  17.367  -0.800  1.00 20.00    -0.021 A 
HETATM    5  C10 UNL     1     -35.197  17.544   0.573  1.00 20.00     0.056 C 
HETATM    6  S11 UNL     1     -34.257  18.744  -1.726  1.00 20.00    -0.106 SA
ENDROOT
BRANCH   3   7
HETATM    7  C8  UNL     1     -33.619  15.333  -3.786  1.00 20.00     0.020 C 
HETATM    8  C5  UNL     1     -34.295  13.978  -3.484  1.00 20.00     0.010 C 
HETATM    9  C6  UNL     1     -35.199  13.691  -4.679  1.00 20.00     0.016 C 
HETATM   10  C9  UNL     1     -34.480  14.372  -5.827  1.00 20.00     0.058 C 
HETATM   11  C7  UNL     1     -34.030  15.694  -5.227  1.00 20.00     0.025 C 
HETATM   12 BR12 UNL     1     -35.651  14.635  -7.341  1.00 20.00    -0.091 Br
ENDBRANCH   3   7
TORSDOF 1
ENDMDL
MODEL 2
REMARK VINA RESULT:      -4.9      1.156      1.179
REMARK  1 active torsions:
REMARK  status: ('A' for Active; 'I' for Inactive)
REMARK    1  A    between atoms: C3_3  and  C8_8 
ROOT
HETATM    1  C1  UNL     1     -34.583  16.566  -0.798  1.00 20.00     0.022 A 
HETATM    2  C2  UNL     1     -33.786  17.613  -2.715  1.00 20.00     0.057 A 
HETATM    3  C3  UNL     1     -34.344  16.463  -2.199  1.00 20.00    -0.046 A 
HETATM    4  C4  UNL     1     -34.199  17.791  -0.297  1.00 20.00    -0.021 A 
HETATM    5  C10 UNL     1     -34.283  18.282   1.096  1.00 20.00     0.056 C 
HETATM    6  S11 UNL     1     -33.553  18.809  -1.512  1.00 20.00    -0.106 SA
ENDROOT
BRANCH   3   7
HETATM    7  C8  UNL     1     -34.666  15.236  -3.022  1.00 20.00     0.020 C 
HETATM    8  C5  UNL     1     -36.162  15.071  -3.365  1.00 20.00     0.010 C 
HETATM    9  C6  UNL     1     -36.249  15.140  -4.886  1.00 20.00     0.016 C 
HETATM   10  C9  UNL     1     -34.912  14.581  -5.333  1.00 20.00     0.058 C 
HETATM   11  C7  UNL     1     -33.924  15.221  -4.372  1.00 20.00     0.025 C 
HETATM   12 BR12 UNL     1     -34.528  15.044  -7.169  1.00 20.00    -0.091 Br
ENDBRANCH   3   7
TORSDOF 1
ENDMDL
MODEL 3
REMARK VINA RESULT:      -4.9      1.094      1.187
REMARK  1 active torsions:
REMARK  status: ('A' for Active; 'I' for Inactive)
REMARK    1  A    between atoms: C3_3  and  C8_8 
ROOT
HETATM    1  C1  UNL     1     -34.600  16.553  -0.774  1.00 20.00     0.022 A 
HETATM    2  C2  UNL     1     -33.629  18.253  -2.028  1.00 20.00     0.057 A 
HETATM    3  C3  UNL     1     -33.930  16.909  -1.981  1.00 20.00    -0.046 A 
HETATM    4  C4  UNL     1     -34.785  17.639   0.054  1.00 20.00    -0.021 A 
HETATM    5  C10 UNL     1     -35.433  17.682   1.383  1.00 20.00     0.056 C 
HETATM    6  S11 UNL     1     -34.154  19.079  -0.622  1.00 20.00    -0.106 SA
ENDROOT
BRANCH   3   7
HETATM    7  C8  UNL     1     -33.590  15.927  -3.078  1.00 20.00     0.020 C 
HETATM    8  C5  UNL     1     -34.623  14.794  -3.263  1.00 20.00     0.010 C 
HETATM    9  C6  UNL     1     -35.176  14.963  -4.674  1.00 20.00     0.016 C 
HETATM   10  C9  UNL     1     -34.013  15.574  -5.429  1.00 20.00     0.058 C 
HETATM   11  C7  UNL     1     -33.462  16.604  -4.457  1.00 20.00     0.025 C 
HETATM   12 BR12 UNL     1     -34.590  16.389  -7.083  1.00 20.00    -0.091 Br
ENDBRANCH   3   7
TORSDOF 1
ENDMDL
MODEL 4
REMARK VINA RESULT:      -4.7      3.153      5.269
REMARK  1 active torsions:
REMARK  status: ('A' for Active; 'I' for Inactive)
REMARK    1  A    between atoms: C3_3  and  C8_8 
ROOT
HETATM    1  C1  UNL     1     -34.220  15.019  -2.999  1.00 20.00     0.022 A 
HETATM    2  C2  UNL     1     -33.696  17.010  -4.078  1.00 20.00     0.057 A 
HETATM    3  C3  UNL     1     -33.829  16.382  -2.859  1.00 20.00    -0.046 A 
HETATM    4  C4  UNL     1     -34.371  14.658  -4.320  1.00 20.00    -0.021 A 
HETATM    5  C10 UNL     1     -34.764  13.344  -4.876  1.00 20.00     0.056 C 
HETATM    6  S11 UNL     1     -34.042  15.958  -5.385  1.00 20.00    -0.106 SA
ENDROOT
BRANCH   3   7
HETATM    7  C8  UNL     1     -33.588  17.058  -1.528  1.00 20.00     0.020 C 
HETATM    8  C5  UNL     1     -33.426  18.592  -1.611  1.00 20.00     0.010 C 
HETATM    9  C6  UNL     1     -34.579  19.174  -0.801  1.00 20.00     0.016 C 
HETATM   10  C9  UNL     1     -34.831  18.114   0.252  1.00 20.00     0.058 C 
HETATM   11  C7  UNL     1     -34.733  16.813  -0.527  1.00 20.00     0.025 C 
HETATM   12 BR12 UNL     1     -36.567  18.327   1.073  1.00 20.00    -0.091 Br
ENDBRANCH   3   7
TORSDOF 1
ENDMDL
MODEL 5
REMARK VINA RESULT:      -4.6      3.526      5.525
REMARK  1 active torsions:
REMARK  status: ('A' for Active; 'I' for Inactive)
REMARK    1  A    between atoms: C3_3  and  C8_8 
ROOT
HETATM    1  C1  UNL     1     -34.029  15.896  -2.471  1.00 20.00     0.022 A 
HETATM    2  C2  UNL     1     -33.707  17.649  -3.964  1.00 20.00     0.057 A 
HETATM    3  C3  UNL     1     -34.029  17.307  -2.668  1.00 20.00    -0.046 A 
HETATM    4  C4  UNL     1     -33.706  15.213  -3.623  1.00 20.00    -0.021 A 
HETATM    5  C10 UNL     1     -33.600  13.752  -3.827  1.00 20.00     0.056 C 
HETATM    6  S11 UNL     1     -33.406  16.270  -4.935  1.00 20.00    -0.106 SA
ENDROOT
BRANCH   3   7
HETATM    7  C8  UNL     1     -34.346  18.311  -1.582  1.00 20.00     0.020 C 
HETATM    8  C5  UNL     1     -35.137  17.732  -0.389  1.00 20.00     0.010 C 
HETATM    9  C6  UNL     1     -34.231  17.894   0.826  1.00 20.00     0.016 C 
HETATM   10  C9  UNL     1     -33.422  19.132   0.492  1.00 20.00     0.058 C 
HETATM   11  C7  UNL     1     -33.078  18.943  -0.976  1.00 20.00     0.025 C 
HETATM   12 BR12 UNL     1     -31.837  19.263   1.589  1.00 20.00    -0.091 Br
ENDBRANCH   3   7
TORSDOF 1
ENDMDL
MODEL 6
REMARK VINA RESULT:      -4.5      2.199      3.156
REMARK  1 active torsions:
REMARK  status: ('A' for Active; 'I' for Inactive)
REMARK    1  A    between atoms: C3_3  and  C8_8 
ROOT
HETATM    1  C1  UNL     1     -33.251  17.845  -0.594  1.00 20.00     0.022 A 
HETATM    2  C2  UNL     1     -35.183  17.474   0.644  1.00 20.00     0.057 A 
HETATM    3  C3  UNL     1     -34.541  17.243  -0.554  1.00 20.00    -0.046 A 
HETATM    4  C4  UNL     1     -32.956  18.515   0.573  1.00 20.00    -0.021 A 
HETATM    5  C10 UNL     1     -31.728  19.262   0.920  1.00 20.00     0.056 C 
HETATM    6  S11 UNL     1     -34.230  18.415   1.712  1.00 20.00    -0.106 SA
ENDROOT
BRANCH   3   7
HETATM    7  C8  UNL     1     -35.135  16.443  -1.691  1.00 20.00     0.020 C 
HETATM    8  C5  UNL     1     -36.231  17.184  -2.488  1.00 20.00     0.010 C 
HETATM    9  C6  UNL     1     -35.694  17.313  -3.910  1.00 20.00     0.016 C 
HETATM   10  C9  UNL     1     -34.812  16.088  -4.058  1.00 20.00     0.058 C 
HETATM   11  C7  UNL     1     -34.077  16.020  -2.729  1.00 20.00     0.025 C 
HETATM   12 BR12 UNL     1     -33.590  16.269  -5.543  1.00 20.00    -0.091 Br
ENDBRANCH   3   7
TORSDOF 1
ENDMDL
MODEL 7
REMARK VINA RESULT:      -4.5      3.200      5.402
REMARK  1 active torsions:
REMARK  status: ('A' for Active; 'I' for Inactive)
REMARK    1  A    between atoms: C3_3  and  C8_8 
ROOT
HETATM    1  C1  UNL     1     -33.858  16.175  -4.604  1.00 20.00     0.022 A 
HETATM    2  C2  UNL     1     -34.831  14.708  -3.086  1.00 20.00     0.057 A 
HETATM    3  C3  UNL     1     -34.128  15.884  -3.236  1.00 20.00    -0.046 A 
HETATM    4  C4  UNL     1     -34.365  15.211  -5.448  1.00 20.00    -0.021 A 
HETATM    5  C10 UNL     1     -34.295  15.151  -6.924  1.00 20.00     0.056 C 
HETATM    6  S11 UNL     1     -35.163  13.962  -4.592  1.00 20.00    -0.106 SA
ENDROOT
BRANCH   3   7
HETATM    7  C8  UNL     1     -33.693  16.762  -2.085  1.00 20.00     0.020 C 
HETATM    8  C5  UNL     1     -33.679  18.273  -2.404  1.00 20.00     0.010 C 
HETATM    9  C6  UNL     1     -34.698  18.905  -1.463  1.00 20.00     0.016 C 
HETATM   10  C9  UNL     1     -34.653  17.999  -0.247  1.00 20.00     0.058 C 
HETATM   11  C7  UNL     1     -34.599  16.605  -0.848  1.00 20.00     0.025 C 
HETATM   12 BR12 UNL     1     -36.210  18.236   0.872  1.00 20.00    -0.091 Br
ENDBRANCH   3   7
TORSDOF 1
ENDMDL
MODEL 8
REMARK VINA RESULT:      -4.5      2.028      3.151
REMARK  1 active torsions:
REMARK  status: ('A' for Active; 'I' for Inactive)
REMARK    1  A    between atoms: C3_3  and  C8_8 
ROOT
HETATM    1  C1  UNL     1     -34.834  17.701   0.651  1.00 20.00     0.022 A 
HETATM    2  C2  UNL     1     -33.019  18.582  -0.502  1.00 20.00     0.057 A 
HETATM    3  C3  UNL     1     -34.210  17.898  -0.614  1.00 20.00    -0.046 A 
HETATM    4  C4  UNL     1     -34.097  18.242   1.682  1.00 20.00    -0.021 A 
HETATM    5  C10 UNL     1     -34.404  18.246   3.129  1.00 20.00     0.056 C 
HETATM    6  S11 UNL     1     -32.659  18.984   1.124  1.00 20.00    -0.106 SA
ENDROOT
BRANCH   3   7
HETATM    7  C8  UNL     1     -34.787  17.413  -1.925  1.00 20.00     0.020 C 
HETATM    8  C5  UNL     1     -34.032  17.909  -3.177  1.00 20.00     0.010 C 
HETATM    9  C6  UNL     1     -33.497  16.655  -3.861  1.00 20.00     0.016 C 
HETATM   10  C9  UNL     1     -34.520  15.598  -3.495  1.00 20.00     0.058 C 
HETATM   11  C7  UNL     1     -34.805  15.876  -2.028  1.00 20.00     0.025 C 
HETATM   12 BR12 UNL     1     -33.828  13.815  -3.765  1.00 20.00    -0.091 Br
ENDBRANCH   3   7
TORSDOF 1
ENDMDL
MODEL 9
REMARK VINA RESULT:      -4.3      3.787      6.129
REMARK  1 active torsions:
REMARK  status: ('A' for Active; 'I' for Inactive)
REMARK    1  A    between atoms: C3_3  and  C8_8 
ROOT
HETATM    1  C1  UNL     1     -34.678  16.446  -1.287  1.00 20.00     0.022 A 
HETATM    2  C2  UNL     1     -34.043  18.435  -2.309  1.00 20.00     0.057 A 
HETATM    3  C3  UNL     1     -34.509  17.854  -1.150  1.00 20.00    -0.046 A 
HETATM    4  C4  UNL     1     -34.333  16.004  -2.545  1.00 20.00    -0.021 A 
HETATM    5  C10 UNL     1     -34.368  14.624  -3.077  1.00 20.00     0.056 C 
HETATM    6  S11 UNL     1     -33.809  17.283  -3.555  1.00 20.00    -0.106 SA
ENDROOT
BRANCH   3   7
HETATM    7  C8  UNL     1     -34.808  18.620   0.119  1.00 20.00     0.020 C 
HETATM    8  C5  UNL     1     -35.781  17.905   1.082  1.00 20.00     0.010 C 
HETATM    9  C6  UNL     1     -34.989  17.656   2.361  1.00 20.00     0.016 C 
HETATM   10  C9  UNL     1     -34.005  18.809   2.388  1.00 20.00     0.058 C 
HETATM   11  C7  UNL     1     -33.540  18.911   0.945  1.00 20.00     0.025 C 
HETATM   12 BR12 UNL     1     -32.535  18.460   3.591  1.00 20.00    -0.091 Br
ENDBRANCH   3   7
TORSDOF 1
ENDMDL
