MODEL 1
REMARK VINA RESULT:      -4.4      0.000      0.000
REMARK  2 active torsions:
REMARK  status: ('A' for Active; 'I' for Inactive)
REMARK    1  A    between atoms: C5_5  and  S11_11 
REMARK    2  A    between atoms: C9_9  and  S11_11 
ROOT
HETATM    1  C1  UNL     1     -35.119  13.844  -4.949  1.00 20.00     0.080 C 
HETATM    2  C2  UNL     1     -34.962  14.771  -7.806  1.00 20.00     0.005 C 
HETATM    3  C3  UNL     1     -34.197  15.481  -6.669  1.00 20.00     0.036 C 
HETATM    4  C4  UNL     1     -36.245  14.926  -6.961  1.00 20.00     0.036 C 
HETATM    5  C5  UNL     1     -35.338  15.052  -5.711  1.00 20.00     0.097 C 
HETATM    6  N10 UNL     1     -34.944  12.874  -4.338  1.00 20.00    -0.196 NA
ENDROOT
BRANCH   5   7
HETATM    7  S11 UNL     1     -35.862  16.409  -4.603  1.00 20.00    -0.135 SA
BRANCH   7   8
HETATM    8  C9  UNL     1     -34.312  16.547  -3.630  1.00 20.00    -0.001 C 
HETATM    9  C6  UNL     1     -33.164  15.950  -4.449  1.00 20.00     0.026 C 
HETATM   10  C7  UNL     1     -34.052  18.029  -3.347  1.00 20.00     0.026 C 
HETATM   11  C8  UNL     1     -34.488  15.778  -2.318  1.00 20.00     0.026 C 
ENDBRANCH   7   8
ENDBRANCH   5   7
TORSDOF 2
ENDMDL
MODEL 2
REMARK VINA RESULT:      -4.2      1.437      3.859
REMARK  2 active torsions:
REMARK  status: ('A' for Active; 'I' for Inactive)
REMARK    1  A    between atoms: C5_5  and  S11_11 
REMARK    2  A    between atoms: C9_9  and  S11_11 
ROOT
HETATM    1  C1  UNL     1     -33.805  14.432  -3.690  1.00 20.00     0.080 C 
HETATM    2  C2  UNL     1     -34.837  16.251  -1.530  1.00 20.00     0.005 C 
HETATM    3  C3  UNL     1     -35.528  16.135  -2.905  1.00 20.00     0.036 C 
HETATM    4  C4  UNL     1     -33.518  16.534  -2.280  1.00 20.00     0.036 C 
HETATM    5  C5  UNL     1     -34.136  15.827  -3.514  1.00 20.00     0.097 C 
HETATM    6  N10 UNL     1     -33.538  13.312  -3.831  1.00 20.00    -0.196 NA
ENDROOT
BRANCH   5   7
HETATM    7  S11 UNL     1     -33.837  16.746  -5.066  1.00 20.00    -0.135 SA
BRANCH   7   8
HETATM    8  C9  UNL     1     -35.129  15.936  -6.086  1.00 20.00    -0.001 C 
HETATM    9  C6  UNL     1     -36.172  15.313  -5.153  1.00 20.00     0.026 C 
HETATM   10  C7  UNL     1     -35.779  17.000  -6.976  1.00 20.00     0.026 C 
HETATM   11  C8  UNL     1     -34.469  14.854  -6.946  1.00 20.00     0.026 C 
ENDBRANCH   7   8
ENDBRANCH   5   7
TORSDOF 2
ENDMDL
MODEL 3
REMARK VINA RESULT:      -4.2      1.436      3.849
REMARK  2 active torsions:
REMARK  status: ('A' for Active; 'I' for Inactive)
REMARK    1  A    between atoms: C5_5  and  S11_11 
REMARK    2  A    between atoms: C9_9  and  S11_11 
ROOT
HETATM    1  C1  UNL     1     -33.804  14.430  -3.690  1.00 20.00     0.080 C 
HETATM    2  C2  UNL     1     -34.833  16.251  -1.530  1.00 20.00     0.005 C 
HETATM    3  C3  UNL     1     -35.525  16.133  -2.904  1.00 20.00     0.036 C 
HETATM    4  C4  UNL     1     -33.515  16.533  -2.283  1.00 20.00     0.036 C 
HETATM    5  C5  UNL     1     -34.135  15.825  -3.514  1.00 20.00     0.097 C 
HETATM    6  N10 UNL     1     -33.538  13.310  -3.831  1.00 20.00    -0.196 NA
ENDROOT
BRANCH   5   7
HETATM    7  S11 UNL     1     -33.838  16.742  -5.068  1.00 20.00    -0.135 SA
BRANCH   7   8
HETATM    8  C9  UNL     1     -35.135  15.934  -6.084  1.00 20.00    -0.001 C 
HETATM    9  C6  UNL     1     -35.790  16.993  -6.976  1.00 20.00     0.026 C 
HETATM   10  C7  UNL     1     -34.472  14.852  -6.941  1.00 20.00     0.026 C 
HETATM   11  C8  UNL     1     -36.173  15.310  -5.148  1.00 20.00     0.026 C 
ENDBRANCH   7   8
ENDBRANCH   5   7
TORSDOF 2
ENDMDL
MODEL 4
REMARK VINA RESULT:      -4.2      1.239      3.681
REMARK  2 active torsions:
REMARK  status: ('A' for Active; 'I' for Inactive)
REMARK    1  A    between atoms: C5_5  and  S11_11 
REMARK    2  A    between atoms: C9_9  and  S11_11 
ROOT
HETATM    1  C1  UNL     1     -34.007  14.306  -3.636  1.00 20.00     0.080 C 
HETATM    2  C2  UNL     1     -33.704  16.766  -1.933  1.00 20.00     0.005 C 
HETATM    3  C3  UNL     1     -35.020  15.961  -1.987  1.00 20.00     0.036 C 
HETATM    4  C4  UNL     1     -33.750  16.834  -3.475  1.00 20.00     0.036 C 
HETATM    5  C5  UNL     1     -34.660  15.580  -3.446  1.00 20.00     0.097 C 
HETATM    6  N10 UNL     1     -33.482  13.283  -3.789  1.00 20.00    -0.196 NA
ENDROOT
BRANCH   5   7
HETATM    7  S11 UNL     1     -36.089  15.730  -4.577  1.00 20.00    -0.135 SA
BRANCH   7   8
HETATM    8  C9  UNL     1     -35.154  15.759  -6.156  1.00 20.00    -0.001 C 
HETATM    9  C6  UNL     1     -35.135  14.343  -6.740  1.00 20.00     0.026 C 
HETATM   10  C7  UNL     1     -35.858  16.722  -7.115  1.00 20.00     0.026 C 
HETATM   11  C8  UNL     1     -33.728  16.238  -5.872  1.00 20.00     0.026 C 
ENDBRANCH   7   8
ENDBRANCH   5   7
TORSDOF 2
ENDMDL
MODEL 5
REMARK VINA RESULT:      -4.2      1.124      1.438
REMARK  2 active torsions:
REMARK  status: ('A' for Active; 'I' for Inactive)
REMARK    1  A    between atoms: C5_5  and  S11_11 
REMARK    2  A    between atoms: C9_9  and  S11_11 
ROOT
HETATM    1  C1  UNL     1     -34.890  13.745  -5.089  1.00 20.00     0.080 C 
HETATM    2  C2  UNL     1     -35.954  14.646  -7.753  1.00 20.00     0.005 C 
HETATM    3  C3  UNL     1     -34.474  14.825  -7.357  1.00 20.00     0.036 C 
HETATM    4  C4  UNL     1     -36.334  15.354  -6.435  1.00 20.00     0.036 C 
HETATM    5  C5  UNL     1     -34.943  14.950  -5.885  1.00 20.00     0.097 C 
HETATM    6  N10 UNL     1     -34.849  12.778  -4.450  1.00 20.00    -0.196 NA
ENDROOT
BRANCH   5   7
HETATM    7  S11 UNL     1     -34.115  16.321  -5.005  1.00 20.00    -0.135 SA
BRANCH   7   8
HETATM    8  C9  UNL     1     -35.273  16.441  -3.586  1.00 20.00    -0.001 C 
HETATM    9  C6  UNL     1     -34.657  15.715  -2.387  1.00 20.00     0.026 C 
HETATM   10  C7  UNL     1     -35.486  17.922  -3.261  1.00 20.00     0.026 C 
HETATM   11  C8  UNL     1     -36.601  15.788  -3.981  1.00 20.00     0.026 C 
ENDBRANCH   7   8
ENDBRANCH   5   7
TORSDOF 2
ENDMDL
MODEL 6
REMARK VINA RESULT:      -4.1      1.751      2.429
REMARK  2 active torsions:
REMARK  status: ('A' for Active; 'I' for Inactive)
REMARK    1  A    between atoms: C5_5  and  S11_11 
REMARK    2  A    between atoms: C9_9  and  S11_11 
ROOT
HETATM    1  C1  UNL     1     -36.810  14.652  -3.981  1.00 20.00     0.080 C 
HETATM    2  C2  UNL     1     -34.335  13.116  -4.730  1.00 20.00     0.005 C 
HETATM    3  C3  UNL     1     -34.315  14.240  -3.673  1.00 20.00     0.036 C 
HETATM    4  C4  UNL     1     -35.006  14.115  -5.697  1.00 20.00     0.036 C 
HETATM    5  C5  UNL     1     -35.470  14.916  -4.454  1.00 20.00     0.097 C 
HETATM    6  N10 UNL     1     -37.885  14.438  -3.601  1.00 20.00    -0.196 NA
ENDROOT
BRANCH   5   7
HETATM    7  S11 UNL     1     -35.217  16.716  -4.651  1.00 20.00    -0.135 SA
BRANCH   7   8
HETATM    8  C9  UNL     1     -35.312  17.175  -2.876  1.00 20.00    -0.001 C 
HETATM    9  C6  UNL     1     -34.867  15.975  -2.035  1.00 20.00     0.026 C 
HETATM   10  C7  UNL     1     -34.383  18.368  -2.636  1.00 20.00     0.026 C 
HETATM   11  C8  UNL     1     -36.759  17.552  -2.544  1.00 20.00     0.026 C 
ENDBRANCH   7   8
ENDBRANCH   5   7
TORSDOF 2
ENDMDL
MODEL 7
REMARK VINA RESULT:      -4.0      1.544      3.988
REMARK  2 active torsions:
REMARK  status: ('A' for Active; 'I' for Inactive)
REMARK    1  A    between atoms: C5_5  and  S11_11 
REMARK    2  A    between atoms: C9_9  and  S11_11 
ROOT
HETATM    1  C1  UNL     1     -36.880  15.161  -3.562  1.00 20.00     0.080 C 
HETATM    2  C2  UNL     1     -34.771  16.100  -1.636  1.00 20.00     0.005 C 
HETATM    3  C3  UNL     1     -35.667  17.084  -2.416  1.00 20.00     0.036 C 
HETATM    4  C4  UNL     1     -34.415  15.442  -2.986  1.00 20.00     0.036 C 
HETATM    5  C5  UNL     1     -35.730  16.035  -3.555  1.00 20.00     0.097 C 
HETATM    6  N10 UNL     1     -37.803  14.458  -3.567  1.00 20.00    -0.196 NA
ENDROOT
BRANCH   5   7
HETATM    7  S11 UNL     1     -35.500  16.785  -5.206  1.00 20.00    -0.135 SA
BRANCH   7   8
HETATM    8  C9  UNL     1     -35.268  15.231  -6.154  1.00 20.00    -0.001 C 
HETATM    9  C6  UNL     1     -34.807  14.133  -5.191  1.00 20.00     0.026 C 
HETATM   10  C7  UNL     1     -36.606  14.852  -6.794  1.00 20.00     0.026 C 
HETATM   11  C8  UNL     1     -34.210  15.470  -7.236  1.00 20.00     0.026 C 
ENDBRANCH   7   8
ENDBRANCH   5   7
TORSDOF 2
ENDMDL
MODEL 8
REMARK VINA RESULT:      -4.0      1.742      3.599
REMARK  2 active torsions:
REMARK  status: ('A' for Active; 'I' for Inactive)
REMARK    1  A    between atoms: C5_5  and  S11_11 
REMARK    2  A    between atoms: C9_9  and  S11_11 
ROOT
HETATM    1  C1  UNL     1     -36.762  14.592  -4.049  1.00 20.00     0.080 C 
HETATM    2  C2  UNL     1     -33.963  13.588  -3.598  1.00 20.00     0.005 C 
HETATM    3  C3  UNL     1     -34.416  14.991  -3.142  1.00 20.00     0.036 C 
HETATM    4  C4  UNL     1     -34.494  13.937  -5.005  1.00 20.00     0.036 C 
HETATM    5  C5  UNL     1     -35.405  14.997  -4.336  1.00 20.00     0.097 C 
HETATM    6  N10 UNL     1     -37.851  14.266  -3.820  1.00 20.00    -0.196 NA
ENDROOT
BRANCH   5   7
HETATM    7  S11 UNL     1     -35.400  16.589  -5.235  1.00 20.00    -0.135 SA
BRANCH   7   8
HETATM    8  C9  UNL     1     -35.704  15.923  -6.918  1.00 20.00    -0.001 C 
HETATM    9  C6  UNL     1     -37.099  15.293  -6.952  1.00 20.00     0.026 C 
HETATM   10  C7  UNL     1     -35.618  17.081  -7.917  1.00 20.00     0.026 C 
HETATM   11  C8  UNL     1     -34.635  14.872  -7.230  1.00 20.00     0.026 C 
ENDBRANCH   7   8
ENDBRANCH   5   7
TORSDOF 2
ENDMDL
MODEL 9
REMARK VINA RESULT:      -4.0      1.652      2.636
REMARK  2 active torsions:
REMARK  status: ('A' for Active; 'I' for Inactive)
REMARK    1  A    between atoms: C5_5  and  S11_11 
REMARK    2  A    between atoms: C9_9  and  S11_11 
ROOT
HETATM    1  C1  UNL     1     -35.575  13.794  -4.483  1.00 20.00     0.080 C 
HETATM    2  C2  UNL     1     -38.401  14.776  -4.179  1.00 20.00     0.005 C 
HETATM    3  C3  UNL     1     -37.578  15.027  -5.460  1.00 20.00     0.036 C 
HETATM    4  C4  UNL     1     -37.230  15.383  -3.377  1.00 20.00     0.036 C 
HETATM    5  C5  UNL     1     -36.307  15.037  -4.573  1.00 20.00     0.097 C 
HETATM    6  N10 UNL     1     -34.988  12.797  -4.410  1.00 20.00    -0.196 NA
ENDROOT
BRANCH   5   7
HETATM    7  S11 UNL     1     -35.173  16.406  -4.998  1.00 20.00    -0.135 SA
BRANCH   7   8
HETATM    8  C9  UNL     1     -34.149  16.360  -3.476  1.00 20.00    -0.001 C 
HETATM    9  C6  UNL     1     -34.980  15.752  -2.343  1.00 20.00     0.026 C 
HETATM   10  C7  UNL     1     -32.913  15.499  -3.752  1.00 20.00     0.026 C 
HETATM   11  C8  UNL     1     -33.732  17.791  -3.123  1.00 20.00     0.026 C 
ENDBRANCH   7   8
ENDBRANCH   5   7
TORSDOF 2
ENDMDL
