MODEL 1
REMARK VINA RESULT:      -4.6      0.000      0.000
REMARK  1 active torsions:
REMARK  status: ('A' for Active; 'I' for Inactive)
REMARK    1  A    between atoms: C4_4  and  C8_8 
ROOT
HETATM    1  C5  UNL     1     -34.332  14.047  -3.474  1.00 20.00     0.011 C 
HETATM    2  C6  UNL     1     -34.453  13.450  -4.880  1.00 20.00     0.021 C 
HETATM    3  C7  UNL     1     -35.296  15.683  -4.963  1.00 20.00     0.029 C 
HETATM    4  C8  UNL     1     -35.164  15.349  -3.470  1.00 20.00     0.020 C 
HETATM    5  C9  UNL     1     -35.491  14.309  -5.588  1.00 20.00     0.083 C 
HETATM    6 CL11 UNL     1     -35.271  14.330  -7.343  1.00 20.00    -0.125 Cl
ENDROOT
BRANCH   4   7
HETATM    7  C4  UNL     1     -34.619  16.432  -2.564  1.00 20.00    -0.047 A 
HETATM    8  C1  UNL     1     -34.668  16.377  -1.141  1.00 20.00     0.015 A 
HETATM    9  C2  UNL     1     -34.103  17.490  -0.560  1.00 20.00     0.050 A 
HETATM   10  S10 UNL     1     -33.517  18.598  -1.728  1.00 20.00    -0.113 SA
HETATM   11  C3  UNL     1     -34.017  17.586  -3.017  1.00 20.00     0.057 A 
ENDBRANCH   4   7
TORSDOF 1
ENDMDL
MODEL 2
REMARK VINA RESULT:      -4.6      3.654      5.303
REMARK  1 active torsions:
REMARK  status: ('A' for Active; 'I' for Inactive)
REMARK    1  A    between atoms: C4_4  and  C8_8 
ROOT
HETATM    1  C5  UNL     1     -33.686  17.978  -2.345  1.00 20.00     0.011 C 
HETATM    2  C6  UNL     1     -33.398  18.710  -1.030  1.00 20.00     0.021 C 
HETATM    3  C7  UNL     1     -34.660  16.751  -0.510  1.00 20.00     0.029 C 
HETATM    4  C8  UNL     1     -34.758  16.910  -2.034  1.00 20.00     0.020 C 
HETATM    5  C9  UNL     1     -34.433  18.183  -0.047  1.00 20.00     0.083 C 
HETATM    6 CL11 UNL     1     -33.879  18.269   1.631  1.00 20.00    -0.125 Cl
ENDROOT
BRANCH   4   7
HETATM    7  C4  UNL     1     -34.645  15.653  -2.870  1.00 20.00    -0.047 A 
HETATM    8  C1  UNL     1     -33.407  15.046  -3.228  1.00 20.00     0.015 A 
HETATM    9  C2  UNL     1     -33.587  13.915  -3.992  1.00 20.00     0.050 A 
HETATM   10  S10 UNL     1     -35.245  13.589  -4.278  1.00 20.00    -0.113 SA
HETATM   11  C3  UNL     1     -35.725  14.963  -3.376  1.00 20.00     0.057 A 
ENDBRANCH   4   7
TORSDOF 1
ENDMDL
MODEL 3
REMARK VINA RESULT:      -4.6      1.449      1.983
REMARK  1 active torsions:
REMARK  status: ('A' for Active; 'I' for Inactive)
REMARK    1  A    between atoms: C4_4  and  C8_8 
ROOT
HETATM    1  C5  UNL     1     -33.574  16.883  -4.260  1.00 20.00     0.011 C 
HETATM    2  C6  UNL     1     -33.944  15.793  -5.271  1.00 20.00     0.021 C 
HETATM    3  C7  UNL     1     -34.309  14.907  -3.084  1.00 20.00     0.029 C 
HETATM    4  C8  UNL     1     -33.505  16.199  -2.875  1.00 20.00     0.020 C 
HETATM    5  C9  UNL     1     -33.895  14.489  -4.488  1.00 20.00     0.083 C 
HETATM    6 CL11 UNL     1     -34.962  13.251  -5.164  1.00 20.00    -0.125 Cl
ENDROOT
BRANCH   4   7
HETATM    7  C4  UNL     1     -33.914  17.090  -1.722  1.00 20.00    -0.047 A 
HETATM    8  C1  UNL     1     -34.700  16.651  -0.619  1.00 20.00     0.015 A 
HETATM    9  C2  UNL     1     -34.928  17.660   0.290  1.00 20.00     0.050 A 
HETATM   10  S10 UNL     1     -34.195  19.133  -0.188  1.00 20.00    -0.113 SA
HETATM   11  C3  UNL     1     -33.569  18.420  -1.615  1.00 20.00     0.057 A 
ENDBRANCH   4   7
TORSDOF 1
ENDMDL
MODEL 4
REMARK VINA RESULT:      -4.4      4.370      6.559
REMARK  1 active torsions:
REMARK  status: ('A' for Active; 'I' for Inactive)
REMARK    1  A    between atoms: C4_4  and  C8_8 
ROOT
HETATM    1  C5  UNL     1     -31.960  18.883   0.378  1.00 20.00     0.011 C 
HETATM    2  C6  UNL     1     -31.692  18.988   1.883  1.00 20.00     0.021 C 
HETATM    3  C7  UNL     1     -33.947  18.256   1.596  1.00 20.00     0.029 C 
HETATM    4  C8  UNL     1     -33.488  18.727   0.208  1.00 20.00     0.020 C 
HETATM    5  C9  UNL     1     -33.068  19.079   2.526  1.00 20.00     0.083 C 
HETATM    6 CL11 UNL     1     -33.083  18.465   4.185  1.00 20.00    -0.125 Cl
ENDROOT
BRANCH   4   7
HETATM    7  C4  UNL     1     -33.899  17.885  -0.980  1.00 20.00    -0.047 A 
HETATM    8  C1  UNL     1     -34.562  16.629  -0.873  1.00 20.00     0.015 A 
HETATM    9  C2  UNL     1     -34.821  16.072  -2.105  1.00 20.00     0.050 A 
HETATM   10  S10 UNL     1     -34.264  17.062  -3.387  1.00 20.00    -0.113 SA
HETATM   11  C3  UNL     1     -33.676  18.241  -2.293  1.00 20.00     0.057 A 
ENDBRANCH   4   7
TORSDOF 1
ENDMDL
MODEL 5
REMARK VINA RESULT:      -4.4     13.215     14.609
REMARK  1 active torsions:
REMARK  status: ('A' for Active; 'I' for Inactive)
REMARK    1  A    between atoms: C4_4  and  C8_8 
ROOT
HETATM    1  C5  UNL     1     -40.855   4.706  -0.779  1.00 20.00     0.011 C 
HETATM    2  C6  UNL     1     -41.171   6.095  -0.214  1.00 20.00     0.021 C 
HETATM    3  C7  UNL     1     -42.557   5.759  -2.128  1.00 20.00     0.029 C 
HETATM    4  C8  UNL     1     -41.510   4.636  -2.177  1.00 20.00     0.020 C 
HETATM    5  C9  UNL     1     -41.828   6.851  -1.359  1.00 20.00     0.083 C 
HETATM    6 CL11 UNL     1     -42.922   8.121  -0.794  1.00 20.00    -0.125 Cl
ENDROOT
BRANCH   4   7
HETATM    7  C4  UNL     1     -41.992   3.256  -2.569  1.00 20.00    -0.047 A 
HETATM    8  C1  UNL     1     -41.278   2.382  -3.438  1.00 20.00     0.015 A 
HETATM    9  C2  UNL     1     -41.937   1.189  -3.629  1.00 20.00     0.050 A 
HETATM   10  S10 UNL     1     -43.415   1.125  -2.764  1.00 20.00    -0.113 SA
HETATM   11  C3  UNL     1     -43.172   2.697  -2.129  1.00 20.00     0.057 A 
ENDBRANCH   4   7
TORSDOF 1
ENDMDL
MODEL 6
REMARK VINA RESULT:      -4.3      2.740      4.050
REMARK  1 active torsions:
REMARK  status: ('A' for Active; 'I' for Inactive)
REMARK    1  A    between atoms: C4_4  and  C8_8 
ROOT
HETATM    1  C5  UNL     1     -34.560  16.538  -0.875  1.00 20.00     0.011 C 
HETATM    2  C6  UNL     1     -34.556  16.108  -2.346  1.00 20.00     0.021 C 
HETATM    3  C7  UNL     1     -33.543  18.267  -2.218  1.00 20.00     0.029 C 
HETATM    4  C8  UNL     1     -34.206  18.042  -0.851  1.00 20.00     0.020 C 
HETATM    5  C9  UNL     1     -34.389  17.397  -3.137  1.00 20.00     0.083 C 
HETATM    6 CL11 UNL     1     -33.623  17.134  -4.709  1.00 20.00    -0.125 Cl
ENDROOT
BRANCH   4   7
HETATM    7  C4  UNL     1     -33.432  18.479   0.375  1.00 20.00    -0.047 A 
HETATM    8  C1  UNL     1     -32.073  18.904   0.346  1.00 20.00     0.015 A 
HETATM    9  C2  UNL     1     -31.611  19.246   1.597  1.00 20.00     0.050 A 
HETATM   10  S10 UNL     1     -32.813  19.052   2.802  1.00 20.00    -0.113 SA
HETATM   11  C3  UNL     1     -33.958  18.511   1.648  1.00 20.00     0.057 A 
ENDBRANCH   4   7
TORSDOF 1
ENDMDL
MODEL 7
REMARK VINA RESULT:      -4.2      3.312      4.989
REMARK  1 active torsions:
REMARK  status: ('A' for Active; 'I' for Inactive)
REMARK    1  A    between atoms: C4_4  and  C8_8 
ROOT
HETATM    1  C5  UNL     1     -35.978  17.141  -2.355  1.00 20.00     0.011 C 
HETATM    2  C6  UNL     1     -35.388  18.267  -1.501  1.00 20.00     0.021 C 
HETATM    3  C7  UNL     1     -33.682  16.627  -1.818  1.00 20.00     0.029 C 
HETATM    4  C8  UNL     1     -34.985  15.959  -2.280  1.00 20.00     0.020 C 
HETATM    5  C9  UNL     1     -34.181  17.651  -0.809  1.00 20.00     0.083 C 
HETATM    6 CL11 UNL     1     -32.947  18.851  -0.401  1.00 20.00    -0.125 Cl
ENDROOT
BRANCH   4   7
HETATM    7  C4  UNL     1     -34.925  15.117  -3.537  1.00 20.00    -0.047 A 
HETATM    8  C1  UNL     1     -34.410  13.790  -3.580  1.00 20.00     0.015 A 
HETATM    9  C2  UNL     1     -34.471  13.252  -4.845  1.00 20.00     0.050 A 
HETATM   10  S10 UNL     1     -35.145  14.346  -5.978  1.00 20.00    -0.113 SA
HETATM   11  C3  UNL     1     -35.359  15.544  -4.773  1.00 20.00     0.057 A 
ENDBRANCH   4   7
TORSDOF 1
ENDMDL
MODEL 8
REMARK VINA RESULT:      -4.2     13.624     14.758
REMARK  1 active torsions:
REMARK  status: ('A' for Active; 'I' for Inactive)
REMARK    1  A    between atoms: C4_4  and  C8_8 
ROOT
HETATM    1  C5  UNL     1     -43.417   2.180  -2.216  1.00 20.00     0.011 C 
HETATM    2  C6  UNL     1     -43.161   0.745  -2.688  1.00 20.00     0.021 C 
HETATM    3  C7  UNL     1     -41.418   2.121  -3.567  1.00 20.00     0.029 C 
HETATM    4  C8  UNL     1     -42.486   3.093  -3.044  1.00 20.00     0.020 C 
HETATM    5  C9  UNL     1     -42.239   0.881  -3.892  1.00 20.00     0.083 C 
HETATM    6 CL11 UNL     1     -41.229  -0.550  -4.137  1.00 20.00    -0.125 Cl
ENDROOT
BRANCH   4   7
HETATM    7  C4  UNL     1     -42.000   4.321  -2.303  1.00 20.00    -0.047 A 
HETATM    8  C1  UNL     1     -42.349   5.655  -2.660  1.00 20.00     0.015 A 
HETATM    9  C2  UNL     1     -41.772   6.583  -1.823  1.00 20.00     0.050 A 
HETATM   10  S10 UNL     1     -40.811   5.846  -0.611  1.00 20.00    -0.113 SA
HETATM   11  C3  UNL     1     -41.168   4.280  -1.205  1.00 20.00     0.057 A 
ENDBRANCH   4   7
TORSDOF 1
ENDMDL
MODEL 9
REMARK VINA RESULT:      -4.1      1.419      2.153
REMARK  1 active torsions:
REMARK  status: ('A' for Active; 'I' for Inactive)
REMARK    1  A    between atoms: C4_4  and  C8_8 
ROOT
HETATM    1  C5  UNL     1     -33.919  17.861  -5.205  1.00 20.00     0.011 C 
HETATM    2  C6  UNL     1     -34.305  17.145  -6.504  1.00 20.00     0.021 C 
HETATM    3  C7  UNL     1     -34.196  15.502  -4.775  1.00 20.00     0.029 C 
HETATM    4  C8  UNL     1     -33.541  16.761  -4.187  1.00 20.00     0.020 C 
HETATM    5  C9  UNL     1     -33.964  15.681  -6.268  1.00 20.00     0.083 C 
HETATM    6 CL11 UNL     1     -34.959  14.588  -7.240  1.00 20.00    -0.125 Cl
ENDROOT
BRANCH   4   7
HETATM    7  C4  UNL     1     -33.868  17.105  -2.750  1.00 20.00    -0.047 A 
HETATM    8  C1  UNL     1     -34.492  16.205  -1.840  1.00 20.00     0.015 A 
HETATM    9  C2  UNL     1     -34.676  16.769  -0.597  1.00 20.00     0.050 A 
HETATM   10  S10 UNL     1     -34.098  18.381  -0.532  1.00 20.00    -0.113 SA
HETATM   11  C3  UNL     1     -33.599  18.325  -2.169  1.00 20.00     0.057 A 
ENDBRANCH   4   7
TORSDOF 1
ENDMDL
