MODEL 1
REMARK VINA RESULT:      -4.7      0.000      0.000
REMARK  1 active torsions:
REMARK  status: ('A' for Active; 'I' for Inactive)
REMARK    1  A    between atoms: C4_4  and  C8_8 
ROOT
HETATM    1  C5  UNL     1     -33.332  13.668  -3.732  1.00 20.00     0.002 C 
HETATM    2  C6  UNL     1     -32.966  15.152  -3.692  1.00 20.00     0.011 C 
HETATM    3  C7  UNL     1     -34.818  13.654  -4.058  1.00 20.00     0.021 C 
HETATM    4  C8  UNL     1     -34.280  15.912  -3.400  1.00 20.00     0.037 C 
HETATM    5  C9  UNL     1     -35.342  14.811  -3.218  1.00 20.00     0.090 C 
HETATM    6 CL11 UNL     1     -36.955  15.330  -3.746  1.00 20.00    -0.124 Cl
ENDROOT
BRANCH   4   7
HETATM    7  C4  UNL     1     -34.197  16.856  -2.221  1.00 20.00    -0.046 A 
HETATM    8  C1  UNL     1     -34.636  16.525  -0.906  1.00 20.00     0.015 A 
HETATM    9  C2  UNL     1     -34.448  17.563  -0.022  1.00 20.00     0.050 A 
HETATM   10  S10 UNL     1     -33.745  18.931  -0.776  1.00 20.00    -0.113 SA
HETATM   11  C3  UNL     1     -33.691  18.135  -2.291  1.00 20.00     0.057 A 
ENDBRANCH   4   7
TORSDOF 1
ENDMDL
MODEL 2
REMARK VINA RESULT:      -4.5      1.594      1.773
REMARK  1 active torsions:
REMARK  status: ('A' for Active; 'I' for Inactive)
REMARK    1  A    between atoms: C4_4  and  C8_8 
ROOT
HETATM    1  C5  UNL     1     -34.983  13.284  -4.458  1.00 20.00     0.002 C 
HETATM    2  C6  UNL     1     -33.996  13.919  -3.478  1.00 20.00     0.011 C 
HETATM    3  C7  UNL     1     -34.862  14.130  -5.717  1.00 20.00     0.021 C 
HETATM    4  C8  UNL     1     -33.805  15.380  -3.945  1.00 20.00     0.037 C 
HETATM    5  C9  UNL     1     -34.754  15.538  -5.149  1.00 20.00     0.090 C 
HETATM    6 CL11 UNL     1     -34.138  16.689  -6.352  1.00 20.00    -0.124 Cl
ENDROOT
BRANCH   4   7
HETATM    7  C4  UNL     1     -34.045  16.410  -2.863  1.00 20.00    -0.046 A 
HETATM    8  C1  UNL     1     -34.624  16.111  -1.596  1.00 20.00     0.015 A 
HETATM    9  C2  UNL     1     -34.730  17.228  -0.799  1.00 20.00     0.050 A 
HETATM   10  S10 UNL     1     -34.131  18.631  -1.577  1.00 20.00    -0.113 SA
HETATM   11  C3  UNL     1     -33.729  17.745  -2.985  1.00 20.00     0.057 A 
ENDBRANCH   4   7
TORSDOF 1
ENDMDL
MODEL 3
REMARK VINA RESULT:      -4.5      2.493      4.430
REMARK  1 active torsions:
REMARK  status: ('A' for Active; 'I' for Inactive)
REMARK    1  A    between atoms: C4_4  and  C8_8 
ROOT
HETATM    1  C5  UNL     1     -33.574  17.809  -0.339  1.00 20.00     0.002 C 
HETATM    2  C6  UNL     1     -34.615  16.754  -0.712  1.00 20.00     0.011 C 
HETATM    3  C7  UNL     1     -33.675  18.847  -1.446  1.00 20.00     0.021 C 
HETATM    4  C8  UNL     1     -34.835  16.886  -2.236  1.00 20.00     0.037 C 
HETATM    5  C9  UNL     1     -33.848  17.981  -2.685  1.00 20.00     0.090 C 
HETATM    6 CL11 UNL     1     -34.457  18.918  -4.065  1.00 20.00    -0.124 Cl
ENDROOT
BRANCH   4   7
HETATM    7  C4  UNL     1     -34.668  15.589  -2.998  1.00 20.00    -0.046 A 
HETATM    8  C1  UNL     1     -33.407  14.985  -3.270  1.00 20.00     0.015 A 
HETATM    9  C2  UNL     1     -33.538  13.812  -3.980  1.00 20.00     0.050 A 
HETATM   10  S10 UNL     1     -35.176  13.444  -4.316  1.00 20.00    -0.113 SA
HETATM   11  C3  UNL     1     -35.715  14.856  -3.511  1.00 20.00     0.057 A 
ENDBRANCH   4   7
TORSDOF 1
ENDMDL
MODEL 4
REMARK VINA RESULT:      -4.4      1.702      2.152
REMARK  1 active torsions:
REMARK  status: ('A' for Active; 'I' for Inactive)
REMARK    1  A    between atoms: C4_4  and  C8_8 
ROOT
HETATM    1  C5  UNL     1     -36.130  14.678  -4.948  1.00 20.00     0.002 C 
HETATM    2  C6  UNL     1     -36.301  15.138  -3.501  1.00 20.00     0.011 C 
HETATM    3  C7  UNL     1     -34.859  13.842  -4.931  1.00 20.00     0.021 C 
HETATM    4  C8  UNL     1     -34.895  15.078  -2.861  1.00 20.00     0.037 C 
HETATM    5  C9  UNL     1     -33.958  14.644  -4.004  1.00 20.00     0.090 C 
HETATM    6 CL11 UNL     1     -32.583  13.682  -3.426  1.00 20.00    -0.124 Cl
ENDROOT
BRANCH   4   7
HETATM    7  C4  UNL     1     -34.464  16.368  -2.197  1.00 20.00    -0.046 A 
HETATM    8  C1  UNL     1     -34.588  16.622  -0.801  1.00 20.00     0.015 A 
HETATM    9  C2  UNL     1     -34.120  17.872  -0.460  1.00 20.00     0.050 A 
HETATM   10  S10 UNL     1     -33.536  18.732  -1.820  1.00 20.00    -0.113 SA
HETATM   11  C3  UNL     1     -33.908  17.433  -2.871  1.00 20.00     0.057 A 
ENDBRANCH   4   7
TORSDOF 1
ENDMDL
MODEL 5
REMARK VINA RESULT:      -4.4     12.415     14.230
REMARK  1 active torsions:
REMARK  status: ('A' for Active; 'I' for Inactive)
REMARK    1  A    between atoms: C4_4  and  C8_8 
ROOT
HETATM    1  C5  UNL     1     -40.657   6.131  -0.064  1.00 20.00     0.002 C 
HETATM    2  C6  UNL     1     -41.684   5.011  -0.227  1.00 20.00     0.011 C 
HETATM    3  C7  UNL     1     -41.180   7.255  -0.945  1.00 20.00     0.021 C 
HETATM    4  C8  UNL     1     -42.389   5.267  -1.579  1.00 20.00     0.037 C 
HETATM    5  C9  UNL     1     -41.678   6.500  -2.169  1.00 20.00     0.090 C 
HETATM    6 CL11 UNL     1     -42.761   7.496  -3.162  1.00 20.00    -0.124 Cl
ENDROOT
BRANCH   4   7
HETATM    7  C4  UNL     1     -42.382   4.076  -2.513  1.00 20.00    -0.046 A 
HETATM    8  C1  UNL     1     -41.302   3.153  -2.615  1.00 20.00     0.015 A 
HETATM    9  C2  UNL     1     -41.552   2.164  -3.539  1.00 20.00     0.050 A 
HETATM   10  S10 UNL     1     -43.085   2.350  -4.280  1.00 20.00    -0.113 SA
HETATM   11  C3  UNL     1     -43.417   3.758  -3.364  1.00 20.00     0.057 A 
ENDBRANCH   4   7
TORSDOF 1
ENDMDL
MODEL 6
REMARK VINA RESULT:      -4.2      2.292      3.028
REMARK  1 active torsions:
REMARK  status: ('A' for Active; 'I' for Inactive)
REMARK    1  A    between atoms: C4_4  and  C8_8 
ROOT
HETATM    1  C5  UNL     1     -34.405  13.555  -3.720  1.00 20.00     0.002 C 
HETATM    2  C6  UNL     1     -33.330  14.637  -3.615  1.00 20.00     0.011 C 
HETATM    3  C7  UNL     1     -34.698  13.457  -5.209  1.00 20.00     0.021 C 
HETATM    4  C8  UNL     1     -33.470  15.507  -4.885  1.00 20.00     0.037 C 
HETATM    5  C9  UNL     1     -34.677  14.917  -5.639  1.00 20.00     0.090 C 
HETATM    6 CL11 UNL     1     -34.525  15.084  -7.400  1.00 20.00    -0.124 Cl
ENDROOT
BRANCH   4   7
HETATM    7  C4  UNL     1     -33.611  16.988  -4.607  1.00 20.00    -0.046 A 
HETATM    8  C1  UNL     1     -33.511  17.997  -5.607  1.00 20.00     0.015 A 
HETATM    9  C2  UNL     1     -33.678  19.260  -5.086  1.00 20.00     0.050 A 
HETATM   10  S10 UNL     1     -33.954  19.226  -3.396  1.00 20.00    -0.113 SA
HETATM   11  C3  UNL     1     -33.851  17.518  -3.358  1.00 20.00     0.057 A 
ENDBRANCH   4   7
TORSDOF 1
ENDMDL
MODEL 7
REMARK VINA RESULT:      -4.1      2.216      2.561
REMARK  1 active torsions:
REMARK  status: ('A' for Active; 'I' for Inactive)
REMARK    1  A    between atoms: C4_4  and  C8_8 
ROOT
HETATM    1  C5  UNL     1     -34.592  16.364  -7.091  1.00 20.00     0.002 C 
HETATM    2  C6  UNL     1     -35.407  16.915  -5.922  1.00 20.00     0.011 C 
HETATM    3  C7  UNL     1     -34.518  14.868  -6.828  1.00 20.00     0.021 C 
HETATM    4  C8  UNL     1     -35.261  15.890  -4.774  1.00 20.00     0.037 C 
HETATM    5  C9  UNL     1     -34.302  14.816  -5.322  1.00 20.00     0.090 C 
HETATM    6 CL11 UNL     1     -34.642  13.204  -4.662  1.00 20.00    -0.124 Cl
ENDROOT
BRANCH   4   7
HETATM    7  C4  UNL     1     -34.793  16.491  -3.466  1.00 20.00    -0.046 A 
HETATM    8  C1  UNL     1     -34.929  15.847  -2.203  1.00 20.00     0.015 A 
HETATM    9  C2  UNL     1     -34.422  16.610  -1.175  1.00 20.00     0.050 A 
HETATM   10  S10 UNL     1     -33.786  18.098  -1.735  1.00 20.00    -0.113 SA
HETATM   11  C3  UNL     1     -34.188  17.723  -3.356  1.00 20.00     0.057 A 
ENDBRANCH   4   7
TORSDOF 1
ENDMDL
MODEL 8
REMARK VINA RESULT:      -4.1      3.685      4.989
REMARK  1 active torsions:
REMARK  status: ('A' for Active; 'I' for Inactive)
REMARK    1  A    between atoms: C4_4  and  C8_8 
ROOT
HETATM    1  C5  UNL     1     -33.288  13.639  -3.788  1.00 20.00     0.002 C 
HETATM    2  C6  UNL     1     -34.807  13.781  -3.877  1.00 20.00     0.011 C 
HETATM    3  C7  UNL     1     -32.775  15.071  -3.761  1.00 20.00     0.021 C 
HETATM    4  C8  UNL     1     -35.074  15.177  -4.484  1.00 20.00     0.037 C 
HETATM    5  C9  UNL     1     -33.676  15.754  -4.780  1.00 20.00     0.090 C 
HETATM    6 CL11 UNL     1     -33.625  17.521  -4.625  1.00 20.00    -0.124 Cl
ENDROOT
BRANCH   4   7
HETATM    7  C4  UNL     1     -35.977  15.160  -5.697  1.00 20.00    -0.046 A 
HETATM    8  C1  UNL     1     -35.558  14.744  -6.994  1.00 20.00     0.015 A 
HETATM    9  C2  UNL     1     -36.575  14.826  -7.918  1.00 20.00     0.050 A 
HETATM   10  S10 UNL     1     -38.029  15.404  -7.222  1.00 20.00    -0.113 SA
HETATM   11  C3  UNL     1     -37.300  15.546  -5.680  1.00 20.00     0.057 A 
ENDBRANCH   4   7
TORSDOF 1
ENDMDL
MODEL 9
REMARK VINA RESULT:      -4.0      2.816      4.920
REMARK  1 active torsions:
REMARK  status: ('A' for Active; 'I' for Inactive)
REMARK    1  A    between atoms: C4_4  and  C8_8 
ROOT
HETATM    1  C5  UNL     1     -35.290  17.763   1.623  1.00 20.00     0.002 C 
HETATM    2  C6  UNL     1     -35.754  17.937   0.177  1.00 20.00     0.011 C 
HETATM    3  C7  UNL     1     -33.972  18.518   1.691  1.00 20.00     0.021 C 
HETATM    4  C8  UNL     1     -34.483  18.237  -0.650  1.00 20.00     0.037 C 
HETATM    5  C9  UNL     1     -33.324  18.154   0.362  1.00 20.00     0.090 C 
HETATM    6 CL11 UNL     1     -31.990  19.253  -0.043  1.00 20.00    -0.124 Cl
ENDROOT
BRANCH   4   7
HETATM    7  C4  UNL     1     -34.294  17.326  -1.843  1.00 20.00    -0.046 A 
HETATM    8  C1  UNL     1     -34.677  15.955  -1.863  1.00 20.00     0.015 A 
HETATM    9  C2  UNL     1     -34.394  15.356  -3.071  1.00 20.00     0.050 A 
HETATM   10  S10 UNL     1     -33.667  16.446  -4.173  1.00 20.00    -0.113 SA
HETATM   11  C3  UNL     1     -33.731  17.724  -3.035  1.00 20.00     0.057 A 
ENDBRANCH   4   7
TORSDOF 1
ENDMDL
