MODEL 1
REMARK VINA RESULT:      -4.7      0.000      0.000
REMARK  1 active torsions:
REMARK  status: ('A' for Active; 'I' for Inactive)
REMARK    1  A    between atoms: C4_4  and  C8_8 
ROOT
HETATM    1  C5  UNL     1     -34.220  17.997  -0.186  1.00 20.00     0.002 C 
HETATM    2  C6  UNL     1     -34.672  16.634  -0.718  1.00 20.00     0.011 C 
HETATM    3  C7  UNL     1     -33.400  18.643  -1.301  1.00 20.00     0.021 C 
HETATM    4  C8  UNL     1     -33.892  16.417  -2.027  1.00 20.00     0.037 C 
HETATM    5  C9  UNL     1     -33.741  17.855  -2.564  1.00 20.00     0.090 C 
HETATM    6 CL11 UNL     1     -35.258  18.482  -3.283  1.00 20.00    -0.124 Cl
ENDROOT
BRANCH   4   7
HETATM    7  C4  UNL     1     -34.428  15.386  -2.997  1.00 20.00    -0.046 A 
HETATM    8  C1  UNL     1     -35.815  15.134  -3.202  1.00 20.00     0.015 A 
HETATM    9  C2  UNL     1     -36.029  14.147  -4.139  1.00 20.00     0.050 A 
HETATM   10  S10 UNL     1     -34.561  13.526  -4.764  1.00 20.00    -0.113 SA
HETATM   11  C3  UNL     1     -33.635  14.580  -3.784  1.00 20.00     0.057 A 
ENDBRANCH   4   7
TORSDOF 1
ENDMDL
MODEL 2
REMARK VINA RESULT:      -4.7      2.156      4.374
REMARK  1 active torsions:
REMARK  status: ('A' for Active; 'I' for Inactive)
REMARK    1  A    between atoms: C4_4  and  C8_8 
ROOT
HETATM    1  C5  UNL     1     -34.090  13.653  -4.601  1.00 20.00     0.002 C 
HETATM    2  C6  UNL     1     -33.416  14.736  -3.754  1.00 20.00     0.011 C 
HETATM    3  C7  UNL     1     -35.565  13.653  -4.204  1.00 20.00     0.021 C 
HETATM    4  C8  UNL     1     -34.464  15.161  -2.710  1.00 20.00     0.037 C 
HETATM    5  C9  UNL     1     -35.790  14.976  -3.476  1.00 20.00     0.090 C 
HETATM    6 CL11 UNL     1     -36.083  16.285  -4.665  1.00 20.00    -0.124 Cl
ENDROOT
BRANCH   4   7
HETATM    7  C4  UNL     1     -34.261  16.494  -2.020  1.00 20.00    -0.046 A 
HETATM    8  C1  UNL     1     -34.613  16.748  -0.663  1.00 20.00     0.015 A 
HETATM    9  C2  UNL     1     -34.324  18.041  -0.287  1.00 20.00     0.050 A 
HETATM   10  S10 UNL     1     -33.632  18.943  -1.567  1.00 20.00    -0.113 SA
HETATM   11  C3  UNL     1     -33.716  17.603  -2.629  1.00 20.00     0.057 A 
ENDBRANCH   4   7
TORSDOF 1
ENDMDL
MODEL 3
REMARK VINA RESULT:      -4.6      0.776      1.287
REMARK  1 active torsions:
REMARK  status: ('A' for Active; 'I' for Inactive)
REMARK    1  A    between atoms: C4_4  and  C8_8 
ROOT
HETATM    1  C5  UNL     1     -34.303  18.180   0.125  1.00 20.00     0.002 C 
HETATM    2  C6  UNL     1     -34.724  16.841  -0.487  1.00 20.00     0.011 C 
HETATM    3  C7  UNL     1     -33.398  18.857  -0.903  1.00 20.00     0.021 C 
HETATM    4  C8  UNL     1     -33.851  16.664  -1.743  1.00 20.00     0.037 C 
HETATM    5  C9  UNL     1     -33.650  18.119  -2.215  1.00 20.00     0.090 C 
HETATM    6 CL11 UNL     1     -35.106  18.786  -3.020  1.00 20.00    -0.124 Cl
ENDROOT
BRANCH   4   7
HETATM    7  C4  UNL     1     -34.323  15.673  -2.786  1.00 20.00    -0.046 A 
HETATM    8  C1  UNL     1     -33.448  14.947  -3.645  1.00 20.00     0.015 A 
HETATM    9  C2  UNL     1     -34.135  14.114  -4.500  1.00 20.00     0.050 A 
HETATM   10  S10 UNL     1     -35.829  14.211  -4.268  1.00 20.00    -0.113 SA
HETATM   11  C3  UNL     1     -35.646  15.367  -3.019  1.00 20.00     0.057 A 
ENDBRANCH   4   7
TORSDOF 1
ENDMDL
MODEL 4
REMARK VINA RESULT:      -4.6      2.549      4.424
REMARK  1 active torsions:
REMARK  status: ('A' for Active; 'I' for Inactive)
REMARK    1  A    between atoms: C4_4  and  C8_8 
ROOT
HETATM    1  C5  UNL     1     -34.360  13.316  -4.907  1.00 20.00     0.002 C 
HETATM    2  C6  UNL     1     -34.594  13.912  -3.516  1.00 20.00     0.011 C 
HETATM    3  C7  UNL     1     -34.783  14.388  -5.910  1.00 20.00     0.021 C 
HETATM    4  C8  UNL     1     -35.382  15.214  -3.747  1.00 20.00     0.037 C 
HETATM    5  C9  UNL     1     -34.844  15.688  -5.113  1.00 20.00     0.090 C 
HETATM    6 CL11 UNL     1     -33.207  16.409  -4.994  1.00 20.00    -0.124 Cl
ENDROOT
BRANCH   4   7
HETATM    7  C4  UNL     1     -35.384  16.235  -2.629  1.00 20.00    -0.046 A 
HETATM    8  C1  UNL     1     -34.503  16.191  -1.510  1.00 20.00     0.015 A 
HETATM    9  C2  UNL     1     -34.716  17.240  -0.642  1.00 20.00     0.050 A 
HETATM   10  S10 UNL     1     -35.975  18.271  -1.176  1.00 20.00    -0.113 SA
HETATM   11  C3  UNL     1     -36.237  17.316  -2.573  1.00 20.00     0.057 A 
ENDBRANCH   4   7
TORSDOF 1
ENDMDL
MODEL 5
REMARK VINA RESULT:      -4.5      2.226      4.452
REMARK  1 active torsions:
REMARK  status: ('A' for Active; 'I' for Inactive)
REMARK    1  A    between atoms: C4_4  and  C8_8 
ROOT
HETATM    1  C5  UNL     1     -34.083  13.647  -4.588  1.00 20.00     0.002 C 
HETATM    2  C6  UNL     1     -33.411  14.725  -3.734  1.00 20.00     0.011 C 
HETATM    3  C7  UNL     1     -35.562  13.654  -4.204  1.00 20.00     0.021 C 
HETATM    4  C8  UNL     1     -34.466  15.154  -2.698  1.00 20.00     0.037 C 
HETATM    5  C9  UNL     1     -35.786  14.977  -3.476  1.00 20.00     0.090 C 
HETATM    6 CL11 UNL     1     -36.062  16.289  -4.666  1.00 20.00    -0.124 Cl
ENDROOT
BRANCH   4   7
HETATM    7  C4  UNL     1     -34.263  16.485  -2.005  1.00 20.00    -0.046 A 
HETATM    8  C1  UNL     1     -33.701  17.632  -2.636  1.00 20.00     0.015 A 
HETATM    9  C2  UNL     1     -33.629  18.710  -1.782  1.00 20.00     0.050 A 
HETATM   10  S10 UNL     1     -34.235  18.337  -0.224  1.00 20.00    -0.113 SA
HETATM   11  C3  UNL     1     -34.598  16.731  -0.691  1.00 20.00     0.057 A 
ENDBRANCH   4   7
TORSDOF 1
ENDMDL
MODEL 6
REMARK VINA RESULT:      -4.5      2.524      4.564
REMARK  1 active torsions:
REMARK  status: ('A' for Active; 'I' for Inactive)
REMARK    1  A    between atoms: C4_4  and  C8_8 
ROOT
HETATM    1  C5  UNL     1     -34.538  14.488  -6.101  1.00 20.00     0.002 C 
HETATM    2  C6  UNL     1     -34.179  15.764  -5.335  1.00 20.00     0.011 C 
HETATM    3  C7  UNL     1     -34.849  13.427  -5.047  1.00 20.00     0.021 C 
HETATM    4  C8  UNL     1     -34.044  15.342  -3.861  1.00 20.00     0.037 C 
HETATM    5  C9  UNL     1     -35.074  14.198  -3.749  1.00 20.00     0.090 C 
HETATM    6 CL11 UNL     1     -36.761  14.798  -3.679  1.00 20.00    -0.124 Cl
ENDROOT
BRANCH   4   7
HETATM    7  C4  UNL     1     -34.127  16.431  -2.813  1.00 20.00    -0.046 A 
HETATM    8  C1  UNL     1     -34.537  16.209  -1.466  1.00 20.00     0.015 A 
HETATM    9  C2  UNL     1     -34.523  17.368  -0.722  1.00 20.00     0.050 A 
HETATM   10  S10 UNL     1     -34.018  18.718  -1.647  1.00 20.00    -0.113 SA
HETATM   11  C3  UNL     1     -33.815  17.753  -3.046  1.00 20.00     0.057 A 
ENDBRANCH   4   7
TORSDOF 1
ENDMDL
MODEL 7
REMARK VINA RESULT:      -4.2      2.840      3.825
REMARK  1 active torsions:
REMARK  status: ('A' for Active; 'I' for Inactive)
REMARK    1  A    between atoms: C4_4  and  C8_8 
ROOT
HETATM    1  C5  UNL     1     -33.320  13.624  -3.708  1.00 20.00     0.002 C 
HETATM    2  C6  UNL     1     -34.808  13.594  -4.068  1.00 20.00     0.011 C 
HETATM    3  C7  UNL     1     -32.916  15.097  -3.676  1.00 20.00     0.021 C 
HETATM    4  C8  UNL     1     -35.167  15.032  -4.483  1.00 20.00     0.037 C 
HETATM    5  C9  UNL     1     -34.227  15.876  -3.598  1.00 20.00     0.090 C 
HETATM    6 CL11 UNL     1     -34.783  15.966  -1.896  1.00 20.00    -0.124 Cl
ENDROOT
BRANCH   4   7
HETATM    7  C4  UNL     1     -36.631  15.416  -4.474  1.00 20.00    -0.046 A 
HETATM    8  C1  UNL     1     -37.649  14.653  -3.833  1.00 20.00     0.015 A 
HETATM    9  C2  UNL     1     -38.894  15.226  -3.977  1.00 20.00     0.050 A 
HETATM   10  S10 UNL     1     -38.832  16.678  -4.883  1.00 20.00    -0.113 SA
HETATM   11  C3  UNL     1     -37.137  16.544  -5.083  1.00 20.00     0.057 A 
ENDBRANCH   4   7
TORSDOF 1
ENDMDL
MODEL 8
REMARK VINA RESULT:      -4.2      2.700      4.376
REMARK  1 active torsions:
REMARK  status: ('A' for Active; 'I' for Inactive)
REMARK    1  A    between atoms: C4_4  and  C8_8 
ROOT
HETATM    1  C5  UNL     1     -33.285  16.189  -4.757  1.00 20.00     0.002 C 
HETATM    2  C6  UNL     1     -33.776  17.293  -3.817  1.00 20.00     0.011 C 
HETATM    3  C7  UNL     1     -33.404  14.879  -3.980  1.00 20.00     0.021 C 
HETATM    4  C8  UNL     1     -33.927  16.629  -2.437  1.00 20.00     0.037 C 
HETATM    5  C9  UNL     1     -34.329  15.186  -2.805  1.00 20.00     0.090 C 
HETATM    6 CL11 UNL     1     -36.039  15.061  -3.326  1.00 20.00    -0.124 Cl
ENDROOT
BRANCH   4   7
HETATM    7  C4  UNL     1     -34.795  17.333  -1.415  1.00 20.00    -0.046 A 
HETATM    8  C1  UNL     1     -34.739  17.078  -0.015  1.00 20.00     0.015 A 
HETATM    9  C2  UNL     1     -35.634  17.854   0.689  1.00 20.00     0.050 A 
HETATM   10  S10 UNL     1     -36.539  18.883  -0.338  1.00 20.00    -0.113 SA
HETATM   11  C3  UNL     1     -35.732  18.294  -1.728  1.00 20.00     0.057 A 
ENDBRANCH   4   7
TORSDOF 1
ENDMDL
MODEL 9
REMARK VINA RESULT:      -4.1      3.249      4.623
REMARK  1 active torsions:
REMARK  status: ('A' for Active; 'I' for Inactive)
REMARK    1  A    between atoms: C4_4  and  C8_8 
ROOT
HETATM    1  C5  UNL     1     -34.801  13.268  -4.438  1.00 20.00     0.002 C 
HETATM    2  C6  UNL     1     -35.283  14.500  -5.207  1.00 20.00     0.011 C 
HETATM    3  C7  UNL     1     -33.471  13.657  -3.794  1.00 20.00     0.021 C 
HETATM    4  C8  UNL     1     -34.102  15.487  -5.199  1.00 20.00     0.037 C 
HETATM    5  C9  UNL     1     -33.426  15.182  -3.846  1.00 20.00     0.090 C 
HETATM    6 CL11 UNL     1     -34.328  15.867  -2.457  1.00 20.00    -0.124 Cl
ENDROOT
BRANCH   4   7
HETATM    7  C4  UNL     1     -34.405  16.941  -5.491  1.00 20.00    -0.046 A 
HETATM    8  C1  UNL     1     -33.461  17.996  -5.333  1.00 20.00     0.015 A 
HETATM    9  C2  UNL     1     -33.993  19.222  -5.667  1.00 20.00     0.050 A 
HETATM   10  S10 UNL     1     -35.626  19.098  -6.167  1.00 20.00    -0.113 SA
HETATM   11  C3  UNL     1     -35.623  17.401  -5.940  1.00 20.00     0.057 A 
ENDBRANCH   4   7
TORSDOF 1
ENDMDL
