MODEL 1
REMARK VINA RESULT:      -5.2      0.000      0.000
REMARK  1 active torsions:
REMARK  status: ('A' for Active; 'I' for Inactive)
REMARK    1  A    between atoms: C8_8  and  C11_11 
ROOT
HETATM    1  C1  UNL     1     -34.552  13.764  -4.762  1.00 20.00     0.064 C 
HETATM    2  C2  UNL     1     -34.990  17.565  -4.918  1.00 20.00     0.002 C 
HETATM    3  C3  UNL     1     -35.295  16.081  -5.097  1.00 20.00     0.019 C 
HETATM    4  C4  UNL     1     -33.064  15.528  -3.878  1.00 20.00     0.019 C 
HETATM    5  C5  UNL     1     -35.065  18.011  -3.458  1.00 20.00     0.005 C 
HETATM    6  C6  UNL     1     -33.657  16.040  -2.564  1.00 20.00     0.006 C 
HETATM    7  C7  UNL     1     -34.083  15.151  -4.963  1.00 20.00     0.093 C 
HETATM    8  C8  UNL     1     -33.899  17.560  -2.566  1.00 20.00    -0.011 C 
HETATM    9  N12 UNL     1     -34.920  12.674  -4.605  1.00 20.00    -0.197 NA
ENDROOT
BRANCH   8  10
HETATM   10  C11 UNL     1     -34.147  18.043  -1.132  1.00 20.00    -0.019 C 
HETATM   11  C9  UNL     1     -34.767  16.927  -0.297  1.00 20.00     0.010 C 
HETATM   12  C10 UNL     1     -32.847  18.532  -0.504  1.00 20.00     0.010 C 
ENDBRANCH   8  10
TORSDOF 1
ENDMDL
MODEL 2
REMARK VINA RESULT:      -5.1      1.578      1.949
REMARK  1 active torsions:
REMARK  status: ('A' for Active; 'I' for Inactive)
REMARK    1  A    between atoms: C8_8  and  C11_11 
ROOT
HETATM    1  C1  UNL     1     -37.030  14.718  -3.991  1.00 20.00     0.064 C 
HETATM    2  C2  UNL     1     -34.451  17.493  -4.560  1.00 20.00     0.002 C 
HETATM    3  C3  UNL     1     -35.772  16.731  -4.625  1.00 20.00     0.019 C 
HETATM    4  C4  UNL     1     -34.716  14.877  -3.136  1.00 20.00     0.019 C 
HETATM    5  C5  UNL     1     -34.156  18.044  -3.166  1.00 20.00     0.005 C 
HETATM    6  C6  UNL     1     -34.711  15.839  -1.945  1.00 20.00     0.006 C 
HETATM    7  C7  UNL     1     -35.677  15.240  -4.277  1.00 20.00     0.093 C 
HETATM    8  C8  UNL     1     -33.724  17.006  -2.121  1.00 20.00    -0.011 C 
HETATM    9  N12 UNL     1     -38.092  14.308  -3.767  1.00 20.00    -0.197 NA
ENDROOT
BRANCH   8  10
HETATM   10  C11 UNL     1     -33.514  17.708  -0.773  1.00 20.00    -0.019 C 
HETATM   11  C9  UNL     1     -33.281  19.201  -0.984  1.00 20.00     0.010 C 
HETATM   12  C10 UNL     1     -34.711  17.470   0.141  1.00 20.00     0.010 C 
ENDBRANCH   8  10
TORSDOF 1
ENDMDL
MODEL 3
REMARK VINA RESULT:      -5.0      1.879      2.883
REMARK  1 active torsions:
REMARK  status: ('A' for Active; 'I' for Inactive)
REMARK    1  A    between atoms: C8_8  and  C11_11 
ROOT
HETATM    1  C1  UNL     1     -36.655  15.170  -6.210  1.00 20.00     0.064 C 
HETATM    2  C2  UNL     1     -33.691  13.897  -4.146  1.00 20.00     0.002 C 
HETATM    3  C3  UNL     1     -34.510  14.328  -5.358  1.00 20.00     0.019 C 
HETATM    4  C4  UNL     1     -36.481  14.901  -3.759  1.00 20.00     0.019 C 
HETATM    5  C5  UNL     1     -33.310  15.069  -3.243  1.00 20.00     0.005 C 
HETATM    6  C6  UNL     1     -35.684  16.084  -3.204  1.00 20.00     0.006 C 
HETATM    7  C7  UNL     1     -36.026  14.381  -5.130  1.00 20.00     0.093 C 
HETATM    8  C8  UNL     1     -34.450  15.649  -2.393  1.00 20.00    -0.011 C 
HETATM    9  N12 UNL     1     -37.149  15.789  -7.058  1.00 20.00    -0.197 NA
ENDROOT
BRANCH   8  10
HETATM   10  C11 UNL     1     -33.919  16.841  -1.586  1.00 20.00    -0.019 C 
HETATM   11  C9  UNL     1     -33.931  18.105  -2.439  1.00 20.00     0.010 C 
HETATM   12  C10 UNL     1     -34.746  17.033  -0.319  1.00 20.00     0.010 C 
ENDBRANCH   8  10
TORSDOF 1
ENDMDL
MODEL 4
REMARK VINA RESULT:      -4.9      2.315      4.995
REMARK  1 active torsions:
REMARK  status: ('A' for Active; 'I' for Inactive)
REMARK    1  A    between atoms: C8_8  and  C11_11 
ROOT
HETATM    1  C1  UNL     1     -34.064  16.276  -2.313  1.00 20.00     0.064 C 
HETATM    2  C2  UNL     1     -34.340  13.325  -4.739  1.00 20.00     0.002 C 
HETATM    3  C3  UNL     1     -34.569  14.184  -3.500  1.00 20.00     0.019 C 
HETATM    4  C4  UNL     1     -33.037  16.009  -4.545  1.00 20.00     0.019 C 
HETATM    5  C5  UNL     1     -34.996  13.907  -5.990  1.00 20.00     0.005 C 
HETATM    6  C6  UNL     1     -34.106  16.298  -5.602  1.00 20.00     0.006 C 
HETATM    7  C7  UNL     1     -33.532  15.293  -3.281  1.00 20.00     0.093 C 
HETATM    8  C8  UNL     1     -34.302  15.137  -6.592  1.00 20.00    -0.011 C 
HETATM    9  N12 UNL     1     -34.481  17.047  -1.553  1.00 20.00    -0.197 NA
ENDROOT
BRANCH   8  10
HETATM   10  C11 UNL     1     -35.105  15.625  -7.804  1.00 20.00    -0.019 C 
HETATM   11  C9  UNL     1     -36.536  15.100  -7.738  1.00 20.00     0.010 C 
HETATM   12  C10 UNL     1     -35.090  17.148  -7.872  1.00 20.00     0.010 C 
ENDBRANCH   8  10
TORSDOF 1
ENDMDL
MODEL 5
REMARK VINA RESULT:      -4.9      2.533      4.860
REMARK  1 active torsions:
REMARK  status: ('A' for Active; 'I' for Inactive)
REMARK    1  A    between atoms: C8_8  and  C11_11 
ROOT
HETATM    1  C1  UNL     1     -33.872  17.174  -1.886  1.00 20.00     0.064 C 
HETATM    2  C2  UNL     1     -36.132  14.670  -3.700  1.00 20.00     0.002 C 
HETATM    3  C3  UNL     1     -35.714  15.836  -2.810  1.00 20.00     0.019 C 
HETATM    4  C4  UNL     1     -33.237  15.379  -3.462  1.00 20.00     0.019 C 
HETATM    5  C5  UNL     1     -35.919  14.955  -5.186  1.00 20.00     0.005 C 
HETATM    6  C6  UNL     1     -33.523  15.866  -4.884  1.00 20.00     0.006 C 
HETATM    7  C7  UNL     1     -34.239  15.834  -2.391  1.00 20.00     0.093 C 
HETATM    8  C8  UNL     1     -34.460  14.928  -5.664  1.00 20.00    -0.011 C 
HETATM    9  N12 UNL     1     -33.584  18.226  -1.489  1.00 20.00    -0.197 NA
ENDROOT
BRANCH   8  10
HETATM   10  C11 UNL     1     -34.413  15.279  -7.156  1.00 20.00    -0.019 C 
HETATM   11  C9  UNL     1     -35.480  14.499  -7.918  1.00 20.00     0.010 C 
HETATM   12  C10 UNL     1     -34.596  16.780  -7.353  1.00 20.00     0.010 C 
ENDBRANCH   8  10
TORSDOF 1
ENDMDL
MODEL 6
REMARK VINA RESULT:      -4.8      2.840      4.768
REMARK  1 active torsions:
REMARK  status: ('A' for Active; 'I' for Inactive)
REMARK    1  A    between atoms: C8_8  and  C11_11 
ROOT
HETATM    1  C1  UNL     1     -32.421  19.135  -0.255  1.00 20.00     0.064 C 
HETATM    2  C2  UNL     1     -34.596  18.768  -3.386  1.00 20.00     0.002 C 
HETATM    3  C3  UNL     1     -33.442  19.205  -2.488  1.00 20.00     0.019 C 
HETATM    4  C4  UNL     1     -34.493  17.822  -0.551  1.00 20.00     0.019 C 
HETATM    5  C5  UNL     1     -34.551  17.277  -3.721  1.00 20.00     0.005 C 
HETATM    6  C6  UNL     1     -34.138  16.527  -1.286  1.00 20.00     0.006 C 
HETATM    7  C7  UNL     1     -33.705  19.066  -0.984  1.00 20.00     0.093 C 
HETATM    8  C8  UNL     1     -34.947  16.329  -2.580  1.00 20.00    -0.011 C 
HETATM    9  N12 UNL     1     -31.413  19.190   0.317  1.00 20.00    -0.197 NA
ENDROOT
BRANCH   8  10
HETATM   10  C11 UNL     1     -34.803  14.879  -3.059  1.00 20.00    -0.019 C 
HETATM   11  C9  UNL     1     -35.976  14.499  -3.957  1.00 20.00     0.010 C 
HETATM   12  C10 UNL     1     -33.479  14.691  -3.790  1.00 20.00     0.010 C 
ENDBRANCH   8  10
TORSDOF 1
ENDMDL
MODEL 7
REMARK VINA RESULT:      -4.5      2.346      3.669
REMARK  1 active torsions:
REMARK  status: ('A' for Active; 'I' for Inactive)
REMARK    1  A    between atoms: C8_8  and  C11_11 
ROOT
HETATM    1  C1  UNL     1     -37.012  15.283  -7.868  1.00 20.00     0.064 C 
HETATM    2  C2  UNL     1     -34.473  17.793  -6.482  1.00 20.00     0.002 C 
HETATM    3  C3  UNL     1     -35.803  17.220  -6.961  1.00 20.00     0.019 C 
HETATM    4  C4  UNL     1     -34.617  14.940  -7.366  1.00 20.00     0.019 C 
HETATM    5  C5  UNL     1     -34.017  17.195  -5.152  1.00 20.00     0.005 C 
HETATM    6  C6  UNL     1     -34.466  14.752  -5.855  1.00 20.00     0.006 C 
HETATM    7  C7  UNL     1     -35.692  15.944  -7.805  1.00 20.00     0.093 C 
HETATM    8  C8  UNL     1     -33.488  15.755  -5.219  1.00 20.00    -0.011 C 
HETATM    9  N12 UNL     1     -38.049  14.764  -7.917  1.00 20.00    -0.197 NA
ENDROOT
BRANCH   8  10
HETATM   10  C11 UNL     1     -33.120  15.289  -3.805  1.00 20.00    -0.019 C 
HETATM   11  C9  UNL     1     -33.945  16.043  -2.767  1.00 20.00     0.010 C 
HETATM   12  C10 UNL     1     -33.327  13.784  -3.672  1.00 20.00     0.010 C 
ENDBRANCH   8  10
TORSDOF 1
ENDMDL
MODEL 8
REMARK VINA RESULT:      -4.2      2.510      3.472
REMARK  1 active torsions:
REMARK  status: ('A' for Active; 'I' for Inactive)
REMARK    1  A    between atoms: C8_8  and  C11_11 
ROOT
HETATM    1  C1  UNL     1     -37.340  14.526  -3.860  1.00 20.00     0.064 C 
HETATM    2  C2  UNL     1     -34.484  14.881  -6.387  1.00 20.00     0.002 C 
HETATM    3  C3  UNL     1     -35.877  14.601  -5.833  1.00 20.00     0.019 C 
HETATM    4  C4  UNL     1     -35.022  15.292  -3.474  1.00 20.00     0.019 C 
HETATM    5  C5  UNL     1     -34.130  16.368  -6.371  1.00 20.00     0.005 C 
HETATM    6  C6  UNL     1     -34.914  16.745  -3.941  1.00 20.00     0.006 C 
HETATM    7  C7  UNL     1     -35.940  14.393  -4.314  1.00 20.00     0.093 C 
HETATM    8  C8  UNL     1     -33.810  16.959  -4.991  1.00 20.00    -0.011 C 
HETATM    9  N12 UNL     1     -38.439  14.631  -3.504  1.00 20.00    -0.197 NA
ENDROOT
BRANCH   8  10
HETATM   10  C11 UNL     1     -33.525  18.459  -5.140  1.00 20.00    -0.019 C 
HETATM   11  C9  UNL     1     -33.992  18.953  -6.505  1.00 20.00     0.010 C 
HETATM   12  C10 UNL     1     -34.202  19.241  -4.020  1.00 20.00     0.010 C 
ENDBRANCH   8  10
TORSDOF 1
ENDMDL
MODEL 9
REMARK VINA RESULT:      -4.2      2.298      4.683
REMARK  1 active torsions:
REMARK  status: ('A' for Active; 'I' for Inactive)
REMARK    1  A    between atoms: C8_8  and  C11_11 
ROOT
HETATM    1  C1  UNL     1     -35.009  17.413  -0.864  1.00 20.00     0.064 C 
HETATM    2  C2  UNL     1     -33.714  18.062  -4.409  1.00 20.00     0.002 C 
HETATM    3  C3  UNL     1     -33.751  18.022  -2.885  1.00 20.00     0.019 C 
HETATM    4  C4  UNL     1     -36.074  16.859  -3.024  1.00 20.00     0.019 C 
HETATM    5  C5  UNL     1     -33.570  16.675  -5.034  1.00 20.00     0.005 C 
HETATM    6  C6  UNL     1     -35.408  15.597  -3.576  1.00 20.00     0.006 C 
HETATM    7  C7  UNL     1     -35.145  17.826  -2.276  1.00 20.00     0.093 C 
HETATM    8  C8  UNL     1     -34.826  15.794  -4.987  1.00 20.00    -0.011 C 
HETATM    9  N12 UNL     1     -34.901  17.090   0.246  1.00 20.00    -0.197 NA
ENDROOT
BRANCH   8  10
HETATM   10  C11 UNL     1     -34.504  14.427  -5.605  1.00 20.00    -0.019 C 
HETATM   11  C9  UNL     1     -34.884  13.307  -4.642  1.00 20.00     0.010 C 
HETATM   12  C10 UNL     1     -35.228  14.265  -6.938  1.00 20.00     0.010 C 
ENDBRANCH   8  10
TORSDOF 1
ENDMDL
