MODEL 1
REMARK VINA RESULT:      -5.3      0.000      0.000
REMARK  1 active torsions:
REMARK  status: ('A' for Active; 'I' for Inactive)
REMARK    1  A    between atoms: C4_4  and  C10_10 
ROOT
HETATM    1  C5  UNL     1     -34.010  13.636  -3.982  1.00 20.00     0.001 C 
HETATM    2  C6  UNL     1     -34.749  13.546  -5.312  1.00 20.00     0.001 C 
HETATM    3  C7  UNL     1     -34.509  14.728  -3.040  1.00 20.00     0.009 C 
HETATM    4  C8  UNL     1     -35.133  14.857  -5.995  1.00 20.00     0.020 C 
HETATM    5  C9  UNL     1     -34.265  16.798  -4.584  1.00 20.00     0.029 C 
HETATM    6  C10 UNL     1     -33.826  16.086  -3.291  1.00 20.00     0.020 C 
HETATM    7  C11 UNL     1     -34.103  15.980  -5.872  1.00 20.00     0.083 C 
HETATM    8 CL13 UNL     1     -34.334  17.109  -7.261  1.00 20.00    -0.125 Cl
ENDROOT
BRANCH   6   9
HETATM    9  C4  UNL     1     -34.020  17.015  -2.097  1.00 20.00    -0.047 A 
HETATM   10  C1  UNL     1     -34.584  16.605  -0.855  1.00 20.00     0.015 A 
HETATM   11  C2  UNL     1     -34.646  17.640   0.053  1.00 20.00     0.050 A 
HETATM   12  S12 UNL     1     -34.026  19.099  -0.595  1.00 20.00    -0.113 SA
HETATM   13  C3  UNL     1     -33.673  18.348  -2.093  1.00 20.00     0.057 A 
ENDBRANCH   6   9
TORSDOF 1
ENDMDL
MODEL 2
REMARK VINA RESULT:      -4.9      1.962      2.207
REMARK  1 active torsions:
REMARK  status: ('A' for Active; 'I' for Inactive)
REMARK    1  A    between atoms: C4_4  and  C10_10 
ROOT
HETATM    1  C5  UNL     1     -33.389  15.081  -4.515  1.00 20.00     0.001 C 
HETATM    2  C6  UNL     1     -34.248  13.850  -4.775  1.00 20.00     0.001 C 
HETATM    3  C7  UNL     1     -33.386  15.572  -3.070  1.00 20.00     0.009 C 
HETATM    4  C8  UNL     1     -35.599  13.772  -4.068  1.00 20.00     0.020 C 
HETATM    5  C9  UNL     1     -35.932  15.903  -2.704  1.00 20.00     0.029 C 
HETATM    6  C10 UNL     1     -34.537  16.552  -2.773  1.00 20.00     0.020 C 
HETATM    7  C11 UNL     1     -36.347  15.101  -3.944  1.00 20.00     0.083 C 
HETATM    8 CL13 UNL     1     -38.108  14.742  -3.791  1.00 20.00    -0.125 Cl
ENDROOT
BRANCH   6   9
HETATM    9  C4  UNL     1     -34.264  17.331  -1.492  1.00 20.00    -0.047 A 
HETATM   10  C1  UNL     1     -34.851  17.018  -0.231  1.00 20.00     0.015 A 
HETATM   11  C2  UNL     1     -34.437  17.879   0.761  1.00 20.00     0.050 A 
HETATM   12  S12 UNL     1     -33.345  19.060   0.171  1.00 20.00    -0.113 SA
HETATM   13  C3  UNL     1     -33.424  18.420  -1.415  1.00 20.00     0.057 A 
ENDBRANCH   6   9
TORSDOF 1
ENDMDL
MODEL 3
REMARK VINA RESULT:      -4.8     13.361     15.174
REMARK  1 active torsions:
REMARK  status: ('A' for Active; 'I' for Inactive)
REMARK    1  A    between atoms: C4_4  and  C10_10 
ROOT
HETATM    1  C5  UNL     1     -41.503   5.449  -0.013  1.00 20.00     0.001 C 
HETATM    2  C6  UNL     1     -41.128   6.835  -0.523  1.00 20.00     0.001 C 
HETATM    3  C7  UNL     1     -41.292   4.315  -1.012  1.00 20.00     0.009 C 
HETATM    4  C8  UNL     1     -41.490   7.176  -1.966  1.00 20.00     0.020 C 
HETATM    5  C9  UNL     1     -42.721   5.189  -2.991  1.00 20.00     0.029 C 
HETATM    6  C10 UNL     1     -42.511   4.096  -1.928  1.00 20.00     0.020 C 
HETATM    7  C11 UNL     1     -42.831   6.621  -2.450  1.00 20.00     0.083 C 
HETATM    8 CL13 UNL     1     -43.417   7.666  -3.798  1.00 20.00    -0.125 Cl
ENDROOT
BRANCH   6   9
HETATM    9  C4  UNL     1     -42.442   2.728  -2.599  1.00 20.00    -0.047 A 
HETATM   10  C1  UNL     1     -41.384   2.320  -3.462  1.00 20.00     0.015 A 
HETATM   11  C2  UNL     1     -41.566   1.038  -3.934  1.00 20.00     0.050 A 
HETATM   12  S12 UNL     1     -43.009   0.334  -3.336  1.00 20.00    -0.113 SA
HETATM   13  C3  UNL     1     -43.392   1.744  -2.443  1.00 20.00     0.057 A 
ENDBRANCH   6   9
TORSDOF 1
ENDMDL
MODEL 4
REMARK VINA RESULT:      -4.8      2.117      3.092
REMARK  1 active torsions:
REMARK  status: ('A' for Active; 'I' for Inactive)
REMARK    1  A    between atoms: C4_4  and  C10_10 
ROOT
HETATM    1  C5  UNL     1     -34.129  18.433  -4.278  1.00 20.00     0.001 C 
HETATM    2  C6  UNL     1     -33.456  17.378  -5.147  1.00 20.00     0.001 C 
HETATM    3  C7  UNL     1     -33.656  18.472  -2.828  1.00 20.00     0.009 C 
HETATM    4  C8  UNL     1     -33.196  16.011  -4.520  1.00 20.00     0.020 C 
HETATM    5  C9  UNL     1     -34.115  16.014  -2.140  1.00 20.00     0.029 C 
HETATM    6  C10 UNL     1     -34.438  17.504  -1.921  1.00 20.00     0.020 C 
HETATM    7  C11 UNL     1     -34.290  15.507  -3.577  1.00 20.00     0.083 C 
HETATM    8 CL13 UNL     1     -34.205  13.706  -3.529  1.00 20.00    -0.125 Cl
ENDROOT
BRANCH   6   9
HETATM    9  C4  UNL     1     -34.244  17.865  -0.453  1.00 20.00    -0.047 A 
HETATM   10  C1  UNL     1     -35.162  17.514   0.580  1.00 20.00     0.015 A 
HETATM   11  C2  UNL     1     -34.748  17.963   1.815  1.00 20.00     0.050 A 
HETATM   12  S12 UNL     1     -33.258  18.804   1.726  1.00 20.00    -0.113 SA
HETATM   13  C3  UNL     1     -33.164  18.568   0.032  1.00 20.00     0.057 A 
ENDBRANCH   6   9
TORSDOF 1
ENDMDL
MODEL 5
REMARK VINA RESULT:      -4.7      2.099      2.772
REMARK  1 active torsions:
REMARK  status: ('A' for Active; 'I' for Inactive)
REMARK    1  A    between atoms: C4_4  and  C10_10 
ROOT
HETATM    1  C5  UNL     1     -37.007  16.642  -3.323  1.00 20.00     0.001 C 
HETATM    2  C6  UNL     1     -36.474  16.103  -4.645  1.00 20.00     0.001 C 
HETATM    3  C7  UNL     1     -36.003  17.447  -2.503  1.00 20.00     0.009 C 
HETATM    4  C8  UNL     1     -35.049  15.555  -4.659  1.00 20.00     0.020 C 
HETATM    5  C9  UNL     1     -34.093  15.704  -2.298  1.00 20.00     0.029 C 
HETATM    6  C10 UNL     1     -35.148  16.562  -1.576  1.00 20.00     0.020 C 
HETATM    7  C11 UNL     1     -34.634  14.788  -3.403  1.00 20.00     0.083 C 
HETATM    8 CL13 UNL     1     -33.312  13.646  -3.853  1.00 20.00    -0.125 Cl
ENDROOT
BRANCH   6   9
HETATM    9  C4  UNL     1     -34.480  17.403  -0.494  1.00 20.00    -0.047 A 
HETATM   10  C1  UNL     1     -35.004  17.568   0.821  1.00 20.00     0.015 A 
HETATM   11  C2  UNL     1     -34.205  18.378   1.598  1.00 20.00     0.050 A 
HETATM   12  S12 UNL     1     -32.829  18.935   0.743  1.00 20.00    -0.113 SA
HETATM   13  C3  UNL     1     -33.300  18.092  -0.672  1.00 20.00     0.057 A 
ENDBRANCH   6   9
TORSDOF 1
ENDMDL
MODEL 6
REMARK VINA RESULT:      -4.7      3.952      6.929
REMARK  1 active torsions:
REMARK  status: ('A' for Active; 'I' for Inactive)
REMARK    1  A    between atoms: C4_4  and  C10_10 
ROOT
HETATM    1  C5  UNL     1     -35.567  18.575   2.950  1.00 20.00     0.001 C 
HETATM    2  C6  UNL     1     -34.658  18.321   4.147  1.00 20.00     0.001 C 
HETATM    3  C7  UNL     1     -35.231  17.764   1.702  1.00 20.00     0.009 C 
HETATM    4  C8  UNL     1     -33.166  18.150   3.874  1.00 20.00     0.020 C 
HETATM    5  C9  UNL     1     -32.752  18.449   1.374  1.00 20.00     0.029 C 
HETATM    6  C10 UNL     1     -34.184  18.454   0.808  1.00 20.00     0.020 C 
HETATM    7  C11 UNL     1     -32.597  19.051   2.777  1.00 20.00     0.083 C 
HETATM    8 CL13 UNL     1     -30.831  19.262   3.083  1.00 20.00    -0.125 Cl
ENDROOT
BRANCH   6   9
HETATM    9  C4  UNL     1     -34.189  17.851  -0.592  1.00 20.00    -0.047 A 
HETATM   10  C1  UNL     1     -34.654  16.538  -0.890  1.00 20.00     0.015 A 
HETATM   11  C2  UNL     1     -34.547  16.242  -2.231  1.00 20.00     0.050 A 
HETATM   12  S12 UNL     1     -33.889  17.546  -3.126  1.00 20.00    -0.113 SA
HETATM   13  C3  UNL     1     -33.745  18.510  -1.717  1.00 20.00     0.057 A 
ENDBRANCH   6   9
TORSDOF 1
ENDMDL
MODEL 7
REMARK VINA RESULT:      -4.6      3.697      5.094
REMARK  1 active torsions:
REMARK  status: ('A' for Active; 'I' for Inactive)
REMARK    1  A    between atoms: C4_4  and  C10_10 
ROOT
HETATM    1  C5  UNL     1     -34.086  13.595  -4.224  1.00 20.00     0.001 C 
HETATM    2  C6  UNL     1     -33.009  14.546  -3.718  1.00 20.00     0.001 C 
HETATM    3  C7  UNL     1     -35.288  14.271  -4.878  1.00 20.00     0.009 C 
HETATM    4  C8  UNL     1     -33.468  15.834  -3.039  1.00 20.00     0.020 C 
HETATM    5  C9  UNL     1     -36.019  15.847  -2.951  1.00 20.00     0.029 C 
HETATM    6  C10 UNL     1     -36.379  14.657  -3.860  1.00 20.00     0.020 C 
HETATM    7  C11 UNL     1     -34.713  15.698  -2.160  1.00 20.00     0.083 C 
HETATM    8 CL13 UNL     1     -34.675  17.014  -0.926  1.00 20.00    -0.125 Cl
ENDROOT
BRANCH   6   9
HETATM    9  C4  UNL     1     -37.703  14.927  -4.566  1.00 20.00    -0.047 A 
HETATM   10  C1  UNL     1     -37.807  15.377  -5.914  1.00 20.00     0.015 A 
HETATM   11  C2  UNL     1     -39.118  15.543  -6.305  1.00 20.00     0.050 A 
HETATM   12  S12 UNL     1     -40.216  15.157  -5.048  1.00 20.00    -0.113 SA
HETATM   13  C3  UNL     1     -38.937  14.766  -3.977  1.00 20.00     0.057 A 
ENDBRANCH   6   9
TORSDOF 1
ENDMDL
MODEL 8
REMARK VINA RESULT:      -4.6      3.785      4.980
REMARK  1 active torsions:
REMARK  status: ('A' for Active; 'I' for Inactive)
REMARK    1  A    between atoms: C4_4  and  C10_10 
ROOT
HETATM    1  C5  UNL     1     -34.080  13.577  -4.194  1.00 20.00     0.001 C 
HETATM    2  C6  UNL     1     -32.997  14.530  -3.703  1.00 20.00     0.001 C 
HETATM    3  C7  UNL     1     -35.274  14.249  -4.865  1.00 20.00     0.009 C 
HETATM    4  C8  UNL     1     -33.449  15.834  -3.052  1.00 20.00     0.020 C 
HETATM    5  C9  UNL     1     -35.999  15.869  -2.974  1.00 20.00     0.029 C 
HETATM    6  C10 UNL     1     -36.365  14.664  -3.860  1.00 20.00     0.020 C 
HETATM    7  C11 UNL     1     -34.697  15.726  -2.175  1.00 20.00     0.083 C 
HETATM    8 CL13 UNL     1     -34.654  17.067  -0.968  1.00 20.00    -0.125 Cl
ENDROOT
BRANCH   6   9
HETATM    9  C4  UNL     1     -37.685  14.931  -4.576  1.00 20.00    -0.047 A 
HETATM   10  C1  UNL     1     -38.965  14.704  -3.993  1.00 20.00     0.015 A 
HETATM   11  C2  UNL     1     -39.991  15.026  -4.854  1.00 20.00     0.050 A 
HETATM   12  S12 UNL     1     -39.408  15.600  -6.359  1.00 20.00    -0.113 SA
HETATM   13  C3  UNL     1     -37.780  15.418  -5.861  1.00 20.00     0.057 A 
ENDBRANCH   6   9
TORSDOF 1
ENDMDL
MODEL 9
REMARK VINA RESULT:      -4.6     13.440     15.294
REMARK  1 active torsions:
REMARK  status: ('A' for Active; 'I' for Inactive)
REMARK    1  A    between atoms: C4_4  and  C10_10 
ROOT
HETATM    1  C5  UNL     1     -43.087   6.649  -3.362  1.00 20.00     0.001 C 
HETATM    2  C6  UNL     1     -43.069   7.559  -2.140  1.00 20.00     0.001 C 
HETATM    3  C7  UNL     1     -43.383   5.181  -3.068  1.00 20.00     0.009 C 
HETATM    4  C8  UNL     1     -42.424   7.017  -0.868  1.00 20.00     0.020 C 
HETATM    5  C9  UNL     1     -41.511   4.682  -1.344  1.00 20.00     0.029 C 
HETATM    6  C10 UNL     1     -42.115   4.375  -2.727  1.00 20.00     0.020 C 
HETATM    7  C11 UNL     1     -41.178   6.157  -1.084  1.00 20.00     0.083 C 
HETATM    8 CL13 UNL     1     -40.178   6.229   0.416  1.00 20.00    -0.125 Cl
ENDROOT
BRANCH   6   9
HETATM    9  C4  UNL     1     -42.376   2.879  -2.857  1.00 20.00    -0.047 A 
HETATM   10  C1  UNL     1     -41.571   1.998  -3.637  1.00 20.00     0.015 A 
HETATM   11  C2  UNL     1     -42.026   0.698  -3.584  1.00 20.00     0.050 A 
HETATM   12  S12 UNL     1     -43.417   0.545  -2.596  1.00 20.00    -0.113 SA
HETATM   13  C3  UNL     1     -43.414   2.220  -2.238  1.00 20.00     0.057 A 
ENDBRANCH   6   9
TORSDOF 1
ENDMDL
