MODEL 1
REMARK VINA RESULT:      -5.2      0.000      0.000
REMARK  1 active torsions:
REMARK  status: ('A' for Active; 'I' for Inactive)
REMARK    1  A    between atoms: C7_7  and  C11_11 
ROOT
HETATM    1  C1  UNL     1     -33.246  16.454  -5.013  1.00 20.00     0.004 C 
HETATM    2  C2  UNL     1     -33.772  17.238  -3.805  1.00 20.00     0.005 C 
HETATM    3  C3  UNL     1     -35.045  15.551  -2.300  1.00 20.00     0.008 C 
HETATM    4  C4  UNL     1     -34.204  15.405  -5.567  1.00 20.00     0.040 C 
HETATM    5  C5  UNL     1     -35.666  14.910  -3.538  1.00 20.00     0.041 C 
HETATM    6  C6  UNL     1     -33.820  13.195  -4.226  1.00 20.00     0.207 A 
HETATM    7  C7  UNL     1     -33.782  16.410  -2.507  1.00 20.00    -0.011 C 
HETATM    8  C8  UNL     1     -34.654  14.419  -4.530  1.00 20.00     0.082 A 
HETATM    9  O12 UNL     1     -34.972  13.129  -5.077  1.00 20.00    -0.375 OA
ENDROOT
BRANCH   7  10
HETATM   10  C11 UNL     1     -33.601  17.327  -1.292  1.00 20.00    -0.019 C 
HETATM   11  C9  UNL     1     -33.555  18.787  -1.732  1.00 20.00     0.010 C 
HETATM   12  C10 UNL     1     -34.721  17.099  -0.284  1.00 20.00     0.010 C 
ENDBRANCH   7  10
TORSDOF 1
ENDMDL
MODEL 2
REMARK VINA RESULT:      -4.9      1.442      2.475
REMARK  1 active torsions:
REMARK  status: ('A' for Active; 'I' for Inactive)
REMARK    1  A    between atoms: C7_7  and  C11_11 
ROOT
HETATM    1  C1  UNL     1     -34.795  13.542  -3.965  1.00 20.00     0.004 C 
HETATM    2  C2  UNL     1     -33.827  14.534  -3.310  1.00 20.00     0.005 C 
HETATM    3  C3  UNL     1     -33.913  16.717  -4.710  1.00 20.00     0.008 C 
HETATM    4  C4  UNL     1     -34.794  13.551  -5.490  1.00 20.00     0.040 C 
HETATM    5  C5  UNL     1     -33.928  15.895  -5.996  1.00 20.00     0.041 C 
HETATM    6  C6  UNL     1     -36.475  15.393  -6.272  1.00 20.00     0.207 A 
HETATM    7  C7  UNL     1     -34.304  15.994  -3.406  1.00 20.00    -0.011 C 
HETATM    8  C8  UNL     1     -35.057  14.911  -6.065  1.00 20.00     0.082 A 
HETATM    9  O12 UNL     1     -35.695  14.866  -7.353  1.00 20.00    -0.375 OA
ENDROOT
BRANCH   7  10
HETATM   10  C11 UNL     1     -33.778  16.803  -2.213  1.00 20.00    -0.019 C 
HETATM   11  C9  UNL     1     -33.745  18.289  -2.555  1.00 20.00     0.010 C 
HETATM   12  C10 UNL     1     -34.637  16.548  -0.981  1.00 20.00     0.010 C 
ENDBRANCH   7  10
TORSDOF 1
ENDMDL
MODEL 3
REMARK VINA RESULT:      -4.8      0.514      1.118
REMARK  1 active torsions:
REMARK  status: ('A' for Active; 'I' for Inactive)
REMARK    1  A    between atoms: C7_7  and  C11_11 
ROOT
HETATM    1  C1  UNL     1     -33.289  16.562  -4.902  1.00 20.00     0.004 C 
HETATM    2  C2  UNL     1     -34.107  17.360  -3.879  1.00 20.00     0.005 C 
HETATM    3  C3  UNL     1     -35.256  15.639  -2.315  1.00 20.00     0.008 C 
HETATM    4  C4  UNL     1     -33.961  15.293  -5.414  1.00 20.00     0.040 C 
HETATM    5  C5  UNL     1     -35.577  14.755  -3.517  1.00 20.00     0.041 C 
HETATM    6  C6  UNL     1     -33.380  13.363  -3.750  1.00 20.00     0.207 A 
HETATM    7  C7  UNL     1     -34.149  16.697  -2.491  1.00 20.00    -0.011 C 
HETATM    8  C8  UNL     1     -34.368  14.361  -4.311  1.00 20.00     0.082 A 
HETATM    9  O12 UNL     1     -34.374  12.981  -4.710  1.00 20.00    -0.375 OA
ENDROOT
BRANCH   7  10
HETATM   10  C11 UNL     1     -34.301  17.762  -1.399  1.00 20.00    -0.019 C 
HETATM   11  C9  UNL     1     -34.832  17.132  -0.115  1.00 20.00     0.010 C 
HETATM   12  C10 UNL     1     -32.970  18.461  -1.150  1.00 20.00     0.010 C 
ENDBRANCH   7  10
TORSDOF 1
ENDMDL
MODEL 4
REMARK VINA RESULT:      -4.7      2.026      3.617
REMARK  1 active torsions:
REMARK  status: ('A' for Active; 'I' for Inactive)
REMARK    1  A    between atoms: C7_7  and  C11_11 
ROOT
HETATM    1  C1  UNL     1     -33.291  15.916  -3.672  1.00 20.00     0.004 C 
HETATM    2  C2  UNL     1     -33.255  16.736  -4.967  1.00 20.00     0.005 C 
HETATM    3  C3  UNL     1     -34.987  15.679  -6.584  1.00 20.00     0.008 C 
HETATM    4  C4  UNL     1     -33.435  14.410  -3.867  1.00 20.00     0.040 C 
HETATM    5  C5  UNL     1     -34.533  14.283  -6.164  1.00 20.00     0.041 C 
HETATM    6  C6  UNL     1     -35.987  13.874  -4.034  1.00 20.00     0.207 A 
HETATM    7  C7  UNL     1     -34.632  16.849  -5.647  1.00 20.00    -0.011 C 
HETATM    8  C8  UNL     1     -34.634  14.040  -4.688  1.00 20.00     0.082 A 
HETATM    9  O12 UNL     1     -35.166  12.745  -4.360  1.00 20.00    -0.375 OA
ENDROOT
BRANCH   7  10
HETATM   10  C11 UNL     1     -34.728  18.162  -6.433  1.00 20.00    -0.019 C 
HETATM   11  C9  UNL     1     -33.742  19.185  -5.879  1.00 20.00     0.010 C 
HETATM   12  C10 UNL     1     -34.475  17.912  -7.915  1.00 20.00     0.010 C 
ENDBRANCH   7  10
TORSDOF 1
ENDMDL
MODEL 5
REMARK VINA RESULT:      -4.7      1.377      1.848
REMARK  1 active torsions:
REMARK  status: ('A' for Active; 'I' for Inactive)
REMARK    1  A    between atoms: C7_7  and  C11_11 
ROOT
HETATM    1  C1  UNL     1     -33.646  18.002  -4.192  1.00 20.00     0.004 C 
HETATM    2  C2  UNL     1     -34.283  18.436  -2.867  1.00 20.00     0.005 C 
HETATM    3  C3  UNL     1     -34.554  16.301  -1.419  1.00 20.00     0.008 C 
HETATM    4  C4  UNL     1     -34.159  16.679  -4.751  1.00 20.00     0.040 C 
HETATM    5  C5  UNL     1     -35.017  15.522  -2.648  1.00 20.00     0.041 C 
HETATM    6  C6  UNL     1     -32.741  14.764  -3.679  1.00 20.00     0.207 A 
HETATM    7  C7  UNL     1     -33.787  17.615  -1.663  1.00 20.00    -0.011 C 
HETATM    8  C8  UNL     1     -34.031  15.545  -3.777  1.00 20.00     0.082 A 
HETATM    9  O12 UNL     1     -33.866  14.268  -4.415  1.00 20.00    -0.375 OA
ENDROOT
BRANCH   7  10
HETATM   10  C11 UNL     1     -33.837  18.463  -0.386  1.00 20.00    -0.019 C 
HETATM   11  C9  UNL     1     -34.657  17.756   0.688  1.00 20.00     0.010 C 
HETATM   12  C10 UNL     1     -32.427  18.755   0.112  1.00 20.00     0.010 C 
ENDBRANCH   7  10
TORSDOF 1
ENDMDL
MODEL 6
REMARK VINA RESULT:      -4.7      1.529      2.188
REMARK  1 active torsions:
REMARK  status: ('A' for Active; 'I' for Inactive)
REMARK    1  A    between atoms: C7_7  and  C11_11 
ROOT
HETATM    1  C1  UNL     1     -34.387  13.976  -3.635  1.00 20.00     0.004 C 
HETATM    2  C2  UNL     1     -33.741  15.253  -3.082  1.00 20.00     0.005 C 
HETATM    3  C3  UNL     1     -35.541  17.119  -3.184  1.00 20.00     0.008 C 
HETATM    4  C4  UNL     1     -35.300  14.185  -4.838  1.00 20.00     0.040 C 
HETATM    5  C5  UNL     1     -35.979  16.626  -4.561  1.00 20.00     0.041 C 
HETATM    6  C6  UNL     1     -37.685  14.751  -3.932  1.00 20.00     0.207 A 
HETATM    7  C7  UNL     1     -34.732  16.142  -2.309  1.00 20.00    -0.011 C 
HETATM    8  C8  UNL     1     -36.388  15.184  -4.578  1.00 20.00     0.082 A 
HETATM    9  O12 UNL     1     -37.576  14.938  -5.349  1.00 20.00    -0.375 OA
ENDROOT
BRANCH   7  10
HETATM   10  C11 UNL     1     -33.994  16.940  -1.227  1.00 20.00    -0.019 C 
HETATM   11  C9  UNL     1     -33.551  18.292  -1.775  1.00 20.00     0.010 C 
HETATM   12  C10 UNL     1     -34.882  17.116  -0.001  1.00 20.00     0.010 C 
ENDBRANCH   7  10
TORSDOF 1
ENDMDL
MODEL 7
REMARK VINA RESULT:      -4.7      1.120      2.051
REMARK  1 active torsions:
REMARK  status: ('A' for Active; 'I' for Inactive)
REMARK    1  A    between atoms: C7_7  and  C11_11 
ROOT
HETATM    1  C1  UNL     1     -36.524  15.828  -3.849  1.00 20.00     0.004 C 
HETATM    2  C2  UNL     1     -35.663  15.846  -2.580  1.00 20.00     0.005 C 
HETATM    3  C3  UNL     1     -33.213  15.416  -3.319  1.00 20.00     0.008 C 
HETATM    4  C4  UNL     1     -36.140  14.766  -4.874  1.00 20.00     0.040 C 
HETATM    5  C5  UNL     1     -33.693  14.346  -4.297  1.00 20.00     0.041 C 
HETATM    6  C6  UNL     1     -34.276  15.778  -6.400  1.00 20.00     0.207 A 
HETATM    7  C7  UNL     1     -34.258  16.430  -2.814  1.00 20.00    -0.011 C 
HETATM    8  C8  UNL     1     -34.700  14.848  -5.287  1.00 20.00     0.082 A 
HETATM    9  O12 UNL     1     -34.468  14.376  -6.624  1.00 20.00    -0.375 OA
ENDROOT
BRANCH   7  10
HETATM   10  C11 UNL     1     -33.736  17.083  -1.528  1.00 20.00    -0.019 C 
HETATM   11  C9  UNL     1     -33.459  18.564  -1.762  1.00 20.00     0.010 C 
HETATM   12  C10 UNL     1     -34.733  16.889  -0.392  1.00 20.00     0.010 C 
ENDBRANCH   7  10
TORSDOF 1
ENDMDL
MODEL 8
REMARK VINA RESULT:      -4.5      2.332      4.461
REMARK  1 active torsions:
REMARK  status: ('A' for Active; 'I' for Inactive)
REMARK    1  A    between atoms: C7_7  and  C11_11 
ROOT
HETATM    1  C1  UNL     1     -33.685  18.122  -4.735  1.00 20.00     0.004 C 
HETATM    2  C2  UNL     1     -33.299  16.642  -4.842  1.00 20.00     0.005 C 
HETATM    3  C3  UNL     1     -34.424  15.418  -2.850  1.00 20.00     0.008 C 
HETATM    4  C4  UNL     1     -33.700  18.683  -3.317  1.00 20.00     0.040 C 
HETATM    5  C5  UNL     1     -34.057  16.577  -1.926  1.00 20.00     0.041 C 
HETATM    6  C6  UNL     1     -36.061  18.207  -2.303  1.00 20.00     0.207 A 
HETATM    7  C7  UNL     1     -34.414  15.693  -4.366  1.00 20.00    -0.011 C 
HETATM    8  C8  UNL     1     -34.583  17.901  -2.390  1.00 20.00     0.082 A 
HETATM    9  O12 UNL     1     -35.133  18.699  -1.328  1.00 20.00    -0.375 OA
ENDROOT
BRANCH   7  10
HETATM   10  C11 UNL     1     -34.326  14.356  -5.112  1.00 20.00    -0.019 C 
HETATM   11  C9  UNL     1     -35.085  13.274  -4.351  1.00 20.00     0.010 C 
HETATM   12  C10 UNL     1     -34.867  14.504  -6.529  1.00 20.00     0.010 C 
ENDBRANCH   7  10
TORSDOF 1
ENDMDL
MODEL 9
REMARK VINA RESULT:      -4.4      2.116      3.510
REMARK  1 active torsions:
REMARK  status: ('A' for Active; 'I' for Inactive)
REMARK    1  A    between atoms: C7_7  and  C11_11 
ROOT
HETATM    1  C1  UNL     1     -36.389  15.994  -4.190  1.00 20.00     0.004 C 
HETATM    2  C2  UNL     1     -35.485  17.179  -4.549  1.00 20.00     0.005 C 
HETATM    3  C3  UNL     1     -33.108  16.225  -4.959  1.00 20.00     0.008 C 
HETATM    4  C4  UNL     1     -35.748  14.944  -3.289  1.00 20.00     0.040 C 
HETATM    5  C5  UNL     1     -33.268  15.300  -3.756  1.00 20.00     0.041 C 
HETATM    6  C6  UNL     1     -34.483  13.250  -4.823  1.00 20.00     0.207 A 
HETATM    7  C7  UNL     1     -34.393  16.816  -5.571  1.00 20.00    -0.011 C 
HETATM    8  C8  UNL     1     -34.465  14.402  -3.845  1.00 20.00     0.082 A 
HETATM    9  O12 UNL     1     -34.196  13.052  -3.433  1.00 20.00    -0.375 OA
ENDROOT
BRANCH   7  10
HETATM   10  C11 UNL     1     -34.023  18.046  -6.410  1.00 20.00    -0.019 C 
HETATM   11  C9  UNL     1     -35.170  18.412  -7.346  1.00 20.00     0.010 C 
HETATM   12  C10 UNL     1     -33.666  19.218  -5.504  1.00 20.00     0.010 C 
ENDBRANCH   7  10
TORSDOF 1
ENDMDL
