MODEL 1
REMARK VINA RESULT:      -4.0      0.000      0.000
REMARK  1 active torsions:
REMARK  status: ('A' for Active; 'I' for Inactive)
REMARK    1  A    between atoms: C6_6  and  S9_9 
ROOT
HETATM    1  C1  UNL     1     -37.017  14.756  -3.841  1.00 20.00     0.080 C 
HETATM    2  C2  UNL     1     -34.440  13.324  -4.711  1.00 20.00     0.003 C 
HETATM    3  C3  UNL     1     -34.892  14.091  -5.954  1.00 20.00     0.003 C 
HETATM    4  C4  UNL     1     -34.598  14.288  -3.533  1.00 20.00     0.036 C 
HETATM    5  C5  UNL     1     -35.293  15.486  -5.471  1.00 20.00     0.036 C 
HETATM    6  C6  UNL     1     -35.654  15.297  -3.995  1.00 20.00     0.096 C 
HETATM    7  N8  UNL     1     -38.090  14.330  -3.721  1.00 20.00    -0.196 NA
ENDROOT
BRANCH   6   8
HETATM    8  S9  UNL     1     -35.505  16.870  -3.081  1.00 20.00    -0.148 SA
HETATM    9  C7  UNL     1     -34.668  16.232  -1.614  1.00 20.00     0.091 C 
ENDBRANCH   6   8
TORSDOF 1
ENDMDL
MODEL 2
REMARK VINA RESULT:      -4.0      1.676      2.854
REMARK  1 active torsions:
REMARK  status: ('A' for Active; 'I' for Inactive)
REMARK    1  A    between atoms: C6_6  and  S9_9 
ROOT
HETATM    1  C1  UNL     1     -37.059  14.539  -4.208  1.00 20.00     0.080 C 
HETATM    2  C2  UNL     1     -34.218  15.157  -3.213  1.00 20.00     0.003 C 
HETATM    3  C3  UNL     1     -34.194  13.665  -3.544  1.00 20.00     0.003 C 
HETATM    4  C4  UNL     1     -34.950  15.839  -4.371  1.00 20.00     0.036 C 
HETATM    5  C5  UNL     1     -34.904  13.515  -4.890  1.00 20.00     0.036 C 
HETATM    6  C6  UNL     1     -35.821  14.737  -4.983  1.00 20.00     0.096 C 
HETATM    7  N8  UNL     1     -38.034  14.382  -3.597  1.00 20.00    -0.196 NA
ENDROOT
BRANCH   6   8
HETATM    8  S9  UNL     1     -36.232  15.114  -6.721  1.00 20.00    -0.148 SA
HETATM    9  C7  UNL     1     -34.569  14.979  -7.410  1.00 20.00     0.091 C 
ENDBRANCH   6   8
TORSDOF 1
ENDMDL
MODEL 3
REMARK VINA RESULT:      -3.9      2.034      2.750
REMARK  1 active torsions:
REMARK  status: ('A' for Active; 'I' for Inactive)
REMARK    1  A    between atoms: C6_6  and  S9_9 
ROOT
HETATM    1  C1  UNL     1     -34.751  13.767  -5.004  1.00 20.00     0.080 C 
HETATM    2  C2  UNL     1     -35.706  14.646  -7.789  1.00 20.00     0.003 C 
HETATM    3  C3  UNL     1     -36.783  15.161  -6.833  1.00 20.00     0.003 C 
HETATM    4  C4  UNL     1     -34.363  14.976  -7.137  1.00 20.00     0.036 C 
HETATM    5  C5  UNL     1     -36.040  15.786  -5.652  1.00 20.00     0.036 C 
HETATM    6  C6  UNL     1     -34.674  15.094  -5.641  1.00 20.00     0.096 C 
HETATM    7  N8  UNL     1     -34.813  12.722  -4.501  1.00 20.00    -0.196 NA
ENDROOT
BRANCH   6   8
HETATM    8  S9  UNL     1     -33.428  16.119  -4.788  1.00 20.00    -0.148 SA
HETATM    9  C7  UNL     1     -34.082  15.969  -3.112  1.00 20.00     0.091 C 
ENDBRANCH   6   8
TORSDOF 1
ENDMDL
MODEL 4
REMARK VINA RESULT:      -3.9      2.228      3.572
REMARK  1 active torsions:
REMARK  status: ('A' for Active; 'I' for Inactive)
REMARK    1  A    between atoms: C6_6  and  S9_9 
ROOT
HETATM    1  C1  UNL     1     -34.657  13.792  -4.739  1.00 20.00     0.080 C 
HETATM    2  C2  UNL     1     -35.257  16.173  -2.891  1.00 20.00     0.003 C 
HETATM    3  C3  UNL     1     -33.745  15.973  -2.781  1.00 20.00     0.003 C 
HETATM    4  C4  UNL     1     -35.596  16.062  -4.379  1.00 20.00     0.036 C 
HETATM    5  C5  UNL     1     -33.239  15.758  -4.209  1.00 20.00     0.036 C 
HETATM    6  C6  UNL     1     -34.455  15.233  -4.977  1.00 20.00     0.096 C 
HETATM    7  N8  UNL     1     -34.815  12.657  -4.551  1.00 20.00    -0.196 NA
ENDROOT
BRANCH   6   8
HETATM    8  S9  UNL     1     -34.281  15.546  -6.767  1.00 20.00    -0.148 SA
HETATM    9  C7  UNL     1     -35.729  14.624  -7.326  1.00 20.00     0.091 C 
ENDBRANCH   6   8
TORSDOF 1
ENDMDL
MODEL 5
REMARK VINA RESULT:      -3.9      1.073      1.638
REMARK  1 active torsions:
REMARK  status: ('A' for Active; 'I' for Inactive)
REMARK    1  A    between atoms: C6_6  and  S9_9 
ROOT
HETATM    1  C1  UNL     1     -36.981  14.753  -4.031  1.00 20.00     0.080 C 
HETATM    2  C2  UNL     1     -34.173  13.612  -3.518  1.00 20.00     0.003 C 
HETATM    3  C3  UNL     1     -34.494  13.211  -4.958  1.00 20.00     0.003 C 
HETATM    4  C4  UNL     1     -34.607  15.072  -3.374  1.00 20.00     0.036 C 
HETATM    5  C5  UNL     1     -35.099  14.450  -5.621  1.00 20.00     0.036 C 
HETATM    6  C6  UNL     1     -35.669  15.271  -4.461  1.00 20.00     0.096 C 
HETATM    7  N8  UNL     1     -38.013  14.344  -3.693  1.00 20.00    -0.196 NA
ENDROOT
BRANCH   6   8
HETATM    8  S9  UNL     1     -35.819  17.032  -4.919  1.00 20.00    -0.148 SA
HETATM    9  C7  UNL     1     -34.081  17.344  -5.295  1.00 20.00     0.091 C 
ENDBRANCH   6   8
TORSDOF 1
ENDMDL
MODEL 6
REMARK VINA RESULT:      -3.9      2.042      2.614
REMARK  1 active torsions:
REMARK  status: ('A' for Active; 'I' for Inactive)
REMARK    1  A    between atoms: C6_6  and  S9_9 
ROOT
HETATM    1  C1  UNL     1     -35.163  13.748  -4.279  1.00 20.00     0.080 C 
HETATM    2  C2  UNL     1     -33.545  15.989  -2.935  1.00 20.00     0.003 C 
HETATM    3  C3  UNL     1     -33.615  16.395  -4.407  1.00 20.00     0.003 C 
HETATM    4  C4  UNL     1     -34.950  15.520  -2.553  1.00 20.00     0.036 C 
HETATM    5  C5  UNL     1     -35.062  16.162  -4.845  1.00 20.00     0.036 C 
HETATM    6  C6  UNL     1     -35.594  15.100  -3.879  1.00 20.00     0.096 C 
HETATM    7  N8  UNL     1     -34.823  12.684  -4.596  1.00 20.00    -0.196 NA
ENDROOT
BRANCH   6   8
HETATM    8  S9  UNL     1     -37.415  15.164  -3.776  1.00 20.00    -0.148 SA
HETATM    9  C7  UNL     1     -37.580  16.895  -3.291  1.00 20.00     0.091 C 
ENDBRANCH   6   8
TORSDOF 1
ENDMDL
MODEL 7
REMARK VINA RESULT:      -3.8      1.786      2.339
REMARK  1 active torsions:
REMARK  status: ('A' for Active; 'I' for Inactive)
REMARK    1  A    between atoms: C6_6  and  S9_9 
ROOT
HETATM    1  C1  UNL     1     -35.083  13.782  -4.719  1.00 20.00     0.080 C 
HETATM    2  C2  UNL     1     -34.560  14.954  -7.511  1.00 20.00     0.003 C 
HETATM    3  C3  UNL     1     -36.074  14.748  -7.458  1.00 20.00     0.003 C 
HETATM    4  C4  UNL     1     -34.166  15.576  -6.170  1.00 20.00     0.036 C 
HETATM    5  C5  UNL     1     -36.527  15.263  -6.090  1.00 20.00     0.036 C 
HETATM    6  C6  UNL     1     -35.281  15.159  -5.205  1.00 20.00     0.096 C 
HETATM    7  N8  UNL     1     -34.928  12.697  -4.336  1.00 20.00    -0.196 NA
ENDROOT
BRANCH   6   8
HETATM    8  S9  UNL     1     -35.389  16.307  -3.790  1.00 20.00    -0.148 SA
HETATM    9  C7  UNL     1     -33.783  15.946  -3.049  1.00 20.00     0.091 C 
ENDBRANCH   6   8
TORSDOF 1
ENDMDL
MODEL 8
REMARK VINA RESULT:      -3.8      2.190      2.915
REMARK  1 active torsions:
REMARK  status: ('A' for Active; 'I' for Inactive)
REMARK    1  A    between atoms: C6_6  and  S9_9 
ROOT
HETATM    1  C1  UNL     1     -34.380  16.225  -2.166  1.00 20.00     0.080 C 
HETATM    2  C2  UNL     1     -33.429  13.706  -3.648  1.00 20.00     0.003 C 
HETATM    3  C3  UNL     1     -34.920  13.803  -3.972  1.00 20.00     0.003 C 
HETATM    4  C4  UNL     1     -32.867  15.121  -3.796  1.00 20.00     0.036 C 
HETATM    5  C5  UNL     1     -35.188  15.271  -4.310  1.00 20.00     0.036 C 
HETATM    6  C6  UNL     1     -34.074  16.043  -3.597  1.00 20.00     0.096 C 
HETATM    7  N8  UNL     1     -34.622  16.368  -1.039  1.00 20.00    -0.196 NA
ENDROOT
BRANCH   6   8
HETATM    8  S9  UNL     1     -33.799  17.667  -4.383  1.00 20.00    -0.148 SA
HETATM    9  C7  UNL     1     -34.108  17.177  -6.092  1.00 20.00     0.091 C 
ENDBRANCH   6   8
TORSDOF 1
ENDMDL
MODEL 9
REMARK VINA RESULT:      -3.8      2.158      2.661
REMARK  1 active torsions:
REMARK  status: ('A' for Active; 'I' for Inactive)
REMARK    1  A    between atoms: C6_6  and  S9_9 
ROOT
HETATM    1  C1  UNL     1     -34.136  16.284  -5.226  1.00 20.00     0.080 C 
HETATM    2  C2  UNL     1     -34.979  13.625  -3.935  1.00 20.00     0.003 C 
HETATM    3  C3  UNL     1     -33.451  13.574  -3.958  1.00 20.00     0.003 C 
HETATM    4  C4  UNL     1     -35.353  15.031  -3.461  1.00 20.00     0.036 C 
HETATM    5  C5  UNL     1     -32.972  14.949  -3.488  1.00 20.00     0.036 C 
HETATM    6  C6  UNL     1     -34.134  15.894  -3.804  1.00 20.00     0.096 C 
HETATM    7  N8  UNL     1     -34.137  16.591  -6.345  1.00 20.00    -0.196 NA
ENDROOT
BRANCH   6   8
HETATM    8  S9  UNL     1     -34.067  17.385  -2.753  1.00 20.00    -0.148 SA
HETATM    9  C7  UNL     1     -34.504  16.608  -1.183  1.00 20.00     0.091 C 
ENDBRANCH   6   8
TORSDOF 1
ENDMDL
