MODEL 1
REMARK VINA RESULT:      -4.8      0.000      0.000
REMARK  2 active torsions:
REMARK  status: ('A' for Active; 'I' for Inactive)
REMARK    1  A    between atoms: C4_4  and  C9_9 
REMARK    2  A    between atoms: C5_5  and  S11_11 
ROOT
HETATM    1  C1  UNL     1     -34.825  13.840  -4.483  1.00 20.00     0.080 C 
HETATM    2  C2  UNL     1     -33.457  15.855  -3.746  1.00 20.00     0.041 C 
HETATM    3  C3  UNL     1     -35.485  15.831  -3.040  1.00 20.00     0.041 C 
HETATM    4  C4  UNL     1     -34.102  15.829  -2.334  1.00 20.00    -0.006 C 
HETATM    5  C5  UNL     1     -34.781  15.272  -4.302  1.00 20.00     0.097 C 
HETATM    6  N10 UNL     1     -34.862  12.689  -4.628  1.00 20.00    -0.196 NA
ENDROOT
BRANCH   5   7
HETATM    7  S11 UNL     1     -35.323  16.116  -5.831  1.00 20.00    -0.148 SA
HETATM    8  C8  UNL     1     -34.388  15.120  -7.011  1.00 20.00     0.091 C 
ENDBRANCH   5   7
BRANCH   4   9
HETATM    9  C9  UNL     1     -33.804  17.008  -1.430  1.00 20.00    -0.019 C 
HETATM   10  C6  UNL     1     -33.854  18.324  -2.209  1.00 20.00     0.010 C 
HETATM   11  C7  UNL     1     -34.780  17.055  -0.251  1.00 20.00     0.010 C 
ENDBRANCH   4   9
TORSDOF 2
ENDMDL
MODEL 2
REMARK VINA RESULT:      -4.6      0.921      1.018
REMARK  2 active torsions:
REMARK  status: ('A' for Active; 'I' for Inactive)
REMARK    1  A    between atoms: C4_4  and  C9_9 
REMARK    2  A    between atoms: C5_5  and  S11_11 
ROOT
HETATM    1  C1  UNL     1     -34.789  13.902  -4.191  1.00 20.00     0.080 C 
HETATM    2  C2  UNL     1     -33.693  15.861  -2.991  1.00 20.00     0.041 C 
HETATM    3  C3  UNL     1     -35.839  15.894  -3.003  1.00 20.00     0.041 C 
HETATM    4  C4  UNL     1     -34.773  15.836  -1.877  1.00 20.00    -0.006 C 
HETATM    5  C5  UNL     1     -34.769  15.330  -3.971  1.00 20.00     0.097 C 
HETATM    6  N10 UNL     1     -34.806  12.756  -4.368  1.00 20.00    -0.196 NA
ENDROOT
BRANCH   5   7
HETATM    7  S11 UNL     1     -34.747  16.212  -5.573  1.00 20.00    -0.148 SA
HETATM    8  C8  UNL     1     -35.993  15.220  -6.422  1.00 20.00     0.091 C 
ENDBRANCH   5   7
BRANCH   4   9
HETATM    9  C9  UNL     1     -34.763  16.991  -0.896  1.00 20.00    -0.019 C 
HETATM   10  C6  UNL     1     -33.420  17.726  -0.927  1.00 20.00     0.010 C 
HETATM   11  C7  UNL     1     -35.905  17.968  -1.189  1.00 20.00     0.010 C 
ENDBRANCH   4   9
TORSDOF 2
ENDMDL
MODEL 3
REMARK VINA RESULT:      -4.5      0.689      1.268
REMARK  2 active torsions:
REMARK  status: ('A' for Active; 'I' for Inactive)
REMARK    1  A    between atoms: C4_4  and  C9_9 
REMARK    2  A    between atoms: C5_5  and  S11_11 
ROOT
HETATM    1  C1  UNL     1     -34.722  13.848  -4.358  1.00 20.00     0.080 C 
HETATM    2  C2  UNL     1     -33.560  15.777  -3.174  1.00 20.00     0.041 C 
HETATM    3  C3  UNL     1     -35.625  16.120  -3.649  1.00 20.00     0.041 C 
HETATM    4  C4  UNL     1     -34.823  16.069  -2.321  1.00 20.00    -0.006 C 
HETATM    5  C5  UNL     1     -34.501  15.274  -4.298  1.00 20.00     0.097 C 
HETATM    6  N10 UNL     1     -34.902  12.703  -4.408  1.00 20.00    -0.196 NA
ENDROOT
BRANCH   5   7
HETATM    7  S11 UNL     1     -34.017  15.906  -5.944  1.00 20.00    -0.148 SA
HETATM    8  C8  UNL     1     -34.974  14.749  -6.946  1.00 20.00     0.091 C 
ENDBRANCH   5   7
BRANCH   4   9
HETATM    9  C9  UNL     1     -34.804  17.339  -1.494  1.00 20.00    -0.019 C 
HETATM   10  C6  UNL     1     -34.831  17.020   0.003  1.00 20.00     0.010 C 
HETATM   11  C7  UNL     1     -33.578  18.193  -1.829  1.00 20.00     0.010 C 
ENDBRANCH   4   9
TORSDOF 2
ENDMDL
MODEL 4
REMARK VINA RESULT:      -4.4      1.404      1.549
REMARK  2 active torsions:
REMARK  status: ('A' for Active; 'I' for Inactive)
REMARK    1  A    between atoms: C4_4  and  C9_9 
REMARK    2  A    between atoms: C5_5  and  S11_11 
ROOT
HETATM    1  C1  UNL     1     -36.729  14.901  -3.760  1.00 20.00     0.080 C 
HETATM    2  C2  UNL     1     -34.434  15.348  -2.754  1.00 20.00     0.041 C 
HETATM    3  C3  UNL     1     -35.704  17.072  -2.913  1.00 20.00     0.041 C 
HETATM    4  C4  UNL     1     -35.034  16.338  -1.720  1.00 20.00    -0.006 C 
HETATM    5  C5  UNL     1     -35.568  15.760  -3.727  1.00 20.00     0.097 C 
HETATM    6  N10 UNL     1     -37.662  14.212  -3.787  1.00 20.00    -0.196 NA
ENDROOT
BRANCH   5   7
HETATM    7  S11 UNL     1     -34.955  16.055  -5.424  1.00 20.00    -0.148 SA
HETATM    8  C8  UNL     1     -34.954  14.340  -5.990  1.00 20.00     0.091 C 
ENDBRANCH   5   7
BRANCH   4   9
HETATM    9  C9  UNL     1     -34.047  17.143  -0.900  1.00 20.00    -0.019 C 
HETATM   10  C6  UNL     1     -33.534  18.351  -1.688  1.00 20.00     0.010 C 
HETATM   11  C7  UNL     1     -34.676  17.603   0.418  1.00 20.00     0.010 C 
ENDBRANCH   4   9
TORSDOF 2
ENDMDL
MODEL 5
REMARK VINA RESULT:      -4.3      1.618      2.034
REMARK  2 active torsions:
REMARK  status: ('A' for Active; 'I' for Inactive)
REMARK    1  A    between atoms: C4_4  and  C9_9 
REMARK    2  A    between atoms: C5_5  and  S11_11 
ROOT
HETATM    1  C1  UNL     1     -33.880  14.485  -3.554  1.00 20.00     0.080 C 
HETATM    2  C2  UNL     1     -33.695  16.986  -3.117  1.00 20.00     0.041 C 
HETATM    3  C3  UNL     1     -35.072  15.944  -1.842  1.00 20.00     0.041 C 
HETATM    4  C4  UNL     1     -33.782  16.767  -1.583  1.00 20.00    -0.006 C 
HETATM    5  C5  UNL     1     -34.577  15.724  -3.293  1.00 20.00     0.097 C 
HETATM    6  N10 UNL     1     -33.321  13.490  -3.763  1.00 20.00    -0.196 NA
ENDROOT
BRANCH   5   7
HETATM    7  S11 UNL     1     -35.904  15.969  -4.526  1.00 20.00    -0.148 SA
HETATM    8  C8  UNL     1     -36.814  14.440  -4.222  1.00 20.00     0.091 C 
ENDBRANCH   5   7
BRANCH   4   9
HETATM    9  C9  UNL     1     -33.932  18.008  -0.728  1.00 20.00    -0.019 C 
HETATM   10  C6  UNL     1     -34.802  17.728   0.500  1.00 20.00     0.010 C 
HETATM   11  C7  UNL     1     -32.564  18.543  -0.294  1.00 20.00     0.010 C 
ENDBRANCH   4   9
TORSDOF 2
ENDMDL
MODEL 6
REMARK VINA RESULT:      -4.1      1.806      2.221
REMARK  2 active torsions:
REMARK  status: ('A' for Active; 'I' for Inactive)
REMARK    1  A    between atoms: C4_4  and  C9_9 
REMARK    2  A    between atoms: C5_5  and  S11_11 
ROOT
HETATM    1  C1  UNL     1     -34.551  16.314  -5.335  1.00 20.00     0.080 C 
HETATM    2  C2  UNL     1     -35.300  16.937  -2.983  1.00 20.00     0.041 C 
HETATM    3  C3  UNL     1     -33.519  15.741  -3.078  1.00 20.00     0.041 C 
HETATM    4  C4  UNL     1     -33.832  17.159  -2.530  1.00 20.00    -0.006 C 
HETATM    5  C5  UNL     1     -34.775  15.871  -3.978  1.00 20.00     0.097 C 
HETATM    6  N10 UNL     1     -34.370  16.668  -6.424  1.00 20.00    -0.196 NA
ENDROOT
BRANCH   5   7
HETATM    7  S11 UNL     1     -35.794  14.353  -3.972  1.00 20.00    -0.148 SA
HETATM    8  C8  UNL     1     -34.807  13.385  -5.133  1.00 20.00     0.091 C 
ENDBRANCH   5   7
BRANCH   4   9
HETATM    9  C9  UNL     1     -33.606  17.375  -1.047  1.00 20.00    -0.019 C 
HETATM   10  C6  UNL     1     -33.128  18.802  -0.766  1.00 20.00     0.010 C 
HETATM   11  C7  UNL     1     -34.879  17.079  -0.250  1.00 20.00     0.010 C 
ENDBRANCH   4   9
TORSDOF 2
ENDMDL
MODEL 7
REMARK VINA RESULT:      -4.1      1.862      1.989
REMARK  2 active torsions:
REMARK  status: ('A' for Active; 'I' for Inactive)
REMARK    1  A    between atoms: C4_4  and  C9_9 
REMARK    2  A    between atoms: C5_5  and  S11_11 
ROOT
HETATM    1  C1  UNL     1     -37.427  14.783  -3.971  1.00 20.00     0.080 C 
HETATM    2  C2  UNL     1     -34.974  15.002  -3.330  1.00 20.00     0.041 C 
HETATM    3  C3  UNL     1     -36.063  16.851  -3.386  1.00 20.00     0.041 C 
HETATM    4  C4  UNL     1     -35.305  16.085  -2.269  1.00 20.00    -0.006 C 
HETATM    5  C5  UNL     1     -36.190  15.507  -4.147  1.00 20.00     0.097 C 
HETATM    6  N10 UNL     1     -38.422  14.202  -3.831  1.00 20.00    -0.196 NA
ENDROOT
BRANCH   5   7
HETATM    7  S11 UNL     1     -35.809  15.678  -5.927  1.00 20.00    -0.148 SA
HETATM    8  C8  UNL     1     -37.462  16.131  -6.494  1.00 20.00     0.091 C 
ENDBRANCH   5   7
BRANCH   4   9
HETATM    9  C9  UNL     1     -34.127  16.800  -1.639  1.00 20.00    -0.019 C 
HETATM   10  C6  UNL     1     -33.674  17.980  -2.502  1.00 20.00     0.010 C 
HETATM   11  C7  UNL     1     -34.469  17.281  -0.226  1.00 20.00     0.010 C 
ENDBRANCH   4   9
TORSDOF 2
ENDMDL
MODEL 8
REMARK VINA RESULT:      -3.9      3.174      4.992
REMARK  2 active torsions:
REMARK  status: ('A' for Active; 'I' for Inactive)
REMARK    1  A    between atoms: C4_4  and  C9_9 
REMARK    2  A    between atoms: C5_5  and  S11_11 
ROOT
HETATM    1  C1  UNL     1     -33.280  18.247  -0.667  1.00 20.00     0.080 C 
HETATM    2  C2  UNL     1     -34.674  16.286  -1.497  1.00 20.00     0.041 C 
HETATM    3  C3  UNL     1     -33.917  17.575  -3.038  1.00 20.00     0.041 C 
HETATM    4  C4  UNL     1     -33.726  16.071  -2.707  1.00 20.00    -0.006 C 
HETATM    5  C5  UNL     1     -34.322  17.794  -1.559  1.00 20.00     0.097 C 
HETATM    6  N10 UNL     1     -32.443  18.612   0.049  1.00 20.00    -0.196 NA
ENDROOT
BRANCH   5   7
HETATM    7  S11 UNL     1     -35.799  18.860  -1.393  1.00 20.00    -0.148 SA
HETATM    8  C8  UNL     1     -35.913  18.850   0.409  1.00 20.00     0.091 C 
ENDBRANCH   5   7
BRANCH   4   9
HETATM    9  C9  UNL     1     -34.184  15.083  -3.760  1.00 20.00    -0.019 C 
HETATM   10  C6  UNL     1     -33.360  13.795  -3.702  1.00 20.00     0.010 C 
HETATM   11  C7  UNL     1     -35.673  14.763  -3.601  1.00 20.00     0.010 C 
ENDBRANCH   4   9
TORSDOF 2
ENDMDL
MODEL 9
REMARK VINA RESULT:      -3.8      2.510      4.510
REMARK  2 active torsions:
REMARK  status: ('A' for Active; 'I' for Inactive)
REMARK    1  A    between atoms: C4_4  and  C9_9 
REMARK    2  A    between atoms: C5_5  and  S11_11 
ROOT
HETATM    1  C1  UNL     1     -34.748  17.028  -0.936  1.00 20.00     0.080 C 
HETATM    2  C2  UNL     1     -35.975  16.355  -3.062  1.00 20.00     0.041 C 
HETATM    3  C3  UNL     1     -33.936  15.694  -2.947  1.00 20.00     0.041 C 
HETATM    4  C4  UNL     1     -35.298  14.958  -3.060  1.00 20.00    -0.006 C 
HETATM    5  C5  UNL     1     -34.703  16.913  -2.376  1.00 20.00     0.097 C 
HETATM    6  N10 UNL     1     -34.783  17.120   0.220  1.00 20.00    -0.196 NA
ENDROOT
BRANCH   5   7
HETATM    7  S11 UNL     1     -34.150  18.491  -3.115  1.00 20.00    -0.148 SA
HETATM    8  C8  UNL     1     -33.223  19.120  -1.699  1.00 20.00     0.091 C 
ENDBRANCH   5   7
BRANCH   4   9
HETATM    9  C9  UNL     1     -35.503  14.103  -4.295  1.00 20.00    -0.019 C 
HETATM   10  C6  UNL     1     -35.892  14.963  -5.500  1.00 20.00     0.010 C 
HETATM   11  C7  UNL     1     -34.246  13.289  -4.612  1.00 20.00     0.010 C 
ENDBRANCH   4   9
TORSDOF 2
ENDMDL
