MODEL 1
REMARK VINA RESULT:      -4.8      0.000      0.000
REMARK  2 active torsions:
REMARK  status: ('A' for Active; 'I' for Inactive)
REMARK    1  A    between atoms: C8_8  and  C10_10 
REMARK    2  A    between atoms: C10_10  and  C11_11 
ROOT
HETATM    1  C1  UNL     1     -35.081  13.734  -4.315  1.00 20.00     0.064 C 
HETATM    2  C2  UNL     1     -33.885  16.771  -4.808  1.00 20.00     0.002 C 
HETATM    3  C3  UNL     1     -35.283  16.154  -4.774  1.00 20.00     0.019 C 
HETATM    4  C4  UNL     1     -34.770  15.234  -2.396  1.00 20.00     0.019 C 
HETATM    5  C5  UNL     1     -33.726  17.925  -3.819  1.00 20.00     0.005 C 
HETATM    6  C6  UNL     1     -34.806  16.660  -1.846  1.00 20.00     0.006 C 
HETATM    7  C7  UNL     1     -35.482  15.037  -3.741  1.00 20.00     0.093 C 
HETATM    8  C8  UNL     1     -33.633  17.523  -2.341  1.00 20.00    -0.014 C 
HETATM    9  N12 UNL     1     -34.768  12.712  -4.766  1.00 20.00    -0.197 NA
ENDROOT
BRANCH   8  10
HETATM   10  C10 UNL     1     -33.530  18.790  -1.482  1.00 20.00     0.004 C 
BRANCH  10  11
HETATM   11  C11 UNL     1     -33.236  18.442  -0.029  1.00 20.00    -0.004 C 
HETATM   12  C9  UNL     1     -31.904  19.027   0.413  1.00 20.00     0.005 C 
ENDBRANCH  10  11
ENDBRANCH   8  10
TORSDOF 2
ENDMDL
MODEL 2
REMARK VINA RESULT:      -4.6      1.940      3.111
REMARK  2 active torsions:
REMARK  status: ('A' for Active; 'I' for Inactive)
REMARK    1  A    between atoms: C8_8  and  C10_10 
REMARK    2  A    between atoms: C10_10  and  C11_11 
ROOT
HETATM    1  C1  UNL     1     -36.660  15.031  -7.252  1.00 20.00     0.064 C 
HETATM    2  C2  UNL     1     -35.151  13.664  -4.655  1.00 20.00     0.002 C 
HETATM    3  C3  UNL     1     -34.698  14.160  -6.028  1.00 20.00     0.019 C 
HETATM    4  C4  UNL     1     -35.752  16.476  -5.487  1.00 20.00     0.019 C 
HETATM    5  C5  UNL     1     -34.395  14.333  -3.507  1.00 20.00     0.005 C 
HETATM    6  C6  UNL     1     -34.659  16.722  -4.447  1.00 20.00     0.006 C 
HETATM    7  C7  UNL     1     -35.421  15.413  -6.542  1.00 20.00     0.093 C 
HETATM    8  C8  UNL     1     -34.773  15.793  -3.226  1.00 20.00    -0.014 C 
HETATM    9  N12 UNL     1     -37.633  14.731  -7.810  1.00 20.00    -0.197 NA
ENDROOT
BRANCH   8  10
HETATM   10  C10 UNL     1     -33.894  16.330  -2.089  1.00 20.00     0.004 C 
BRANCH  10  11
HETATM   11  C11 UNL     1     -34.730  16.652  -0.859  1.00 20.00    -0.004 C 
HETATM   12  C9  UNL     1     -34.092  17.763  -0.041  1.00 20.00     0.005 C 
ENDBRANCH  10  11
ENDBRANCH   8  10
TORSDOF 2
ENDMDL
MODEL 3
REMARK VINA RESULT:      -4.6      3.504      6.089
REMARK  2 active torsions:
REMARK  status: ('A' for Active; 'I' for Inactive)
REMARK    1  A    between atoms: C8_8  and  C10_10 
REMARK    2  A    between atoms: C10_10  and  C11_11 
ROOT
HETATM    1  C1  UNL     1     -32.494  18.944   2.857  1.00 20.00     0.064 C 
HETATM    2  C2  UNL     1     -34.843  17.388   1.139  1.00 20.00     0.002 C 
HETATM    3  C3  UNL     1     -34.583  18.839   1.542  1.00 20.00     0.019 C 
HETATM    4  C4  UNL     1     -32.237  18.681   0.430  1.00 20.00     0.019 C 
HETATM    5  C5  UNL     1     -34.986  17.213  -0.373  1.00 20.00     0.005 C 
HETATM    6  C6  UNL     1     -32.902  18.624  -0.946  1.00 20.00     0.006 C 
HETATM    7  C7  UNL     1     -33.108  19.263   1.550  1.00 20.00     0.093 C 
HETATM    8  C8  UNL     1     -33.685  17.320  -1.180  1.00 20.00    -0.014 C 
HETATM    9  N12 UNL     1     -32.011  18.695   3.883  1.00 20.00    -0.197 NA
ENDROOT
BRANCH   8  10
HETATM   10  C10 UNL     1     -34.006  17.175  -2.673  1.00 20.00     0.004 C 
BRANCH  10  11
HETATM   11  C11 UNL     1     -34.231  15.715  -3.043  1.00 20.00    -0.004 C 
HETATM   12  C9  UNL     1     -33.032  15.151  -3.788  1.00 20.00     0.005 C 
ENDBRANCH  10  11
ENDBRANCH   8  10
TORSDOF 2
ENDMDL
MODEL 4
REMARK VINA RESULT:      -4.6      2.694      4.945
REMARK  2 active torsions:
REMARK  status: ('A' for Active; 'I' for Inactive)
REMARK    1  A    between atoms: C8_8  and  C10_10 
REMARK    2  A    between atoms: C10_10  and  C11_11 
ROOT
HETATM    1  C1  UNL     1     -35.220  17.660   0.319  1.00 20.00     0.064 C 
HETATM    2  C2  UNL     1     -34.147  19.066  -2.468  1.00 20.00     0.002 C 
HETATM    3  C3  UNL     1     -33.481  18.555  -1.191  1.00 20.00     0.019 C 
HETATM    4  C4  UNL     1     -34.599  16.241  -1.586  1.00 20.00     0.019 C 
HETATM    5  C5  UNL     1     -33.580  18.415  -3.730  1.00 20.00     0.005 C 
HETATM    6  C6  UNL     1     -33.683  16.013  -2.789  1.00 20.00     0.006 C 
HETATM    7  C7  UNL     1     -34.108  17.293  -0.584  1.00 20.00     0.093 C 
HETATM    8  C8  UNL     1     -33.993  16.956  -3.965  1.00 20.00    -0.014 C 
HETATM    9  N12 UNL     1     -36.093  17.947   1.027  1.00 20.00    -0.197 NA
ENDROOT
BRANCH   8  10
HETATM   10  C10 UNL     1     -33.304  16.437  -5.234  1.00 20.00     0.004 C 
BRANCH  10  11
HETATM   11  C11 UNL     1     -34.328  16.026  -6.283  1.00 20.00    -0.004 C 
HETATM   12  C9  UNL     1     -34.687  14.556  -6.147  1.00 20.00     0.005 C 
ENDBRANCH  10  11
ENDBRANCH   8  10
TORSDOF 2
ENDMDL
MODEL 5
REMARK VINA RESULT:      -4.5      1.514      2.394
REMARK  2 active torsions:
REMARK  status: ('A' for Active; 'I' for Inactive)
REMARK    1  A    between atoms: C8_8  and  C10_10 
REMARK    2  A    between atoms: C10_10  and  C11_11 
ROOT
HETATM    1  C1  UNL     1     -33.949  15.873  -5.909  1.00 20.00     0.064 C 
HETATM    2  C2  UNL     1     -34.478  15.440  -2.680  1.00 20.00     0.002 C 
HETATM    3  C3  UNL     1     -33.239  15.482  -3.574  1.00 20.00     0.019 C 
HETATM    4  C4  UNL     1     -33.985  17.826  -4.420  1.00 20.00     0.019 C 
HETATM    5  C5  UNL     1     -34.417  16.457  -1.540  1.00 20.00     0.005 C 
HETATM    6  C6  UNL     1     -33.667  18.414  -3.046  1.00 20.00     0.006 C 
HETATM    7  C7  UNL     1     -33.300  16.489  -4.731  1.00 20.00     0.093 C 
HETATM    8  C8  UNL     1     -34.623  17.922  -1.946  1.00 20.00    -0.014 C 
HETATM    9  N12 UNL     1     -34.457  15.391  -6.833  1.00 20.00    -0.197 NA
ENDROOT
BRANCH   8  10
HETATM   10  C10 UNL     1     -34.481  18.812  -0.705  1.00 20.00     0.004 C 
BRANCH  10  11
HETATM   11  C11 UNL     1     -33.545  18.181   0.315  1.00 20.00    -0.004 C 
HETATM   12  C9  UNL     1     -32.199  18.888   0.331  1.00 20.00     0.005 C 
ENDBRANCH  10  11
ENDBRANCH   8  10
TORSDOF 2
ENDMDL
MODEL 6
REMARK VINA RESULT:      -4.5      2.575      5.395
REMARK  2 active torsions:
REMARK  status: ('A' for Active; 'I' for Inactive)
REMARK    1  A    between atoms: C8_8  and  C10_10 
REMARK    2  A    between atoms: C10_10  and  C11_11 
ROOT
HETATM    1  C1  UNL     1     -34.573  16.263  -1.667  1.00 20.00     0.064 C 
HETATM    2  C2  UNL     1     -33.518  16.615  -4.775  1.00 20.00     0.002 C 
HETATM    3  C3  UNL     1     -33.156  15.694  -3.610  1.00 20.00     0.019 C 
HETATM    4  C4  UNL     1     -35.652  14.978  -3.460  1.00 20.00     0.019 C 
HETATM    5  C5  UNL     1     -33.923  15.846  -6.032  1.00 20.00     0.005 C 
HETATM    6  C6  UNL     1     -35.511  14.235  -4.788  1.00 20.00     0.006 C 
HETATM    7  C7  UNL     1     -34.334  15.260  -2.727  1.00 20.00     0.093 C 
HETATM    8  C8  UNL     1     -35.305  15.179  -5.985  1.00 20.00    -0.014 C 
HETATM    9  N12 UNL     1     -34.760  17.049  -0.835  1.00 20.00    -0.197 NA
ENDROOT
BRANCH   8  10
HETATM   10  C10 UNL     1     -35.536  14.410  -7.292  1.00 20.00     0.004 C 
BRANCH  10  11
HETATM   11  C11 UNL     1     -36.871  14.787  -7.918  1.00 20.00    -0.004 C 
HETATM   12  C9  UNL     1     -37.359  16.129  -7.396  1.00 20.00     0.005 C 
ENDBRANCH  10  11
ENDBRANCH   8  10
TORSDOF 2
ENDMDL
MODEL 7
REMARK VINA RESULT:      -4.5      3.097      5.065
REMARK  2 active torsions:
REMARK  status: ('A' for Active; 'I' for Inactive)
REMARK    1  A    between atoms: C8_8  and  C10_10 
REMARK    2  A    between atoms: C10_10  and  C11_11 
ROOT
HETATM    1  C1  UNL     1     -36.603  18.362   0.507  1.00 20.00     0.064 C 
HETATM    2  C2  UNL     1     -36.684  17.390  -2.646  1.00 20.00     0.002 C 
HETATM    3  C3  UNL     1     -36.148  18.617  -1.908  1.00 20.00     0.019 C 
HETATM    4  C4  UNL     1     -34.743  17.036  -0.394  1.00 20.00     0.019 C 
HETATM    5  C5  UNL     1     -35.610  16.683  -3.473  1.00 20.00     0.005 C 
HETATM    6  C6  UNL     1     -33.848  16.702  -1.588  1.00 20.00     0.006 C 
HETATM    7  C7  UNL     1     -35.544  18.337  -0.525  1.00 20.00     0.093 C 
HETATM    8  C8  UNL     1     -34.573  15.886  -2.671  1.00 20.00    -0.014 C 
HETATM    9  N12 UNL     1     -37.433  18.382   1.318  1.00 20.00    -0.197 NA
ENDROOT
BRANCH   8  10
HETATM   10  C10 UNL     1     -33.544  15.286  -3.638  1.00 20.00     0.004 C 
BRANCH  10  11
HETATM   11  C11 UNL     1     -33.644  13.767  -3.667  1.00 20.00    -0.004 C 
HETATM   12  C9  UNL     1     -34.728  13.311  -4.630  1.00 20.00     0.005 C 
ENDBRANCH  10  11
ENDBRANCH   8  10
TORSDOF 2
ENDMDL
MODEL 8
REMARK VINA RESULT:      -4.3      1.859      2.346
REMARK  2 active torsions:
REMARK  status: ('A' for Active; 'I' for Inactive)
REMARK    1  A    between atoms: C8_8  and  C10_10 
REMARK    2  A    between atoms: C10_10  and  C11_11 
ROOT
HETATM    1  C1  UNL     1     -37.778  15.064  -4.000  1.00 20.00     0.064 C 
HETATM    2  C2  UNL     1     -34.615  14.958  -3.063  1.00 20.00     0.002 C 
HETATM    3  C3  UNL     1     -35.357  15.451  -4.305  1.00 20.00     0.019 C 
HETATM    4  C4  UNL     1     -36.820  16.964  -2.776  1.00 20.00     0.019 C 
HETATM    5  C5  UNL     1     -33.756  16.046  -2.418  1.00 20.00     0.005 C 
HETATM    6  C6  UNL     1     -35.603  17.847  -2.499  1.00 20.00     0.006 C 
HETATM    7  C7  UNL     1     -36.723  16.099  -4.039  1.00 20.00     0.093 C 
HETATM    8  C8  UNL     1     -34.525  17.137  -1.662  1.00 20.00    -0.014 C 
HETATM    9  N12 UNL     1     -38.607  14.252  -3.970  1.00 20.00    -0.197 NA
ENDROOT
BRANCH   8  10
HETATM   10  C10 UNL     1     -33.528  18.172  -1.124  1.00 20.00     0.004 C 
BRANCH  10  11
HETATM   11  C11 UNL     1     -33.682  18.348   0.380  1.00 20.00    -0.004 C 
HETATM   12  C9  UNL     1     -34.892  17.586   0.897  1.00 20.00     0.005 C 
ENDBRANCH  10  11
ENDBRANCH   8  10
TORSDOF 2
ENDMDL
MODEL 9
REMARK VINA RESULT:      -4.3      2.077      3.031
REMARK  2 active torsions:
REMARK  status: ('A' for Active; 'I' for Inactive)
REMARK    1  A    between atoms: C8_8  and  C10_10 
REMARK    2  A    between atoms: C10_10  and  C11_11 
ROOT
HETATM    1  C1  UNL     1     -37.936  15.409  -6.224  1.00 20.00     0.064 C 
HETATM    2  C2  UNL     1     -35.672  13.932  -4.330  1.00 20.00     0.002 C 
HETATM    3  C3  UNL     1     -35.642  14.687  -5.659  1.00 20.00     0.019 C 
HETATM    4  C4  UNL     1     -36.786  16.706  -4.486  1.00 20.00     0.019 C 
HETATM    5  C5  UNL     1     -34.734  14.537  -3.287  1.00 20.00     0.005 C 
HETATM    6  C6  UNL     1     -35.502  16.966  -3.699  1.00 20.00     0.006 C 
HETATM    7  C7  UNL     1     -36.611  15.873  -5.761  1.00 20.00     0.093 C 
HETATM    8  C8  UNL     1     -35.195  15.864  -2.670  1.00 20.00    -0.014 C 
HETATM    9  N12 UNL     1     -38.977  15.045  -6.588  1.00 20.00    -0.197 NA
ENDROOT
BRANCH   8  10
HETATM   10  C10 UNL     1     -34.126  16.361  -1.688  1.00 20.00     0.004 C 
BRANCH  10  11
HETATM   11  C11 UNL     1     -34.765  16.978  -0.452  1.00 20.00    -0.004 C 
HETATM   12  C9  UNL     1     -33.877  18.063   0.136  1.00 20.00     0.005 C 
ENDBRANCH  10  11
ENDBRANCH   8  10
TORSDOF 2
ENDMDL
