MODEL 1
REMARK VINA RESULT:      -5.1      0.000      0.000
REMARK  1 active torsions:
REMARK  status: ('A' for Active; 'I' for Inactive)
REMARK    1  A    between atoms: C2_2  and  C8_8 
ROOT
HETATM    1  C1  UNL     1     -33.608   6.424   5.014  1.00 20.00    -0.004 C 
HETATM    2  C2  UNL     1     -33.166   6.392   3.750  1.00 20.00    -0.079 C 
HETATM    3  C3  UNL     1     -34.040   5.537   2.885  1.00 20.00     0.036 C 
HETATM    4  C4  UNL     1     -35.289   5.359   3.750  1.00 20.00     0.028 C 
HETATM    5  C5  UNL     1     -34.840   5.602   5.194  1.00 20.00     0.105 C 
HETATM    6 CL9  UNL     1     -34.430   4.081   6.018  1.00 20.00    -0.121 Cl
ENDROOT
BRANCH   2   7
HETATM    7  C8  UNL     1     -31.957   7.059   3.207  1.00 20.00     0.006 C 
HETATM    8  C6  UNL     1     -32.330   8.020   2.075  1.00 20.00     0.014 C 
HETATM    9  C7  UNL     1     -31.190   7.800   4.305  1.00 20.00     0.014 C 
ENDBRANCH   2   7
TORSDOF 1
ENDMDL
MODEL 2
REMARK VINA RESULT:      -4.9      2.283      3.793
REMARK  1 active torsions:
REMARK  status: ('A' for Active; 'I' for Inactive)
REMARK    1  A    between atoms: C2_2  and  C8_8 
ROOT
HETATM    1  C1  UNL     1     -32.743   6.761   4.333  1.00 20.00    -0.004 C 
HETATM    2  C2  UNL     1     -33.791   5.933   4.240  1.00 20.00    -0.079 C 
HETATM    3  C3  UNL     1     -33.921   5.365   2.860  1.00 20.00     0.036 C 
HETATM    4  C4  UNL     1     -32.564   5.697   2.237  1.00 20.00     0.028 C 
HETATM    5  C5  UNL     1     -32.009   6.878   3.039  1.00 20.00     0.105 C 
HETATM    6 CL9  UNL     1     -32.396   8.433   2.270  1.00 20.00    -0.121 Cl
ENDROOT
BRANCH   2   7
HETATM    7  C8  UNL     1     -34.766   5.597   5.308  1.00 20.00     0.006 C 
HETATM    8  C6  UNL     1     -34.958   4.082   5.411  1.00 20.00     0.014 C 
HETATM    9  C7  UNL     1     -34.331   6.173   6.658  1.00 20.00     0.014 C 
ENDBRANCH   2   7
TORSDOF 1
ENDMDL
MODEL 3
REMARK VINA RESULT:      -4.4     11.786     12.234
REMARK  1 active torsions:
REMARK  status: ('A' for Active; 'I' for Inactive)
REMARK    1  A    between atoms: C2_2  and  C8_8 
ROOT
HETATM    1  C1  UNL     1     -33.466  14.892  -3.868  1.00 20.00    -0.004 C 
HETATM    2  C2  UNL     1     -34.241  15.587  -3.025  1.00 20.00    -0.079 C 
HETATM    3  C3  UNL     1     -35.688  15.241  -3.197  1.00 20.00     0.036 C 
HETATM    4  C4  UNL     1     -35.624  13.954  -4.023  1.00 20.00     0.028 C 
HETATM    5  C5  UNL     1     -34.267  13.975  -4.732  1.00 20.00     0.105 C 
HETATM    6 CL9  UNL     1     -34.393  14.654  -6.370  1.00 20.00    -0.121 Cl
ENDROOT
BRANCH   2   7
HETATM    7  C8  UNL     1     -33.803  16.612  -2.045  1.00 20.00     0.006 C 
HETATM    8  C6  UNL     1     -33.802  18.005  -2.680  1.00 20.00     0.014 C 
HETATM    9  C7  UNL     1     -34.684  16.597  -0.794  1.00 20.00     0.014 C 
ENDBRANCH   2   7
TORSDOF 1
ENDMDL
MODEL 4
REMARK VINA RESULT:      -4.1     11.638     12.336
REMARK  1 active torsions:
REMARK  status: ('A' for Active; 'I' for Inactive)
REMARK    1  A    between atoms: C2_2  and  C8_8 
ROOT
HETATM    1  C1  UNL     1     -35.281  15.527  -2.855  1.00 20.00    -0.004 C 
HETATM    2  C2  UNL     1     -34.191  16.298  -2.738  1.00 20.00    -0.079 C 
HETATM    3  C3  UNL     1     -33.395  16.318  -4.006  1.00 20.00     0.036 C 
HETATM    4  C4  UNL     1     -34.377  15.733  -5.023  1.00 20.00     0.028 C 
HETATM    5  C5  UNL     1     -35.385  14.915  -4.211  1.00 20.00     0.105 C 
HETATM    6 CL9  UNL     1     -34.926  13.199  -4.131  1.00 20.00    -0.121 Cl
ENDROOT
BRANCH   2   7
HETATM    7  C8  UNL     1     -33.743  17.038  -1.532  1.00 20.00     0.006 C 
HETATM    8  C6  UNL     1     -33.526  18.519  -1.854  1.00 20.00     0.014 C 
HETATM    9  C7  UNL     1     -34.740  16.883  -0.382  1.00 20.00     0.014 C 
ENDBRANCH   2   7
TORSDOF 1
ENDMDL
MODEL 5
REMARK VINA RESULT:      -4.0      9.358     10.767
REMARK  1 active torsions:
REMARK  status: ('A' for Active; 'I' for Inactive)
REMARK    1  A    between atoms: C2_2  and  C8_8 
ROOT
HETATM    1  C1  UNL     1     -41.604   4.058  -1.622  1.00 20.00    -0.004 C 
HETATM    2  C2  UNL     1     -41.840   5.331  -1.965  1.00 20.00    -0.079 C 
HETATM    3  C3  UNL     1     -42.820   5.423  -3.094  1.00 20.00     0.036 C 
HETATM    4  C4  UNL     1     -43.417   4.015  -3.129  1.00 20.00     0.028 C 
HETATM    5  C5  UNL     1     -42.384   3.103  -2.462  1.00 20.00     0.105 C 
HETATM    6 CL9  UNL     1     -41.310   2.343  -3.658  1.00 20.00    -0.121 Cl
ENDROOT
BRANCH   2   7
HETATM    7  C8  UNL     1     -41.224   6.547  -1.375  1.00 20.00     0.006 C 
HETATM    8  C6  UNL     1     -42.244   7.685  -1.292  1.00 20.00     0.014 C 
HETATM    9  C7  UNL     1     -40.635   6.256   0.007  1.00 20.00     0.014 C 
ENDBRANCH   2   7
TORSDOF 1
ENDMDL
MODEL 6
REMARK VINA RESULT:      -3.9     10.976     12.000
REMARK  1 active torsions:
REMARK  status: ('A' for Active; 'I' for Inactive)
REMARK    1  A    between atoms: C2_2  and  C8_8 
ROOT
HETATM    1  C1  UNL     1     -33.966  16.000  -2.356  1.00 20.00    -0.004 C 
HETATM    2  C2  UNL     1     -34.858  15.279  -3.048  1.00 20.00    -0.079 C 
HETATM    3  C3  UNL     1     -36.206  15.930  -3.053  1.00 20.00     0.036 C 
HETATM    4  C4  UNL     1     -35.892  17.345  -2.565  1.00 20.00     0.028 C 
HETATM    5  C5  UNL     1     -34.573  17.241  -1.793  1.00 20.00     0.105 C 
HETATM    6 CL9  UNL     1     -34.850  17.035  -0.049  1.00 20.00    -0.121 Cl
ENDROOT
BRANCH   2   7
HETATM    7  C8  UNL     1     -34.626  13.975  -3.721  1.00 20.00     0.006 C 
HETATM    8  C6  UNL     1     -35.167  14.001  -5.152  1.00 20.00     0.014 C 
HETATM    9  C7  UNL     1     -33.142  13.604  -3.718  1.00 20.00     0.014 C 
ENDBRANCH   2   7
TORSDOF 1
ENDMDL
MODEL 7
REMARK VINA RESULT:      -3.9      9.461     11.250
REMARK  1 active torsions:
REMARK  status: ('A' for Active; 'I' for Inactive)
REMARK    1  A    between atoms: C2_2  and  C8_8 
ROOT
HETATM    1  C1  UNL     1     -41.158   4.122  -1.643  1.00 20.00    -0.004 C 
HETATM    2  C2  UNL     1     -42.095   3.978  -2.589  1.00 20.00    -0.079 C 
HETATM    3  C3  UNL     1     -42.788   5.274  -2.875  1.00 20.00     0.036 C 
HETATM    4  C4  UNL     1     -41.864   6.298  -2.214  1.00 20.00     0.028 C 
HETATM    5  C5  UNL     1     -41.076   5.528  -1.150  1.00 20.00     0.105 C 
HETATM    6 CL9  UNL     1     -41.843   5.647   0.449  1.00 20.00    -0.121 Cl
ENDROOT
BRANCH   2   7
HETATM    7  C8  UNL     1     -42.480   2.725  -3.285  1.00 20.00     0.006 C 
HETATM    8  C6  UNL     1     -41.240   1.969  -3.767  1.00 20.00     0.014 C 
HETATM    9  C7  UNL     1     -43.334   1.829  -2.385  1.00 20.00     0.014 C 
ENDBRANCH   2   7
TORSDOF 1
ENDMDL
MODEL 8
REMARK VINA RESULT:      -3.9     11.516     12.716
REMARK  1 active torsions:
REMARK  status: ('A' for Active; 'I' for Inactive)
REMARK    1  A    between atoms: C2_2  and  C8_8 
ROOT
HETATM    1  C1  UNL     1     -33.877  15.335  -3.149  1.00 20.00    -0.004 C 
HETATM    2  C2  UNL     1     -34.623  15.592  -4.232  1.00 20.00    -0.079 C 
HETATM    3  C3  UNL     1     -35.031  17.031  -4.288  1.00 20.00     0.036 C 
HETATM    4  C4  UNL     1     -34.101  17.680  -3.261  1.00 20.00     0.028 C 
HETATM    5  C5  UNL     1     -33.669  16.555  -2.316  1.00 20.00     0.105 C 
HETATM    6 CL9  UNL     1     -34.703  16.478  -0.872  1.00 20.00    -0.121 Cl
ENDROOT
BRANCH   2   7
HETATM    7  C8  UNL     1     -35.061  14.622  -5.267  1.00 20.00     0.006 C 
HETATM    8  C6  UNL     1     -34.454  14.972  -6.628  1.00 20.00     0.014 C 
HETATM    9  C7  UNL     1     -34.700  13.188  -4.875  1.00 20.00     0.014 C 
ENDBRANCH   2   7
TORSDOF 1
ENDMDL
MODEL 9
REMARK VINA RESULT:      -3.8     11.360     13.190
REMARK  1 active torsions:
REMARK  status: ('A' for Active; 'I' for Inactive)
REMARK    1  A    between atoms: C2_2  and  C8_8 
ROOT
HETATM    1  C1  UNL     1     -33.979  15.651  -5.061  1.00 20.00    -0.004 C 
HETATM    2  C2  UNL     1     -34.503  14.842  -5.991  1.00 20.00    -0.079 C 
HETATM    3  C3  UNL     1     -34.836  13.497  -5.424  1.00 20.00     0.036 C 
HETATM    4  C4  UNL     1     -34.770  13.748  -3.917  1.00 20.00     0.028 C 
HETATM    5  C5  UNL     1     -33.878  14.979  -3.733  1.00 20.00     0.105 C 
HETATM    6 CL9  UNL     1     -32.189  14.524  -3.418  1.00 20.00    -0.121 Cl
ENDROOT
BRANCH   2   7
HETATM    7  C8  UNL     1     -34.725  15.153  -7.426  1.00 20.00     0.006 C 
HETATM    8  C6  UNL     1     -36.040  14.541  -7.917  1.00 20.00     0.014 C 
HETATM    9  C7  UNL     1     -34.714  16.663  -7.676  1.00 20.00     0.014 C 
ENDBRANCH   2   7
TORSDOF 1
ENDMDL
