MODEL 1
REMARK VINA RESULT:      -4.5      0.000      0.000
REMARK  2 active torsions:
REMARK  status: ('A' for Active; 'I' for Inactive)
REMARK    1  A    between atoms: C3_3  and  C8_8 
REMARK    2  A    between atoms: C8_8  and  C9_9 
ROOT
HETATM    1  C1  UNL     1     -34.394  14.459  -4.615  1.00 20.00     0.044 A 
HETATM    2  C2  UNL     1     -34.179  15.436  -5.565  1.00 20.00     0.005 A 
HETATM    3  C3  UNL     1     -33.921  16.127  -3.271  1.00 20.00     0.081 A 
HETATM    4  C4  UNL     1     -34.759  13.053  -4.882  1.00 20.00     0.071 C 
HETATM    5  C5  UNL     1     -34.247  15.362  -7.037  1.00 20.00     0.058 C 
HETATM    6  N10 UNL     1     -34.247  14.854  -3.299  1.00 20.00    -0.249 NA
HETATM    7  S11 UNL     1     -33.776  16.912  -4.789  1.00 20.00    -0.077 SA
ENDROOT
BRANCH   3   8
HETATM    8  C8  UNL     1     -33.670  16.925  -1.998  1.00 20.00     0.059 C 
HETATM    9  C6  UNL     1     -34.644  16.447  -0.908  1.00 20.00     0.018 C 
BRANCH   8  10
HETATM   10  C9  UNL     1     -33.746  18.456  -2.234  1.00 20.00     0.088 C 
HETATM   11  C7  UNL     1     -32.992  19.263  -1.175  1.00 20.00     0.027 C 
HETATM   12 CL12 UNL     1     -35.454  19.017  -2.227  1.00 20.00    -0.125 Cl
ENDBRANCH   8  10
ENDBRANCH   3   8
TORSDOF 2
ENDMDL
MODEL 2
REMARK VINA RESULT:      -4.2      1.312      1.825
REMARK  2 active torsions:
REMARK  status: ('A' for Active; 'I' for Inactive)
REMARK    1  A    between atoms: C3_3  and  C8_8 
REMARK    2  A    between atoms: C8_8  and  C9_9 
ROOT
HETATM    1  C1  UNL     1     -34.542  14.827  -4.404  1.00 20.00     0.044 A 
HETATM    2  C2  UNL     1     -34.333  15.575  -5.545  1.00 20.00     0.005 A 
HETATM    3  C3  UNL     1     -34.363  16.805  -3.474  1.00 20.00     0.081 A 
HETATM    4  C4  UNL     1     -34.743  13.365  -4.348  1.00 20.00     0.071 C 
HETATM    5  C5  UNL     1     -34.254  15.153  -6.957  1.00 20.00     0.058 C 
HETATM    6  N10 UNL     1     -34.560  15.531  -3.216  1.00 20.00    -0.249 NA
HETATM    7  S11 UNL     1     -34.150  17.227  -5.123  1.00 20.00    -0.077 SA
ENDROOT
BRANCH   3   8
HETATM    8  C8  UNL     1     -34.312  17.901  -2.417  1.00 20.00     0.059 C 
HETATM    9  C6  UNL     1     -33.512  19.092  -2.970  1.00 20.00     0.018 C 
BRANCH   8  10
HETATM   10  C9  UNL     1     -33.758  17.390  -1.060  1.00 20.00     0.088 C 
HETATM   11  C7  UNL     1     -34.856  17.135  -0.025  1.00 20.00     0.027 C 
HETATM   12 CL12 UNL     1     -32.613  18.581  -0.352  1.00 20.00    -0.125 Cl
ENDBRANCH   8  10
ENDBRANCH   3   8
TORSDOF 2
ENDMDL
MODEL 3
REMARK VINA RESULT:      -4.2      2.265      4.831
REMARK  2 active torsions:
REMARK  status: ('A' for Active; 'I' for Inactive)
REMARK    1  A    between atoms: C3_3  and  C8_8 
REMARK    2  A    between atoms: C8_8  and  C9_9 
ROOT
HETATM    1  C1  UNL     1     -34.626  17.169  -1.466  1.00 20.00     0.044 A 
HETATM    2  C2  UNL     1     -33.900  18.110  -2.167  1.00 20.00     0.005 A 
HETATM    3  C3  UNL     1     -35.001  16.430  -3.496  1.00 20.00     0.081 A 
HETATM    4  C4  UNL     1     -34.782  17.110   0.001  1.00 20.00     0.071 C 
HETATM    5  C5  UNL     1     -33.115  19.262  -1.681  1.00 20.00     0.058 C 
HETATM    6  N10 UNL     1     -35.257  16.205  -2.227  1.00 20.00    -0.249 NA
HETATM    7  S11 UNL     1     -34.006  17.783  -3.848  1.00 20.00    -0.077 SA
ENDROOT
BRANCH   3   8
HETATM    8  C8  UNL     1     -35.526  15.579  -4.646  1.00 20.00     0.059 C 
HETATM    9  C6  UNL     1     -36.633  14.652  -4.117  1.00 20.00     0.018 C 
BRANCH   8  10
HETATM   10  C9  UNL     1     -34.396  14.804  -5.372  1.00 20.00     0.088 C 
HETATM   11  C7  UNL     1     -34.543  14.822  -6.895  1.00 20.00     0.027 C 
HETATM   12 CL12 UNL     1     -34.369  13.083  -4.852  1.00 20.00    -0.125 Cl
ENDBRANCH   8  10
ENDBRANCH   3   8
TORSDOF 2
ENDMDL
MODEL 4
REMARK VINA RESULT:      -4.1      3.764      4.567
REMARK  2 active torsions:
REMARK  status: ('A' for Active; 'I' for Inactive)
REMARK    1  A    between atoms: C3_3  and  C8_8 
REMARK    2  A    between atoms: C8_8  and  C9_9 
ROOT
HETATM    1  C1  UNL     1     -38.762  15.100  -4.215  1.00 20.00     0.044 A 
HETATM    2  C2  UNL     1     -38.668  16.477  -4.196  1.00 20.00     0.005 A 
HETATM    3  C3  UNL     1     -36.696  15.281  -3.502  1.00 20.00     0.081 A 
HETATM    4  C4  UNL     1     -39.946  14.315  -4.619  1.00 20.00     0.071 C 
HETATM    5  C5  UNL     1     -39.667  17.503  -4.555  1.00 20.00     0.058 C 
HETATM    6  N10 UNL     1     -37.632  14.414  -3.816  1.00 20.00    -0.249 NA
HETATM    7  S11 UNL     1     -37.106  16.940  -3.660  1.00 20.00    -0.077 SA
ENDROOT
BRANCH   3   8
HETATM    8  C8  UNL     1     -35.300  14.907  -3.018  1.00 20.00     0.059 C 
HETATM    9  C6  UNL     1     -34.798  15.993  -2.053  1.00 20.00     0.018 C 
BRANCH   8  10
HETATM   10  C9  UNL     1     -34.316  14.650  -4.190  1.00 20.00     0.088 C 
HETATM   11  C7  UNL     1     -34.413  13.230  -4.750  1.00 20.00     0.027 C 
HETATM   12 CL12 UNL     1     -32.617  14.910  -3.663  1.00 20.00    -0.125 Cl
ENDBRANCH   8  10
ENDBRANCH   3   8
TORSDOF 2
ENDMDL
MODEL 5
REMARK VINA RESULT:      -4.0      2.510      4.926
REMARK  2 active torsions:
REMARK  status: ('A' for Active; 'I' for Inactive)
REMARK    1  A    between atoms: C3_3  and  C8_8 
REMARK    2  A    between atoms: C8_8  and  C9_9 
ROOT
HETATM    1  C1  UNL     1     -35.085  17.127  -1.210  1.00 20.00     0.044 A 
HETATM    2  C2  UNL     1     -36.120  17.720  -1.905  1.00 20.00     0.005 A 
HETATM    3  C3  UNL     1     -34.596  16.396  -3.220  1.00 20.00     0.081 A 
HETATM    4  C4  UNL     1     -34.841  17.231   0.242  1.00 20.00     0.071 C 
HETATM    5  C5  UNL     1     -37.218  18.581  -1.423  1.00 20.00     0.058 C 
HETATM    6  N10 UNL     1     -34.211  16.368  -1.964  1.00 20.00    -0.249 NA
HETATM    7  S11 UNL     1     -36.001  17.317  -3.568  1.00 20.00    -0.077 SA
ENDROOT
BRANCH   3   8
HETATM    8  C8  UNL     1     -33.884  15.674  -4.357  1.00 20.00     0.059 C 
HETATM    9  C6  UNL     1     -33.246  16.717  -5.289  1.00 20.00     0.018 C 
BRANCH   8  10
HETATM   10  C9  UNL     1     -34.819  14.693  -5.112  1.00 20.00     0.088 C 
HETATM   11  C7  UNL     1     -34.657  13.242  -4.655  1.00 20.00     0.027 C 
HETATM   12 CL12 UNL     1     -34.499  14.742  -6.880  1.00 20.00    -0.125 Cl
ENDBRANCH   8  10
ENDBRANCH   3   8
TORSDOF 2
ENDMDL
MODEL 6
REMARK VINA RESULT:      -4.0      2.570      5.067
REMARK  2 active torsions:
REMARK  status: ('A' for Active; 'I' for Inactive)
REMARK    1  A    between atoms: C3_3  and  C8_8 
REMARK    2  A    between atoms: C8_8  and  C9_9 
ROOT
HETATM    1  C1  UNL     1     -35.921  16.922  -3.137  1.00 20.00     0.044 A 
HETATM    2  C2  UNL     1     -34.825  16.561  -2.380  1.00 20.00     0.005 A 
HETATM    3  C3  UNL     1     -34.606  16.250  -4.758  1.00 20.00     0.081 A 
HETATM    4  C4  UNL     1     -37.190  17.473  -2.620  1.00 20.00     0.071 C 
HETATM    5  C5  UNL     1     -34.617  16.621  -0.920  1.00 20.00     0.058 C 
HETATM    6  N10 UNL     1     -35.797  16.743  -4.500  1.00 20.00    -0.249 NA
HETATM    7  S11 UNL     1     -33.584  15.974  -3.408  1.00 20.00    -0.077 SA
ENDROOT
BRANCH   3   8
HETATM    8  C8  UNL     1     -34.093  15.918  -6.154  1.00 20.00     0.059 C 
HETATM    9  C6  UNL     1     -34.433  17.081  -7.101  1.00 20.00     0.018 C 
BRANCH   8  10
HETATM   10  C9  UNL     1     -34.624  14.555  -6.671  1.00 20.00     0.088 C 
HETATM   11  C7  UNL     1     -35.920  14.685  -7.475  1.00 20.00     0.027 C 
HETATM   12 CL12 UNL     1     -34.947  13.437  -5.301  1.00 20.00    -0.125 Cl
ENDBRANCH   8  10
ENDBRANCH   3   8
TORSDOF 2
ENDMDL
MODEL 7
REMARK VINA RESULT:      -3.9     13.134     15.493
REMARK  2 active torsions:
REMARK  status: ('A' for Active; 'I' for Inactive)
REMARK    1  A    between atoms: C3_3  and  C8_8 
REMARK    2  A    between atoms: C8_8  and  C9_9 
ROOT
HETATM    1  C1  UNL     1     -42.497   6.417  -2.718  1.00 20.00     0.044 A 
HETATM    2  C2  UNL     1     -41.677   6.031  -1.678  1.00 20.00     0.005 A 
HETATM    3  C3  UNL     1     -42.854   4.254  -2.800  1.00 20.00     0.081 A 
HETATM    4  C4  UNL     1     -42.706   7.799  -3.193  1.00 20.00     0.071 C 
HETATM    5  C5  UNL     1     -40.821   6.844  -0.790  1.00 20.00     0.058 C 
HETATM    6  N10 UNL     1     -43.173   5.399  -3.362  1.00 20.00    -0.249 NA
HETATM    7  S11 UNL     1     -41.748   4.328  -1.490  1.00 20.00    -0.077 SA
ENDROOT
BRANCH   3   8
HETATM    8  C8  UNL     1     -43.397   2.899  -3.235  1.00 20.00     0.059 C 
HETATM    9  C6  UNL     1     -43.417   1.955  -2.021  1.00 20.00     0.018 C 
BRANCH   8  10
HETATM   10  C9  UNL     1     -42.614   2.306  -4.436  1.00 20.00     0.088 C 
HETATM   11  C7  UNL     1     -43.417   1.263  -5.216  1.00 20.00     0.027 C 
HETATM   12 CL12 UNL     1     -41.098   1.516  -3.881  1.00 20.00    -0.125 Cl
ENDBRANCH   8  10
ENDBRANCH   3   8
TORSDOF 2
ENDMDL
MODEL 8
REMARK VINA RESULT:      -3.9      2.444      5.193
REMARK  2 active torsions:
REMARK  status: ('A' for Active; 'I' for Inactive)
REMARK    1  A    between atoms: C3_3  and  C8_8 
REMARK    2  A    between atoms: C8_8  and  C9_9 
ROOT
HETATM    1  C1  UNL     1     -33.782  17.930  -2.827  1.00 20.00     0.044 A 
HETATM    2  C2  UNL     1     -34.359  16.973  -2.017  1.00 20.00     0.005 A 
HETATM    3  C3  UNL     1     -34.107  16.371  -4.336  1.00 20.00     0.081 A 
HETATM    4  C4  UNL     1     -33.313  19.263  -2.399  1.00 20.00     0.071 C 
HETATM    5  C5  UNL     1     -34.657  17.005  -0.572  1.00 20.00     0.058 C 
HETATM    6  N10 UNL     1     -33.637  17.586  -4.157  1.00 20.00    -0.249 NA
HETATM    7  S11 UNL     1     -34.739  15.584  -2.949  1.00 20.00    -0.077 SA
ENDROOT
BRANCH   3   8
HETATM    8  C8  UNL     1     -34.120  15.640  -5.673  1.00 20.00     0.059 C 
HETATM    9  C6  UNL     1     -34.209  16.673  -6.807  1.00 20.00     0.018 C 
BRANCH   8  10
HETATM   10  C9  UNL     1     -35.241  14.571  -5.751  1.00 20.00     0.088 C 
HETATM   11  C7  UNL     1     -34.783  13.188  -5.282  1.00 20.00     0.027 C 
HETATM   12 CL12 UNL     1     -35.839  14.398  -7.438  1.00 20.00    -0.125 Cl
ENDBRANCH   8  10
ENDBRANCH   3   8
TORSDOF 2
ENDMDL
MODEL 9
REMARK VINA RESULT:      -3.8      1.904      2.538
REMARK  2 active torsions:
REMARK  status: ('A' for Active; 'I' for Inactive)
REMARK    1  A    between atoms: C3_3  and  C8_8 
REMARK    2  A    between atoms: C8_8  and  C9_9 
ROOT
HETATM    1  C1  UNL     1     -35.810  15.635  -4.822  1.00 20.00     0.044 A 
HETATM    2  C2  UNL     1     -34.918  14.680  -4.377  1.00 20.00     0.005 A 
HETATM    3  C3  UNL     1     -34.856  16.794  -3.223  1.00 20.00     0.081 A 
HETATM    4  C4  UNL     1     -36.781  15.470  -5.922  1.00 20.00     0.071 C 
HETATM    5  C5  UNL     1     -34.691  13.299  -4.846  1.00 20.00     0.058 C 
HETATM    6  N10 UNL     1     -35.775  16.847  -4.161  1.00 20.00    -0.249 NA
HETATM    7  S11 UNL     1     -33.994  15.317  -3.080  1.00 20.00    -0.077 SA
ENDROOT
BRANCH   3   8
HETATM    8  C8  UNL     1     -34.521  17.941  -2.277  1.00 20.00     0.059 C 
HETATM    9  C6  UNL     1     -33.658  18.970  -3.025  1.00 20.00     0.018 C 
BRANCH   8  10
HETATM   10  C9  UNL     1     -33.858  17.450  -0.963  1.00 20.00     0.088 C 
HETATM   11  C7  UNL     1     -34.867  17.212   0.162  1.00 20.00     0.027 C 
HETATM   12 CL12 UNL     1     -32.658  18.649  -0.370  1.00 20.00    -0.125 Cl
ENDBRANCH   8  10
ENDBRANCH   3   8
TORSDOF 2
ENDMDL
