MODEL 1
REMARK VINA RESULT:      -5.9      0.000      0.000
REMARK  2 active torsions:
REMARK  status: ('A' for Active; 'I' for Inactive)
REMARK    1  A    between atoms: C4_4  and  C10_10 
REMARK    2  A    between atoms: C9_9  and  C10_10 
ROOT
HETATM    1  C1  UNL     1     -32.287   9.477   1.066  1.00 20.00     0.012 C 
HETATM    2  C2  UNL     1     -32.152   8.540   1.805  1.00 20.00    -0.117 C 
HETATM    3  C9  UNL     1     -31.983   7.394   2.711  1.00 20.00     0.097 C 
ENDROOT
BRANCH   3   4
HETATM    4  C10 UNL     1     -33.113   6.383   2.571  1.00 20.00     0.046 C 
BRANCH   4   5
HETATM    5  C4  UNL     1     -33.655   6.014   3.901  1.00 20.00    -0.081 C 
HETATM    6  C3  UNL     1     -33.224   6.558   5.055  1.00 20.00    -0.004 C 
HETATM    7  C8  UNL     1     -33.763   6.193   6.409  1.00 20.00     0.105 C 
HETATM    8  C7  UNL     1     -35.064   5.387   6.348  1.00 20.00     0.024 C 
HETATM    9 CL11 UNL     1     -34.028   7.674   7.374  1.00 20.00    -0.121 Cl
HETATM   10  C6  UNL     1     -34.973   4.311   5.271  1.00 20.00     0.006 C 
HETATM   11  C5  UNL     1     -34.722   4.938   3.899  1.00 20.00     0.034 C 
ENDBRANCH   4   5
ENDBRANCH   3   4
TORSDOF 2
ENDMDL
MODEL 2
REMARK VINA RESULT:      -5.4      1.612      2.210
REMARK  2 active torsions:
REMARK  status: ('A' for Active; 'I' for Inactive)
REMARK    1  A    between atoms: C4_4  and  C10_10 
REMARK    2  A    between atoms: C9_9  and  C10_10 
ROOT
HETATM    1  C1  UNL     1     -32.399   9.501   0.564  1.00 20.00     0.012 C 
HETATM    2  C2  UNL     1     -32.121   8.821   1.513  1.00 20.00    -0.117 C 
HETATM    3  C9  UNL     1     -31.777   7.989   2.677  1.00 20.00     0.097 C 
ENDROOT
BRANCH   3   4
HETATM    4  C10 UNL     1     -32.445   6.622   2.619  1.00 20.00     0.046 C 
BRANCH   4   5
HETATM    5  C4  UNL     1     -33.198   6.351   3.868  1.00 20.00    -0.081 C 
HETATM    6  C3  UNL     1     -34.257   5.521   3.930  1.00 20.00    -0.004 C 
HETATM    7  C8  UNL     1     -35.029   5.238   5.186  1.00 20.00     0.105 C 
HETATM    8  C7  UNL     1     -34.322   5.720   6.456  1.00 20.00     0.024 C 
HETATM    9 CL11 UNL     1     -35.352   3.485   5.316  1.00 20.00    -0.121 Cl
HETATM   10  C6  UNL     1     -33.737   7.111   6.244  1.00 20.00     0.006 C 
HETATM   11  C5  UNL     1     -32.727   7.104   5.095  1.00 20.00     0.034 C 
ENDBRANCH   4   5
ENDBRANCH   3   4
TORSDOF 2
ENDMDL
MODEL 3
REMARK VINA RESULT:      -4.9     11.072     12.418
REMARK  2 active torsions:
REMARK  status: ('A' for Active; 'I' for Inactive)
REMARK    1  A    between atoms: C4_4  and  C10_10 
REMARK    2  A    between atoms: C9_9  and  C10_10 
ROOT
HETATM    1  C1  UNL     1     -35.198  14.438  -7.006  1.00 20.00     0.012 C 
HETATM    2  C2  UNL     1     -35.059  13.926  -5.929  1.00 20.00    -0.117 C 
HETATM    3  C9  UNL     1     -34.891  13.297  -4.610  1.00 20.00     0.097 C 
ENDROOT
BRANCH   3   4
HETATM    4  C10 UNL     1     -33.664  13.823  -3.878  1.00 20.00     0.046 C 
BRANCH   4   5
HETATM    5  C4  UNL     1     -33.883  15.216  -3.418  1.00 20.00    -0.081 C 
HETATM    6  C3  UNL     1     -34.670  15.536  -2.372  1.00 20.00    -0.004 C 
HETATM    7  C8  UNL     1     -34.902  16.942  -1.896  1.00 20.00     0.105 C 
HETATM    8  C7  UNL     1     -33.921  17.955  -2.492  1.00 20.00     0.024 C 
HETATM    9 CL11 UNL     1     -34.804  16.999  -0.112  1.00 20.00    -0.121 Cl
HETATM   10  C6  UNL     1     -33.733  17.700  -3.983  1.00 20.00     0.006 C 
HETATM   11  C5  UNL     1     -33.188  16.291  -4.227  1.00 20.00     0.034 C 
ENDBRANCH   4   5
ENDBRANCH   3   4
TORSDOF 2
ENDMDL
MODEL 4
REMARK VINA RESULT:      -4.9     11.378     12.180
REMARK  2 active torsions:
REMARK  status: ('A' for Active; 'I' for Inactive)
REMARK    1  A    between atoms: C4_4  and  C10_10 
REMARK    2  A    between atoms: C9_9  and  C10_10 
ROOT
HETATM    1  C1  UNL     1     -34.023  18.542   1.091  1.00 20.00     0.012 C 
HETATM    2  C2  UNL     1     -34.380  17.720   0.292  1.00 20.00    -0.117 C 
HETATM    3  C9  UNL     1     -34.819  16.711  -0.685  1.00 20.00     0.097 C 
ENDROOT
BRANCH   3   4
HETATM    4  C10 UNL     1     -33.885  16.635  -1.885  1.00 20.00     0.046 C 
BRANCH   4   5
HETATM    5  C4  UNL     1     -34.354  15.612  -2.852  1.00 20.00    -0.081 C 
HETATM    6  C3  UNL     1     -35.654  15.402  -3.137  1.00 20.00    -0.004 C 
HETATM    7  C8  UNL     1     -36.143  14.370  -4.112  1.00 20.00     0.105 C 
HETATM    8  C7  UNL     1     -35.033  13.794  -4.995  1.00 20.00     0.024 C 
HETATM    9 CL11 UNL     1     -37.420  15.073  -5.147  1.00 20.00    -0.121 Cl
HETATM   10  C6  UNL     1     -33.791  13.496  -4.163  1.00 20.00     0.006 C 
HETATM   11  C5  UNL     1     -33.271  14.769  -3.492  1.00 20.00     0.034 C 
ENDBRANCH   4   5
ENDBRANCH   3   4
TORSDOF 2
ENDMDL
MODEL 5
REMARK VINA RESULT:      -4.9     11.478     12.760
REMARK  2 active torsions:
REMARK  status: ('A' for Active; 'I' for Inactive)
REMARK    1  A    between atoms: C4_4  and  C10_10 
REMARK    2  A    between atoms: C9_9  and  C10_10 
ROOT
HETATM    1  C1  UNL     1     -34.797  18.000   1.526  1.00 20.00     0.012 C 
HETATM    2  C2  UNL     1     -34.794  17.395   0.490  1.00 20.00    -0.117 C 
HETATM    3  C9  UNL     1     -34.793  16.650  -0.779  1.00 20.00     0.097 C 
ENDROOT
BRANCH   3   4
HETATM    4  C10 UNL     1     -33.685  17.115  -1.714  1.00 20.00     0.046 C 
BRANCH   4   5
HETATM    5  C4  UNL     1     -33.777  16.426  -3.023  1.00 20.00    -0.081 C 
HETATM    6  C3  UNL     1     -33.869  15.088  -3.152  1.00 20.00    -0.004 C 
HETATM    7  C8  UNL     1     -33.962  14.376  -4.471  1.00 20.00     0.105 C 
HETATM    8  C7  UNL     1     -34.265  15.311  -5.646  1.00 20.00     0.024 C 
HETATM    9 CL11 UNL     1     -35.215  13.105  -4.386  1.00 20.00    -0.121 Cl
HETATM   10  C6  UNL     1     -33.427  16.580  -5.547  1.00 20.00     0.006 C 
HETATM   11  C5  UNL     1     -33.723  17.323  -4.243  1.00 20.00     0.034 C 
ENDBRANCH   4   5
ENDBRANCH   3   4
TORSDOF 2
ENDMDL
MODEL 6
REMARK VINA RESULT:      -4.9     11.537     12.757
REMARK  2 active torsions:
REMARK  status: ('A' for Active; 'I' for Inactive)
REMARK    1  A    between atoms: C4_4  and  C10_10 
REMARK    2  A    between atoms: C9_9  and  C10_10 
ROOT
HETATM    1  C1  UNL     1     -34.132  18.107   0.618  1.00 20.00     0.012 C 
HETATM    2  C2  UNL     1     -34.429  17.338  -0.254  1.00 20.00    -0.117 C 
HETATM    3  C9  UNL     1     -34.797  16.393  -1.320  1.00 20.00     0.097 C 
ENDROOT
BRANCH   3   4
HETATM    4  C10 UNL     1     -33.731  16.312  -2.404  1.00 20.00     0.046 C 
BRANCH   4   5
HETATM    5  C4  UNL     1     -34.227  15.548  -3.574  1.00 20.00    -0.081 C 
HETATM    6  C3  UNL     1     -34.712  16.129  -4.688  1.00 20.00    -0.004 C 
HETATM    7  C8  UNL     1     -35.219  15.369  -5.880  1.00 20.00     0.105 C 
HETATM    8  C7  UNL     1     -34.843  13.884  -5.858  1.00 20.00     0.024 C 
HETATM    9 CL11 UNL     1     -34.600  16.115  -7.381  1.00 20.00    -0.121 Cl
HETATM   10  C6  UNL     1     -35.052  13.303  -4.464  1.00 20.00     0.006 C 
HETATM   11  C5  UNL     1     -34.192  14.040  -3.436  1.00 20.00     0.034 C 
ENDBRANCH   4   5
ENDBRANCH   3   4
TORSDOF 2
ENDMDL
MODEL 7
REMARK VINA RESULT:      -4.5     11.258     11.966
REMARK  2 active torsions:
REMARK  status: ('A' for Active; 'I' for Inactive)
REMARK    1  A    between atoms: C4_4  and  C10_10 
REMARK    2  A    between atoms: C9_9  and  C10_10 
ROOT
HETATM    1  C1  UNL     1     -35.389  17.791   1.755  1.00 20.00     0.012 C 
HETATM    2  C2  UNL     1     -34.956  17.428   0.696  1.00 20.00    -0.117 C 
HETATM    3  C9  UNL     1     -34.423  16.983  -0.601  1.00 20.00     0.097 C 
ENDROOT
BRANCH   3   4
HETATM    4  C10 UNL     1     -35.465  17.072  -1.708  1.00 20.00     0.046 C 
BRANCH   4   5
HETATM    5  C4  UNL     1     -35.311  15.951  -2.666  1.00 20.00    -0.081 C 
HETATM    6  C3  UNL     1     -34.116  15.487  -3.080  1.00 20.00    -0.004 C 
HETATM    7  C8  UNL     1     -33.945  14.354  -4.051  1.00 20.00     0.105 C 
HETATM    8  C7  UNL     1     -35.232  13.557  -4.287  1.00 20.00     0.024 C 
HETATM    9 CL11 UNL     1     -32.662  13.252  -3.474  1.00 20.00    -0.121 Cl
HETATM   10  C6  UNL     1     -36.419  14.499  -4.449  1.00 20.00     0.006 C 
HETATM   11  C5  UNL     1     -36.601  15.361  -3.198  1.00 20.00     0.034 C 
ENDBRANCH   4   5
ENDBRANCH   3   4
TORSDOF 2
ENDMDL
MODEL 8
REMARK VINA RESULT:      -4.5     11.611     12.878
REMARK  2 active torsions:
REMARK  status: ('A' for Active; 'I' for Inactive)
REMARK    1  A    between atoms: C4_4  and  C10_10 
REMARK    2  A    between atoms: C9_9  and  C10_10 
ROOT
HETATM    1  C1  UNL     1     -35.120  14.546  -6.995  1.00 20.00     0.012 C 
HETATM    2  C2  UNL     1     -34.973  13.965  -5.954  1.00 20.00    -0.117 C 
HETATM    3  C9  UNL     1     -34.796  13.253  -4.679  1.00 20.00     0.097 C 
ENDROOT
BRANCH   3   4
HETATM    4  C10 UNL     1     -33.656  13.833  -3.853  1.00 20.00     0.046 C 
BRANCH   4   5
HETATM    5  C4  UNL     1     -33.932  15.246  -3.496  1.00 20.00    -0.081 C 
HETATM    6  C3  UNL     1     -33.310  16.292  -4.074  1.00 20.00    -0.004 C 
HETATM    7  C8  UNL     1     -33.578  17.727  -3.722  1.00 20.00     0.105 C 
HETATM    8  C7  UNL     1     -34.843  17.921  -2.881  1.00 20.00     0.024 C 
HETATM    9 CL11 UNL     1     -33.703  18.702  -5.215  1.00 20.00    -0.121 Cl
HETATM   10  C6  UNL     1     -34.922  16.863  -1.787  1.00 20.00     0.006 C 
HETATM   11  C5  UNL     1     -34.948  15.458  -2.393  1.00 20.00     0.034 C 
ENDBRANCH   4   5
ENDBRANCH   3   4
TORSDOF 2
ENDMDL
MODEL 9
REMARK VINA RESULT:      -4.5     10.120     11.540
REMARK  2 active torsions:
REMARK  status: ('A' for Active; 'I' for Inactive)
REMARK    1  A    between atoms: C4_4  and  C10_10 
REMARK    2  A    between atoms: C9_9  and  C10_10 
ROOT
HETATM    1  C1  UNL     1     -41.952   0.002  -3.786  1.00 20.00     0.012 C 
HETATM    2  C2  UNL     1     -41.757   1.169  -3.585  1.00 20.00    -0.117 C 
HETATM    3  C9  UNL     1     -41.515   2.599  -3.339  1.00 20.00     0.097 C 
ENDROOT
BRANCH   3   4
HETATM    4  C10 UNL     1     -42.488   3.177  -2.321  1.00 20.00     0.046 C 
BRANCH   4   5
HETATM    5  C4  UNL     1     -42.090   4.552  -1.934  1.00 20.00    -0.081 C 
HETATM    6  C3  UNL     1     -42.285   5.629  -2.718  1.00 20.00    -0.004 C 
HETATM    7  C8  UNL     1     -41.886   7.027  -2.339  1.00 20.00     0.105 C 
HETATM    8  C7  UNL     1     -41.531   7.177  -0.857  1.00 20.00     0.024 C 
HETATM    9 CL11 UNL     1     -43.201   8.164  -2.752  1.00 20.00    -0.121 Cl
HETATM   10  C6  UNL     1     -40.666   6.009  -0.396  1.00 20.00     0.006 C 
HETATM   11  C5  UNL     1     -41.402   4.681  -0.590  1.00 20.00     0.034 C 
ENDBRANCH   4   5
ENDBRANCH   3   4
TORSDOF 2
ENDMDL
