MODEL 1
REMARK VINA RESULT:      -5.4      0.000      0.000
REMARK  0 active torsions:
REMARK  status: ('A' for Active; 'I' for Inactive)
ROOT
HETATM    1  C1  UNL     1     -34.443  16.662  -0.783  1.00 20.00     0.019 A 
HETATM    2  C2  UNL     1     -33.920  17.843  -0.306  1.00 20.00     0.050 A 
HETATM    3  C3  UNL     1     -33.908  17.753  -2.764  1.00 20.00     0.061 A 
HETATM    4  C4  UNL     1     -34.436  16.609  -2.207  1.00 20.00    -0.023 A 
HETATM    5  C5  UNL     1     -34.225  14.461  -3.409  1.00 20.00     0.058 A 
HETATM    6  C6  UNL     1     -34.909  15.530  -2.977  1.00 20.00    -0.043 A 
HETATM    7  C7  UNL     1     -35.172  13.634  -4.168  1.00 20.00     0.150 A 
HETATM    8  C8  UNL     1     -36.356  15.521  -3.396  1.00 20.00     0.047 A 
HETATM    9  C9  UNL     1     -36.538  14.241  -4.205  1.00 20.00     0.087 A 
HETATM   10  O10 UNL     1     -34.860  12.578  -4.699  1.00 20.00    -0.293 OA
HETATM   11  S11 UNL     1     -33.422  18.882  -1.573  1.00 20.00    -0.113 SA
ENDROOT
TORSDOF 0
ENDMDL
MODEL 2
REMARK VINA RESULT:      -4.8      0.985      1.999
REMARK  0 active torsions:
REMARK  status: ('A' for Active; 'I' for Inactive)
ROOT
HETATM    1  C1  UNL     1     -33.972  18.167  -3.062  1.00 20.00     0.019 A 
HETATM    2  C2  UNL     1     -33.839  19.232  -2.199  1.00 20.00     0.050 A 
HETATM    3  C3  UNL     1     -33.923  17.081  -1.008  1.00 20.00     0.061 A 
HETATM    4  C4  UNL     1     -34.020  16.921  -2.373  1.00 20.00    -0.023 A 
HETATM    5  C5  UNL     1     -35.276  14.999  -3.285  1.00 20.00     0.058 A 
HETATM    6  C6  UNL     1     -34.150  15.662  -2.989  1.00 20.00    -0.043 A 
HETATM    7  C7  UNL     1     -34.869  13.737  -3.916  1.00 20.00     0.150 A 
HETATM    8  C8  UNL     1     -32.900  14.922  -3.388  1.00 20.00     0.047 A 
HETATM    9  C9  UNL     1     -33.381  13.617  -4.013  1.00 20.00     0.087 A 
HETATM   10  O10 UNL     1     -35.666  12.898  -4.308  1.00 20.00    -0.293 OA
HETATM   11  S11 UNL     1     -33.775  18.727  -0.563  1.00 20.00    -0.113 SA
ENDROOT
TORSDOF 0
ENDMDL
MODEL 3
REMARK VINA RESULT:      -4.7      3.154      4.897
REMARK  0 active torsions:
REMARK  status: ('A' for Active; 'I' for Inactive)
ROOT
HETATM    1  C1  UNL     1     -33.910  14.591  -3.074  1.00 20.00     0.019 A 
HETATM    2  C2  UNL     1     -34.518  13.743  -3.972  1.00 20.00     0.050 A 
HETATM    3  C3  UNL     1     -35.978  15.618  -3.337  1.00 20.00     0.061 A 
HETATM    4  C4  UNL     1     -34.755  15.677  -2.706  1.00 20.00    -0.023 A 
HETATM    5  C5  UNL     1     -34.587  16.736  -0.480  1.00 20.00     0.058 A 
HETATM    6  C6  UNL     1     -34.407  16.704  -1.808  1.00 20.00    -0.043 A 
HETATM    7  C7  UNL     1     -34.053  18.022  -0.013  1.00 20.00     0.150 A 
HETATM    8  C8  UNL     1     -33.744  17.943  -2.350  1.00 20.00     0.047 A 
HETATM    9  C9  UNL     1     -33.506  18.840  -1.140  1.00 20.00     0.087 A 
HETATM   10  O10 UNL     1     -34.065  18.365   1.160  1.00 20.00    -0.293 OA
HETATM   11  S11 UNL     1     -36.103  14.256  -4.368  1.00 20.00    -0.113 SA
ENDROOT
TORSDOF 0
ENDMDL
MODEL 4
REMARK VINA RESULT:      -4.7     12.763     14.641
REMARK  0 active torsions:
REMARK  status: ('A' for Active; 'I' for Inactive)
ROOT
HETATM    1  C1  UNL     1     -41.329   2.341  -3.583  1.00 20.00     0.019 A 
HETATM    2  C2  UNL     1     -41.903   1.143  -3.946  1.00 20.00     0.050 A 
HETATM    3  C3  UNL     1     -43.194   2.295  -2.197  1.00 20.00     0.061 A 
HETATM    4  C4  UNL     1     -42.076   3.008  -2.570  1.00 20.00    -0.023 A 
HETATM    5  C5  UNL     1     -40.972   4.486  -0.925  1.00 20.00     0.058 A 
HETATM    6  C6  UNL     1     -41.736   4.251  -2.001  1.00 20.00    -0.043 A 
HETATM    7  C7  UNL     1     -40.929   5.943  -0.750  1.00 20.00     0.150 A 
HETATM    8  C8  UNL     1     -42.267   5.507  -2.641  1.00 20.00     0.047 A 
HETATM    9  C9  UNL     1     -41.726   6.655  -1.796  1.00 20.00     0.087 A 
HETATM   10  O10 UNL     1     -40.309   6.490   0.151  1.00 20.00    -0.293 OA
HETATM   11  S11 UNL     1     -43.338   0.827  -3.065  1.00 20.00    -0.113 SA
ENDROOT
TORSDOF 0
ENDMDL
MODEL 5
REMARK VINA RESULT:      -4.5     12.739     14.631
REMARK  0 active torsions:
REMARK  status: ('A' for Active; 'I' for Inactive)
ROOT
HETATM    1  C1  UNL     1     -43.284   2.253  -2.064  1.00 20.00     0.019 A 
HETATM    2  C2  UNL     1     -43.307   0.994  -2.621  1.00 20.00     0.050 A 
HETATM    3  C3  UNL     1     -41.472   2.366  -3.516  1.00 20.00     0.061 A 
HETATM    4  C4  UNL     1     -42.221   3.048  -2.583  1.00 20.00    -0.023 A 
HETATM    5  C5  UNL     1     -42.420   5.505  -2.744  1.00 20.00     0.058 A 
HETATM    6  C6  UNL     1     -41.945   4.375  -2.202  1.00 20.00    -0.043 A 
HETATM    7  C7  UNL     1     -41.829   6.616  -1.986  1.00 20.00     0.150 A 
HETATM    8  C8  UNL     1     -41.009   4.615  -1.047  1.00 20.00     0.047 A 
HETATM    9  C9  UNL     1     -40.924   6.130  -0.899  1.00 20.00     0.087 A 
HETATM   10  O10 UNL     1     -42.061   7.791  -2.231  1.00 20.00    -0.293 OA
HETATM   11  S11 UNL     1     -42.052   0.774  -3.765  1.00 20.00    -0.113 SA
ENDROOT
TORSDOF 0
ENDMDL
MODEL 6
REMARK VINA RESULT:      -4.5     12.855     14.358
REMARK  0 active torsions:
REMARK  status: ('A' for Active; 'I' for Inactive)
ROOT
HETATM    1  C1  UNL     1     -40.939   4.650  -0.913  1.00 20.00     0.019 A 
HETATM    2  C2  UNL     1     -40.836   6.002  -0.676  1.00 20.00     0.050 A 
HETATM    3  C3  UNL     1     -42.271   5.509  -2.612  1.00 20.00     0.061 A 
HETATM    4  C4  UNL     1     -41.770   4.364  -2.035  1.00 20.00    -0.023 A 
HETATM    5  C5  UNL     1     -41.392   2.362  -3.433  1.00 20.00     0.058 A 
HETATM    6  C6  UNL     1     -42.062   3.073  -2.515  1.00 20.00    -0.043 A 
HETATM    7  C7  UNL     1     -42.103   1.084  -3.577  1.00 20.00     0.150 A 
HETATM    8  C8  UNL     1     -43.264   2.353  -1.964  1.00 20.00     0.047 A 
HETATM    9  C9  UNL     1     -43.299   1.008  -2.681  1.00 20.00     0.087 A 
HETATM   10  O10 UNL     1     -41.745   0.203  -4.344  1.00 20.00    -0.293 OA
HETATM   11  S11 UNL     1     -41.739   6.922  -1.805  1.00 20.00    -0.113 SA
ENDROOT
TORSDOF 0
ENDMDL
MODEL 7
REMARK VINA RESULT:      -4.4      3.384      4.879
REMARK  0 active torsions:
REMARK  status: ('A' for Active; 'I' for Inactive)
ROOT
HETATM    1  C1  UNL     1     -33.253  15.917  -2.987  1.00 20.00     0.019 A 
HETATM    2  C2  UNL     1     -33.187  15.860  -4.361  1.00 20.00     0.050 A 
HETATM    3  C3  UNL     1     -34.261  17.927  -3.571  1.00 20.00     0.061 A 
HETATM    4  C4  UNL     1     -33.875  17.114  -2.529  1.00 20.00    -0.023 A 
HETATM    5  C5  UNL     1     -35.143  17.169  -0.409  1.00 20.00     0.058 A 
HETATM    6  C6  UNL     1     -34.082  17.451  -1.177  1.00 20.00    -0.043 A 
HETATM    7  C7  UNL     1     -34.866  17.740   0.916  1.00 20.00     0.150 A 
HETATM    8  C8  UNL     1     -33.009  18.221  -0.454  1.00 20.00     0.047 A 
HETATM    9  C9  UNL     1     -33.537  18.423   0.963  1.00 20.00     0.087 A 
HETATM   10  O10 UNL     1     -35.644  17.656   1.855  1.00 20.00    -0.293 OA
HETATM   11  S11 UNL     1     -33.875  17.247  -5.094  1.00 20.00    -0.113 SA
ENDROOT
TORSDOF 0
ENDMDL
MODEL 8
REMARK VINA RESULT:      -4.3      3.082      4.617
REMARK  0 active torsions:
REMARK  status: ('A' for Active; 'I' for Inactive)
ROOT
HETATM    1  C1  UNL     1     -37.562  15.482  -5.891  1.00 20.00     0.019 A 
HETATM    2  C2  UNL     1     -38.926  15.611  -6.029  1.00 20.00     0.050 A 
HETATM    3  C3  UNL     1     -38.304  14.648  -3.852  1.00 20.00     0.061 A 
HETATM    4  C4  UNL     1     -37.202  14.924  -4.630  1.00 20.00    -0.023 A 
HETATM    5  C5  UNL     1     -35.157  13.561  -4.369  1.00 20.00     0.058 A 
HETATM    6  C6  UNL     1     -35.883  14.676  -4.204  1.00 20.00    -0.043 A 
HETATM    7  C7  UNL     1     -33.852  13.811  -3.744  1.00 20.00     0.150 A 
HETATM    8  C8  UNL     1     -35.145  15.763  -3.469  1.00 20.00     0.047 A 
HETATM    9  C9  UNL     1     -33.771  15.183  -3.152  1.00 20.00     0.087 A 
HETATM   10  O10 UNL     1     -32.952  12.985  -3.722  1.00 20.00    -0.293 OA
HETATM   11  S11 UNL     1     -39.767  15.060  -4.642  1.00 20.00    -0.113 SA
ENDROOT
TORSDOF 0
ENDMDL
MODEL 9
REMARK VINA RESULT:      -4.3      1.768      2.013
REMARK  0 active torsions:
REMARK  status: ('A' for Active; 'I' for Inactive)
ROOT
HETATM    1  C1  UNL     1     -33.674  16.654  -1.881  1.00 20.00     0.019 A 
HETATM    2  C2  UNL     1     -34.028  17.478  -0.836  1.00 20.00     0.050 A 
HETATM    3  C3  UNL     1     -35.918  17.038  -2.348  1.00 20.00     0.061 A 
HETATM    4  C4  UNL     1     -34.768  16.400  -2.757  1.00 20.00    -0.023 A 
HETATM    5  C5  UNL     1     -34.411  15.965  -5.163  1.00 20.00     0.058 A 
HETATM    6  C6  UNL     1     -34.710  15.594  -3.910  1.00 20.00    -0.043 A 
HETATM    7  C7  UNL     1     -34.488  14.753  -5.990  1.00 20.00     0.150 A 
HETATM    8  C8  UNL     1     -35.009  14.124  -3.779  1.00 20.00     0.047 A 
HETATM    9  C9  UNL     1     -34.864  13.551  -5.184  1.00 20.00     0.087 A 
HETATM   10  O10 UNL     1     -34.269  14.750  -7.193  1.00 20.00    -0.293 OA
HETATM   11  S11 UNL     1     -35.675  17.941  -0.913  1.00 20.00    -0.113 SA
ENDROOT
TORSDOF 0
ENDMDL
