MODEL 1
REMARK VINA RESULT:      -5.6      0.000      0.000
REMARK  2 active torsions:
REMARK  status: ('A' for Active; 'I' for Inactive)
REMARK    1  A    between atoms: C4_4  and  C12_12 
REMARK    2  A    between atoms: C11_11  and  C12_12 
ROOT
HETATM    1  C1  UNL     1     -33.810  18.544   0.777  1.00 20.00     0.012 C 
HETATM    2  C2  UNL     1     -34.205  17.662   0.066  1.00 20.00    -0.117 C 
HETATM    3  C11 UNL     1     -34.692  16.579  -0.803  1.00 20.00     0.097 C 
ENDROOT
BRANCH   3   4
HETATM    4  C12 UNL     1     -33.986  16.567  -2.150  1.00 20.00     0.046 C 
BRANCH   4   5
HETATM    5  C4  UNL     1     -34.830  15.881  -3.186  1.00 20.00    -0.075 C 
HETATM    6  C3  UNL     1     -36.051  15.413  -2.887  1.00 20.00     0.053 C 
HETATM    7  C5  UNL     1     -36.898  14.789  -3.934  1.00 20.00     0.150 C 
HETATM    8  C7  UNL     1     -36.392  14.766  -5.360  1.00 20.00     0.092 C 
HETATM    9  O13 UNL     1     -38.011  14.358  -3.638  1.00 20.00    -0.293 OA
HETATM   10  C8  UNL     1     -34.860  14.673  -5.443  1.00 20.00    -0.037 C 
HETATM   11  C6  UNL     1     -34.223  15.771  -4.562  1.00 20.00     0.043 C 
HETATM   12  C9  UNL     1     -34.417  14.877  -6.903  1.00 20.00     0.015 C 
HETATM   13  C10 UNL     1     -34.385  13.275  -4.991  1.00 20.00     0.015 C 
ENDBRANCH   4   5
ENDBRANCH   3   4
TORSDOF 2
ENDMDL
MODEL 2
REMARK VINA RESULT:      -5.6      1.800      2.275
REMARK  2 active torsions:
REMARK  status: ('A' for Active; 'I' for Inactive)
REMARK    1  A    between atoms: C4_4  and  C12_12 
REMARK    2  A    between atoms: C11_11  and  C12_12 
ROOT
HETATM    1  C1  UNL     1     -35.182  17.724   1.124  1.00 20.00     0.012 C 
HETATM    2  C2  UNL     1     -34.788  17.363   0.050  1.00 20.00    -0.117 C 
HETATM    3  C11 UNL     1     -34.302  16.922  -1.266  1.00 20.00     0.097 C 
ENDROOT
BRANCH   3   4
HETATM    4  C12 UNL     1     -35.436  16.741  -2.264  1.00 20.00     0.046 C 
BRANCH   4   5
HETATM    5  C4  UNL     1     -35.088  15.691  -3.279  1.00 20.00    -0.075 C 
HETATM    6  C3  UNL     1     -34.131  14.782  -3.039  1.00 20.00     0.053 C 
HETATM    7  C5  UNL     1     -33.837  13.715  -4.026  1.00 20.00     0.150 C 
HETATM    8  C7  UNL     1     -34.692  13.620  -5.271  1.00 20.00     0.092 C 
HETATM    9  O13 UNL     1     -32.949  12.897  -3.790  1.00 20.00    -0.293 OA
HETATM   10  C8  UNL     1     -35.209  14.991  -5.739  1.00 20.00    -0.037 C 
HETATM   11  C6  UNL     1     -35.886  15.723  -4.559  1.00 20.00     0.043 C 
HETATM   12  C9  UNL     1     -36.239  14.787  -6.865  1.00 20.00     0.015 C 
HETATM   13  C10 UNL     1     -34.046  15.836  -6.303  1.00 20.00     0.015 C 
ENDBRANCH   4   5
ENDBRANCH   3   4
TORSDOF 2
ENDMDL
MODEL 3
REMARK VINA RESULT:      -5.2      1.976      2.719
REMARK  2 active torsions:
REMARK  status: ('A' for Active; 'I' for Inactive)
REMARK    1  A    between atoms: C4_4  and  C12_12 
REMARK    2  A    between atoms: C11_11  and  C12_12 
ROOT
HETATM    1  C1  UNL     1     -34.170  18.643   1.778  1.00 20.00     0.012 C 
HETATM    2  C2  UNL     1     -33.897  18.275   0.669  1.00 20.00    -0.117 C 
HETATM    3  C11 UNL     1     -33.560  17.826  -0.690  1.00 20.00     0.097 C 
ENDROOT
BRANCH   3   4
HETATM    4  C12 UNL     1     -34.352  16.592  -1.098  1.00 20.00     0.046 C 
BRANCH   4   5
HETATM    5  C4  UNL     1     -34.228  16.345  -2.573  1.00 20.00    -0.075 C 
HETATM    6  C3  UNL     1     -33.859  17.324  -3.413  1.00 20.00     0.053 C 
HETATM    7  C5  UNL     1     -33.685  17.052  -4.861  1.00 20.00     0.150 C 
HETATM    8  C7  UNL     1     -33.849  15.632  -5.359  1.00 20.00     0.092 C 
HETATM    9  O13 UNL     1     -33.356  17.966  -5.616  1.00 20.00    -0.293 OA
HETATM   10  C8  UNL     1     -34.870  14.831  -4.536  1.00 20.00    -0.037 C 
HETATM   11  C6  UNL     1     -34.528  14.940  -3.033  1.00 20.00     0.043 C 
HETATM   12  C9  UNL     1     -34.815  13.352  -4.959  1.00 20.00     0.015 C 
HETATM   13  C10 UNL     1     -36.299  15.352  -4.804  1.00 20.00     0.015 C 
ENDBRANCH   4   5
ENDBRANCH   3   4
TORSDOF 2
ENDMDL
MODEL 4
REMARK VINA RESULT:      -5.2      1.037      1.274
REMARK  2 active torsions:
REMARK  status: ('A' for Active; 'I' for Inactive)
REMARK    1  A    between atoms: C4_4  and  C12_12 
REMARK    2  A    between atoms: C11_11  and  C12_12 
ROOT
HETATM    1  C1  UNL     1     -34.902  17.290   0.303  1.00 20.00     0.012 C 
HETATM    2  C2  UNL     1     -34.409  17.264  -0.791  1.00 20.00    -0.117 C 
HETATM    3  C11 UNL     1     -33.804  17.235  -2.132  1.00 20.00     0.097 C 
ENDROOT
BRANCH   3   4
HETATM    4  C12 UNL     1     -33.776  15.831  -2.716  1.00 20.00     0.046 C 
BRANCH   4   5
HETATM    5  C4  UNL     1     -34.929  15.624  -3.655  1.00 20.00    -0.075 C 
HETATM    6  C3  UNL     1     -36.021  14.945  -3.275  1.00 20.00     0.053 C 
HETATM    7  C5  UNL     1     -37.177  14.796  -4.193  1.00 20.00     0.150 C 
HETATM    8  C7  UNL     1     -37.134  15.496  -5.535  1.00 20.00     0.092 C 
HETATM    9  O13 UNL     1     -38.165  14.162  -3.828  1.00 20.00    -0.293 OA
HETATM   10  C8  UNL     1     -35.707  15.614  -6.094  1.00 20.00    -0.037 C 
HETATM   11  C6  UNL     1     -34.778  16.234  -5.027  1.00 20.00     0.043 C 
HETATM   12  C9  UNL     1     -35.723  16.522  -7.338  1.00 20.00     0.015 C 
HETATM   13  C10 UNL     1     -35.185  14.225  -6.524  1.00 20.00     0.015 C 
ENDBRANCH   4   5
ENDBRANCH   3   4
TORSDOF 2
ENDMDL
MODEL 5
REMARK VINA RESULT:      -5.0      2.453      3.382
REMARK  2 active torsions:
REMARK  status: ('A' for Active; 'I' for Inactive)
REMARK    1  A    between atoms: C4_4  and  C12_12 
REMARK    2  A    between atoms: C11_11  and  C12_12 
ROOT
HETATM    1  C1  UNL     1     -34.729  16.983  -0.599  1.00 20.00     0.012 C 
HETATM    2  C2  UNL     1     -34.598  16.243  -1.534  1.00 20.00    -0.117 C 
HETATM    3  C11 UNL     1     -34.439  15.333  -2.679  1.00 20.00     0.097 C 
ENDROOT
BRANCH   3   4
HETATM    4  C12 UNL     1     -33.273  15.734  -3.570  1.00 20.00     0.046 C 
BRANCH   4   5
HETATM    5  C4  UNL     1     -33.764  16.190  -4.913  1.00 20.00    -0.075 C 
HETATM    6  C3  UNL     1     -33.639  17.468  -5.302  1.00 20.00     0.053 C 
HETATM    7  C5  UNL     1     -34.077  17.893  -6.653  1.00 20.00     0.150 C 
HETATM    8  C7  UNL     1     -34.589  16.844  -7.616  1.00 20.00     0.092 C 
HETATM    9  O13 UNL     1     -33.962  19.072  -6.987  1.00 20.00    -0.293 OA
HETATM   10  C8  UNL     1     -35.295  15.681  -6.901  1.00 20.00    -0.037 C 
HETATM   11  C6  UNL     1     -34.384  15.125  -5.784  1.00 20.00     0.043 C 
HETATM   12  C9  UNL     1     -35.586  14.561  -7.918  1.00 20.00     0.015 C 
HETATM   13  C10 UNL     1     -36.643  16.154  -6.314  1.00 20.00     0.015 C 
ENDBRANCH   4   5
ENDBRANCH   3   4
TORSDOF 2
ENDMDL
MODEL 6
REMARK VINA RESULT:      -5.0      1.974      4.703
REMARK  2 active torsions:
REMARK  status: ('A' for Active; 'I' for Inactive)
REMARK    1  A    between atoms: C4_4  and  C12_12 
REMARK    2  A    between atoms: C11_11  and  C12_12 
ROOT
HETATM    1  C1  UNL     1     -37.760  17.575  -6.081  1.00 20.00     0.012 C 
HETATM    2  C2  UNL     1     -36.863  17.240  -6.804  1.00 20.00    -0.117 C 
HETATM    3  C11 UNL     1     -35.765  16.827  -7.693  1.00 20.00     0.097 C 
ENDROOT
BRANCH   3   4
HETATM    4  C12 UNL     1     -34.417  16.856  -6.988  1.00 20.00     0.046 C 
BRANCH   4   5
HETATM    5  C4  UNL     1     -34.420  15.938  -5.800  1.00 20.00    -0.075 C 
HETATM    6  C3  UNL     1     -34.625  14.620  -5.940  1.00 20.00     0.053 C 
HETATM    7  C5  UNL     1     -34.569  13.717  -4.765  1.00 20.00     0.150 C 
HETATM    8  C7  UNL     1     -34.193  14.298  -3.419  1.00 20.00     0.092 C 
HETATM    9  O13 UNL     1     -34.769  12.513  -4.914  1.00 20.00    -0.293 OA
HETATM   10  C8  UNL     1     -34.650  15.756  -3.256  1.00 20.00    -0.037 C 
HETATM   11  C6  UNL     1     -34.168  16.591  -4.463  1.00 20.00     0.043 C 
HETATM   12  C9  UNL     1     -34.043  16.338  -1.966  1.00 20.00     0.015 C 
HETATM   13  C10 UNL     1     -36.188  15.824  -3.132  1.00 20.00     0.015 C 
ENDBRANCH   4   5
ENDBRANCH   3   4
TORSDOF 2
ENDMDL
MODEL 7
REMARK VINA RESULT:      -5.0      2.239      4.988
REMARK  2 active torsions:
REMARK  status: ('A' for Active; 'I' for Inactive)
REMARK    1  A    between atoms: C4_4  and  C12_12 
REMARK    2  A    between atoms: C11_11  and  C12_12 
ROOT
HETATM    1  C1  UNL     1     -37.555  15.108  -7.667  1.00 20.00     0.012 C 
HETATM    2  C2  UNL     1     -37.835  15.389  -6.535  1.00 20.00    -0.117 C 
HETATM    3  C11 UNL     1     -38.180  15.736  -5.147  1.00 20.00     0.097 C 
ENDROOT
BRANCH   3   4
HETATM    4  C12 UNL     1     -37.642  14.718  -4.153  1.00 20.00     0.046 C 
BRANCH   4   5
HETATM    5  C4  UNL     1     -36.173  14.926  -3.923  1.00 20.00    -0.075 C 
HETATM    6  C3  UNL     1     -35.320  13.891  -3.892  1.00 20.00     0.053 C 
HETATM    7  C5  UNL     1     -33.864  14.116  -3.722  1.00 20.00     0.150 C 
HETATM    8  C7  UNL     1     -33.349  15.538  -3.667  1.00 20.00     0.092 C 
HETATM    9  O13 UNL     1     -33.100  13.153  -3.687  1.00 20.00    -0.293 OA
HETATM   10  C8  UNL     1     -34.364  16.510  -3.043  1.00 20.00    -0.037 C 
HETATM   11  C6  UNL     1     -35.731  16.358  -3.745  1.00 20.00     0.043 C 
HETATM   12  C9  UNL     1     -33.861  17.954  -3.224  1.00 20.00     0.015 C 
HETATM   13  C10 UNL     1     -34.501  16.240  -1.528  1.00 20.00     0.015 C 
ENDBRANCH   4   5
ENDBRANCH   3   4
TORSDOF 2
ENDMDL
MODEL 8
REMARK VINA RESULT:      -4.9      2.297      5.267
REMARK  2 active torsions:
REMARK  status: ('A' for Active; 'I' for Inactive)
REMARK    1  A    between atoms: C4_4  and  C12_12 
REMARK    2  A    between atoms: C11_11  and  C12_12 
ROOT
HETATM    1  C1  UNL     1     -35.179  14.303  -6.734  1.00 20.00     0.012 C 
HETATM    2  C2  UNL     1     -34.988  13.933  -5.609  1.00 20.00    -0.117 C 
HETATM    3  C11 UNL     1     -34.756  13.477  -4.229  1.00 20.00     0.097 C 
ENDROOT
BRANCH   3   4
HETATM    4  C12 UNL     1     -33.579  14.191  -3.581  1.00 20.00     0.046 C 
BRANCH   4   5
HETATM    5  C4  UNL     1     -33.887  15.646  -3.380  1.00 20.00    -0.075 C 
HETATM    6  C3  UNL     1     -33.411  16.579  -4.219  1.00 20.00     0.053 C 
HETATM    7  C5  UNL     1     -33.770  18.008  -4.041  1.00 20.00     0.150 C 
HETATM    8  C7  UNL     1     -34.748  18.382  -2.948  1.00 20.00     0.092 C 
HETATM    9  O13 UNL     1     -33.316  18.849  -4.815  1.00 20.00    -0.293 OA
HETATM   10  C8  UNL     1     -34.662  17.446  -1.732  1.00 20.00    -0.037 C 
HETATM   11  C6  UNL     1     -34.763  15.976  -2.197  1.00 20.00     0.043 C 
HETATM   12  C9  UNL     1     -35.826  17.753  -0.772  1.00 20.00     0.015 C 
HETATM   13  C10 UNL     1     -33.340  17.681  -0.969  1.00 20.00     0.015 C 
ENDBRANCH   4   5
ENDBRANCH   3   4
TORSDOF 2
ENDMDL
MODEL 9
REMARK VINA RESULT:      -4.9      2.134      4.661
REMARK  2 active torsions:
REMARK  status: ('A' for Active; 'I' for Inactive)
REMARK    1  A    between atoms: C4_4  and  C12_12 
REMARK    2  A    between atoms: C11_11  and  C12_12 
ROOT
HETATM    1  C1  UNL     1     -35.198  14.370  -6.829  1.00 20.00     0.012 C 
HETATM    2  C2  UNL     1     -34.939  13.936  -5.741  1.00 20.00    -0.117 C 
HETATM    3  C11 UNL     1     -34.624  13.402  -4.407  1.00 20.00     0.097 C 
ENDROOT
BRANCH   3   4
HETATM    4  C12 UNL     1     -33.436  14.110  -3.773  1.00 20.00     0.046 C 
BRANCH   4   5
HETATM    5  C4  UNL     1     -33.802  15.514  -3.383  1.00 20.00    -0.075 C 
HETATM    6  C3  UNL     1     -34.460  15.769  -2.243  1.00 20.00     0.053 C 
HETATM    7  C5  UNL     1     -34.764  17.165  -1.842  1.00 20.00     0.150 C 
HETATM    8  C7  UNL     1     -34.245  18.298  -2.701  1.00 20.00     0.092 C 
HETATM    9  O13 UNL     1     -35.376  17.377  -0.797  1.00 20.00    -0.293 OA
HETATM   10  C8  UNL     1     -34.156  17.918  -4.189  1.00 20.00    -0.037 C 
HETATM   11  C6  UNL     1     -33.372  16.596  -4.343  1.00 20.00     0.043 C 
HETATM   12  C9  UNL     1     -33.420  19.033  -4.954  1.00 20.00     0.015 C 
HETATM   13  C10 UNL     1     -35.571  17.781  -4.791  1.00 20.00     0.015 C 
ENDBRANCH   4   5
ENDBRANCH   3   4
TORSDOF 2
ENDMDL
