MODEL 1
REMARK VINA RESULT:      -5.2      0.000      0.000
REMARK  1 active torsions:
REMARK  status: ('A' for Active; 'I' for Inactive)
REMARK    1  A    between atoms: C2_2  and  C11_11 
ROOT
HETATM    1  C1  UNL     1     -34.392  14.677  -3.199  1.00 20.00     0.053 C 
HETATM    2  C2  UNL     1     -33.980  15.949  -3.318  1.00 20.00    -0.072 C 
HETATM    3  C3  UNL     1     -34.682  13.861  -4.404  1.00 20.00     0.149 C 
HETATM    4  C4  UNL     1     -33.849  16.646  -4.648  1.00 20.00     0.035 C 
HETATM    5  C5  UNL     1     -34.413  14.463  -5.764  1.00 20.00     0.083 C 
HETATM    6  C6  UNL     1     -34.653  15.963  -5.750  1.00 20.00     0.012 C 
HETATM    7  O12 UNL     1     -35.070  12.701  -4.276  1.00 20.00    -0.293 OA
ENDROOT
BRANCH   2   8
HETATM    8  C11 UNL     1     -33.613  16.776  -2.099  1.00 20.00     0.014 C 
HETATM    9  C9  UNL     1     -34.647  16.516  -1.008  1.00 20.00     0.009 C 
HETATM   10  C7  UNL     1     -35.628  17.676  -1.120  1.00 20.00     0.001 C 
HETATM   11  C8  UNL     1     -34.731  18.848  -1.475  1.00 20.00     0.001 C 
HETATM   12  C10 UNL     1     -33.715  18.261  -2.449  1.00 20.00     0.009 C 
ENDBRANCH   2   8
TORSDOF 1
ENDMDL
MODEL 2
REMARK VINA RESULT:      -4.9      1.473      1.822
REMARK  1 active torsions:
REMARK  status: ('A' for Active; 'I' for Inactive)
REMARK    1  A    between atoms: C2_2  and  C11_11 
ROOT
HETATM    1  C1  UNL     1     -36.094  15.720  -3.192  1.00 20.00     0.053 C 
HETATM    2  C2  UNL     1     -34.821  16.118  -3.038  1.00 20.00    -0.072 C 
HETATM    3  C3  UNL     1     -36.406  14.404  -3.802  1.00 20.00     0.149 C 
HETATM    4  C4  UNL     1     -33.646  15.307  -3.522  1.00 20.00     0.035 C 
HETATM    5  C5  UNL     1     -35.260  13.485  -4.159  1.00 20.00     0.083 C 
HETATM    6  C6  UNL     1     -34.038  14.282  -4.581  1.00 20.00     0.012 C 
HETATM    7  O12 UNL     1     -37.579  14.061  -3.946  1.00 20.00    -0.293 OA
ENDROOT
BRANCH   2   8
HETATM    8  C11 UNL     1     -34.482  17.430  -2.354  1.00 20.00     0.014 C 
HETATM    9  C9  UNL     1     -33.769  17.121  -1.041  1.00 20.00     0.009 C 
HETATM   10  C7  UNL     1     -34.860  17.203   0.019  1.00 20.00     0.001 C 
HETATM   11  C8  UNL     1     -35.730  18.345  -0.473  1.00 20.00     0.001 C 
HETATM   12  C10 UNL     1     -35.777  18.155  -1.986  1.00 20.00     0.009 C 
ENDBRANCH   2   8
TORSDOF 1
ENDMDL
MODEL 3
REMARK VINA RESULT:      -4.8      1.931      4.423
REMARK  1 active torsions:
REMARK  status: ('A' for Active; 'I' for Inactive)
REMARK    1  A    between atoms: C2_2  and  C11_11 
ROOT
HETATM    1  C1  UNL     1     -34.140  16.063  -2.043  1.00 20.00     0.053 C 
HETATM    2  C2  UNL     1     -33.795  16.339  -3.311  1.00 20.00    -0.072 C 
HETATM    3  C3  UNL     1     -34.591  17.143  -1.130  1.00 20.00     0.149 C 
HETATM    4  C4  UNL     1     -33.777  17.739  -3.868  1.00 20.00     0.035 C 
HETATM    5  C5  UNL     1     -34.743  18.540  -1.687  1.00 20.00     0.083 C 
HETATM    6  C6  UNL     1     -33.719  18.804  -2.777  1.00 20.00     0.012 C 
HETATM    7  O12 UNL     1     -34.891  16.874   0.031  1.00 20.00    -0.293 OA
ENDROOT
BRANCH   2   8
HETATM    8  C11 UNL     1     -33.397  15.238  -4.277  1.00 20.00     0.014 C 
HETATM    9  C9  UNL     1     -34.196  15.411  -5.565  1.00 20.00     0.009 C 
HETATM   10  C7  UNL     1     -35.367  14.446  -5.426  1.00 20.00     0.001 C 
HETATM   11  C8  UNL     1     -34.747  13.258  -4.714  1.00 20.00     0.001 C 
HETATM   12  C10 UNL     1     -33.803  13.885  -3.692  1.00 20.00     0.009 C 
ENDBRANCH   2   8
TORSDOF 1
ENDMDL
MODEL 4
REMARK VINA RESULT:      -4.7      1.352      1.976
REMARK  1 active torsions:
REMARK  status: ('A' for Active; 'I' for Inactive)
REMARK    1  A    between atoms: C2_2  and  C11_11 
ROOT
HETATM    1  C1  UNL     1     -33.925  16.175  -4.914  1.00 20.00     0.053 C 
HETATM    2  C2  UNL     1     -34.004  15.700  -3.661  1.00 20.00    -0.072 C 
HETATM    3  C3  UNL     1     -34.341  15.340  -6.067  1.00 20.00     0.149 C 
HETATM    4  C4  UNL     1     -34.448  14.294  -3.346  1.00 20.00     0.035 C 
HETATM    5  C5  UNL     1     -34.944  13.981  -5.792  1.00 20.00     0.083 C 
HETATM    6  C6  UNL     1     -34.336  13.360  -4.547  1.00 20.00     0.012 C 
HETATM    7  O12 UNL     1     -34.251  15.787  -7.209  1.00 20.00    -0.293 OA
ENDROOT
BRANCH   2   8
HETATM    8  C11 UNL     1     -33.646  16.564  -2.466  1.00 20.00     0.014 C 
HETATM    9  C9  UNL     1     -34.685  16.333  -1.373  1.00 20.00     0.009 C 
HETATM   10  C7  UNL     1     -35.669  17.486  -1.525  1.00 20.00     0.001 C 
HETATM   11  C8  UNL     1     -34.775  18.650  -1.910  1.00 20.00     0.001 C 
HETATM   12  C10 UNL     1     -33.751  18.037  -2.861  1.00 20.00     0.009 C 
ENDBRANCH   2   8
TORSDOF 1
ENDMDL
MODEL 5
REMARK VINA RESULT:      -4.7      2.764      4.970
REMARK  1 active torsions:
REMARK  status: ('A' for Active; 'I' for Inactive)
REMARK    1  A    between atoms: C2_2  and  C11_11 
ROOT
HETATM    1  C1  UNL     1     -35.025  17.144  -0.266  1.00 20.00     0.053 C 
HETATM    2  C2  UNL     1     -34.386  17.511  -1.388  1.00 20.00    -0.072 C 
HETATM    3  C3  UNL     1     -34.664  17.745   1.042  1.00 20.00     0.149 C 
HETATM    4  C4  UNL     1     -33.238  18.488  -1.392  1.00 20.00     0.035 C 
HETATM    5  C5  UNL     1     -33.629  18.846   1.067  1.00 20.00     0.083 C 
HETATM    6  C6  UNL     1     -32.589  18.637  -0.020  1.00 20.00     0.012 C 
HETATM    7  O12 UNL     1     -35.252  17.387   2.061  1.00 20.00    -0.293 OA
ENDROOT
BRANCH   2   8
HETATM    8  C11 UNL     1     -34.789  16.958  -2.742  1.00 20.00     0.014 C 
HETATM    9  C9  UNL     1     -34.560  15.450  -2.737  1.00 20.00     0.009 C 
HETATM   10  C7  UNL     1     -33.204  15.262  -3.405  1.00 20.00     0.001 C 
HETATM   11  C8  UNL     1     -33.203  16.332  -4.482  1.00 20.00     0.001 C 
HETATM   12  C10 UNL     1     -33.865  17.534  -3.816  1.00 20.00     0.009 C 
ENDBRANCH   2   8
TORSDOF 1
ENDMDL
MODEL 6
REMARK VINA RESULT:      -4.7      1.762      2.272
REMARK  1 active torsions:
REMARK  status: ('A' for Active; 'I' for Inactive)
REMARK    1  A    between atoms: C2_2  and  C11_11 
ROOT
HETATM    1  C1  UNL     1     -35.620  14.643  -3.634  1.00 20.00     0.053 C 
HETATM    2  C2  UNL     1     -35.183  15.771  -3.051  1.00 20.00    -0.072 C 
HETATM    3  C3  UNL     1     -34.666  13.573  -4.019  1.00 20.00     0.149 C 
HETATM    4  C4  UNL     1     -33.723  16.054  -2.809  1.00 20.00     0.035 C 
HETATM    5  C5  UNL     1     -33.209  13.740  -3.653  1.00 20.00     0.083 C 
HETATM    6  C6  UNL     1     -32.807  15.205  -3.685  1.00 20.00     0.012 C 
HETATM    7  O12 UNL     1     -35.082  12.552  -4.564  1.00 20.00    -0.293 OA
ENDROOT
BRANCH   2   8
HETATM    8  C11 UNL     1     -36.151  16.845  -2.589  1.00 20.00     0.014 C 
HETATM    9  C9  UNL     1     -37.094  17.176  -3.742  1.00 20.00     0.009 C 
HETATM   10  C7  UNL     1     -36.496  18.421  -4.385  1.00 20.00     0.001 C 
HETATM   11  C8  UNL     1     -35.962  19.197  -3.194  1.00 20.00     0.001 C 
HETATM   12  C10 UNL     1     -35.373  18.125  -2.283  1.00 20.00     0.009 C 
ENDBRANCH   2   8
TORSDOF 1
ENDMDL
MODEL 7
REMARK VINA RESULT:      -4.6      2.394      4.171
REMARK  1 active torsions:
REMARK  status: ('A' for Active; 'I' for Inactive)
REMARK    1  A    between atoms: C2_2  and  C11_11 
ROOT
HETATM    1  C1  UNL     1     -34.759  14.442  -5.844  1.00 20.00     0.053 C 
HETATM    2  C2  UNL     1     -34.227  15.668  -5.974  1.00 20.00    -0.072 C 
HETATM    3  C3  UNL     1     -34.611  13.685  -4.576  1.00 20.00     0.149 C 
HETATM    4  C4  UNL     1     -33.406  16.323  -4.893  1.00 20.00     0.035 C 
HETATM    5  C5  UNL     1     -33.933  14.362  -3.407  1.00 20.00     0.083 C 
HETATM    6  C6  UNL     1     -32.854  15.318  -3.886  1.00 20.00     0.012 C 
HETATM    7  O12 UNL     1     -35.094  12.558  -4.478  1.00 20.00    -0.293 OA
ENDROOT
BRANCH   2   8
HETATM    8  C11 UNL     1     -34.427  16.484  -7.238  1.00 20.00     0.014 C 
HETATM    9  C9  UNL     1     -34.496  17.959  -6.857  1.00 20.00     0.009 C 
HETATM   10  C7  UNL     1     -35.986  18.271  -6.787  1.00 20.00     0.001 C 
HETATM   11  C8  UNL     1     -36.562  17.439  -7.918  1.00 20.00     0.001 C 
HETATM   12  C10 UNL     1     -35.780  16.130  -7.856  1.00 20.00     0.009 C 
ENDBRANCH   2   8
TORSDOF 1
ENDMDL
MODEL 8
REMARK VINA RESULT:      -4.6      2.288      4.653
REMARK  1 active torsions:
REMARK  status: ('A' for Active; 'I' for Inactive)
REMARK    1  A    between atoms: C2_2  and  C11_11 
ROOT
HETATM    1  C1  UNL     1     -35.981  17.249  -2.946  1.00 20.00     0.053 C 
HETATM    2  C2  UNL     1     -34.789  16.636  -2.865  1.00 20.00    -0.072 C 
HETATM    3  C3  UNL     1     -36.508  18.032  -1.801  1.00 20.00     0.149 C 
HETATM    4  C4  UNL     1     -33.949  16.644  -1.614  1.00 20.00     0.035 C 
HETATM    5  C5  UNL     1     -35.631  18.203  -0.581  1.00 20.00     0.083 C 
HETATM    6  C6  UNL     1     -34.758  16.979  -0.365  1.00 20.00     0.012 C 
HETATM    7  O12 UNL     1     -37.607  18.577  -1.888  1.00 20.00    -0.293 OA
ENDROOT
BRANCH   2   8
HETATM    8  C11 UNL     1     -34.205  15.889  -4.049  1.00 20.00     0.014 C 
HETATM    9  C9  UNL     1     -35.257  14.916  -4.575  1.00 20.00     0.009 C 
HETATM   10  C7  UNL     1     -34.895  13.578  -3.942  1.00 20.00     0.001 C 
HETATM   11  C8  UNL     1     -33.378  13.600  -3.940  1.00 20.00     0.001 C 
HETATM   12  C10 UNL     1     -33.025  15.039  -3.576  1.00 20.00     0.009 C 
ENDBRANCH   2   8
TORSDOF 1
ENDMDL
MODEL 9
REMARK VINA RESULT:      -4.6      2.262      4.832
REMARK  1 active torsions:
REMARK  status: ('A' for Active; 'I' for Inactive)
REMARK    1  A    between atoms: C2_2  and  C11_11 
ROOT
HETATM    1  C1  UNL     1     -33.662  17.562  -3.992  1.00 20.00     0.053 C 
HETATM    2  C2  UNL     1     -33.896  16.266  -4.253  1.00 20.00    -0.072 C 
HETATM    3  C3  UNL     1     -33.693  18.070  -2.598  1.00 20.00     0.149 C 
HETATM    4  C4  UNL     1     -34.264  15.270  -3.184  1.00 20.00     0.035 C 
HETATM    5  C5  UNL     1     -33.900  17.080  -1.475  1.00 20.00     0.083 C 
HETATM    6  C6  UNL     1     -34.796  15.936  -1.918  1.00 20.00     0.012 C 
HETATM    7  O12 UNL     1     -33.488  19.263  -2.379  1.00 20.00    -0.293 OA
ENDROOT
BRANCH   2   8
HETATM    8  C11 UNL     1     -33.801  15.717  -5.664  1.00 20.00     0.014 C 
HETATM    9  C9  UNL     1     -34.530  16.670  -6.606  1.00 20.00     0.009 C 
HETATM   10  C7  UNL     1     -35.911  16.054  -6.787  1.00 20.00     0.001 C 
HETATM   11  C8  UNL     1     -35.621  14.564  -6.801  1.00 20.00     0.001 C 
HETATM   12  C10 UNL     1     -34.544  14.383  -5.736  1.00 20.00     0.009 C 
ENDBRANCH   2   8
TORSDOF 1
ENDMDL
