MODEL 1
REMARK VINA RESULT:      -5.1      0.000      0.000
REMARK  2 active torsions:
REMARK  status: ('A' for Active; 'I' for Inactive)
REMARK    1  A    between atoms: C2_2  and  C8_8 
REMARK    2  A    between atoms: C4_4  and  C8_8 
ROOT
HETATM    1  C1  UNL     1     -34.254   5.351   3.962  1.00 20.00    -0.004 C 
HETATM    2  C2  UNL     1     -33.275   6.262   3.893  1.00 20.00    -0.079 C 
HETATM    3  C5  UNL     1     -33.187   7.074   5.147  1.00 20.00     0.036 C 
HETATM    4  C6  UNL     1     -34.035   6.265   6.130  1.00 20.00     0.028 C 
HETATM    5  C7  UNL     1     -34.978   5.426   5.265  1.00 20.00     0.105 C 
HETATM    6 CL9  UNL     1     -35.247   3.819   5.958  1.00 20.00    -0.121 Cl
ENDROOT
BRANCH   2   7
HETATM    7  C8  UNL     1     -32.374   6.520   2.742  1.00 20.00     0.060 C 
BRANCH   7   8
HETATM    8  C4  UNL     1     -32.072   7.981   2.569  1.00 20.00    -0.033 C 
HETATM    9  C3  UNL     1     -32.024   8.603   1.385  1.00 20.00     0.007 C 
ENDBRANCH   7   8
ENDBRANCH   2   7
TORSDOF 2
ENDMDL
MODEL 2
REMARK VINA RESULT:      -4.7      1.134      1.707
REMARK  2 active torsions:
REMARK  status: ('A' for Active; 'I' for Inactive)
REMARK    1  A    between atoms: C2_2  and  C8_8 
REMARK    2  A    between atoms: C4_4  and  C8_8 
ROOT
HETATM    1  C1  UNL     1     -32.940   6.083   4.629  1.00 20.00    -0.004 C 
HETATM    2  C2  UNL     1     -32.972   6.367   3.320  1.00 20.00    -0.079 C 
HETATM    3  C5  UNL     1     -34.144   5.727   2.644  1.00 20.00     0.036 C 
HETATM    4  C6  UNL     1     -35.022   5.307   3.824  1.00 20.00     0.028 C 
HETATM    5  C7  UNL     1     -34.076   5.199   5.023  1.00 20.00     0.105 C 
HETATM    6 CL9  UNL     1     -34.848   5.751   6.517  1.00 20.00    -0.121 Cl
ENDROOT
BRANCH   2   7
HETATM    7  C8  UNL     1     -31.987   7.174   2.556  1.00 20.00     0.060 C 
BRANCH   7   8
HETATM    8  C4  UNL     1     -32.534   8.514   2.158  1.00 20.00    -0.033 C 
HETATM    9  C3  UNL     1     -32.177   9.170   1.047  1.00 20.00     0.007 C 
ENDBRANCH   7   8
ENDBRANCH   2   7
TORSDOF 2
ENDMDL
MODEL 3
REMARK VINA RESULT:      -4.5      2.585      4.378
REMARK  2 active torsions:
REMARK  status: ('A' for Active; 'I' for Inactive)
REMARK    1  A    between atoms: C2_2  and  C8_8 
REMARK    2  A    between atoms: C4_4  and  C8_8 
ROOT
HETATM    1  C1  UNL     1     -33.336   6.110   2.693  1.00 20.00    -0.004 C 
HETATM    2  C2  UNL     1     -33.995   5.942   3.847  1.00 20.00    -0.079 C 
HETATM    3  C5  UNL     1     -33.287   6.603   4.989  1.00 20.00     0.036 C 
HETATM    4  C6  UNL     1     -32.281   7.509   4.278  1.00 20.00     0.028 C 
HETATM    5  C7  UNL     1     -32.083   6.895   2.890  1.00 20.00     0.105 C 
HETATM    6 CL9  UNL     1     -31.887   8.138   1.645  1.00 20.00    -0.121 Cl
ENDROOT
BRANCH   2   7
HETATM    7  C8  UNL     1     -35.251   5.179   4.057  1.00 20.00     0.060 C 
BRANCH   7   8
HETATM    8  C4  UNL     1     -35.096   4.092   5.081  1.00 20.00    -0.033 C 
HETATM    9  C3  UNL     1     -35.137   4.295   6.403  1.00 20.00     0.007 C 
ENDBRANCH   7   8
ENDBRANCH   2   7
TORSDOF 2
ENDMDL
MODEL 4
REMARK VINA RESULT:      -4.4     11.490     12.553
REMARK  2 active torsions:
REMARK  status: ('A' for Active; 'I' for Inactive)
REMARK    1  A    between atoms: C2_2  and  C8_8 
REMARK    2  A    between atoms: C4_4  and  C8_8 
ROOT
HETATM    1  C1  UNL     1     -34.712  15.707  -4.864  1.00 20.00    -0.004 C 
HETATM    2  C2  UNL     1     -34.244  15.294  -3.679  1.00 20.00    -0.079 C 
HETATM    3  C5  UNL     1     -34.308  13.804  -3.550  1.00 20.00     0.036 C 
HETATM    4  C6  UNL     1     -34.551  13.353  -4.991  1.00 20.00     0.028 C 
HETATM    5  C7  UNL     1     -35.171  14.560  -5.700  1.00 20.00     0.105 C 
HETATM    6 CL9  UNL     1     -34.606  14.700  -7.371  1.00 20.00    -0.121 Cl
ENDROOT
BRANCH   2   7
HETATM    7  C8  UNL     1     -33.746  16.144  -2.568  1.00 20.00     0.060 C 
BRANCH   7   8
HETATM    8  C4  UNL     1     -34.764  16.315  -1.479  1.00 20.00    -0.033 C 
HETATM    9  C3  UNL     1     -34.564  17.040  -0.371  1.00 20.00     0.007 C 
ENDBRANCH   7   8
ENDBRANCH   2   7
TORSDOF 2
ENDMDL
MODEL 5
REMARK VINA RESULT:      -4.2      9.969     10.991
REMARK  2 active torsions:
REMARK  status: ('A' for Active; 'I' for Inactive)
REMARK    1  A    between atoms: C2_2  and  C8_8 
REMARK    2  A    between atoms: C4_4  and  C8_8 
ROOT
HETATM    1  C1  UNL     1     -42.236   5.694  -2.406  1.00 20.00    -0.004 C 
HETATM    2  C2  UNL     1     -41.855   4.438  -2.139  1.00 20.00    -0.079 C 
HETATM    3  C5  UNL     1     -40.733   4.400  -1.148  1.00 20.00     0.036 C 
HETATM    4  C6  UNL     1     -40.739   5.821  -0.582  1.00 20.00     0.028 C 
HETATM    5  C7  UNL     1     -41.419   6.685  -1.647  1.00 20.00     0.105 C 
HETATM    6 CL9  UNL     1     -42.427   7.946  -0.922  1.00 20.00    -0.121 Cl
ENDROOT
BRANCH   2   7
HETATM    7  C8  UNL     1     -42.399   3.192  -2.735  1.00 20.00     0.060 C 
BRANCH   7   8
HETATM    8  C4  UNL     1     -41.335   2.360  -3.390  1.00 20.00    -0.033 C 
HETATM    9  C3  UNL     1     -41.546   1.147  -3.915  1.00 20.00     0.007 C 
ENDBRANCH   7   8
ENDBRANCH   2   7
TORSDOF 2
ENDMDL
MODEL 6
REMARK VINA RESULT:      -4.1     11.616     12.089
REMARK  2 active torsions:
REMARK  status: ('A' for Active; 'I' for Inactive)
REMARK    1  A    between atoms: C2_2  and  C8_8 
REMARK    2  A    between atoms: C4_4  and  C8_8 
ROOT
HETATM    1  C1  UNL     1     -35.093  17.381   0.673  1.00 20.00    -0.004 C 
HETATM    2  C2  UNL     1     -34.401  17.199  -0.459  1.00 20.00    -0.079 C 
HETATM    3  C5  UNL     1     -33.240  18.138  -0.553  1.00 20.00     0.036 C 
HETATM    4  C6  UNL     1     -33.125  18.672   0.876  1.00 20.00     0.028 C 
HETATM    5  C7  UNL     1     -34.509  18.477   1.500  1.00 20.00     0.105 C 
HETATM    6 CL9  UNL     1     -34.399  18.022   3.207  1.00 20.00    -0.121 Cl
ENDROOT
BRANCH   2   7
HETATM    7  C8  UNL     1     -34.705  16.237  -1.548  1.00 20.00     0.060 C 
BRANCH   7   8
HETATM    8  C4  UNL     1     -33.707  16.306  -2.667  1.00 20.00    -0.033 C 
HETATM    9  C3  UNL     1     -33.380  15.268  -3.447  1.00 20.00     0.007 C 
ENDBRANCH   7   8
ENDBRANCH   2   7
TORSDOF 2
ENDMDL
MODEL 7
REMARK VINA RESULT:      -4.0     10.306     10.897
REMARK  2 active torsions:
REMARK  status: ('A' for Active; 'I' for Inactive)
REMARK    1  A    between atoms: C2_2  and  C8_8 
REMARK    2  A    between atoms: C4_4  and  C8_8 
ROOT
HETATM    1  C1  UNL     1     -42.441   5.200  -2.627  1.00 20.00    -0.004 C 
HETATM    2  C2  UNL     1     -41.950   6.329  -2.100  1.00 20.00    -0.079 C 
HETATM    3  C5  UNL     1     -41.017   6.048  -0.964  1.00 20.00     0.036 C 
HETATM    4  C6  UNL     1     -40.738   4.552  -1.122  1.00 20.00     0.028 C 
HETATM    5  C7  UNL     1     -41.923   3.995  -1.915  1.00 20.00     0.105 C 
HETATM    6 CL9  UNL     1     -41.416   2.733  -3.048  1.00 20.00    -0.121 Cl
ENDROOT
BRANCH   2   7
HETATM    7  C8  UNL     1     -42.271   7.720  -2.508  1.00 20.00     0.060 C 
BRANCH   7   8
HETATM    8  C4  UNL     1     -42.687   7.811  -3.948  1.00 20.00    -0.033 C 
HETATM    9  C3  UNL     1     -42.234   8.736  -4.803  1.00 20.00     0.007 C 
ENDBRANCH   7   8
ENDBRANCH   2   7
TORSDOF 2
ENDMDL
MODEL 8
REMARK VINA RESULT:      -4.0      1.417      1.923
REMARK  2 active torsions:
REMARK  status: ('A' for Active; 'I' for Inactive)
REMARK    1  A    between atoms: C2_2  and  C8_8 
REMARK    2  A    between atoms: C4_4  and  C8_8 
ROOT
HETATM    1  C1  UNL     1     -33.016   6.751   5.050  1.00 20.00    -0.004 C 
HETATM    2  C2  UNL     1     -33.452   6.162   3.929  1.00 20.00    -0.079 C 
HETATM    3  C5  UNL     1     -34.532   5.165   4.213  1.00 20.00     0.036 C 
HETATM    4  C6  UNL     1     -34.936   5.509   5.648  1.00 20.00     0.028 C 
HETATM    5  C7  UNL     1     -33.728   6.229   6.253  1.00 20.00     0.105 C 
HETATM    6 CL9  UNL     1     -34.222   7.536   7.340  1.00 20.00    -0.121 Cl
ENDROOT
BRANCH   2   7
HETATM    7  C8  UNL     1     -32.952   6.385   2.549  1.00 20.00     0.060 C 
BRANCH   7   8
HETATM    8  C4  UNL     1     -31.989   7.534   2.469  1.00 20.00    -0.033 C 
HETATM    9  C3  UNL     1     -32.124   8.570   1.632  1.00 20.00     0.007 C 
ENDBRANCH   7   8
ENDBRANCH   2   7
TORSDOF 2
ENDMDL
MODEL 9
REMARK VINA RESULT:      -4.0     11.645     12.177
REMARK  2 active torsions:
REMARK  status: ('A' for Active; 'I' for Inactive)
REMARK    1  A    between atoms: C2_2  and  C8_8 
REMARK    2  A    between atoms: C4_4  and  C8_8 
ROOT
HETATM    1  C1  UNL     1     -33.562  15.631  -3.130  1.00 20.00    -0.004 C 
HETATM    2  C2  UNL     1     -34.320  16.360  -2.299  1.00 20.00    -0.079 C 
HETATM    3  C5  UNL     1     -35.765  16.316  -2.688  1.00 20.00     0.036 C 
HETATM    4  C6  UNL     1     -35.811  15.148  -3.674  1.00 20.00     0.028 C 
HETATM    5  C7  UNL     1     -34.383  15.003  -4.206  1.00 20.00     0.105 C 
HETATM    6 CL9  UNL     1     -33.946  13.305  -4.455  1.00 20.00    -0.121 Cl
ENDROOT
BRANCH   2   7
HETATM    7  C8  UNL     1     -33.856  17.166  -1.142  1.00 20.00     0.060 C 
BRANCH   7   8
HETATM    8  C4  UNL     1     -34.801  17.091   0.022  1.00 20.00    -0.033 C 
HETATM    9  C3  UNL     1     -34.820  17.969   1.032  1.00 20.00     0.007 C 
ENDBRANCH   7   8
ENDBRANCH   2   7
TORSDOF 2
ENDMDL
