MODEL 1
REMARK VINA RESULT:      -4.8      0.000      0.000
REMARK  2 active torsions:
REMARK  status: ('A' for Active; 'I' for Inactive)
REMARK    1  A    between atoms: C2_2  and  C9_9 
REMARK    2  A    between atoms: C4_4  and  C9_9 
ROOT
HETATM    1  C1  UNL     1     -32.887   6.058   4.702  1.00 20.00    -0.004 C 
HETATM    2  C2  UNL     1     -33.243   6.015   3.403  1.00 20.00    -0.079 C 
HETATM    3  C5  UNL     1     -34.590   5.465   2.982  1.00 20.00     0.034 C 
HETATM    4  C6  UNL     1     -35.592   5.313   4.129  1.00 20.00     0.006 C 
HETATM    5  C7  UNL     1     -34.924   4.707   5.359  1.00 20.00     0.024 C 
HETATM    6  C8  UNL     1     -33.737   5.553   5.831  1.00 20.00     0.105 C 
HETATM    7 CL10 UNL     1     -34.312   6.964   6.771  1.00 20.00    -0.121 Cl
ENDROOT
BRANCH   2   8
HETATM    8  C9  UNL     1     -32.381   6.509   2.302  1.00 20.00     0.060 C 
BRANCH   8   9
HETATM    9  C4  UNL     1     -32.146   7.983   2.397  1.00 20.00    -0.033 C 
HETATM   10  C3  UNL     1     -32.051   8.793   1.335  1.00 20.00     0.007 C 
ENDBRANCH   8   9
ENDBRANCH   2   8
TORSDOF 2
ENDMDL
MODEL 2
REMARK VINA RESULT:      -4.6     11.434     12.039
REMARK  2 active torsions:
REMARK  status: ('A' for Active; 'I' for Inactive)
REMARK    1  A    between atoms: C2_2  and  C9_9 
REMARK    2  A    between atoms: C4_4  and  C9_9 
ROOT
HETATM    1  C1  UNL     1     -35.777  15.531  -3.060  1.00 20.00    -0.004 C 
HETATM    2  C2  UNL     1     -34.467  15.658  -2.773  1.00 20.00    -0.079 C 
HETATM    3  C5  UNL     1     -33.440  14.730  -3.386  1.00 20.00     0.034 C 
HETATM    4  C6  UNL     1     -33.959  13.917  -4.575  1.00 20.00     0.006 C 
HETATM    5  C7  UNL     1     -35.348  13.358  -4.287  1.00 20.00     0.024 C 
HETATM    6  C8  UNL     1     -36.348  14.472  -3.958  1.00 20.00     0.105 C 
HETATM    7 CL10 UNL     1     -36.917  15.262  -5.461  1.00 20.00    -0.121 Cl
ENDROOT
BRANCH   2   8
HETATM    8  C9  UNL     1     -33.926  16.705  -1.872  1.00 20.00     0.060 C 
BRANCH   8   9
HETATM    9  C4  UNL     1     -34.650  16.742  -0.564  1.00 20.00    -0.033 C 
HETATM   10  C3  UNL     1     -34.542  17.741   0.321  1.00 20.00     0.007 C 
ENDBRANCH   8   9
ENDBRANCH   2   8
TORSDOF 2
ENDMDL
MODEL 3
REMARK VINA RESULT:      -4.6      1.377      2.079
REMARK  2 active torsions:
REMARK  status: ('A' for Active; 'I' for Inactive)
REMARK    1  A    between atoms: C2_2  and  C9_9 
REMARK    2  A    between atoms: C4_4  and  C9_9 
ROOT
HETATM    1  C1  UNL     1     -34.261   5.481   3.766  1.00 20.00    -0.004 C 
HETATM    2  C2  UNL     1     -33.243   6.361   3.706  1.00 20.00    -0.079 C 
HETATM    3  C5  UNL     1     -32.783   7.106   4.941  1.00 20.00     0.034 C 
HETATM    4  C6  UNL     1     -33.311   6.528   6.256  1.00 20.00     0.006 C 
HETATM    5  C7  UNL     1     -34.791   6.177   6.141  1.00 20.00     0.024 C 
HETATM    6  C8  UNL     1     -35.048   5.179   5.008  1.00 20.00     0.105 C 
HETATM    7 CL10 UNL     1     -34.639   3.517   5.537  1.00 20.00    -0.121 Cl
ENDROOT
BRANCH   2   8
HETATM    8  C9  UNL     1     -32.488   6.654   2.464  1.00 20.00     0.060 C 
BRANCH   8   9
HETATM    9  C4  UNL     1     -32.084   8.092   2.383  1.00 20.00    -0.033 C 
HETATM   10  C3  UNL     1     -32.030   8.789   1.241  1.00 20.00     0.007 C 
ENDBRANCH   8   9
ENDBRANCH   2   8
TORSDOF 2
ENDMDL
MODEL 4
REMARK VINA RESULT:      -4.5      9.270     10.785
REMARK  2 active torsions:
REMARK  status: ('A' for Active; 'I' for Inactive)
REMARK    1  A    between atoms: C2_2  and  C9_9 
REMARK    2  A    between atoms: C4_4  and  C9_9 
ROOT
HETATM    1  C1  UNL     1     -42.584   6.077  -2.424  1.00 20.00    -0.004 C 
HETATM    2  C2  UNL     1     -42.071   4.843  -2.256  1.00 20.00    -0.079 C 
HETATM    3  C5  UNL     1     -40.974   4.584  -1.246  1.00 20.00     0.034 C 
HETATM    4  C6  UNL     1     -40.771   5.717  -0.237  1.00 20.00     0.006 C 
HETATM    5  C7  UNL     1     -40.801   7.075  -0.929  1.00 20.00     0.024 C 
HETATM    6  C8  UNL     1     -42.117   7.296  -1.683  1.00 20.00     0.105 C 
HETATM    7 CL10 UNL     1     -43.411   7.786  -0.545  1.00 20.00    -0.121 Cl
ENDROOT
BRANCH   2   8
HETATM    8  C9  UNL     1     -42.539   3.654  -3.011  1.00 20.00     0.060 C 
BRANCH   8   9
HETATM    9  C4  UNL     1     -41.471   2.613  -3.129  1.00 20.00    -0.033 C 
HETATM   10  C3  UNL     1     -41.484   1.631  -4.038  1.00 20.00     0.007 C 
ENDBRANCH   8   9
ENDBRANCH   2   8
TORSDOF 2
ENDMDL
MODEL 5
REMARK VINA RESULT:      -4.4     11.438     12.478
REMARK  2 active torsions:
REMARK  status: ('A' for Active; 'I' for Inactive)
REMARK    1  A    between atoms: C2_2  and  C9_9 
REMARK    2  A    between atoms: C4_4  and  C9_9 
ROOT
HETATM    1  C1  UNL     1     -35.551  15.638  -4.772  1.00 20.00    -0.004 C 
HETATM    2  C2  UNL     1     -35.020  15.697  -3.535  1.00 20.00    -0.079 C 
HETATM    3  C5  UNL     1     -34.159  14.572  -3.001  1.00 20.00     0.034 C 
HETATM    4  C6  UNL     1     -33.676  13.589  -4.071  1.00 20.00     0.006 C 
HETATM    5  C7  UNL     1     -34.806  13.233  -5.032  1.00 20.00     0.024 C 
HETATM    6  C8  UNL     1     -35.384  14.479  -5.711  1.00 20.00     0.105 C 
HETATM    7 CL10 UNL     1     -34.328  15.001  -7.059  1.00 20.00    -0.121 Cl
ENDROOT
BRANCH   2   8
HETATM    8  C9  UNL     1     -35.209  16.847  -2.619  1.00 20.00     0.060 C 
BRANCH   8   9
HETATM    9  C4  UNL     1     -34.362  16.728  -1.392  1.00 20.00    -0.033 C 
HETATM   10  C3  UNL     1     -34.777  17.060  -0.163  1.00 20.00     0.007 C 
ENDBRANCH   8   9
ENDBRANCH   2   8
TORSDOF 2
ENDMDL
MODEL 6
REMARK VINA RESULT:      -4.2     10.987     12.960
REMARK  2 active torsions:
REMARK  status: ('A' for Active; 'I' for Inactive)
REMARK    1  A    between atoms: C2_2  and  C9_9 
REMARK    2  A    between atoms: C4_4  and  C9_9 
ROOT
HETATM    1  C1  UNL     1     -33.616  15.793  -5.258  1.00 20.00    -0.004 C 
HETATM    2  C2  UNL     1     -34.390  15.044  -6.067  1.00 20.00    -0.079 C 
HETATM    3  C5  UNL     1     -34.881  13.679  -5.633  1.00 20.00     0.034 C 
HETATM    4  C6  UNL     1     -34.729  13.405  -4.135  1.00 20.00     0.006 C 
HETATM    5  C7  UNL     1     -33.365  13.868  -3.632  1.00 20.00     0.024 C 
HETATM    6  C8  UNL     1     -33.142  15.360  -3.900  1.00 20.00     0.105 C 
HETATM    7 CL10 UNL     1     -33.992  16.348  -2.672  1.00 20.00    -0.121 Cl
ENDROOT
BRANCH   2   8
HETATM    8  C9  UNL     1     -34.835  15.487  -7.411  1.00 20.00     0.060 C 
BRANCH   8   9
HETATM    9  C4  UNL     1     -36.013  14.702  -7.894  1.00 20.00    -0.033 C 
HETATM   10  C3  UNL     1     -37.266  15.174  -7.917  1.00 20.00     0.007 C 
ENDBRANCH   8   9
ENDBRANCH   2   8
TORSDOF 2
ENDMDL
MODEL 7
REMARK VINA RESULT:      -4.2     11.731     13.337
REMARK  2 active torsions:
REMARK  status: ('A' for Active; 'I' for Inactive)
REMARK    1  A    between atoms: C2_2  and  C9_9 
REMARK    2  A    between atoms: C4_4  and  C9_9 
ROOT
HETATM    1  C1  UNL     1     -35.343  14.217  -5.255  1.00 20.00    -0.004 C 
HETATM    2  C2  UNL     1     -34.535  14.981  -4.495  1.00 20.00    -0.079 C 
HETATM    3  C5  UNL     1     -33.683  16.070  -5.113  1.00 20.00     0.034 C 
HETATM    4  C6  UNL     1     -34.078  16.439  -6.545  1.00 20.00     0.006 C 
HETATM    5  C7  UNL     1     -34.354  15.189  -7.374  1.00 20.00     0.024 C 
HETATM    6  C8  UNL     1     -35.458  14.329  -6.748  1.00 20.00     0.105 C 
HETATM    7 CL10 UNL     1     -37.070  15.007  -7.134  1.00 20.00    -0.121 Cl
ENDROOT
BRANCH   2   8
HETATM    8  C9  UNL     1     -34.428  14.843  -3.023  1.00 20.00     0.060 C 
BRANCH   8   9
HETATM    9  C4  UNL     1     -34.115  16.149  -2.362  1.00 20.00    -0.033 C 
HETATM   10  C3  UNL     1     -34.599  16.516  -1.169  1.00 20.00     0.007 C 
ENDBRANCH   8   9
ENDBRANCH   2   8
TORSDOF 2
ENDMDL
MODEL 8
REMARK VINA RESULT:      -4.1     11.662     12.170
REMARK  2 active torsions:
REMARK  status: ('A' for Active; 'I' for Inactive)
REMARK    1  A    between atoms: C2_2  and  C9_9 
REMARK    2  A    between atoms: C4_4  and  C9_9 
ROOT
HETATM    1  C1  UNL     1     -33.593  15.795  -2.699  1.00 20.00    -0.004 C 
HETATM    2  C2  UNL     1     -34.684  16.215  -2.030  1.00 20.00    -0.079 C 
HETATM    3  C5  UNL     1     -36.073  16.018  -2.600  1.00 20.00     0.034 C 
HETATM    4  C6  UNL     1     -36.137  15.028  -3.766  1.00 20.00     0.006 C 
HETATM    5  C7  UNL     1     -34.988  15.261  -4.742  1.00 20.00     0.024 C 
HETATM    6  C8  UNL     1     -33.626  15.142  -4.050  1.00 20.00     0.105 C 
HETATM    7 CL10 UNL     1     -33.179  13.419  -3.848  1.00 20.00    -0.121 Cl
ENDROOT
BRANCH   2   8
HETATM    8  C9  UNL     1     -34.625  16.870  -0.701  1.00 20.00     0.060 C 
BRANCH   8   9
HETATM    9  C4  UNL     1     -33.925  18.191  -0.761  1.00 20.00    -0.033 C 
HETATM   10  C3  UNL     1     -32.797  18.469  -0.097  1.00 20.00     0.007 C 
ENDBRANCH   8   9
ENDBRANCH   2   8
TORSDOF 2
ENDMDL
MODEL 9
REMARK VINA RESULT:      -4.1     10.898     13.166
REMARK  2 active torsions:
REMARK  status: ('A' for Active; 'I' for Inactive)
REMARK    1  A    between atoms: C2_2  and  C9_9 
REMARK    2  A    between atoms: C4_4  and  C9_9 
ROOT
HETATM    1  C1  UNL     1     -33.519  15.903  -4.913  1.00 20.00    -0.004 C 
HETATM    2  C2  UNL     1     -34.227  15.431  -5.957  1.00 20.00    -0.079 C 
HETATM    3  C5  UNL     1     -34.856  14.055  -5.916  1.00 20.00     0.034 C 
HETATM    4  C6  UNL     1     -34.917  13.436  -4.518  1.00 20.00     0.006 C 
HETATM    5  C7  UNL     1     -33.605  13.646  -3.770  1.00 20.00     0.024 C 
HETATM    6  C8  UNL     1     -33.254  15.133  -3.652  1.00 20.00     0.105 C 
HETATM    7 CL10 UNL     1     -34.193  15.890  -2.328  1.00 20.00    -0.121 Cl
ENDROOT
BRANCH   2   8
HETATM    8  C9  UNL     1     -34.464  16.206  -7.200  1.00 20.00     0.060 C 
BRANCH   8   9
HETATM    9  C4  UNL     1     -34.450  17.681  -6.948  1.00 20.00    -0.033 C 
HETATM   10  C3  UNL     1     -34.433  18.603  -7.918  1.00 20.00     0.007 C 
ENDBRANCH   8   9
ENDBRANCH   2   8
TORSDOF 2
ENDMDL
