MODEL 1
REMARK VINA RESULT:      -6.7      0.000      0.000
REMARK  3 active torsions:
REMARK  status: ('A' for Active; 'I' for Inactive)
REMARK    1  A    between atoms: C4_4  and  C10_10 
REMARK    2  A    between atoms: C8_8  and  O11_11 
REMARK    3  A    between atoms: C9_9  and  C10_10 
ROOT
HETATM    1  C1  UNL     1     -32.415   9.508   0.942  1.00 20.00     0.012 C 
HETATM    2  C2  UNL     1     -32.160   8.739   1.828  1.00 20.00    -0.117 C 
HETATM    3  C9  UNL     1     -31.846   7.799   2.914  1.00 20.00     0.097 C 
ENDROOT
BRANCH   3   4
HETATM    4  C10 UNL     1     -32.539   6.457   2.728  1.00 20.00     0.046 C 
BRANCH   4   5
HETATM    5  C4  UNL     1     -33.380   6.123   3.923  1.00 20.00    -0.080 C 
HETATM    6  C3  UNL     1     -34.418   5.271   3.847  1.00 20.00     0.007 C 
HETATM    7  C8  UNL     1     -35.264   4.886   5.025  1.00 20.00     0.141 C 
HETATM    8  C7  UNL     1     -34.635   5.274   6.366  1.00 20.00     0.036 C 
HETATM    9  C6  UNL     1     -34.058   6.681   6.311  1.00 20.00     0.007 C 
HETATM   10  C5  UNL     1     -32.993   6.798   5.217  1.00 20.00     0.034 C 
BRANCH   7  11
HETATM   11  O11 UNL     1     -35.467   3.476   5.000  1.00 20.00    -0.392 OA
HETATM   12  H25 UNL     1     -34.606   3.069   5.185  1.00 20.00     0.210 HD
ENDBRANCH   7  11
ENDBRANCH   4   5
ENDBRANCH   3   4
TORSDOF 3
ENDMDL
MODEL 2
REMARK VINA RESULT:      -5.8      1.481      2.114
REMARK  3 active torsions:
REMARK  status: ('A' for Active; 'I' for Inactive)
REMARK    1  A    between atoms: C4_4  and  C10_10 
REMARK    2  A    between atoms: C8_8  and  O11_11 
REMARK    3  A    between atoms: C9_9  and  C10_10 
ROOT
HETATM    1  C1  UNL     1     -32.280   9.507   1.084  1.00 20.00     0.012 C 
HETATM    2  C2  UNL     1     -32.147   8.572   1.825  1.00 20.00    -0.117 C 
HETATM    3  C9  UNL     1     -31.981   7.428   2.734  1.00 20.00     0.097 C 
ENDROOT
BRANCH   3   4
HETATM    4  C10 UNL     1     -33.093   6.402   2.572  1.00 20.00     0.046 C 
BRANCH   4   5
HETATM    5  C4  UNL     1     -33.640   5.996   3.908  1.00 20.00    -0.080 C 
HETATM    6  C3  UNL     1     -33.238   6.582   5.050  1.00 20.00     0.007 C 
HETATM    7  C8  UNL     1     -33.785   6.227   6.402  1.00 20.00     0.141 C 
HETATM    8  C7  UNL     1     -35.068   5.397   6.330  1.00 20.00     0.036 C 
HETATM    9  C6  UNL     1     -34.952   4.301   5.280  1.00 20.00     0.007 C 
HETATM   10  C5  UNL     1     -34.670   4.892   3.896  1.00 20.00     0.034 C 
BRANCH   7  11
HETATM   11  O11 UNL     1     -34.051   7.431   7.116  1.00 20.00    -0.392 OA
HETATM   12  H25 UNL     1     -34.407   8.062   6.471  1.00 20.00     0.210 HD
ENDBRANCH   7  11
ENDBRANCH   4   5
ENDBRANCH   3   4
TORSDOF 3
ENDMDL
MODEL 3
REMARK VINA RESULT:      -5.4     11.056     12.272
REMARK  3 active torsions:
REMARK  status: ('A' for Active; 'I' for Inactive)
REMARK    1  A    between atoms: C4_4  and  C10_10 
REMARK    2  A    between atoms: C8_8  and  O11_11 
REMARK    3  A    between atoms: C9_9  and  C10_10 
ROOT
HETATM    1  C1  UNL     1     -34.490  18.105   0.801  1.00 20.00     0.012 C 
HETATM    2  C2  UNL     1     -34.629  17.347  -0.120  1.00 20.00    -0.117 C 
HETATM    3  C9  UNL     1     -34.801  16.418  -1.246  1.00 20.00     0.097 C 
ENDROOT
BRANCH   3   4
HETATM    4  C10 UNL     1     -33.684  16.547  -2.272  1.00 20.00     0.046 C 
BRANCH   4   5
HETATM    5  C4  UNL     1     -33.964  15.697  -3.474  1.00 20.00    -0.080 C 
HETATM    6  C3  UNL     1     -34.059  14.358  -3.392  1.00 20.00     0.007 C 
HETATM    7  C8  UNL     1     -34.370  13.475  -4.565  1.00 20.00     0.141 C 
HETATM    8  C7  UNL     1     -34.905  14.248  -5.772  1.00 20.00     0.036 C 
HETATM    9  C6  UNL     1     -34.097  15.517  -6.008  1.00 20.00     0.007 C 
HETATM   10  C5  UNL     1     -34.136  16.432  -4.781  1.00 20.00     0.034 C 
BRANCH   7  11
HETATM   11  O11 UNL     1     -35.342  12.512  -4.165  1.00 20.00    -0.392 OA
HETATM   12  H25 UNL     1     -35.398  11.861  -4.882  1.00 20.00     0.210 HD
ENDBRANCH   7  11
ENDBRANCH   4   5
ENDBRANCH   3   4
TORSDOF 3
ENDMDL
MODEL 4
REMARK VINA RESULT:      -5.1     11.263     11.912
REMARK  3 active torsions:
REMARK  status: ('A' for Active; 'I' for Inactive)
REMARK    1  A    between atoms: C4_4  and  C10_10 
REMARK    2  A    between atoms: C8_8  and  O11_11 
REMARK    3  A    between atoms: C9_9  and  C10_10 
ROOT
HETATM    1  C1  UNL     1     -33.874  18.641   1.359  1.00 20.00     0.012 C 
HETATM    2  C2  UNL     1     -34.267  17.865   0.531  1.00 20.00    -0.117 C 
HETATM    3  C9  UNL     1     -34.751  16.914  -0.481  1.00 20.00     0.097 C 
ENDROOT
BRANCH   3   4
HETATM    4  C10 UNL     1     -33.857  16.885  -1.713  1.00 20.00     0.046 C 
BRANCH   4   5
HETATM    5  C4  UNL     1     -34.326  15.844  -2.685  1.00 20.00    -0.080 C 
HETATM    6  C3  UNL     1     -33.465  15.107  -3.408  1.00 20.00     0.007 C 
HETATM    7  C8  UNL     1     -33.893  14.034  -4.366  1.00 20.00     0.141 C 
HETATM    8  C7  UNL     1     -35.357  13.624  -4.192  1.00 20.00     0.036 C 
HETATM    9  C6  UNL     1     -36.249  14.845  -4.018  1.00 20.00     0.007 C 
HETATM   10  C5  UNL     1     -35.821  15.671  -2.802  1.00 20.00     0.034 C 
BRANCH   7  11
HETATM   11  O11 UNL     1     -33.066  12.891  -4.170  1.00 20.00    -0.392 OA
HETATM   12  H25 UNL     1     -32.639  13.002  -3.307  1.00 20.00     0.210 HD
ENDBRANCH   7  11
ENDBRANCH   4   5
ENDBRANCH   3   4
TORSDOF 3
ENDMDL
MODEL 5
REMARK VINA RESULT:      -4.8     11.306     12.040
REMARK  3 active torsions:
REMARK  status: ('A' for Active; 'I' for Inactive)
REMARK    1  A    between atoms: C4_4  and  C10_10 
REMARK    2  A    between atoms: C8_8  and  O11_11 
REMARK    3  A    between atoms: C9_9  and  C10_10 
ROOT
HETATM    1  C1  UNL     1     -33.862  18.517   1.148  1.00 20.00     0.012 C 
HETATM    2  C2  UNL     1     -34.280  17.774   0.303  1.00 20.00    -0.117 C 
HETATM    3  C9  UNL     1     -34.794  16.864  -0.731  1.00 20.00     0.097 C 
ENDROOT
BRANCH   3   4
HETATM    4  C10 UNL     1     -33.812  16.692  -1.882  1.00 20.00     0.046 C 
BRANCH   4   5
HETATM    5  C4  UNL     1     -34.281  15.624  -2.825  1.00 20.00    -0.080 C 
HETATM    6  C3  UNL     1     -35.587  15.416  -3.071  1.00 20.00     0.007 C 
HETATM    7  C8  UNL     1     -36.095  14.381  -4.031  1.00 20.00     0.141 C 
HETATM    8  C7  UNL     1     -35.003  13.828  -4.950  1.00 20.00     0.036 C 
HETATM    9  C6  UNL     1     -33.729  13.537  -4.170  1.00 20.00     0.007 C 
HETATM   10  C5  UNL     1     -33.202  14.799  -3.483  1.00 20.00     0.034 C 
BRANCH   7  11
HETATM   11  O11 UNL     1     -37.120  14.964  -4.830  1.00 20.00    -0.392 OA
HETATM   12  H25 UNL     1     -37.260  15.862  -4.490  1.00 20.00     0.210 HD
ENDBRANCH   7  11
ENDBRANCH   4   5
ENDBRANCH   3   4
TORSDOF 3
ENDMDL
MODEL 6
REMARK VINA RESULT:      -4.7     11.497     12.410
REMARK  3 active torsions:
REMARK  status: ('A' for Active; 'I' for Inactive)
REMARK    1  A    between atoms: C4_4  and  C10_10 
REMARK    2  A    between atoms: C8_8  and  O11_11 
REMARK    3  A    between atoms: C9_9  and  C10_10 
ROOT
HETATM    1  C1  UNL     1     -33.731  18.461   0.691  1.00 20.00     0.012 C 
HETATM    2  C2  UNL     1     -34.104  17.632  -0.093  1.00 20.00    -0.117 C 
HETATM    3  C9  UNL     1     -34.564  16.617  -1.052  1.00 20.00     0.097 C 
ENDROOT
BRANCH   3   4
HETATM    4  C10 UNL     1     -33.705  16.584  -2.308  1.00 20.00     0.046 C 
BRANCH   4   5
HETATM    5  C4  UNL     1     -34.377  15.797  -3.392  1.00 20.00    -0.080 C 
HETATM    6  C3  UNL     1     -35.359  14.916  -3.127  1.00 20.00     0.007 C 
HETATM    7  C8  UNL     1     -36.079  14.133  -4.186  1.00 20.00     0.141 C 
HETATM    8  C7  UNL     1     -35.839  14.673  -5.598  1.00 20.00     0.036 C 
HETATM    9  C6  UNL     1     -34.370  15.010  -5.812  1.00 20.00     0.007 C 
HETATM   10  C5  UNL     1     -33.890  16.052  -4.798  1.00 20.00     0.034 C 
BRANCH   7  11
HETATM   11  O11 UNL     1     -37.476  14.168  -3.909  1.00 20.00    -0.392 OA
HETATM   12  H25 UNL     1     -37.925  14.271  -4.762  1.00 20.00     0.210 HD
ENDBRANCH   7  11
ENDBRANCH   4   5
ENDBRANCH   3   4
TORSDOF 3
ENDMDL
MODEL 7
REMARK VINA RESULT:      -4.7     11.163     12.386
REMARK  3 active torsions:
REMARK  status: ('A' for Active; 'I' for Inactive)
REMARK    1  A    between atoms: C4_4  and  C10_10 
REMARK    2  A    between atoms: C8_8  and  O11_11 
REMARK    3  A    between atoms: C9_9  and  C10_10 
ROOT
HETATM    1  C1  UNL     1     -35.214  14.450  -7.024  1.00 20.00     0.012 C 
HETATM    2  C2  UNL     1     -35.070  13.915  -5.959  1.00 20.00    -0.117 C 
HETATM    3  C9  UNL     1     -34.896  13.257  -4.655  1.00 20.00     0.097 C 
ENDROOT
BRANCH   3   4
HETATM    4  C10 UNL     1     -33.686  13.791  -3.902  1.00 20.00     0.046 C 
BRANCH   4   5
HETATM    5  C4  UNL     1     -33.946  15.175  -3.389  1.00 20.00    -0.080 C 
HETATM    6  C3  UNL     1     -34.784  15.408  -2.363  1.00 20.00     0.007 C 
HETATM    7  C8  UNL     1     -35.047  16.774  -1.800  1.00 20.00     0.141 C 
HETATM    8  C7  UNL     1     -34.029  17.819  -2.263  1.00 20.00     0.036 C 
HETATM    9  C6  UNL     1     -33.750  17.686  -3.754  1.00 20.00     0.007 C 
HETATM   10  C5  UNL     1     -33.213  16.293  -4.091  1.00 20.00     0.034 C 
BRANCH   7  11
HETATM   11  O11 UNL     1     -35.014  16.695  -0.378  1.00 20.00    -0.392 OA
HETATM   12  H25 UNL     1     -35.384  17.527  -0.045  1.00 20.00     0.210 HD
ENDBRANCH   7  11
ENDBRANCH   4   5
ENDBRANCH   3   4
TORSDOF 3
ENDMDL
MODEL 8
REMARK VINA RESULT:      -4.6     11.471     12.712
REMARK  3 active torsions:
REMARK  status: ('A' for Active; 'I' for Inactive)
REMARK    1  A    between atoms: C4_4  and  C10_10 
REMARK    2  A    between atoms: C8_8  and  O11_11 
REMARK    3  A    between atoms: C9_9  and  C10_10 
ROOT
HETATM    1  C1  UNL     1     -34.094  18.162   0.591  1.00 20.00     0.012 C 
HETATM    2  C2  UNL     1     -34.372  17.365  -0.264  1.00 20.00    -0.117 C 
HETATM    3  C9  UNL     1     -34.714  16.390  -1.309  1.00 20.00     0.097 C 
ENDROOT
BRANCH   3   4
HETATM    4  C10 UNL     1     -33.695  16.379  -2.439  1.00 20.00     0.046 C 
BRANCH   4   5
HETATM    5  C4  UNL     1     -34.202  15.586  -3.605  1.00 20.00    -0.080 C 
HETATM    6  C3  UNL     1     -34.519  16.166  -4.776  1.00 20.00     0.007 C 
HETATM    7  C8  UNL     1     -34.999  15.404  -5.977  1.00 20.00     0.141 C 
HETATM    8  C7  UNL     1     -34.769  13.895  -5.861  1.00 20.00     0.036 C 
HETATM    9  C6  UNL     1     -35.149  13.390  -4.476  1.00 20.00     0.007 C 
HETATM   10  C5  UNL     1     -34.335  14.098  -3.389  1.00 20.00     0.034 C 
BRANCH   7  11
HETATM   11  O11 UNL     1     -34.315  15.889  -7.128  1.00 20.00    -0.392 OA
HETATM   12  H25 UNL     1     -34.977  15.962  -7.834  1.00 20.00     0.210 HD
ENDBRANCH   7  11
ENDBRANCH   4   5
ENDBRANCH   3   4
TORSDOF 3
ENDMDL
MODEL 9
REMARK VINA RESULT:      -4.5     11.246     12.124
REMARK  3 active torsions:
REMARK  status: ('A' for Active; 'I' for Inactive)
REMARK    1  A    between atoms: C4_4  and  C10_10 
REMARK    2  A    between atoms: C8_8  and  O11_11 
REMARK    3  A    between atoms: C9_9  and  C10_10 
ROOT
HETATM    1  C1  UNL     1     -33.898  18.837  -4.010  1.00 20.00     0.012 C 
HETATM    2  C2  UNL     1     -33.791  18.277  -2.953  1.00 20.00    -0.117 C 
HETATM    3  C9  UNL     1     -33.659  17.592  -1.659  1.00 20.00     0.097 C 
ENDROOT
BRANCH   3   4
HETATM    4  C10 UNL     1     -34.761  16.565  -1.439  1.00 20.00     0.046 C 
BRANCH   4   5
HETATM    5  C4  UNL     1     -34.817  15.593  -2.578  1.00 20.00    -0.080 C 
HETATM    6  C3  UNL     1     -33.710  15.005  -3.067  1.00 20.00     0.007 C 
HETATM    7  C8  UNL     1     -33.727  14.003  -4.184  1.00 20.00     0.141 C 
HETATM    8  C7  UNL     1     -35.127  13.458  -4.478  1.00 20.00     0.036 C 
HETATM    9  C6  UNL     1     -36.158  14.577  -4.488  1.00 20.00     0.007 C 
HETATM   10  C5  UNL     1     -36.188  15.310  -3.144  1.00 20.00     0.034 C 
BRANCH   7  11
HETATM   11  O11 UNL     1     -32.872  12.918  -3.835  1.00 20.00    -0.392 OA
HETATM   12  H25 UNL     1     -32.725  12.409  -4.648  1.00 20.00     0.210 HD
ENDBRANCH   7  11
ENDBRANCH   4   5
ENDBRANCH   3   4
TORSDOF 3
ENDMDL
