MODEL 1
REMARK VINA RESULT:      -4.5      0.000      0.000
REMARK  0 active torsions:
REMARK  status: ('A' for Active; 'I' for Inactive)
ROOT
HETATM    1  C1  UNL     1     -34.256  14.003  -3.974  1.00 20.00     0.067 C 
HETATM    2  C2  UNL     1     -33.600  15.299  -3.773  1.00 20.00     0.127 C 
HETATM    3  C3  UNL     1     -34.501  16.342  -3.124  1.00 20.00     0.030 C 
HETATM    4  C4  UNL     1     -33.171  16.005  -5.063  1.00 20.00     0.136 C 
HETATM    5  C5  UNL     1     -33.750  17.627  -3.468  1.00 20.00     0.123 C 
HETATM    6  C6  UNL     1     -34.700  16.145  -1.626  1.00 20.00     0.014 C 
HETATM    7  C7  UNL     1     -34.078  15.805  -6.275  1.00 20.00     0.041 C 
HETATM    8  C8  UNL     1     -34.634  18.860  -3.508  1.00 20.00     0.040 C 
HETATM    9  N9  UNL     1     -34.775  12.977  -4.132  1.00 20.00    -0.197 NA
HETATM   10  O10 UNL     1     -33.172  17.417  -4.768  1.00 20.00    -0.380 OA
ENDROOT
TORSDOF 0
ENDMDL
MODEL 2
REMARK VINA RESULT:      -4.3      2.435      4.079
REMARK  0 active torsions:
REMARK  status: ('A' for Active; 'I' for Inactive)
ROOT
HETATM    1  C1  UNL     1     -33.451  17.648  -5.055  1.00 20.00     0.067 C 
HETATM    2  C2  UNL     1     -33.226  16.211  -4.879  1.00 20.00     0.127 C 
HETATM    3  C3  UNL     1     -34.372  15.349  -5.393  1.00 20.00     0.030 C 
HETATM    4  C4  UNL     1     -33.111  15.755  -3.420  1.00 20.00     0.136 C 
HETATM    5  C5  UNL     1     -34.084  14.029  -4.679  1.00 20.00     0.123 C 
HETATM    6  C6  UNL     1     -34.418  15.214  -6.909  1.00 20.00     0.014 C 
HETATM    7  C7  UNL     1     -33.974  16.507  -2.410  1.00 20.00     0.041 C 
HETATM    8  C8  UNL     1     -35.312  13.158  -4.483  1.00 20.00     0.040 C 
HETATM    9  N9  UNL     1     -33.629  18.786  -5.196  1.00 20.00    -0.197 NA
HETATM   10  O10 UNL     1     -33.541  14.378  -3.394  1.00 20.00    -0.380 OA
ENDROOT
TORSDOF 0
ENDMDL
MODEL 3
REMARK VINA RESULT:      -4.2      1.558      2.887
REMARK  0 active torsions:
REMARK  status: ('A' for Active; 'I' for Inactive)
ROOT
HETATM    1  C1  UNL     1     -35.154  13.756  -4.638  1.00 20.00     0.067 C 
HETATM    2  C2  UNL     1     -35.471  15.158  -4.928  1.00 20.00     0.127 C 
HETATM    3  C3  UNL     1     -34.409  15.860  -5.765  1.00 20.00     0.030 C 
HETATM    4  C4  UNL     1     -35.558  16.063  -3.695  1.00 20.00     0.136 C 
HETATM    5  C5  UNL     1     -34.759  17.324  -5.506  1.00 20.00     0.123 C 
HETATM    6  C6  UNL     1     -34.435  15.488  -7.242  1.00 20.00     0.014 C 
HETATM    7  C7  UNL     1     -34.604  15.733  -2.549  1.00 20.00     0.041 C 
HETATM    8  C8  UNL     1     -33.588  18.274  -5.681  1.00 20.00     0.040 C 
HETATM    9  N9  UNL     1     -34.903  12.647  -4.409  1.00 20.00    -0.197 NA
HETATM   10  O10 UNL     1     -35.224  17.392  -4.147  1.00 20.00    -0.380 OA
ENDROOT
TORSDOF 0
ENDMDL
MODEL 4
REMARK VINA RESULT:      -4.2     12.078     13.455
REMARK  0 active torsions:
REMARK  status: ('A' for Active; 'I' for Inactive)
ROOT
HETATM    1  C1  UNL     1     -32.750   7.255   3.365  1.00 20.00     0.067 C 
HETATM    2  C2  UNL     1     -33.994   6.758   3.959  1.00 20.00     0.127 C 
HETATM    3  C3  UNL     1     -33.787   6.018   5.274  1.00 20.00     0.030 C 
HETATM    4  C4  UNL     1     -34.734   5.714   3.116  1.00 20.00     0.136 C 
HETATM    5  C5  UNL     1     -35.106   5.256   5.388  1.00 20.00     0.123 C 
HETATM    6  C6  UNL     1     -33.513   6.928   6.464  1.00 20.00     0.014 C 
HETATM    7  C7  UNL     1     -33.860   4.762   2.305  1.00 20.00     0.041 C 
HETATM    8  C8  UNL     1     -35.013   3.994   6.227  1.00 20.00     0.040 C 
HETATM    9  N9  UNL     1     -31.765   7.649   2.894  1.00 20.00    -0.197 NA
HETATM   10  O10 UNL     1     -35.484   4.905   4.046  1.00 20.00    -0.380 OA
ENDROOT
TORSDOF 0
ENDMDL
MODEL 5
REMARK VINA RESULT:      -4.2      1.603      2.422
REMARK  0 active torsions:
REMARK  status: ('A' for Active; 'I' for Inactive)
ROOT
HETATM    1  C1  UNL     1     -34.235  15.235  -6.427  1.00 20.00     0.067 C 
HETATM    2  C2  UNL     1     -33.604  15.634  -5.166  1.00 20.00     0.127 C 
HETATM    3  C3  UNL     1     -34.349  15.145  -3.931  1.00 20.00     0.030 C 
HETATM    4  C4  UNL     1     -33.549  17.147  -4.928  1.00 20.00     0.136 C 
HETATM    5  C5  UNL     1     -33.766  16.062  -2.858  1.00 20.00     0.123 C 
HETATM    6  C6  UNL     1     -34.150  13.665  -3.630  1.00 20.00     0.014 C 
HETATM    7  C7  UNL     1     -34.727  17.956  -5.464  1.00 20.00     0.041 C 
HETATM    8  C8  UNL     1     -34.680  16.267  -1.664  1.00 20.00     0.040 C 
HETATM    9  N9  UNL     1     -34.735  14.918  -7.425  1.00 20.00    -0.197 NA
HETATM   10  O10 UNL     1     -33.532  17.329  -3.497  1.00 20.00    -0.380 OA
ENDROOT
TORSDOF 0
ENDMDL
MODEL 6
REMARK VINA RESULT:      -4.1      2.121      2.781
REMARK  0 active torsions:
REMARK  status: ('A' for Active; 'I' for Inactive)
ROOT
HETATM    1  C1  UNL     1     -37.292  14.770  -3.633  1.00 20.00     0.067 C 
HETATM    2  C2  UNL     1     -35.978  15.363  -3.363  1.00 20.00     0.127 C 
HETATM    3  C3  UNL     1     -35.601  16.472  -4.336  1.00 20.00     0.030 C 
HETATM    4  C4  UNL     1     -34.799  14.396  -3.506  1.00 20.00     0.136 C 
HETATM    5  C5  UNL     1     -34.092  16.550  -4.115  1.00 20.00     0.123 C 
HETATM    6  C6  UNL     1     -36.314  17.793  -4.079  1.00 20.00     0.014 C 
HETATM    7  C7  UNL     1     -34.930  13.329  -4.590  1.00 20.00     0.041 C 
HETATM    8  C8  UNL     1     -33.326  17.099  -5.305  1.00 20.00     0.040 C 
HETATM    9  N9  UNL     1     -38.332  14.302  -3.845  1.00 20.00    -0.197 NA
HETATM   10  O10 UNL     1     -33.655  15.205  -3.852  1.00 20.00    -0.380 OA
ENDROOT
TORSDOF 0
ENDMDL
MODEL 7
REMARK VINA RESULT:      -4.1      2.207      2.583
REMARK  0 active torsions:
REMARK  status: ('A' for Active; 'I' for Inactive)
ROOT
HETATM    1  C1  UNL     1     -37.188  14.443  -3.987  1.00 20.00     0.067 C 
HETATM    2  C2  UNL     1     -35.771  14.515  -4.354  1.00 20.00     0.127 C 
HETATM    3  C3  UNL     1     -35.105  15.824  -3.950  1.00 20.00     0.030 C 
HETATM    4  C4  UNL     1     -35.496  14.467  -5.861  1.00 20.00     0.136 C 
HETATM    5  C5  UNL     1     -33.859  15.800  -4.834  1.00 20.00     0.123 C 
HETATM    6  C6  UNL     1     -34.786  15.927  -2.464  1.00 20.00     0.014 C 
HETATM    7  C7  UNL     1     -36.536  15.137  -6.756  1.00 20.00     0.041 C 
HETATM    8  C8  UNL     1     -33.294  17.176  -5.134  1.00 20.00     0.040 C 
HETATM    9  N9  UNL     1     -38.310  14.385  -3.697  1.00 20.00    -0.197 NA
HETATM   10  O10 UNL     1     -34.253  15.171  -6.065  1.00 20.00    -0.380 OA
ENDROOT
TORSDOF 0
ENDMDL
MODEL 8
REMARK VINA RESULT:      -4.1      2.470      3.604
REMARK  0 active torsions:
REMARK  status: ('A' for Active; 'I' for Inactive)
ROOT
HETATM    1  C1  UNL     1     -34.570  16.223  -1.586  1.00 20.00     0.067 C 
HETATM    2  C2  UNL     1     -34.873  15.303  -2.685  1.00 20.00     0.127 C 
HETATM    3  C3  UNL     1     -33.925  15.439  -3.870  1.00 20.00     0.030 C 
HETATM    4  C4  UNL     1     -36.240  15.517  -3.342  1.00 20.00     0.136 C 
HETATM    5  C5  UNL     1     -34.732  14.746  -4.967  1.00 20.00     0.123 C 
HETATM    6  C6  UNL     1     -32.555  14.813  -3.646  1.00 20.00     0.014 C 
HETATM    7  C7  UNL     1     -36.732  16.960  -3.418  1.00 20.00     0.041 C 
HETATM    8  C8  UNL     1     -34.382  15.209  -6.370  1.00 20.00     0.040 C 
HETATM    9  N9  UNL     1     -34.330  16.952  -0.715  1.00 20.00    -0.197 NA
HETATM   10  O10 UNL     1     -36.112  15.047  -4.700  1.00 20.00    -0.380 OA
ENDROOT
TORSDOF 0
ENDMDL
MODEL 9
REMARK VINA RESULT:      -4.0      1.867      2.237
REMARK  0 active torsions:
REMARK  status: ('A' for Active; 'I' for Inactive)
ROOT
HETATM    1  C1  UNL     1     -34.949  13.608  -4.116  1.00 20.00     0.067 C 
HETATM    2  C2  UNL     1     -35.257  14.766  -3.272  1.00 20.00     0.127 C 
HETATM    3  C3  UNL     1     -36.352  15.658  -3.841  1.00 20.00     0.030 C 
HETATM    4  C4  UNL     1     -34.099  15.754  -3.093  1.00 20.00     0.136 C 
HETATM    5  C5  UNL     1     -36.123  16.941  -3.044  1.00 20.00     0.123 C 
HETATM    6  C6  UNL     1     -37.758  15.095  -3.682  1.00 20.00     0.014 C 
HETATM    7  C7  UNL     1     -33.171  15.928  -4.292  1.00 20.00     0.041 C 
HETATM    8  C8  UNL     1     -36.615  18.194  -3.746  1.00 20.00     0.040 C 
HETATM    9  N9  UNL     1     -34.705  12.690  -4.784  1.00 20.00    -0.197 NA
HETATM   10  O10 UNL     1     -34.703  17.040  -2.841  1.00 20.00    -0.380 OA
ENDROOT
TORSDOF 0
ENDMDL
