MODEL 1
REMARK VINA RESULT:      -4.3      0.000      0.000
REMARK  1 active torsions:
REMARK  status: ('A' for Active; 'I' for Inactive)
REMARK    1  A    between atoms: C2_2  and  C8_8 
ROOT
HETATM    1  C1  UNL     1     -34.009  14.340  -4.099  1.00 20.00     0.018 C 
HETATM    2  C2  UNL     1     -35.186  14.740  -3.204  1.00 20.00     0.034 C 
HETATM    3  C3  UNL     1     -34.524  14.587  -5.525  1.00 20.00     0.122 C 
HETATM    4  C4  UNL     1     -36.357  14.331  -4.102  1.00 20.00     0.123 C 
HETATM    5  C5  UNL     1     -32.653  14.938  -3.753  1.00 20.00     0.013 C 
HETATM    6  C6  UNL     1     -34.010  15.825  -6.245  1.00 20.00     0.040 C 
HETATM    7  C7  UNL     1     -37.706  14.951  -3.792  1.00 20.00     0.040 C 
HETATM    8  O9  UNL     1     -35.960  14.686  -5.436  1.00 20.00    -0.381 OA
ENDROOT
BRANCH   2   9
HETATM    9  C8  UNL     1     -35.199  16.214  -2.794  1.00 20.00     0.122 C 
HETATM   10 CL10 UNL     1     -34.690  16.378  -1.105  1.00 20.00    -0.130 Cl
ENDBRANCH   2   9
TORSDOF 1
ENDMDL
MODEL 2
REMARK VINA RESULT:      -4.1      2.778      3.870
REMARK  1 active torsions:
REMARK  status: ('A' for Active; 'I' for Inactive)
REMARK    1  A    between atoms: C2_2  and  C8_8 
ROOT
HETATM    1  C1  UNL     1     -33.347  15.057  -4.010  1.00 20.00     0.018 C 
HETATM    2  C2  UNL     1     -33.777  15.699  -5.333  1.00 20.00     0.034 C 
HETATM    3  C3  UNL     1     -33.600  16.154  -2.965  1.00 20.00     0.122 C 
HETATM    4  C4  UNL     1     -33.392  17.155  -5.063  1.00 20.00     0.123 C 
HETATM    5  C5  UNL     1     -33.915  13.680  -3.701  1.00 20.00     0.013 C 
HETATM    6  C6  UNL     1     -34.824  15.996  -2.074  1.00 20.00     0.040 C 
HETATM    7  C7  UNL     1     -34.044  18.209  -5.939  1.00 20.00     0.040 C 
HETATM    8  O9  UNL     1     -33.732  17.395  -3.689  1.00 20.00    -0.381 OA
ENDROOT
BRANCH   2   9
HETATM    9  C8  UNL     1     -35.252  15.498  -5.686  1.00 20.00     0.122 C 
HETATM   10 CL10 UNL     1     -35.405  14.350  -7.027  1.00 20.00    -0.130 Cl
ENDBRANCH   2   9
TORSDOF 1
ENDMDL
MODEL 3
REMARK VINA RESULT:      -4.0      2.116      3.043
REMARK  1 active torsions:
REMARK  status: ('A' for Active; 'I' for Inactive)
REMARK    1  A    between atoms: C2_2  and  C8_8 
ROOT
HETATM    1  C1  UNL     1     -34.819  15.306  -3.619  1.00 20.00     0.018 C 
HETATM    2  C2  UNL     1     -34.702  16.020  -4.970  1.00 20.00     0.034 C 
HETATM    3  C3  UNL     1     -34.350  13.873  -3.913  1.00 20.00     0.122 C 
HETATM    4  C4  UNL     1     -35.032  14.861  -5.915  1.00 20.00     0.123 C 
HETATM    5  C5  UNL     1     -34.183  15.998  -2.423  1.00 20.00     0.013 C 
HETATM    6  C6  UNL     1     -32.958  13.487  -3.437  1.00 20.00     0.040 C 
HETATM    7  C7  UNL     1     -34.602  15.015  -7.362  1.00 20.00     0.040 C 
HETATM    8  O9  UNL     1     -34.396  13.707  -5.345  1.00 20.00    -0.381 OA
ENDROOT
BRANCH   2   9
HETATM    9  C8  UNL     1     -33.341  16.668  -5.229  1.00 20.00     0.122 C 
HETATM   10 CL10 UNL     1     -33.489  18.433  -5.177  1.00 20.00    -0.130 Cl
ENDBRANCH   2   9
TORSDOF 1
ENDMDL
MODEL 4
REMARK VINA RESULT:      -4.0      1.135      1.231
REMARK  1 active torsions:
REMARK  status: ('A' for Active; 'I' for Inactive)
REMARK    1  A    between atoms: C2_2  and  C8_8 
ROOT
HETATM    1  C1  UNL     1     -34.800  14.040  -3.776  1.00 20.00     0.018 C 
HETATM    2  C2  UNL     1     -35.189  15.219  -2.878  1.00 20.00     0.034 C 
HETATM    3  C3  UNL     1     -35.416  14.391  -5.139  1.00 20.00     0.122 C 
HETATM    4  C4  UNL     1     -36.551  15.575  -3.479  1.00 20.00     0.123 C 
HETATM    5  C5  UNL     1     -33.333  13.635  -3.777  1.00 20.00     0.013 C 
HETATM    6  C6  UNL     1     -34.469  14.888  -6.222  1.00 20.00     0.040 C 
HETATM    7  C7  UNL     1     -37.091  16.961  -3.176  1.00 20.00     0.040 C 
HETATM    8  O9  UNL     1     -36.398  15.418  -4.899  1.00 20.00    -0.381 OA
ENDROOT
BRANCH   2   9
HETATM    9  C8  UNL     1     -34.186  16.373  -2.877  1.00 20.00     0.122 C 
HETATM   10 CL10 UNL     1     -33.934  16.957  -1.223  1.00 20.00    -0.130 Cl
ENDBRANCH   2   9
TORSDOF 1
ENDMDL
MODEL 5
REMARK VINA RESULT:      -4.0     12.216     13.031
REMARK  1 active torsions:
REMARK  status: ('A' for Active; 'I' for Inactive)
REMARK    1  A    between atoms: C2_2  and  C8_8 
ROOT
HETATM    1  C1  UNL     1     -34.548   6.400   5.546  1.00 20.00     0.018 C 
HETATM    2  C2  UNL     1     -34.062   6.560   4.102  1.00 20.00     0.034 C 
HETATM    3  C3  UNL     1     -34.933   4.916   5.648  1.00 20.00     0.122 C 
HETATM    4  C4  UNL     1     -34.969   5.546   3.400  1.00 20.00     0.123 C 
HETATM    5  C5  UNL     1     -33.637   6.942   6.638  1.00 20.00     0.013 C 
HETATM    6  C6  UNL     1     -33.974   3.999   6.391  1.00 20.00     0.040 C 
HETATM    7  C7  UNL     1     -34.526   5.064   2.031  1.00 20.00     0.040 C 
HETATM    8  O9  UNL     1     -35.063   4.428   4.297  1.00 20.00    -0.381 OA
ENDROOT
BRANCH   2   9
HETATM    9  C8  UNL     1     -32.567   6.303   3.903  1.00 20.00     0.122 C 
HETATM   10 CL10 UNL     1     -31.856   7.592   2.917  1.00 20.00    -0.130 Cl
ENDBRANCH   2   9
TORSDOF 1
ENDMDL
MODEL 6
REMARK VINA RESULT:      -4.0      2.403      3.744
REMARK  1 active torsions:
REMARK  status: ('A' for Active; 'I' for Inactive)
REMARK    1  A    between atoms: C2_2  and  C8_8 
ROOT
HETATM    1  C1  UNL     1     -33.792  16.758  -2.181  1.00 20.00     0.018 C 
HETATM    2  C2  UNL     1     -33.917  15.740  -3.319  1.00 20.00     0.034 C 
HETATM    3  C3  UNL     1     -34.022  18.113  -2.866  1.00 20.00     0.122 C 
HETATM    4  C4  UNL     1     -33.353  16.564  -4.479  1.00 20.00     0.123 C 
HETATM    5  C5  UNL     1     -34.607  16.484  -0.925  1.00 20.00     0.013 C 
HETATM    6  C6  UNL     1     -35.373  18.780  -2.652  1.00 20.00     0.040 C 
HETATM    7  C7  UNL     1     -33.696  16.096  -5.881  1.00 20.00     0.040 C 
HETATM    8  O9  UNL     1     -33.851  17.897  -4.282  1.00 20.00    -0.381 OA
ENDROOT
BRANCH   2   9
HETATM    9  C8  UNL     1     -35.337  15.221  -3.554  1.00 20.00     0.122 C 
HETATM   10 CL10 UNL     1     -35.292  13.506  -3.995  1.00 20.00    -0.130 Cl
ENDBRANCH   2   9
TORSDOF 1
ENDMDL
MODEL 7
REMARK VINA RESULT:      -4.0      1.403      2.165
REMARK  1 active torsions:
REMARK  status: ('A' for Active; 'I' for Inactive)
REMARK    1  A    between atoms: C2_2  and  C8_8 
ROOT
HETATM    1  C1  UNL     1     -33.390  16.585  -5.122  1.00 20.00     0.018 C 
HETATM    2  C2  UNL     1     -33.836  15.646  -3.996  1.00 20.00     0.034 C 
HETATM    3  C3  UNL     1     -34.167  16.087  -6.351  1.00 20.00     0.122 C 
HETATM    4  C4  UNL     1     -34.046  14.355  -4.791  1.00 20.00     0.123 C 
HETATM    5  C5  UNL     1     -33.457  18.077  -4.834  1.00 20.00     0.013 C 
HETATM    6  C6  UNL     1     -35.360  16.917  -6.800  1.00 20.00     0.040 C 
HETATM    7  C7  UNL     1     -34.907  13.286  -4.145  1.00 20.00     0.040 C 
HETATM    8  O9  UNL     1     -34.638  14.761  -6.035  1.00 20.00    -0.381 OA
ENDROOT
BRANCH   2   9
HETATM    9  C8  UNL     1     -35.073  16.116  -3.229  1.00 20.00     0.122 C 
HETATM   10 CL10 UNL     1     -34.709  16.227  -1.499  1.00 20.00    -0.130 Cl
ENDBRANCH   2   9
TORSDOF 1
ENDMDL
MODEL 8
REMARK VINA RESULT:      -3.9      2.082      2.797
REMARK  1 active torsions:
REMARK  status: ('A' for Active; 'I' for Inactive)
REMARK    1  A    between atoms: C2_2  and  C8_8 
ROOT
HETATM    1  C1  UNL     1     -34.254  15.470  -2.925  1.00 20.00     0.018 C 
HETATM    2  C2  UNL     1     -35.315  14.791  -3.798  1.00 20.00     0.034 C 
HETATM    3  C3  UNL     1     -33.396  16.257  -3.927  1.00 20.00     0.122 C 
HETATM    4  C4  UNL     1     -34.501  14.548  -5.070  1.00 20.00     0.123 C 
HETATM    5  C5  UNL     1     -34.756  16.237  -1.710  1.00 20.00     0.013 C 
HETATM    6  C6  UNL     1     -33.602  17.764  -3.985  1.00 20.00     0.040 C 
HETATM    7  C7  UNL     1     -35.282  14.293  -6.345  1.00 20.00     0.040 C 
HETATM    8  O9  UNL     1     -33.683  15.717  -5.234  1.00 20.00    -0.381 OA
ENDROOT
BRANCH   2   9
HETATM    9  C8  UNL     1     -36.582  15.620  -4.017  1.00 20.00     0.122 C 
HETATM   10 CL10 UNL     1     -38.016  14.591  -3.865  1.00 20.00    -0.130 Cl
ENDBRANCH   2   9
TORSDOF 1
ENDMDL
MODEL 9
REMARK VINA RESULT:      -3.8      2.164      2.940
REMARK  1 active torsions:
REMARK  status: ('A' for Active; 'I' for Inactive)
REMARK    1  A    between atoms: C2_2  and  C8_8 
ROOT
HETATM    1  C1  UNL     1     -33.788  15.518  -5.109  1.00 20.00     0.018 C 
HETATM    2  C2  UNL     1     -34.407  16.528  -4.137  1.00 20.00     0.034 C 
HETATM    3  C3  UNL     1     -33.846  14.185  -4.346  1.00 20.00     0.122 C 
HETATM    4  C4  UNL     1     -33.948  15.934  -2.803  1.00 20.00     0.123 C 
HETATM    5  C5  UNL     1     -34.333  15.512  -6.529  1.00 20.00     0.013 C 
HETATM    6  C6  UNL     1     -34.915  13.189  -4.768  1.00 20.00     0.040 C 
HETATM    7  C7  UNL     1     -34.705  16.372  -1.563  1.00 20.00     0.040 C 
HETATM    8  O9  UNL     1     -34.060  14.511  -2.957  1.00 20.00    -0.381 OA
ENDROOT
BRANCH   2   9
HETATM    9  C8  UNL     1     -35.924  16.683  -4.263  1.00 20.00     0.122 C 
HETATM   10 CL10 UNL     1     -36.350  18.397  -4.410  1.00 20.00    -0.130 Cl
ENDBRANCH   2   9
TORSDOF 1
ENDMDL
