MODEL 1
REMARK VINA RESULT:      -5.0      0.000      0.000
REMARK  1 active torsions:
REMARK  status: ('A' for Active; 'I' for Inactive)
REMARK    1  A    between atoms: C3_3  and  C5_5 
ROOT
HETATM    1  C1  UNL     1     -34.035  18.651  -0.786  1.00 20.00     0.109 A 
HETATM    2  C2  UNL     1     -34.450  17.810   0.207  1.00 20.00     0.107 A 
HETATM    3  C3  UNL     1     -34.586  16.719  -1.713  1.00 20.00     0.113 A 
HETATM    4  C10 UNL     1     -33.783  18.473  -3.272  1.00 20.00     0.157 C 
HETATM    5  N11 UNL     1     -34.129  17.950  -1.964  1.00 20.00    -0.346 N 
HETATM    6  N12 UNL     1     -34.785  16.622  -0.395  1.00 20.00    -0.350 N 
HETATM    7  H27 UNL     1     -35.132  15.798   0.089  1.00 20.00     0.166 HD
ENDROOT
BRANCH   3   8
HETATM    8  C5  UNL     1     -34.836  15.639  -2.699  1.00 20.00    -0.016 C 
HETATM    9  C4  UNL     1     -36.074  15.414  -3.181  1.00 20.00     0.004 C 
HETATM   10  C9  UNL     1     -36.406  14.332  -4.169  1.00 20.00     0.105 C 
HETATM   11  C8  UNL     1     -35.277  13.313  -4.355  1.00 20.00     0.024 C 
HETATM   12 CL13 UNL     1     -36.802  15.112  -5.733  1.00 20.00    -0.121 Cl
HETATM   13  C7  UNL     1     -33.910  13.991  -4.405  1.00 20.00     0.006 C 
HETATM   14  C6  UNL     1     -33.656  14.796  -3.127  1.00 20.00     0.042 C 
ENDBRANCH   3   8
TORSDOF 1
ENDMDL
MODEL 2
REMARK VINA RESULT:      -4.6      2.776      4.983
REMARK  1 active torsions:
REMARK  status: ('A' for Active; 'I' for Inactive)
REMARK    1  A    between atoms: C3_3  and  C5_5 
ROOT
HETATM    1  C1  UNL     1     -35.095  13.392  -4.350  1.00 20.00     0.109 A 
HETATM    2  C2  UNL     1     -33.745  13.497  -4.170  1.00 20.00     0.107 A 
HETATM    3  C3  UNL     1     -34.704  15.229  -3.181  1.00 20.00     0.113 A 
HETATM    4  C10 UNL     1     -37.087  14.752  -3.676  1.00 20.00     0.157 C 
HETATM    5  N11 UNL     1     -35.664  14.477  -3.727  1.00 20.00    -0.346 N 
HETATM    6  N12 UNL     1     -33.532  14.644  -3.443  1.00 20.00    -0.350 N 
HETATM    7  H27 UNL     1     -32.622  14.991  -3.152  1.00 20.00     0.166 HD
ENDROOT
BRANCH   3   8
HETATM    8  C5  UNL     1     -34.881  16.489  -2.417  1.00 20.00    -0.016 C 
HETATM    9  C4  UNL     1     -34.732  16.514  -1.078  1.00 20.00     0.004 C 
HETATM   10  C9  UNL     1     -34.910  17.746  -0.237  1.00 20.00     0.105 C 
HETATM   11  C8  UNL     1     -35.568  18.905  -0.991  1.00 20.00     0.024 C 
HETATM   12 CL13 UNL     1     -33.298  18.237   0.373  1.00 20.00    -0.121 Cl
HETATM   13  C7  UNL     1     -35.028  19.031  -2.414  1.00 20.00     0.006 C 
HETATM   14  C6  UNL     1     -35.249  17.732  -3.195  1.00 20.00     0.042 C 
ENDBRANCH   3   8
TORSDOF 1
ENDMDL
MODEL 3
REMARK VINA RESULT:      -4.6      2.897      4.830
REMARK  1 active torsions:
REMARK  status: ('A' for Active; 'I' for Inactive)
REMARK    1  A    between atoms: C3_3  and  C5_5 
ROOT
HETATM    1  C1  UNL     1     -34.413  14.400  -5.619  1.00 20.00     0.109 A 
HETATM    2  C2  UNL     1     -35.277  13.552  -4.986  1.00 20.00     0.107 A 
HETATM    3  C3  UNL     1     -35.061  15.364  -3.735  1.00 20.00     0.113 A 
HETATM    4  C10 UNL     1     -33.473  16.669  -5.125  1.00 20.00     0.157 C 
HETATM    5  N11 UNL     1     -34.298  15.514  -4.822  1.00 20.00    -0.346 N 
HETATM    6  N12 UNL     1     -35.661  14.174  -3.823  1.00 20.00    -0.350 N 
HETATM    7  H27 UNL     1     -36.304  13.787  -3.137  1.00 20.00     0.166 HD
ENDROOT
BRANCH   3   8
HETATM    8  C5  UNL     1     -35.228  16.329  -2.620  1.00 20.00    -0.016 C 
HETATM    9  C4  UNL     1     -34.461  16.247  -1.514  1.00 20.00     0.004 C 
HETATM   10  C9  UNL     1     -34.582  17.176  -0.340  1.00 20.00     0.105 C 
HETATM   11  C8  UNL     1     -35.849  18.037  -0.375  1.00 20.00     0.024 C 
HETATM   12 CL13 UNL     1     -33.124  18.218  -0.307  1.00 20.00    -0.121 Cl
HETATM   13  C7  UNL     1     -36.140  18.553  -1.782  1.00 20.00     0.006 C 
HETATM   14  C6  UNL     1     -36.295  17.389  -2.766  1.00 20.00     0.042 C 
ENDBRANCH   3   8
TORSDOF 1
ENDMDL
MODEL 4
REMARK VINA RESULT:      -4.5      3.304      5.140
REMARK  1 active torsions:
REMARK  status: ('A' for Active; 'I' for Inactive)
REMARK    1  A    between atoms: C3_3  and  C5_5 
ROOT
HETATM    1  C1  UNL     1     -38.829  15.204  -6.359  1.00 20.00     0.109 A 
HETATM    2  C2  UNL     1     -38.059  15.370  -7.475  1.00 20.00     0.107 A 
HETATM    3  C3  UNL     1     -36.707  15.179  -5.734  1.00 20.00     0.113 A 
HETATM    4  C10 UNL     1     -38.371  14.896  -3.916  1.00 20.00     0.157 C 
HETATM    5  N11 UNL     1     -37.966  15.088  -5.296  1.00 20.00    -0.346 N 
HETATM    6  N12 UNL     1     -36.750  15.351  -7.058  1.00 20.00    -0.350 N 
HETATM    7  H27 UNL     1     -35.941  15.453  -7.665  1.00 20.00     0.166 HD
ENDROOT
BRANCH   3   8
HETATM    8  C5  UNL     1     -35.469  15.106  -4.919  1.00 20.00    -0.016 C 
HETATM    9  C4  UNL     1     -35.027  16.179  -4.233  1.00 20.00     0.004 C 
HETATM   10  C9  UNL     1     -33.777  16.186  -3.400  1.00 20.00     0.105 C 
HETATM   11  C8  UNL     1     -32.886  14.962  -3.634  1.00 20.00     0.024 C 
HETATM   12 CL13 UNL     1     -34.262  16.280  -1.677  1.00 20.00    -0.121 Cl
HETATM   13  C7  UNL     1     -33.708  13.681  -3.756  1.00 20.00     0.006 C 
HETATM   14  C6  UNL     1     -34.720  13.793  -4.901  1.00 20.00     0.042 C 
ENDBRANCH   3   8
TORSDOF 1
ENDMDL
MODEL 5
REMARK VINA RESULT:      -4.4      3.119      4.696
REMARK  1 active torsions:
REMARK  status: ('A' for Active; 'I' for Inactive)
REMARK    1  A    between atoms: C3_3  and  C5_5 
ROOT
HETATM    1  C1  UNL     1     -39.271  15.042  -5.457  1.00 20.00     0.109 A 
HETATM    2  C2  UNL     1     -39.544  14.877  -4.128  1.00 20.00     0.107 A 
HETATM    3  C3  UNL     1     -37.349  15.034  -4.361  1.00 20.00     0.113 A 
HETATM    4  C10 UNL     1     -37.188  15.321  -6.819  1.00 20.00     0.157 C 
HETATM    5  N11 UNL     1     -37.905  15.137  -5.572  1.00 20.00    -0.346 N 
HETATM    6  N12 UNL     1     -38.336  14.875  -3.474  1.00 20.00    -0.350 N 
HETATM    7  H27 UNL     1     -38.214  14.769  -2.471  1.00 20.00     0.166 HD
ENDROOT
BRANCH   3   8
HETATM    8  C5  UNL     1     -35.902  15.082  -4.034  1.00 20.00    -0.016 C 
HETATM    9  C4  UNL     1     -35.305  16.246  -3.709  1.00 20.00     0.004 C 
HETATM   10  C9  UNL     1     -33.844  16.376  -3.382  1.00 20.00     0.105 C 
HETATM   11  C8  UNL     1     -33.029  15.129  -3.739  1.00 20.00     0.024 C 
HETATM   12 CL13 UNL     1     -33.699  16.731  -1.631  1.00 20.00    -0.121 Cl
HETATM   13  C7  UNL     1     -33.774  13.846  -3.380  1.00 20.00     0.006 C 
HETATM   14  C6  UNL     1     -35.127  13.786  -4.096  1.00 20.00     0.042 C 
ENDBRANCH   3   8
TORSDOF 1
ENDMDL
MODEL 6
REMARK VINA RESULT:      -4.4      1.759      1.821
REMARK  1 active torsions:
REMARK  status: ('A' for Active; 'I' for Inactive)
REMARK    1  A    between atoms: C3_3  and  C5_5 
ROOT
HETATM    1  C1  UNL     1     -35.727  19.064  -2.100  1.00 20.00     0.109 A 
HETATM    2  C2  UNL     1     -36.808  18.382  -1.619  1.00 20.00     0.107 A 
HETATM    3  C3  UNL     1     -35.670  17.016  -2.938  1.00 20.00     0.113 A 
HETATM    4  C10 UNL     1     -33.820  18.516  -3.630  1.00 20.00     0.157 C 
HETATM    5  N11 UNL     1     -35.040  18.195  -2.914  1.00 20.00    -0.346 N 
HETATM    6  N12 UNL     1     -36.747  17.118  -2.154  1.00 20.00    -0.350 N 
HETATM    7  H27 UNL     1     -37.420  16.375  -1.979  1.00 20.00     0.166 HD
ENDROOT
BRANCH   3   8
HETATM    8  C5  UNL     1     -35.268  15.802  -3.690  1.00 20.00    -0.016 C 
HETATM    9  C4  UNL     1     -35.742  15.567  -4.929  1.00 20.00     0.004 C 
HETATM   10  C9  UNL     1     -35.393  14.354  -5.744  1.00 20.00     0.105 C 
HETATM   11  C8  UNL     1     -34.690  13.260  -4.934  1.00 20.00     0.024 C 
HETATM   12 CL13 UNL     1     -34.353  14.883  -7.105  1.00 20.00    -0.121 Cl
HETATM   13  C7  UNL     1     -33.662  13.846  -3.969  1.00 20.00     0.006 C 
HETATM   14  C6  UNL     1     -34.324  14.838  -3.008  1.00 20.00     0.042 C 
ENDBRANCH   3   8
TORSDOF 1
ENDMDL
MODEL 7
REMARK VINA RESULT:      -4.4      2.039      2.629
REMARK  1 active torsions:
REMARK  status: ('A' for Active; 'I' for Inactive)
REMARK    1  A    between atoms: C3_3  and  C5_5 
ROOT
HETATM    1  C1  UNL     1     -34.165  18.468   1.021  1.00 20.00     0.109 A 
HETATM    2  C2  UNL     1     -35.161  17.535   1.081  1.00 20.00     0.107 A 
HETATM    3  C3  UNL     1     -34.304  17.489  -0.958  1.00 20.00     0.113 A 
HETATM    4  C10 UNL     1     -32.568  19.248  -0.744  1.00 20.00     0.157 C 
HETATM    5  N11 UNL     1     -33.651  18.418  -0.253  1.00 20.00    -0.346 N 
HETATM    6  N12 UNL     1     -35.224  16.945  -0.158  1.00 20.00    -0.350 N 
HETATM    7  H27 UNL     1     -35.873  16.208  -0.423  1.00 20.00     0.166 HD
ENDROOT
BRANCH   3   8
HETATM    8  C5  UNL     1     -34.067  17.112  -2.374  1.00 20.00    -0.016 C 
HETATM    9  C4  UNL     1     -33.414  15.976  -2.688  1.00 20.00     0.004 C 
HETATM   10  C9  UNL     1     -33.125  15.537  -4.095  1.00 20.00     0.105 C 
HETATM   11  C8  UNL     1     -33.370  16.634  -5.136  1.00 20.00     0.024 C 
HETATM   12 CL13 UNL     1     -34.146  14.107  -4.450  1.00 20.00    -0.121 Cl
HETATM   13  C7  UNL     1     -34.642  17.422  -4.835  1.00 20.00     0.006 C 
HETATM   14  C6  UNL     1     -34.572  18.055  -3.442  1.00 20.00     0.042 C 
ENDBRANCH   3   8
TORSDOF 1
ENDMDL
MODEL 8
REMARK VINA RESULT:      -4.4      1.688      2.188
REMARK  1 active torsions:
REMARK  status: ('A' for Active; 'I' for Inactive)
REMARK    1  A    between atoms: C3_3  and  C5_5 
ROOT
HETATM    1  C1  UNL     1     -34.139  18.710   0.437  1.00 20.00     0.109 A 
HETATM    2  C2  UNL     1     -34.844  17.675   0.983  1.00 20.00     0.107 A 
HETATM    3  C3  UNL     1     -34.570  17.252  -1.172  1.00 20.00     0.113 A 
HETATM    4  C10 UNL     1     -33.287  19.262  -1.853  1.00 20.00     0.157 C 
HETATM    5  N11 UNL     1     -33.983  18.422  -0.898  1.00 20.00    -0.346 N 
HETATM    6  N12 UNL     1     -35.098  16.789  -0.035  1.00 20.00    -0.350 N 
HETATM    7  H27 UNL     1     -35.609  15.915   0.063  1.00 20.00     0.166 HD
ENDROOT
BRANCH   3   8
HETATM    8  C5  UNL     1     -34.638  16.572  -2.489  1.00 20.00    -0.016 C 
HETATM    9  C4  UNL     1     -33.581  15.889  -2.971  1.00 20.00     0.004 C 
HETATM   10  C9  UNL     1     -33.569  15.190  -4.300  1.00 20.00     0.105 C 
HETATM   11  C8  UNL     1     -34.754  15.567  -5.194  1.00 20.00     0.024 C 
HETATM   12 CL13 UNL     1     -33.560  13.424  -3.995  1.00 20.00    -0.121 Cl
HETATM   13  C7  UNL     1     -36.054  15.660  -4.399  1.00 20.00     0.006 C 
HETATM   14  C6  UNL     1     -35.927  16.689  -3.271  1.00 20.00     0.042 C 
ENDBRANCH   3   8
TORSDOF 1
ENDMDL
MODEL 9
REMARK VINA RESULT:      -4.3     13.353     15.177
REMARK  1 active torsions:
REMARK  status: ('A' for Active; 'I' for Inactive)
REMARK    1  A    between atoms: C3_3  and  C5_5 
ROOT
HETATM    1  C1  UNL     1     -41.541   5.980  -1.509  1.00 20.00     0.109 A 
HETATM    2  C2  UNL     1     -40.619   5.284  -0.781  1.00 20.00     0.107 A 
HETATM    3  C3  UNL     1     -41.708   3.843  -2.060  1.00 20.00     0.113 A 
HETATM    4  C10 UNL     1     -43.265   5.382  -3.225  1.00 20.00     0.157 C 
HETATM    5  N11 UNL     1     -42.201   5.064  -2.293  1.00 20.00    -0.346 N 
HETATM    6  N12 UNL     1     -40.745   3.964  -1.142  1.00 20.00    -0.350 N 
HETATM    7  H27 UNL     1     -40.190   3.199  -0.766  1.00 20.00     0.166 HD
ENDROOT
BRANCH   3   8
HETATM    8  C5  UNL     1     -42.135   2.570  -2.692  1.00 20.00    -0.016 C 
HETATM    9  C4  UNL     1     -41.513   2.101  -3.791  1.00 20.00     0.004 C 
HETATM   10  C9  UNL     1     -41.898   0.830  -4.495  1.00 20.00     0.105 C 
HETATM   11  C8  UNL     1     -43.247   0.268  -4.035  1.00 20.00     0.024 C 
HETATM   12 CL13 UNL     1     -40.598  -0.371  -4.218  1.00 20.00    -0.121 Cl
HETATM   13  C7  UNL     1     -43.417   0.377  -2.522  1.00 20.00     0.006 C 
HETATM   14  C6  UNL     1     -43.298   1.835  -2.067  1.00 20.00     0.042 C 
ENDBRANCH   3   8
TORSDOF 1
ENDMDL
