MODEL 1
REMARK VINA RESULT:      -6.0      0.000      0.000
REMARK  1 active torsions:
REMARK  status: ('A' for Active; 'I' for Inactive)
REMARK    1  A    between atoms: C4_4  and  C8_8 
ROOT
HETATM    1  C1  UNL     1     -32.262   8.764   1.472  1.00 20.00     0.012 C 
HETATM    2  C2  UNL     1     -32.081   7.978   2.362  1.00 20.00    -0.113 C 
HETATM    3  C8  UNL     1     -31.854   7.019   3.447  1.00 20.00     0.126 C 
ENDROOT
BRANCH   3   4
HETATM    4  C4  UNL     1     -33.133   6.368   3.833  1.00 20.00    -0.071 C 
HETATM    5  C3  UNL     1     -33.698   6.358   5.047  1.00 20.00    -0.003 C 
HETATM    6  C7  UNL     1     -34.966   5.570   5.061  1.00 20.00     0.105 C 
HETATM    7  C6  UNL     1     -35.273   5.409   3.570  1.00 20.00     0.028 C 
HETATM    8 CL9  UNL     1     -34.687   4.002   5.848  1.00 20.00    -0.121 Cl
HETATM    9  C5  UNL     1     -33.936   5.584   2.845  1.00 20.00     0.036 C 
ENDBRANCH   3   4
TORSDOF 1
ENDMDL
MODEL 2
REMARK VINA RESULT:      -4.9      2.433      4.258
REMARK  1 active torsions:
REMARK  status: ('A' for Active; 'I' for Inactive)
REMARK    1  A    between atoms: C4_4  and  C8_8 
ROOT
HETATM    1  C1  UNL     1     -35.154   4.069   6.057  1.00 20.00     0.012 C 
HETATM    2  C2  UNL     1     -34.625   5.142   5.953  1.00 20.00    -0.113 C 
HETATM    3  C8  UNL     1     -33.982   6.454   5.832  1.00 20.00     0.126 C 
ENDROOT
BRANCH   3   4
HETATM    4  C4  UNL     1     -33.303   6.573   4.516  1.00 20.00    -0.071 C 
HETATM    5  C3  UNL     1     -32.219   7.306   4.231  1.00 20.00    -0.003 C 
HETATM    6  C7  UNL     1     -31.845   7.206   2.789  1.00 20.00     0.105 C 
HETATM    7  C6  UNL     1     -32.660   5.998   2.318  1.00 20.00     0.028 C 
HETATM    8 CL9  UNL     1     -32.324   8.691   1.940  1.00 20.00    -0.121 Cl
HETATM    9  C5  UNL     1     -33.824   5.867   3.304  1.00 20.00     0.036 C 
ENDBRANCH   3   4
TORSDOF 1
ENDMDL
MODEL 3
REMARK VINA RESULT:      -4.5     11.226     11.765
REMARK  1 active torsions:
REMARK  status: ('A' for Active; 'I' for Inactive)
REMARK    1  A    between atoms: C4_4  and  C8_8 
ROOT
HETATM    1  C1  UNL     1     -34.904  17.124   0.085  1.00 20.00     0.012 C 
HETATM    2  C2  UNL     1     -34.369  16.814  -0.944  1.00 20.00    -0.113 C 
HETATM    3  C8  UNL     1     -33.712  16.441  -2.200  1.00 20.00     0.126 C 
ENDROOT
BRANCH   3   4
HETATM    4  C4  UNL     1     -34.582  15.527  -2.983  1.00 20.00    -0.071 C 
HETATM    5  C3  UNL     1     -34.253  14.327  -3.479  1.00 20.00    -0.003 C 
HETATM    6  C7  UNL     1     -35.380  13.715  -4.245  1.00 20.00     0.105 C 
HETATM    7  C6  UNL     1     -36.573  14.577  -3.823  1.00 20.00     0.028 C 
HETATM    8 CL9  UNL     1     -35.060  13.846  -5.988  1.00 20.00    -0.121 Cl
HETATM    9  C5  UNL     1     -35.984  15.906  -3.344  1.00 20.00     0.036 C 
ENDBRANCH   3   4
TORSDOF 1
ENDMDL
MODEL 4
REMARK VINA RESULT:      -4.3     11.410     11.940
REMARK  1 active torsions:
REMARK  status: ('A' for Active; 'I' for Inactive)
REMARK    1  A    between atoms: C4_4  and  C8_8 
ROOT
HETATM    1  C1  UNL     1     -32.933  18.577  -0.637  1.00 20.00     0.012 C 
HETATM    2  C2  UNL     1     -33.713  17.670  -0.745  1.00 20.00    -0.113 C 
HETATM    3  C8  UNL     1     -34.665  16.562  -0.869  1.00 20.00     0.126 C 
ENDROOT
BRANCH   3   4
HETATM    4  C4  UNL     1     -34.624  16.002  -2.244  1.00 20.00    -0.071 C 
HETATM    5  C3  UNL     1     -35.655  15.517  -2.948  1.00 20.00    -0.003 C 
HETATM    6  C7  UNL     1     -35.224  15.006  -4.283  1.00 20.00     0.105 C 
HETATM    7  C6  UNL     1     -33.818  15.596  -4.425  1.00 20.00     0.028 C 
HETATM    8 CL9  UNL     1     -35.190  13.230  -4.262  1.00 20.00    -0.121 Cl
HETATM    9  C5  UNL     1     -33.339  15.888  -3.001  1.00 20.00     0.036 C 
ENDBRANCH   3   4
TORSDOF 1
ENDMDL
MODEL 5
REMARK VINA RESULT:      -4.1     11.277     12.049
REMARK  1 active torsions:
REMARK  status: ('A' for Active; 'I' for Inactive)
REMARK    1  A    between atoms: C4_4  and  C8_8 
ROOT
HETATM    1  C1  UNL     1     -35.235  17.493   0.914  1.00 20.00     0.012 C 
HETATM    2  C2  UNL     1     -34.471  17.500  -0.012  1.00 20.00    -0.113 C 
HETATM    3  C8  UNL     1     -33.535  17.514  -1.141  1.00 20.00     0.126 C 
ENDROOT
BRANCH   3   4
HETATM    4  C4  UNL     1     -34.075  16.707  -2.265  1.00 20.00    -0.071 C 
HETATM    5  C3  UNL     1     -34.938  15.687  -2.184  1.00 20.00    -0.003 C 
HETATM    6  C7  UNL     1     -35.224  15.094  -3.524  1.00 20.00     0.105 C 
HETATM    7  C6  UNL     1     -34.676  16.157  -4.480  1.00 20.00     0.028 C 
HETATM    8 CL9  UNL     1     -34.358  13.551  -3.694  1.00 20.00    -0.121 Cl
HETATM    9  C5  UNL     1     -33.646  16.953  -3.677  1.00 20.00     0.036 C 
ENDBRANCH   3   4
TORSDOF 1
ENDMDL
MODEL 6
REMARK VINA RESULT:      -4.0      9.308     10.504
REMARK  1 active torsions:
REMARK  status: ('A' for Active; 'I' for Inactive)
REMARK    1  A    between atoms: C4_4  and  C8_8 
ROOT
HETATM    1  C1  UNL     1     -42.128   8.951  -4.783  1.00 20.00     0.012 C 
HETATM    2  C2  UNL     1     -42.601   8.019  -4.192  1.00 20.00    -0.113 C 
HETATM    3  C8  UNL     1     -43.184   6.881  -3.475  1.00 20.00     0.126 C 
ENDROOT
BRANCH   3   4
HETATM    4  C4  UNL     1     -42.304   6.479  -2.348  1.00 20.00    -0.071 C 
HETATM    5  C3  UNL     1     -41.830   5.253  -2.093  1.00 20.00    -0.003 C 
HETATM    6  C7  UNL     1     -41.006   5.225  -0.848  1.00 20.00     0.105 C 
HETATM    7  C6  UNL     1     -40.750   6.711  -0.587  1.00 20.00     0.028 C 
HETATM    8 CL9  UNL     1     -41.935   4.478   0.469  1.00 20.00    -0.121 Cl
HETATM    9  C5  UNL     1     -41.870   7.464  -1.309  1.00 20.00     0.036 C 
ENDBRANCH   3   4
TORSDOF 1
ENDMDL
MODEL 7
REMARK VINA RESULT:      -4.0      9.670     10.989
REMARK  1 active torsions:
REMARK  status: ('A' for Active; 'I' for Inactive)
REMARK    1  A    between atoms: C4_4  and  C8_8 
ROOT
HETATM    1  C1  UNL     1     -41.882   2.497  -3.289  1.00 20.00     0.012 C 
HETATM    2  C2  UNL     1     -41.463   3.299  -2.499  1.00 20.00    -0.113 C 
HETATM    3  C8  UNL     1     -40.949   4.273  -1.531  1.00 20.00     0.126 C 
ENDROOT
BRANCH   3   4
HETATM    4  C4  UNL     1     -41.585   5.598  -1.750  1.00 20.00    -0.071 C 
HETATM    5  C3  UNL     1     -42.585   5.883  -2.593  1.00 20.00    -0.003 C 
HETATM    6  C7  UNL     1     -42.936   7.334  -2.567  1.00 20.00     0.105 C 
HETATM    7  C6  UNL     1     -42.232   7.822  -1.297  1.00 20.00     0.028 C 
HETATM    8 CL9  UNL     1     -42.295   8.132  -4.019  1.00 20.00    -0.121 Cl
HETATM    9  C5  UNL     1     -41.108   6.818  -1.028  1.00 20.00     0.036 C 
ENDBRANCH   3   4
TORSDOF 1
ENDMDL
MODEL 8
REMARK VINA RESULT:      -4.0     11.007     11.919
REMARK  1 active torsions:
REMARK  status: ('A' for Active; 'I' for Inactive)
REMARK    1  A    between atoms: C4_4  and  C8_8 
ROOT
HETATM    1  C1  UNL     1     -34.847  14.033  -6.258  1.00 20.00     0.012 C 
HETATM    2  C2  UNL     1     -34.499  14.041  -5.109  1.00 20.00    -0.113 C 
HETATM    3  C8  UNL     1     -34.072  14.043  -3.706  1.00 20.00     0.126 C 
ENDROOT
BRANCH   3   4
HETATM    4  C4  UNL     1     -34.548  15.276  -3.028  1.00 20.00    -0.071 C 
HETATM    5  C3  UNL     1     -33.802  16.172  -2.367  1.00 20.00    -0.003 C 
HETATM    6  C7  UNL     1     -34.636  17.265  -1.784  1.00 20.00     0.105 C 
HETATM    7  C6  UNL     1     -35.971  17.086  -2.511  1.00 20.00     0.028 C 
HETATM    8 CL9  UNL     1     -34.805  17.020  -0.032  1.00 20.00    -0.121 Cl
HETATM    9  C5  UNL     1     -36.000  15.632  -2.987  1.00 20.00     0.036 C 
ENDBRANCH   3   4
TORSDOF 1
ENDMDL
MODEL 9
REMARK VINA RESULT:      -3.9     12.193     13.382
REMARK  1 active torsions:
REMARK  status: ('A' for Active; 'I' for Inactive)
REMARK    1  A    between atoms: C4_4  and  C8_8 
ROOT
HETATM    1  C1  UNL     1     -34.712  16.427  -1.628  1.00 20.00     0.012 C 
HETATM    2  C2  UNL     1     -34.014  15.921  -2.464  1.00 20.00    -0.113 C 
HETATM    3  C8  UNL     1     -33.157  15.302  -3.479  1.00 20.00     0.126 C 
ENDROOT
BRANCH   3   4
HETATM    4  C4  UNL     1     -33.730  15.516  -4.833  1.00 20.00    -0.071 C 
HETATM    5  C3  UNL     1     -33.702  16.646  -5.551  1.00 20.00    -0.003 C 
HETATM    6  C7  UNL     1     -34.413  16.493  -6.855  1.00 20.00     0.105 C 
HETATM    7  C6  UNL     1     -34.562  14.974  -6.974  1.00 20.00     0.028 C 
HETATM    8 CL9  UNL     1     -35.993  17.302  -6.774  1.00 20.00    -0.121 Cl
HETATM    9  C5  UNL     1     -34.469  14.429  -5.547  1.00 20.00     0.036 C 
ENDBRANCH   3   4
TORSDOF 1
ENDMDL
