MODEL 1
REMARK VINA RESULT:      -4.7      0.000      0.000
REMARK  0 active torsions:
REMARK  status: ('A' for Active; 'I' for Inactive)
ROOT
HETATM    1  C1  UNL     1     -34.247  13.675  -4.246  1.00 20.00     0.067 C 
HETATM    2  C2  UNL     1     -33.652  14.860  -3.624  1.00 20.00     0.127 C 
HETATM    3  C3  UNL     1     -34.535  15.577  -2.598  1.00 20.00     0.030 C 
HETATM    4  C4  UNL     1     -33.220  15.973  -4.589  1.00 20.00     0.136 C 
HETATM    5  C5  UNL     1     -33.839  16.940  -2.557  1.00 20.00     0.123 C 
HETATM    6  C6  UNL     1     -36.017  15.657  -2.978  1.00 20.00     0.014 C 
HETATM    7  C7  UNL     1     -33.896  16.016  -5.953  1.00 20.00     0.041 C 
HETATM    8  C8  UNL     1     -34.632  18.098  -1.984  1.00 20.00     0.040 C 
HETATM    9  N9  UNL     1     -34.719  12.736  -4.738  1.00 20.00    -0.197 NA
HETATM   10  O10 UNL     1     -33.489  17.224  -3.921  1.00 20.00    -0.380 OA
ENDROOT
TORSDOF 0
ENDMDL
MODEL 2
REMARK VINA RESULT:      -4.3      1.282      1.315
REMARK  0 active torsions:
REMARK  status: ('A' for Active; 'I' for Inactive)
ROOT
HETATM    1  C1  UNL     1     -34.576  14.507  -5.717  1.00 20.00     0.067 C 
HETATM    2  C2  UNL     1     -33.886  15.026  -4.534  1.00 20.00     0.127 C 
HETATM    3  C3  UNL     1     -34.691  14.979  -3.231  1.00 20.00     0.030 C 
HETATM    4  C4  UNL     1     -33.410  16.483  -4.625  1.00 20.00     0.136 C 
HETATM    5  C5  UNL     1     -33.905  15.995  -2.398  1.00 20.00     0.123 C 
HETATM    6  C6  UNL     1     -36.174  15.328  -3.384  1.00 20.00     0.014 C 
HETATM    7  C7  UNL     1     -34.120  17.389  -5.623  1.00 20.00     0.041 C 
HETATM    8  C8  UNL     1     -34.604  16.571  -1.182  1.00 20.00     0.040 C 
HETATM    9  N9  UNL     1     -35.123  14.095  -6.654  1.00 20.00    -0.197 NA
HETATM   10  O10 UNL     1     -33.577  17.054  -3.311  1.00 20.00    -0.380 OA
ENDROOT
TORSDOF 0
ENDMDL
MODEL 3
REMARK VINA RESULT:      -4.3      1.459      2.635
REMARK  0 active torsions:
REMARK  status: ('A' for Active; 'I' for Inactive)
ROOT
HETATM    1  C1  UNL     1     -35.155  13.800  -4.380  1.00 20.00     0.067 C 
HETATM    2  C2  UNL     1     -35.029  15.258  -4.322  1.00 20.00     0.127 C 
HETATM    3  C3  UNL     1     -35.080  15.976  -5.674  1.00 20.00     0.030 C 
HETATM    4  C4  UNL     1     -33.749  15.791  -3.663  1.00 20.00     0.136 C 
HETATM    5  C5  UNL     1     -34.448  17.315  -5.285  1.00 20.00     0.123 C 
HETATM    6  C6  UNL     1     -34.341  15.256  -6.806  1.00 20.00     0.014 C 
HETATM    7  C7  UNL     1     -32.541  14.863  -3.630  1.00 20.00     0.041 C 
HETATM    8  C8  UNL     1     -33.918  18.177  -6.414  1.00 20.00     0.040 C 
HETATM    9  N9  UNL     1     -35.254  12.644  -4.427  1.00 20.00    -0.197 NA
HETATM   10  O10 UNL     1     -33.375  16.979  -4.391  1.00 20.00    -0.380 OA
ENDROOT
TORSDOF 0
ENDMDL
MODEL 4
REMARK VINA RESULT:      -4.2      1.378      1.655
REMARK  0 active torsions:
REMARK  status: ('A' for Active; 'I' for Inactive)
ROOT
HETATM    1  C1  UNL     1     -34.501  13.801  -4.711  1.00 20.00     0.067 C 
HETATM    2  C2  UNL     1     -34.055  15.177  -4.941  1.00 20.00     0.127 C 
HETATM    3  C3  UNL     1     -33.634  15.950  -3.687  1.00 20.00     0.030 C 
HETATM    4  C4  UNL     1     -35.072  16.102  -5.626  1.00 20.00     0.136 C 
HETATM    5  C5  UNL     1     -33.722  17.383  -4.218  1.00 20.00     0.123 C 
HETATM    6  C6  UNL     1     -34.511  15.697  -2.457  1.00 20.00     0.014 C 
HETATM    7  C7  UNL     1     -36.544  15.726  -5.514  1.00 20.00     0.041 C 
HETATM    8  C8  UNL     1     -33.795  18.493  -3.187  1.00 20.00     0.040 C 
HETATM    9  N9  UNL     1     -34.855  12.711  -4.527  1.00 20.00    -0.197 NA
HETATM   10  O10 UNL     1     -34.902  17.408  -5.036  1.00 20.00    -0.380 OA
ENDROOT
TORSDOF 0
ENDMDL
MODEL 5
REMARK VINA RESULT:      -4.1      1.956      2.864
REMARK  0 active torsions:
REMARK  status: ('A' for Active; 'I' for Inactive)
ROOT
HETATM    1  C1  UNL     1     -37.262  14.810  -3.630  1.00 20.00     0.067 C 
HETATM    2  C2  UNL     1     -35.964  15.458  -3.429  1.00 20.00     0.127 C 
HETATM    3  C3  UNL     1     -35.672  16.644  -4.352  1.00 20.00     0.030 C 
HETATM    4  C4  UNL     1     -34.734  14.551  -3.586  1.00 20.00     0.136 C 
HETATM    5  C5  UNL     1     -34.150  16.722  -4.210  1.00 20.00     0.123 C 
HETATM    6  C6  UNL     1     -36.144  16.459  -5.798  1.00 20.00     0.014 C 
HETATM    7  C7  UNL     1     -34.899  13.290  -4.424  1.00 20.00     0.041 C 
HETATM    8  C8  UNL     1     -33.399  17.490  -5.281  1.00 20.00     0.040 C 
HETATM    9  N9  UNL     1     -38.291  14.297  -3.789  1.00 20.00    -0.197 NA
HETATM   10  O10 UNL     1     -33.704  15.357  -4.196  1.00 20.00    -0.380 OA
ENDROOT
TORSDOF 0
ENDMDL
MODEL 6
REMARK VINA RESULT:      -4.1      2.481      3.789
REMARK  0 active torsions:
REMARK  status: ('A' for Active; 'I' for Inactive)
ROOT
HETATM    1  C1  UNL     1     -34.245  16.686  -1.550  1.00 20.00     0.067 C 
HETATM    2  C2  UNL     1     -35.054  15.743  -2.325  1.00 20.00     0.127 C 
HETATM    3  C3  UNL     1     -34.264  14.713  -3.138  1.00 20.00     0.030 C 
HETATM    4  C4  UNL     1     -36.013  16.371  -3.347  1.00 20.00     0.136 C 
HETATM    5  C5  UNL     1     -35.344  14.278  -4.133  1.00 20.00     0.123 C 
HETATM    6  C6  UNL     1     -33.000  15.262  -3.806  1.00 20.00     0.014 C 
HETATM    7  C7  UNL     1     -35.680  17.770  -3.849  1.00 20.00     0.041 C 
HETATM    8  C8  UNL     1     -34.873  13.576  -5.392  1.00 20.00     0.040 C 
HETATM    9  N9  UNL     1     -33.603  17.433  -0.936  1.00 20.00    -0.197 NA
HETATM   10  O10 UNL     1     -36.037  15.486  -4.486  1.00 20.00    -0.380 OA
ENDROOT
TORSDOF 0
ENDMDL
MODEL 7
REMARK VINA RESULT:      -4.1      2.375      3.807
REMARK  0 active torsions:
REMARK  status: ('A' for Active; 'I' for Inactive)
ROOT
HETATM    1  C1  UNL     1     -34.536  15.731  -2.257  1.00 20.00     0.067 C 
HETATM    2  C2  UNL     1     -34.585  14.843  -3.421  1.00 20.00     0.127 C 
HETATM    3  C3  UNL     1     -33.877  15.364  -4.675  1.00 20.00     0.030 C 
HETATM    4  C4  UNL     1     -35.990  14.467  -3.915  1.00 20.00     0.136 C 
HETATM    5  C5  UNL     1     -34.533  14.478  -5.737  1.00 20.00     0.123 C 
HETATM    6  C6  UNL     1     -34.056  16.863  -4.932  1.00 20.00     0.014 C 
HETATM    7  C7  UNL     1     -37.132  15.409  -3.554  1.00 20.00     0.041 C 
HETATM    8  C8  UNL     1     -34.433  14.944  -7.177  1.00 20.00     0.040 C 
HETATM    9  N9  UNL     1     -34.497  16.434  -1.335  1.00 20.00    -0.197 NA
HETATM   10  O10 UNL     1     -35.915  14.394  -5.354  1.00 20.00    -0.380 OA
ENDROOT
TORSDOF 0
ENDMDL
MODEL 8
REMARK VINA RESULT:      -4.1      2.598      3.847
REMARK  0 active torsions:
REMARK  status: ('A' for Active; 'I' for Inactive)
ROOT
HETATM    1  C1  UNL     1     -34.860  13.547  -5.242  1.00 20.00     0.067 C 
HETATM    2  C2  UNL     1     -35.132  14.362  -6.427  1.00 20.00     0.127 C 
HETATM    3  C3  UNL     1     -34.124  15.482  -6.700  1.00 20.00     0.030 C 
HETATM    4  C4  UNL     1     -36.494  15.072  -6.450  1.00 20.00     0.136 C 
HETATM    5  C5  UNL     1     -34.955  16.364  -7.635  1.00 20.00     0.123 C 
HETATM    6  C6  UNL     1     -33.628  16.213  -5.449  1.00 20.00     0.014 C 
HETATM    7  C7  UNL     1     -37.174  15.322  -5.109  1.00 20.00     0.041 C 
HETATM    8  C8  UNL     1     -34.495  17.798  -7.815  1.00 20.00     0.040 C 
HETATM    9  N9  UNL     1     -34.643  12.901  -4.302  1.00 20.00    -0.197 NA
HETATM   10  O10 UNL     1     -36.282  16.350  -7.084  1.00 20.00    -0.380 OA
ENDROOT
TORSDOF 0
ENDMDL
MODEL 9
REMARK VINA RESULT:      -4.1      2.120      3.509
REMARK  0 active torsions:
REMARK  status: ('A' for Active; 'I' for Inactive)
ROOT
HETATM    1  C1  UNL     1     -34.153  13.515  -3.896  1.00 20.00     0.067 C 
HETATM    2  C2  UNL     1     -35.490  13.961  -4.296  1.00 20.00     0.127 C 
HETATM    3  C3  UNL     1     -35.596  14.526  -5.716  1.00 20.00     0.030 C 
HETATM    4  C4  UNL     1     -36.123  15.047  -3.414  1.00 20.00     0.136 C 
HETATM    5  C5  UNL     1     -36.912  15.299  -5.595  1.00 20.00     0.123 C 
HETATM    6  C6  UNL     1     -34.412  15.396  -6.147  1.00 20.00     0.014 C 
HETATM    7  C7  UNL     1     -35.179  15.918  -2.594  1.00 20.00     0.041 C 
HETATM    8  C8  UNL     1     -37.185  16.358  -6.645  1.00 20.00     0.040 C 
HETATM    9  N9  UNL     1     -33.094  13.162  -3.580  1.00 20.00    -0.197 NA
HETATM   10  O10 UNL     1     -36.870  15.910  -4.296  1.00 20.00    -0.380 OA
ENDROOT
TORSDOF 0
ENDMDL
