MODEL 1
REMARK VINA RESULT:      -4.4      0.000      0.000
REMARK  1 active torsions:
REMARK  status: ('A' for Active; 'I' for Inactive)
REMARK    1  A    between atoms: C2_2  and  C10_10 
ROOT
HETATM    1  C1  UNL     1     -34.438  15.653  -2.519  1.00 20.00    -0.003 C 
HETATM    2  C2  UNL     1     -34.187  16.974  -2.543  1.00 20.00    -0.075 C 
HETATM    3  C3  UNL     1     -33.761  17.687  -3.804  1.00 20.00     0.034 C 
HETATM    4  C4  UNL     1     -33.341  16.746  -4.936  1.00 20.00     0.006 C 
HETATM    5  C5  UNL     1     -34.286  15.552  -5.042  1.00 20.00     0.024 C 
HETATM    6  C6  UNL     1     -34.359  14.767  -3.728  1.00 20.00     0.105 C 
HETATM    7 CL11 UNL     1     -32.925  13.708  -3.551  1.00 20.00    -0.121 Cl
ENDROOT
BRANCH   2   8
HETATM    8  C10 UNL     1     -34.321  17.829  -1.317  1.00 20.00    -0.028 C 
HETATM    9  C7  UNL     1     -35.336  18.949  -1.587  1.00 20.00     0.019 C 
HETATM   10  C8  UNL     1     -32.959  18.447  -0.963  1.00 20.00     0.019 C 
HETATM   11  C9  UNL     1     -34.806  16.971  -0.137  1.00 20.00     0.019 C 
ENDBRANCH   2   8
TORSDOF 1
ENDMDL
MODEL 2
REMARK VINA RESULT:      -4.4      2.111      4.091
REMARK  1 active torsions:
REMARK  status: ('A' for Active; 'I' for Inactive)
REMARK    1  A    between atoms: C2_2  and  C10_10 
ROOT
HETATM    1  C1  UNL     1     -34.720  16.091  -1.583  1.00 20.00    -0.003 C 
HETATM    2  C2  UNL     1     -34.420  16.180  -2.891  1.00 20.00    -0.075 C 
HETATM    3  C3  UNL     1     -33.713  17.379  -3.473  1.00 20.00     0.034 C 
HETATM    4  C4  UNL     1     -33.661  18.585  -2.531  1.00 20.00     0.006 C 
HETATM    5  C5  UNL     1     -33.342  18.158  -1.101  1.00 20.00     0.024 C 
HETATM    6  C6  UNL     1     -34.359  17.141  -0.572  1.00 20.00     0.105 C 
HETATM    7 CL11 UNL     1     -35.865  17.968  -0.064  1.00 20.00    -0.121 Cl
ENDROOT
BRANCH   2   8
HETATM    8  C10 UNL     1     -34.763  15.084  -3.857  1.00 20.00    -0.028 C 
HETATM    9  C7  UNL     1     -36.236  14.690  -3.675  1.00 20.00     0.019 C 
HETATM   10  C8  UNL     1     -33.870  13.862  -3.594  1.00 20.00     0.019 C 
HETATM   11  C9  UNL     1     -34.538  15.572  -5.297  1.00 20.00     0.019 C 
ENDBRANCH   2   8
TORSDOF 1
ENDMDL
MODEL 3
REMARK VINA RESULT:      -4.3      2.065      4.123
REMARK  1 active torsions:
REMARK  status: ('A' for Active; 'I' for Inactive)
REMARK    1  A    between atoms: C2_2  and  C10_10 
ROOT
HETATM    1  C1  UNL     1     -34.726  15.892  -1.873  1.00 20.00    -0.003 C 
HETATM    2  C2  UNL     1     -34.378  15.950  -3.171  1.00 20.00    -0.075 C 
HETATM    3  C3  UNL     1     -33.667  17.145  -3.758  1.00 20.00     0.034 C 
HETATM    4  C4  UNL     1     -33.670  18.376  -2.848  1.00 20.00     0.006 C 
HETATM    5  C5  UNL     1     -33.399  17.992  -1.396  1.00 20.00     0.024 C 
HETATM    6  C6  UNL     1     -34.420  16.973  -0.878  1.00 20.00     0.105 C 
HETATM    7 CL11 UNL     1     -35.956  17.789  -0.450  1.00 20.00    -0.121 Cl
ENDROOT
BRANCH   2   8
HETATM    8  C10 UNL     1     -34.667  14.824  -4.119  1.00 20.00    -0.028 C 
HETATM    9  C7  UNL     1     -33.747  13.638  -3.795  1.00 20.00     0.019 C 
HETATM   10  C8  UNL     1     -34.417  15.285  -5.564  1.00 20.00     0.019 C 
HETATM   11  C9  UNL     1     -36.134  14.388  -3.977  1.00 20.00     0.019 C 
ENDBRANCH   2   8
TORSDOF 1
ENDMDL
MODEL 4
REMARK VINA RESULT:      -4.3      2.063      4.114
REMARK  1 active torsions:
REMARK  status: ('A' for Active; 'I' for Inactive)
REMARK    1  A    between atoms: C2_2  and  C10_10 
ROOT
HETATM    1  C1  UNL     1     -34.722  15.891  -1.854  1.00 20.00    -0.003 C 
HETATM    2  C2  UNL     1     -34.375  15.954  -3.151  1.00 20.00    -0.075 C 
HETATM    3  C3  UNL     1     -33.667  17.151  -3.736  1.00 20.00     0.034 C 
HETATM    4  C4  UNL     1     -33.671  18.380  -2.823  1.00 20.00     0.006 C 
HETATM    5  C5  UNL     1     -33.398  17.992  -1.373  1.00 20.00     0.024 C 
HETATM    6  C6  UNL     1     -34.416  16.970  -0.856  1.00 20.00     0.105 C 
HETATM    7 CL11 UNL     1     -35.953  17.783  -0.424  1.00 20.00    -0.121 Cl
ENDROOT
BRANCH   2   8
HETATM    8  C10 UNL     1     -34.664  14.830  -4.103  1.00 20.00    -0.028 C 
HETATM    9  C7  UNL     1     -34.416  15.307  -5.542  1.00 20.00     0.019 C 
HETATM   10  C8  UNL     1     -36.128  14.388  -3.955  1.00 20.00     0.019 C 
HETATM   11  C9  UNL     1     -33.744  13.638  -3.793  1.00 20.00     0.019 C 
ENDBRANCH   2   8
TORSDOF 1
ENDMDL
MODEL 5
REMARK VINA RESULT:      -4.2      1.681      2.314
REMARK  1 active torsions:
REMARK  status: ('A' for Active; 'I' for Inactive)
REMARK    1  A    between atoms: C2_2  and  C10_10 
ROOT
HETATM    1  C1  UNL     1     -34.023  15.605  -3.830  1.00 20.00    -0.003 C 
HETATM    2  C2  UNL     1     -35.030  16.014  -3.037  1.00 20.00    -0.075 C 
HETATM    3  C3  UNL     1     -36.368  15.318  -3.015  1.00 20.00     0.034 C 
HETATM    4  C4  UNL     1     -36.577  14.339  -4.174  1.00 20.00     0.006 C 
HETATM    5  C5  UNL     1     -35.317  13.518  -4.437  1.00 20.00     0.024 C 
HETATM    6  C6  UNL     1     -34.108  14.411  -4.736  1.00 20.00     0.105 C 
HETATM    7 CL11 UNL     1     -34.166  14.997  -6.428  1.00 20.00    -0.121 Cl
ENDROOT
BRANCH   2   8
HETATM    8  C10 UNL     1     -34.883  17.189  -2.115  1.00 20.00    -0.028 C 
HETATM    9  C7  UNL     1     -36.180  18.011  -2.130  1.00 20.00     0.019 C 
HETATM   10  C8  UNL     1     -33.713  18.070  -2.579  1.00 20.00     0.019 C 
HETATM   11  C9  UNL     1     -34.606  16.696  -0.685  1.00 20.00     0.019 C 
ENDBRANCH   2   8
TORSDOF 1
ENDMDL
MODEL 6
REMARK VINA RESULT:      -4.1      1.374      2.030
REMARK  1 active torsions:
REMARK  status: ('A' for Active; 'I' for Inactive)
REMARK    1  A    between atoms: C2_2  and  C10_10 
ROOT
HETATM    1  C1  UNL     1     -33.590  17.291  -3.539  1.00 20.00    -0.003 C 
HETATM    2  C2  UNL     1     -34.247  16.958  -2.414  1.00 20.00    -0.075 C 
HETATM    3  C3  UNL     1     -34.800  15.572  -2.188  1.00 20.00     0.034 C 
HETATM    4  C4  UNL     1     -34.829  14.704  -3.449  1.00 20.00     0.006 C 
HETATM    5  C5  UNL     1     -33.549  14.868  -4.264  1.00 20.00     0.024 C 
HETATM    6  C6  UNL     1     -33.309  16.330  -4.657  1.00 20.00     0.105 C 
HETATM    7 CL11 UNL     1     -34.340  16.779  -6.052  1.00 20.00    -0.121 Cl
ENDROOT
BRANCH   2   8
HETATM    8  C10 UNL     1     -34.465  17.944  -1.303  1.00 20.00    -0.028 C 
HETATM    9  C7  UNL     1     -35.627  18.877  -1.675  1.00 20.00     0.019 C 
HETATM   10  C8  UNL     1     -33.190  18.774  -1.088  1.00 20.00     0.019 C 
HETATM   11  C9  UNL     1     -34.805  17.196  -0.004  1.00 20.00     0.019 C 
ENDBRANCH   2   8
TORSDOF 1
ENDMDL
MODEL 7
REMARK VINA RESULT:      -4.1      1.644      2.565
REMARK  1 active torsions:
REMARK  status: ('A' for Active; 'I' for Inactive)
REMARK    1  A    between atoms: C2_2  and  C10_10 
ROOT
HETATM    1  C1  UNL     1     -33.811  18.126  -3.470  1.00 20.00    -0.003 C 
HETATM    2  C2  UNL     1     -34.009  17.421  -2.342  1.00 20.00    -0.075 C 
HETATM    3  C3  UNL     1     -34.000  15.912  -2.327  1.00 20.00     0.034 C 
HETATM    4  C4  UNL     1     -34.069  15.278  -3.719  1.00 20.00     0.006 C 
HETATM    5  C5  UNL     1     -33.170  16.015  -4.707  1.00 20.00     0.024 C 
HETATM    6  C6  UNL     1     -33.532  17.501  -4.806  1.00 20.00     0.105 C 
HETATM    7 CL11 UNL     1     -34.976  17.727  -5.842  1.00 20.00    -0.121 Cl
ENDROOT
BRANCH   2   8
HETATM    8  C10 UNL     1     -34.242  18.092  -1.020  1.00 20.00    -0.028 C 
HETATM    9  C7  UNL     1     -34.834  17.075  -0.033  1.00 20.00     0.019 C 
HETATM   10  C8  UNL     1     -35.222  19.263  -1.198  1.00 20.00     0.019 C 
HETATM   11  C9  UNL     1     -32.912  18.628  -0.467  1.00 20.00     0.019 C 
ENDBRANCH   2   8
TORSDOF 1
ENDMDL
MODEL 8
REMARK VINA RESULT:      -4.0      2.958      4.295
REMARK  1 active torsions:
REMARK  status: ('A' for Active; 'I' for Inactive)
REMARK    1  A    between atoms: C2_2  and  C10_10 
ROOT
HETATM    1  C1  UNL     1     -34.886  16.882  -5.144  1.00 20.00    -0.003 C 
HETATM    2  C2  UNL     1     -34.530  15.585  -5.163  1.00 20.00    -0.075 C 
HETATM    3  C3  UNL     1     -34.402  14.806  -6.449  1.00 20.00     0.034 C 
HETATM    4  C4  UNL     1     -35.009  15.513  -7.664  1.00 20.00     0.006 C 
HETATM    5  C5  UNL     1     -34.675  17.002  -7.662  1.00 20.00     0.024 C 
HETATM    6  C6  UNL     1     -35.155  17.690  -6.380  1.00 20.00     0.105 C 
HETATM    7 CL11 UNL     1     -36.916  18.012  -6.464  1.00 20.00    -0.121 Cl
ENDROOT
BRANCH   2   8
HETATM    8  C10 UNL     1     -34.228  14.828  -3.902  1.00 20.00    -0.028 C 
HETATM    9  C7  UNL     1     -34.796  13.406  -4.016  1.00 20.00     0.019 C 
HETATM   10  C8  UNL     1     -34.871  15.542  -2.703  1.00 20.00     0.019 C 
HETATM   11  C9  UNL     1     -32.707  14.758  -3.690  1.00 20.00     0.019 C 
ENDBRANCH   2   8
TORSDOF 1
ENDMDL
MODEL 9
REMARK VINA RESULT:      -4.0      2.031      2.666
REMARK  1 active torsions:
REMARK  status: ('A' for Active; 'I' for Inactive)
REMARK    1  A    between atoms: C2_2  and  C10_10 
ROOT
HETATM    1  C1  UNL     1     -35.183  16.393  -4.840  1.00 20.00    -0.003 C 
HETATM    2  C2  UNL     1     -34.946  16.093  -3.550  1.00 20.00    -0.075 C 
HETATM    3  C3  UNL     1     -34.691  14.679  -3.090  1.00 20.00     0.034 C 
HETATM    4  C4  UNL     1     -35.038  13.615  -4.134  1.00 20.00     0.006 C 
HETATM    5  C5  UNL     1     -34.577  14.036  -5.527  1.00 20.00     0.024 C 
HETATM    6  C6  UNL     1     -35.186  15.378  -5.945  1.00 20.00     0.105 C 
HETATM    7 CL11 UNL     1     -36.876  15.154  -6.494  1.00 20.00    -0.121 Cl
ENDROOT
BRANCH   2   8
HETATM    8  C10 UNL     1     -34.911  17.150  -2.485  1.00 20.00    -0.028 C 
HETATM    9  C7  UNL     1     -36.290  17.819  -2.388  1.00 20.00     0.019 C 
HETATM   10  C8  UNL     1     -33.853  18.207  -2.838  1.00 20.00     0.019 C 
HETATM   11  C9  UNL     1     -34.554  16.512  -1.132  1.00 20.00     0.019 C 
ENDBRANCH   2   8
TORSDOF 1
ENDMDL
