MODEL 1
REMARK VINA RESULT:      -5.6      0.000      0.000
REMARK  2 active torsions:
REMARK  status: ('A' for Active; 'I' for Inactive)
REMARK    1  A    between atoms: C4_4  and  C9_9 
REMARK    2  A    between atoms: C8_8  and  O10_10 
ROOT
HETATM    1  C1  UNL     1     -32.238   8.739   1.327  1.00 20.00     0.012 C 
HETATM    2  C2  UNL     1     -32.013   8.035   2.273  1.00 20.00    -0.113 C 
HETATM    3  C9  UNL     1     -31.717   7.185   3.424  1.00 20.00     0.127 C 
ENDROOT
BRANCH   3   4
HETATM    4  C4  UNL     1     -32.967   6.481   3.865  1.00 20.00    -0.070 C 
HETATM    5  C3  UNL     1     -33.362   6.475   5.150  1.00 20.00     0.008 C 
HETATM    6  C8  UNL     1     -34.589   5.757   5.636  1.00 20.00     0.141 C 
HETATM    7  C7  UNL     1     -35.146   4.763   4.615  1.00 20.00     0.036 C 
HETATM    8  C6  UNL     1     -35.160   5.366   3.217  1.00 20.00     0.007 C 
HETATM    9  C5  UNL     1     -33.752   5.782   2.782  1.00 20.00     0.035 C 
BRANCH   6  10
HETATM   10  O10 UNL     1     -34.262   5.058   6.834  1.00 20.00    -0.392 OA
HETATM   11  H22 UNL     1     -35.043   5.108   7.406  1.00 20.00     0.210 HD
ENDBRANCH   6  10
ENDBRANCH   3   4
TORSDOF 2
ENDMDL
MODEL 2
REMARK VINA RESULT:      -4.9     11.107     11.748
REMARK  2 active torsions:
REMARK  status: ('A' for Active; 'I' for Inactive)
REMARK    1  A    between atoms: C4_4  and  C9_9 
REMARK    2  A    between atoms: C8_8  and  O10_10 
ROOT
HETATM    1  C1  UNL     1     -34.806  17.040  -0.009  1.00 20.00     0.012 C 
HETATM    2  C2  UNL     1     -34.300  16.923  -1.092  1.00 20.00    -0.113 C 
HETATM    3  C9  UNL     1     -33.672  16.799  -2.405  1.00 20.00     0.127 C 
ENDROOT
BRANCH   3   4
HETATM    4  C4  UNL     1     -34.303  15.667  -3.161  1.00 20.00    -0.070 C 
HETATM    5  C3  UNL     1     -35.608  15.669  -3.484  1.00 20.00     0.008 C 
HETATM    6  C8  UNL     1     -36.282  14.542  -4.212  1.00 20.00     0.141 C 
HETATM    7  C7  UNL     1     -35.444  13.262  -4.246  1.00 20.00     0.036 C 
HETATM    8  C6  UNL     1     -33.989  13.571  -4.569  1.00 20.00     0.007 C 
HETATM    9  C5  UNL     1     -33.387  14.527  -3.537  1.00 20.00     0.035 C 
BRANCH   6  10
HETATM   10  O10 UNL     1     -37.525  14.266  -3.572  1.00 20.00    -0.392 OA
HETATM   11  H22 UNL     1     -38.153  14.935  -3.885  1.00 20.00     0.210 HD
ENDBRANCH   6  10
ENDBRANCH   3   4
TORSDOF 2
ENDMDL
MODEL 3
REMARK VINA RESULT:      -4.9     11.311     12.192
REMARK  2 active torsions:
REMARK  status: ('A' for Active; 'I' for Inactive)
REMARK    1  A    between atoms: C4_4  and  C9_9 
REMARK    2  A    between atoms: C8_8  and  O10_10 
ROOT
HETATM    1  C1  UNL     1     -34.830  16.718  -0.548  1.00 20.00     0.012 C 
HETATM    2  C2  UNL     1     -34.156  16.654  -1.540  1.00 20.00    -0.113 C 
HETATM    3  C9  UNL     1     -33.321  16.590  -2.737  1.00 20.00     0.127 C 
ENDROOT
BRANCH   3   4
HETATM    4  C4  UNL     1     -33.999  15.751  -3.780  1.00 20.00    -0.070 C 
HETATM    5  C3  UNL     1     -34.822  14.739  -3.453  1.00 20.00     0.008 C 
HETATM    6  C8  UNL     1     -35.494  13.858  -4.466  1.00 20.00     0.141 C 
HETATM    7  C7  UNL     1     -34.895  13.991  -5.868  1.00 20.00     0.036 C 
HETATM    8  C6  UNL     1     -34.651  15.452  -6.221  1.00 20.00     0.007 C 
HETATM    9  C5  UNL     1     -33.702  16.109  -5.216  1.00 20.00     0.035 C 
BRANCH   6  10
HETATM   10  O10 UNL     1     -35.377  12.503  -4.039  1.00 20.00    -0.392 OA
HETATM   11  H22 UNL     1     -36.070  12.362  -3.375  1.00 20.00     0.210 HD
ENDBRANCH   6  10
ENDBRANCH   3   4
TORSDOF 2
ENDMDL
MODEL 4
REMARK VINA RESULT:      -4.7     11.827     12.396
REMARK  2 active torsions:
REMARK  status: ('A' for Active; 'I' for Inactive)
REMARK    1  A    between atoms: C4_4  and  C9_9 
REMARK    2  A    between atoms: C8_8  and  O10_10 
ROOT
HETATM    1  C1  UNL     1     -32.961  18.567  -0.590  1.00 20.00     0.012 C 
HETATM    2  C2  UNL     1     -33.750  17.668  -0.696  1.00 20.00    -0.113 C 
HETATM    3  C9  UNL     1     -34.716  16.578  -0.805  1.00 20.00     0.127 C 
ENDROOT
BRANCH   3   4
HETATM    4  C4  UNL     1     -34.693  16.019  -2.197  1.00 20.00    -0.070 C 
HETATM    5  C3  UNL     1     -33.540  15.757  -2.837  1.00 20.00     0.008 C 
HETATM    6  C8  UNL     1     -33.474  15.227  -4.241  1.00 20.00     0.141 C 
HETATM    7  C7  UNL     1     -34.805  15.339  -4.988  1.00 20.00     0.036 C 
HETATM    8  C6  UNL     1     -35.966  14.911  -4.101  1.00 20.00     0.007 C 
HETATM    9  C5  UNL     1     -36.037  15.769  -2.835  1.00 20.00     0.035 C 
BRANCH   6  10
HETATM   10  O10 UNL     1     -32.478  15.954  -4.955  1.00 20.00    -0.392 OA
HETATM   11  H22 UNL     1     -32.839  16.120  -5.840  1.00 20.00     0.210 HD
ENDBRANCH   6  10
ENDBRANCH   3   4
TORSDOF 2
ENDMDL
MODEL 5
REMARK VINA RESULT:      -4.5     10.919     13.145
REMARK  2 active torsions:
REMARK  status: ('A' for Active; 'I' for Inactive)
REMARK    1  A    between atoms: C4_4  and  C9_9 
REMARK    2  A    between atoms: C8_8  and  O10_10 
ROOT
HETATM    1  C1  UNL     1     -36.136  18.384  -6.371  1.00 20.00     0.012 C 
HETATM    2  C2  UNL     1     -35.465  17.443  -6.696  1.00 20.00    -0.113 C 
HETATM    3  C9  UNL     1     -34.649  16.305  -7.112  1.00 20.00     0.127 C 
ENDROOT
BRANCH   3   4
HETATM    4  C4  UNL     1     -34.273  15.487  -5.912  1.00 20.00    -0.070 C 
HETATM    5  C3  UNL     1     -34.620  14.194  -5.798  1.00 20.00     0.008 C 
HETATM    6  C8  UNL     1     -34.289  13.350  -4.599  1.00 20.00     0.141 C 
HETATM    7  C7  UNL     1     -33.835  14.175  -3.393  1.00 20.00     0.036 C 
HETATM    8  C6  UNL     1     -32.854  15.261  -3.812  1.00 20.00     0.007 C 
HETATM    9  C5  UNL     1     -33.483  16.202  -4.843  1.00 20.00     0.035 C 
BRANCH   6  10
HETATM   10  O10 UNL     1     -35.445  12.599  -4.239  1.00 20.00    -0.392 OA
HETATM   11  H22 UNL     1     -35.262  11.677  -4.477  1.00 20.00     0.210 HD
ENDBRANCH   6  10
ENDBRANCH   3   4
TORSDOF 2
ENDMDL
MODEL 6
REMARK VINA RESULT:      -4.4      1.302      2.011
REMARK  2 active torsions:
REMARK  status: ('A' for Active; 'I' for Inactive)
REMARK    1  A    between atoms: C4_4  and  C9_9 
REMARK    2  A    between atoms: C8_8  and  O10_10 
ROOT
HETATM    1  C1  UNL     1     -32.167   8.752   2.298  1.00 20.00     0.012 C 
HETATM    2  C2  UNL     1     -32.352   7.577   2.464  1.00 20.00    -0.113 C 
HETATM    3  C9  UNL     1     -32.567   6.144   2.647  1.00 20.00     0.127 C 
ENDROOT
BRANCH   3   4
HETATM    4  C4  UNL     1     -33.218   5.897   3.977  1.00 20.00    -0.070 C 
HETATM    5  C3  UNL     1     -33.736   4.700   4.302  1.00 20.00     0.008 C 
HETATM    6  C8  UNL     1     -34.422   4.422   5.609  1.00 20.00     0.141 C 
HETATM    7  C7  UNL     1     -34.781   5.695   6.381  1.00 20.00     0.036 C 
HETATM    8  C6  UNL     1     -33.628   6.689   6.360  1.00 20.00     0.007 C 
HETATM    9  C5  UNL     1     -33.257   7.071   4.925  1.00 20.00     0.035 C 
BRANCH   6  10
HETATM   10  O10 UNL     1     -35.614   3.686   5.350  1.00 20.00    -0.392 OA
HETATM   11  H22 UNL     1     -35.741   3.090   6.104  1.00 20.00     0.210 HD
ENDBRANCH   6  10
ENDBRANCH   3   4
TORSDOF 2
ENDMDL
MODEL 7
REMARK VINA RESULT:      -4.4      9.038     10.860
REMARK  2 active torsions:
REMARK  status: ('A' for Active; 'I' for Inactive)
REMARK    1  A    between atoms: C4_4  and  C9_9 
REMARK    2  A    between atoms: C8_8  and  O10_10 
ROOT
HETATM    1  C1  UNL     1     -41.168   1.777  -3.794  1.00 20.00     0.012 C 
HETATM    2  C2  UNL     1     -41.998   2.534  -3.371  1.00 20.00    -0.113 C 
HETATM    3  C9  UNL     1     -43.024   3.440  -2.861  1.00 20.00     0.127 C 
ENDROOT
BRANCH   3   4
HETATM    4  C4  UNL     1     -42.379   4.689  -2.336  1.00 20.00    -0.070 C 
HETATM    5  C3  UNL     1     -41.459   4.655  -1.356  1.00 20.00     0.008 C 
HETATM    6  C8  UNL     1     -40.813   5.884  -0.784  1.00 20.00     0.141 C 
HETATM    7  C7  UNL     1     -41.537   7.176  -1.167  1.00 20.00     0.036 C 
HETATM    8  C6  UNL     1     -41.918   7.173  -2.641  1.00 20.00     0.007 C 
HETATM    9  C5  UNL     1     -42.822   5.983  -2.973  1.00 20.00     0.035 C 
BRANCH   6  10
HETATM   10  O10 UNL     1     -40.792   5.767   0.636  1.00 20.00    -0.392 OA
HETATM   11  H22 UNL     1     -41.150   6.597   0.987  1.00 20.00     0.210 HD
ENDBRANCH   6  10
ENDBRANCH   3   4
TORSDOF 2
ENDMDL
MODEL 8
REMARK VINA RESULT:      -4.4     11.662     12.892
REMARK  2 active torsions:
REMARK  status: ('A' for Active; 'I' for Inactive)
REMARK    1  A    between atoms: C4_4  and  C9_9 
REMARK    2  A    between atoms: C8_8  and  O10_10 
ROOT
HETATM    1  C1  UNL     1     -33.508  18.580   0.571  1.00 20.00     0.012 C 
HETATM    2  C2  UNL     1     -34.084  17.715  -0.031  1.00 20.00    -0.113 C 
HETATM    3  C9  UNL     1     -34.795  16.657  -0.745  1.00 20.00     0.127 C 
ENDROOT
BRANCH   3   4
HETATM    4  C4  UNL     1     -34.373  16.649  -2.184  1.00 20.00    -0.070 C 
HETATM    5  C3  UNL     1     -33.681  15.626  -2.715  1.00 20.00     0.008 C 
HETATM    6  C8  UNL     1     -33.215  15.594  -4.143  1.00 20.00     0.141 C 
HETATM    7  C7  UNL     1     -33.294  16.958  -4.831  1.00 20.00     0.036 C 
HETATM    8  C6  UNL     1     -34.609  17.656  -4.509  1.00 20.00     0.007 C 
HETATM    9  C5  UNL     1     -34.772  17.855  -3.000  1.00 20.00     0.035 C 
BRANCH   6  10
HETATM   10  O10 UNL     1     -31.865  15.139  -4.170  1.00 20.00    -0.392 OA
HETATM   11  H22 UNL     1     -31.314  15.918  -4.345  1.00 20.00     0.210 HD
ENDBRANCH   6  10
ENDBRANCH   3   4
TORSDOF 2
ENDMDL
MODEL 9
REMARK VINA RESULT:      -4.3      9.485     10.831
REMARK  2 active torsions:
REMARK  status: ('A' for Active; 'I' for Inactive)
REMARK    1  A    between atoms: C4_4  and  C9_9 
REMARK    2  A    between atoms: C8_8  and  O10_10 
ROOT
HETATM    1  C1  UNL     1     -41.963   9.058  -5.039  1.00 20.00     0.012 C 
HETATM    2  C2  UNL     1     -42.594   8.274  -4.384  1.00 20.00    -0.113 C 
HETATM    3  C9  UNL     1     -43.379   7.324  -3.599  1.00 20.00     0.127 C 
ENDROOT
BRANCH   3   4
HETATM    4  C4  UNL     1     -42.508   6.690  -2.555  1.00 20.00    -0.070 C 
HETATM    5  C3  UNL     1     -42.244   5.371  -2.555  1.00 20.00     0.008 C 
HETATM    6  C8  UNL     1     -41.403   4.695  -1.512  1.00 20.00     0.141 C 
HETATM    7  C7  UNL     1     -41.164   5.566  -0.276  1.00 20.00     0.036 C 
HETATM    8  C6  UNL     1     -40.822   6.995  -0.674  1.00 20.00     0.007 C 
HETATM    9  C5  UNL     1     -41.945   7.618  -1.507  1.00 20.00     0.035 C 
BRANCH   6  10
HETATM   10  O10 UNL     1     -42.054   3.492  -1.112  1.00 20.00    -0.392 OA
HETATM   11  H22 UNL     1     -42.596   3.207  -1.864  1.00 20.00     0.210 HD
ENDBRANCH   6  10
ENDBRANCH   3   4
TORSDOF 2
ENDMDL
