MODEL 1
REMARK VINA RESULT:      -4.6      0.000      0.000
REMARK  1 active torsions:
REMARK  status: ('A' for Active; 'I' for Inactive)
REMARK    1  A    between atoms: C2_2  and  C10_10 
ROOT
HETATM    1  C1  UNL     1     -33.820  15.925  -5.017  1.00 20.00    -0.003 C 
HETATM    2  C2  UNL     1     -34.687  15.171  -5.722  1.00 20.00    -0.075 C 
HETATM    3  C3  UNL     1     -34.990  13.745  -5.317  1.00 20.00     0.034 C 
HETATM    4  C4  UNL     1     -34.523  13.381  -3.906  1.00 20.00     0.006 C 
HETATM    5  C5  UNL     1     -33.121  13.919  -3.640  1.00 20.00     0.024 C 
HETATM    6  C6  UNL     1     -33.056  15.439  -3.819  1.00 20.00     0.105 C 
HETATM    7 CL11 UNL     1     -33.709  16.266  -2.371  1.00 20.00    -0.121 Cl
ENDROOT
BRANCH   2   8
HETATM    8  C10 UNL     1     -35.421  15.669  -6.912  1.00 20.00    -0.028 C 
HETATM    9  C7  UNL     1     -36.793  16.206  -6.475  1.00 20.00     0.019 C 
HETATM   10  C8  UNL     1     -35.618  14.523  -7.918  1.00 20.00     0.019 C 
HETATM   11  C9  UNL     1     -34.622  16.796  -7.584  1.00 20.00     0.019 C 
ENDBRANCH   2   8
TORSDOF 1
ENDMDL
MODEL 2
REMARK VINA RESULT:      -4.6      0.016      1.307
REMARK  1 active torsions:
REMARK  status: ('A' for Active; 'I' for Inactive)
REMARK    1  A    between atoms: C2_2  and  C10_10 
ROOT
HETATM    1  C1  UNL     1     -33.827  15.929  -5.021  1.00 20.00    -0.003 C 
HETATM    2  C2  UNL     1     -34.689  15.176  -5.731  1.00 20.00    -0.075 C 
HETATM    3  C3  UNL     1     -34.989  13.747  -5.331  1.00 20.00     0.034 C 
HETATM    4  C4  UNL     1     -34.528  13.381  -3.920  1.00 20.00     0.006 C 
HETATM    5  C5  UNL     1     -33.128  13.923  -3.646  1.00 20.00     0.024 C 
HETATM    6  C6  UNL     1     -33.067  15.442  -3.821  1.00 20.00     0.105 C 
HETATM    7 CL11 UNL     1     -33.729  16.264  -2.373  1.00 20.00    -0.121 Cl
ENDROOT
BRANCH   2   8
HETATM    8  C10 UNL     1     -35.419  15.674  -6.923  1.00 20.00    -0.028 C 
HETATM    9  C7  UNL     1     -35.615  14.519  -7.918  1.00 20.00     0.019 C 
HETATM   10  C8  UNL     1     -34.612  16.796  -7.596  1.00 20.00     0.019 C 
HETATM   11  C9  UNL     1     -36.791  16.224  -6.503  1.00 20.00     0.019 C 
ENDBRANCH   2   8
TORSDOF 1
ENDMDL
MODEL 3
REMARK VINA RESULT:      -4.5      3.008      4.557
REMARK  1 active torsions:
REMARK  status: ('A' for Active; 'I' for Inactive)
REMARK    1  A    between atoms: C2_2  and  C10_10 
ROOT
HETATM    1  C1  UNL     1     -36.109  15.616  -3.182  1.00 20.00    -0.003 C 
HETATM    2  C2  UNL     1     -34.973  16.098  -2.641  1.00 20.00    -0.075 C 
HETATM    3  C3  UNL     1     -33.639  15.434  -2.907  1.00 20.00     0.034 C 
HETATM    4  C4  UNL     1     -33.654  14.442  -4.071  1.00 20.00     0.006 C 
HETATM    5  C5  UNL     1     -34.897  13.558  -4.019  1.00 20.00     0.024 C 
HETATM    6  C6  UNL     1     -36.182  14.390  -4.045  1.00 20.00     0.105 C 
HETATM    7 CL11 UNL     1     -36.555  14.909  -5.718  1.00 20.00    -0.121 Cl
ENDROOT
BRANCH   2   8
HETATM    8  C10 UNL     1     -34.927  17.305  -1.778  1.00 20.00    -0.028 C 
HETATM    9  C7  UNL     1     -33.764  18.204  -2.225  1.00 20.00     0.019 C 
HETATM   10  C8  UNL     1     -34.718  16.889  -0.313  1.00 20.00     0.019 C 
HETATM   11  C9  UNL     1     -36.247  18.082  -1.897  1.00 20.00     0.019 C 
ENDBRANCH   2   8
TORSDOF 1
ENDMDL
MODEL 4
REMARK VINA RESULT:      -4.4      2.587      3.998
REMARK  1 active torsions:
REMARK  status: ('A' for Active; 'I' for Inactive)
REMARK    1  A    between atoms: C2_2  and  C10_10 
ROOT
HETATM    1  C1  UNL     1     -35.437  15.743  -4.745  1.00 20.00    -0.003 C 
HETATM    2  C2  UNL     1     -34.869  15.788  -3.524  1.00 20.00    -0.075 C 
HETATM    3  C3  UNL     1     -34.058  14.624  -2.997  1.00 20.00     0.034 C 
HETATM    4  C4  UNL     1     -33.664  13.601  -4.063  1.00 20.00     0.006 C 
HETATM    5  C5  UNL     1     -34.839  13.295  -4.987  1.00 20.00     0.024 C 
HETATM    6  C6  UNL     1     -35.364  14.562  -5.669  1.00 20.00     0.105 C 
HETATM    7 CL11 UNL     1     -34.318  15.003  -7.055  1.00 20.00    -0.121 Cl
ENDROOT
BRANCH   2   8
HETATM    8  C10 UNL     1     -34.966  16.962  -2.622  1.00 20.00    -0.028 C 
HETATM    9  C7  UNL     1     -33.977  18.043  -3.086  1.00 20.00     0.019 C 
HETATM   10  C8  UNL     1     -34.625  16.542  -1.183  1.00 20.00     0.019 C 
HETATM   11  C9  UNL     1     -36.394  17.528  -2.654  1.00 20.00     0.019 C 
ENDBRANCH   2   8
TORSDOF 1
ENDMDL
MODEL 5
REMARK VINA RESULT:      -4.2      2.510      3.878
REMARK  1 active torsions:
REMARK  status: ('A' for Active; 'I' for Inactive)
REMARK    1  A    between atoms: C2_2  and  C10_10 
ROOT
HETATM    1  C1  UNL     1     -34.448  15.859  -1.975  1.00 20.00    -0.003 C 
HETATM    2  C2  UNL     1     -34.831  15.824  -3.267  1.00 20.00    -0.075 C 
HETATM    3  C3  UNL     1     -35.651  16.944  -3.869  1.00 20.00     0.034 C 
HETATM    4  C4  UNL     1     -35.691  18.217  -3.021  1.00 20.00     0.006 C 
HETATM    5  C5  UNL     1     -35.905  17.884  -1.548  1.00 20.00     0.024 C 
HETATM    6  C6  UNL     1     -34.811  16.954  -1.015  1.00 20.00     0.105 C 
HETATM    7 CL11 UNL     1     -33.325  17.885  -0.646  1.00 20.00    -0.121 Cl
ENDROOT
BRANCH   2   8
HETATM    8  C10 UNL     1     -34.472  14.723  -4.195  1.00 20.00    -0.028 C 
HETATM    9  C7  UNL     1     -33.182  14.045  -3.705  1.00 20.00     0.019 C 
HETATM   10  C8  UNL     1     -34.248  15.285  -5.608  1.00 20.00     0.019 C 
HETATM   11  C9  UNL     1     -35.607  13.688  -4.240  1.00 20.00     0.019 C 
ENDBRANCH   2   8
TORSDOF 1
ENDMDL
MODEL 6
REMARK VINA RESULT:      -4.2      2.046      2.704
REMARK  1 active torsions:
REMARK  status: ('A' for Active; 'I' for Inactive)
REMARK    1  A    between atoms: C2_2  and  C10_10 
ROOT
HETATM    1  C1  UNL     1     -34.160  17.096  -4.302  1.00 20.00    -0.003 C 
HETATM    2  C2  UNL     1     -34.554  15.816  -4.157  1.00 20.00    -0.075 C 
HETATM    3  C3  UNL     1     -34.707  15.196  -2.785  1.00 20.00     0.034 C 
HETATM    4  C4  UNL     1     -34.722  16.209  -1.639  1.00 20.00     0.006 C 
HETATM    5  C5  UNL     1     -33.640  17.267  -1.831  1.00 20.00     0.024 C 
HETATM    6  C6  UNL     1     -33.804  18.006  -3.162  1.00 20.00     0.105 C 
HETATM    7 CL11 UNL     1     -35.080  19.256  -3.029  1.00 20.00    -0.121 Cl
ENDROOT
BRANCH   2   8
HETATM    8  C10 UNL     1     -34.887  14.930  -5.300  1.00 20.00    -0.028 C 
HETATM    9  C7  UNL     1     -36.402  14.976  -5.554  1.00 20.00     0.019 C 
HETATM   10  C8  UNL     1     -34.466  13.486  -4.980  1.00 20.00     0.019 C 
HETATM   11  C9  UNL     1     -34.144  15.402  -6.560  1.00 20.00     0.019 C 
ENDBRANCH   2   8
TORSDOF 1
ENDMDL
MODEL 7
REMARK VINA RESULT:      -4.2      2.629      3.972
REMARK  1 active torsions:
REMARK  status: ('A' for Active; 'I' for Inactive)
REMARK    1  A    between atoms: C2_2  and  C10_10 
ROOT
HETATM    1  C1  UNL     1     -34.377  16.058  -1.763  1.00 20.00    -0.003 C 
HETATM    2  C2  UNL     1     -34.593  16.076  -3.092  1.00 20.00    -0.075 C 
HETATM    3  C3  UNL     1     -35.387  17.191  -3.739  1.00 20.00     0.034 C 
HETATM    4  C4  UNL     1     -35.597  18.413  -2.843  1.00 20.00     0.006 C 
HETATM    5  C5  UNL     1     -35.975  17.992  -1.426  1.00 20.00     0.024 C 
HETATM    6  C6  UNL     1     -34.911  17.083  -0.804  1.00 20.00     0.105 C 
HETATM    7 CL11 UNL     1     -33.532  18.057  -0.205  1.00 20.00    -0.121 Cl
ENDROOT
BRANCH   2   8
HETATM    8  C10 UNL     1     -34.067  15.044  -4.019  1.00 20.00    -0.028 C 
HETATM    9  C7  UNL     1     -34.136  15.573  -5.461  1.00 20.00     0.019 C 
HETATM   10  C8  UNL     1     -34.909  13.763  -3.904  1.00 20.00     0.019 C 
HETATM   11  C9  UNL     1     -32.607  14.720  -3.665  1.00 20.00     0.019 C 
ENDBRANCH   2   8
TORSDOF 1
ENDMDL
MODEL 8
REMARK VINA RESULT:      -4.2      2.994      4.498
REMARK  1 active torsions:
REMARK  status: ('A' for Active; 'I' for Inactive)
REMARK    1  A    between atoms: C2_2  and  C10_10 
ROOT
HETATM    1  C1  UNL     1     -33.674  16.070  -3.229  1.00 20.00    -0.003 C 
HETATM    2  C2  UNL     1     -34.791  16.547  -2.646  1.00 20.00    -0.075 C 
HETATM    3  C3  UNL     1     -36.156  16.008  -3.016  1.00 20.00     0.034 C 
HETATM    4  C4  UNL     1     -36.120  14.696  -3.803  1.00 20.00     0.006 C 
HETATM    5  C5  UNL     1     -35.048  14.741  -4.888  1.00 20.00     0.024 C 
HETATM    6  C6  UNL     1     -33.661  15.018  -4.300  1.00 20.00     0.105 C 
HETATM    7 CL11 UNL     1     -32.969  13.521  -3.601  1.00 20.00    -0.121 Cl
ENDROOT
BRANCH   2   8
HETATM    8  C10 UNL     1     -34.781  17.598  -1.599  1.00 20.00    -0.028 C 
HETATM    9  C7  UNL     1     -33.544  18.490  -1.787  1.00 20.00     0.019 C 
HETATM   10  C8  UNL     1     -34.735  16.947  -0.207  1.00 20.00     0.019 C 
HETATM   11  C9  UNL     1     -36.050  18.457  -1.710  1.00 20.00     0.019 C 
ENDBRANCH   2   8
TORSDOF 1
ENDMDL
MODEL 9
REMARK VINA RESULT:      -4.1      2.209      4.375
REMARK  1 active torsions:
REMARK  status: ('A' for Active; 'I' for Inactive)
REMARK    1  A    between atoms: C2_2  and  C10_10 
ROOT
HETATM    1  C1  UNL     1     -34.768  14.538  -6.270  1.00 20.00    -0.003 C 
HETATM    2  C2  UNL     1     -34.402  15.334  -5.247  1.00 20.00    -0.075 C 
HETATM    3  C3  UNL     1     -34.326  16.836  -5.415  1.00 20.00     0.034 C 
HETATM    4  C4  UNL     1     -35.016  17.361  -6.675  1.00 20.00     0.006 C 
HETATM    5  C5  UNL     1     -34.686  16.488  -7.881  1.00 20.00     0.024 C 
HETATM    6  C6  UNL     1     -35.093  15.030  -7.651  1.00 20.00     0.105 C 
HETATM    7 CL11 UNL     1     -36.853  14.824  -7.914  1.00 20.00    -0.121 Cl
ENDROOT
BRANCH   2   8
HETATM    8  C10 UNL     1     -34.071  14.824  -3.893  1.00 20.00    -0.028 C 
HETATM    9  C7  UNL     1     -34.470  13.343  -3.797  1.00 20.00     0.019 C 
HETATM   10  C8  UNL     1     -34.837  15.629  -2.831  1.00 20.00     0.019 C 
HETATM   11  C9  UNL     1     -32.562  14.963  -3.637  1.00 20.00     0.019 C 
ENDBRANCH   2   8
TORSDOF 1
ENDMDL
