MODEL 1
REMARK VINA RESULT:      -4.8      0.000      0.000
REMARK  4 active torsions:
REMARK  status: ('A' for Active; 'I' for Inactive)
REMARK    1  A    between atoms: C2_2  and  C8_8 
REMARK    2  A    between atoms: C8_8  and  C11_11 
REMARK    3  A    between atoms: C9_9  and  C10_10 
REMARK    4  A    between atoms: C10_10  and  C11_11 
ROOT
HETATM    1  C1  UNL     1     -35.292  14.931  -3.407  1.00 20.00    -0.004 C 
HETATM    2  C2  UNL     1     -34.301  15.781  -3.108  1.00 20.00    -0.082 C 
HETATM    3  C3  UNL     1     -32.966  15.225  -3.491  1.00 20.00     0.036 C 
HETATM    4  C4  UNL     1     -33.280  13.746  -3.730  1.00 20.00     0.028 C 
HETATM    5  C5  UNL     1     -34.778  13.678  -4.034  1.00 20.00     0.105 C 
HETATM    6 CL12 UNL     1     -35.094  13.709  -5.782  1.00 20.00    -0.121 Cl
ENDROOT
BRANCH   2   7
HETATM    7  C8  UNL     1     -34.432  17.133  -2.507  1.00 20.00     0.038 C 
BRANCH   7   8
HETATM    8  C11 UNL     1     -33.780  17.291  -1.120  1.00 20.00    -0.015 C 
HETATM    9  C7  UNL     1     -34.807  17.092   0.002  1.00 20.00     0.010 C 
BRANCH   8  10
HETATM   10  C10 UNL     1     -33.042  18.631  -0.918  1.00 20.00     0.004 C 
BRANCH  10  11
HETATM   11  C9  UNL     1     -33.089  19.144   0.523  1.00 20.00    -0.004 C 
HETATM   12  C6  UNL     1     -31.710  19.118   1.166  1.00 20.00     0.005 C 
ENDBRANCH  10  11
ENDBRANCH   8  10
ENDBRANCH   7   8
ENDBRANCH   2   7
TORSDOF 4
ENDMDL
MODEL 2
REMARK VINA RESULT:      -4.7      2.947      5.771
REMARK  4 active torsions:
REMARK  status: ('A' for Active; 'I' for Inactive)
REMARK    1  A    between atoms: C2_2  and  C8_8 
REMARK    2  A    between atoms: C8_8  and  C11_11 
REMARK    3  A    between atoms: C9_9  and  C10_10 
REMARK    4  A    between atoms: C10_10  and  C11_11 
ROOT
HETATM    1  C1  UNL     1     -35.302  17.540   0.320  1.00 20.00    -0.004 C 
HETATM    2  C2  UNL     1     -34.419  17.215  -0.633  1.00 20.00    -0.082 C 
HETATM    3  C3  UNL     1     -33.194  18.071  -0.562  1.00 20.00     0.036 C 
HETATM    4  C4  UNL     1     -33.641  19.212   0.354  1.00 20.00     0.028 C 
HETATM    5  C5  UNL     1     -34.810  18.661   1.174  1.00 20.00     0.105 C 
HETATM    6 CL12 UNL     1     -34.269  18.026   2.743  1.00 20.00    -0.121 Cl
ENDROOT
BRANCH   2   7
HETATM    7  C8  UNL     1     -34.549  16.133  -1.642  1.00 20.00     0.038 C 
BRANCH   7   8
HETATM    8  C11 UNL     1     -33.813  16.395  -2.970  1.00 20.00    -0.015 C 
HETATM    9  C7  UNL     1     -34.698  17.174  -3.951  1.00 20.00     0.010 C 
BRANCH   8  10
HETATM   10  C10 UNL     1     -33.273  15.122  -3.655  1.00 20.00     0.004 C 
BRANCH  10  11
HETATM   11  C9  UNL     1     -34.161  13.892  -3.447  1.00 20.00    -0.004 C 
HETATM   12  C6  UNL     1     -34.639  13.323  -4.774  1.00 20.00     0.005 C 
ENDBRANCH  10  11
ENDBRANCH   8  10
ENDBRANCH   7   8
ENDBRANCH   2   7
TORSDOF 4
ENDMDL
MODEL 3
REMARK VINA RESULT:      -4.7      1.418      2.754
REMARK  4 active torsions:
REMARK  status: ('A' for Active; 'I' for Inactive)
REMARK    1  A    between atoms: C2_2  and  C8_8 
REMARK    2  A    between atoms: C8_8  and  C11_11 
REMARK    3  A    between atoms: C9_9  and  C10_10 
REMARK    4  A    between atoms: C10_10  and  C11_11 
ROOT
HETATM    1  C1  UNL     1     -35.825  14.690  -3.801  1.00 20.00    -0.004 C 
HETATM    2  C2  UNL     1     -34.749  15.021  -3.075  1.00 20.00    -0.082 C 
HETATM    3  C3  UNL     1     -33.516  14.338  -3.577  1.00 20.00     0.036 C 
HETATM    4  C4  UNL     1     -34.087  13.254  -4.494  1.00 20.00     0.028 C 
HETATM    5  C5  UNL     1     -35.482  13.738  -4.899  1.00 20.00     0.105 C 
HETATM    6 CL12 UNL     1     -35.451  14.601  -6.452  1.00 20.00    -0.121 Cl
ENDROOT
BRANCH   2   7
HETATM    7  C8  UNL     1     -34.699  15.963  -1.928  1.00 20.00     0.038 C 
BRANCH   7   8
HETATM    8  C11 UNL     1     -33.831  17.215  -2.157  1.00 20.00    -0.015 C 
HETATM    9  C7  UNL     1     -33.450  17.878  -0.828  1.00 20.00     0.010 C 
BRANCH   8  10
HETATM   10  C10 UNL     1     -34.467  18.261  -3.096  1.00 20.00     0.004 C 
BRANCH  10  11
HETATM   11  C9  UNL     1     -33.566  18.662  -4.266  1.00 20.00    -0.004 C 
HETATM   12  C6  UNL     1     -33.558  17.597  -5.352  1.00 20.00     0.005 C 
ENDBRANCH  10  11
ENDBRANCH   8  10
ENDBRANCH   7   8
ENDBRANCH   2   7
TORSDOF 4
ENDMDL
MODEL 4
REMARK VINA RESULT:      -4.6      1.369      1.872
REMARK  4 active torsions:
REMARK  status: ('A' for Active; 'I' for Inactive)
REMARK    1  A    between atoms: C2_2  and  C8_8 
REMARK    2  A    between atoms: C8_8  and  C11_11 
REMARK    3  A    between atoms: C9_9  and  C10_10 
REMARK    4  A    between atoms: C10_10  and  C11_11 
ROOT
HETATM    1  C1  UNL     1     -35.143  15.466  -4.570  1.00 20.00    -0.004 C 
HETATM    2  C2  UNL     1     -34.181  15.222  -3.671  1.00 20.00    -0.082 C 
HETATM    3  C3  UNL     1     -33.583  13.863  -3.861  1.00 20.00     0.036 C 
HETATM    4  C4  UNL     1     -34.595  13.184  -4.786  1.00 20.00     0.028 C 
HETATM    5  C5  UNL     1     -35.340  14.314  -5.499  1.00 20.00     0.105 C 
HETATM    6 CL12 UNL     1     -34.613  14.686  -7.077  1.00 20.00    -0.121 Cl
ENDROOT
BRANCH   2   7
HETATM    7  C8  UNL     1     -33.688  16.143  -2.614  1.00 20.00     0.038 C 
BRANCH   7   8
HETATM    8  C11 UNL     1     -34.786  16.954  -1.900  1.00 20.00    -0.015 C 
HETATM    9  C7  UNL     1     -34.756  18.426  -2.328  1.00 20.00     0.010 C 
BRANCH   8  10
HETATM   10  C10 UNL     1     -34.739  16.859  -0.360  1.00 20.00     0.004 C 
BRANCH  10  11
HETATM   11  C9  UNL     1     -34.111  18.084   0.309  1.00 20.00    -0.004 C 
HETATM   12  C6  UNL     1     -34.598  18.243   1.742  1.00 20.00     0.005 C 
ENDBRANCH  10  11
ENDBRANCH   8  10
ENDBRANCH   7   8
ENDBRANCH   2   7
TORSDOF 4
ENDMDL
MODEL 5
REMARK VINA RESULT:      -4.5      2.755      5.381
REMARK  4 active torsions:
REMARK  status: ('A' for Active; 'I' for Inactive)
REMARK    1  A    between atoms: C2_2  and  C8_8 
REMARK    2  A    between atoms: C8_8  and  C11_11 
REMARK    3  A    between atoms: C9_9  and  C10_10 
REMARK    4  A    between atoms: C10_10  and  C11_11 
ROOT
HETATM    1  C1  UNL     1     -34.731  16.085  -1.855  1.00 20.00    -0.004 C 
HETATM    2  C2  UNL     1     -34.207  15.548  -2.964  1.00 20.00    -0.082 C 
HETATM    3  C3  UNL     1     -33.531  16.581  -3.809  1.00 20.00     0.036 C 
HETATM    4  C4  UNL     1     -34.054  17.890  -3.213  1.00 20.00     0.028 C 
HETATM    5  C5  UNL     1     -34.489  17.556  -1.784  1.00 20.00     0.105 C 
HETATM    6 CL12 UNL     1     -33.200  17.895  -0.609  1.00 20.00    -0.121 Cl
ENDROOT
BRANCH   2   7
HETATM    7  C8  UNL     1     -34.221  14.115  -3.358  1.00 20.00     0.038 C 
BRANCH   7   8
HETATM    8  C11 UNL     1     -35.361  13.719  -4.315  1.00 20.00    -0.015 C 
HETATM    9  C7  UNL     1     -34.953  13.918  -5.780  1.00 20.00     0.010 C 
BRANCH   8  10
HETATM   10  C10 UNL     1     -36.695  14.447  -4.044  1.00 20.00     0.004 C 
BRANCH  10  11
HETATM   11  C9  UNL     1     -37.154  15.334  -5.203  1.00 20.00    -0.004 C 
HETATM   12  C6  UNL     1     -37.275  16.789  -4.774  1.00 20.00     0.005 C 
ENDBRANCH  10  11
ENDBRANCH   8  10
ENDBRANCH   7   8
ENDBRANCH   2   7
TORSDOF 4
ENDMDL
MODEL 6
REMARK VINA RESULT:      -4.5      2.469      3.698
REMARK  4 active torsions:
REMARK  status: ('A' for Active; 'I' for Inactive)
REMARK    1  A    between atoms: C2_2  and  C8_8 
REMARK    2  A    between atoms: C8_8  and  C11_11 
REMARK    3  A    between atoms: C9_9  and  C10_10 
REMARK    4  A    between atoms: C10_10  and  C11_11 
ROOT
HETATM    1  C1  UNL     1     -35.941  15.751  -5.592  1.00 20.00    -0.004 C 
HETATM    2  C2  UNL     1     -34.619  15.664  -5.787  1.00 20.00    -0.082 C 
HETATM    3  C3  UNL     1     -34.298  15.083  -7.128  1.00 20.00     0.036 C 
HETATM    4  C4  UNL     1     -35.641  14.489  -7.561  1.00 20.00     0.028 C 
HETATM    5  C5  UNL     1     -36.710  15.243  -6.766  1.00 20.00     0.105 C 
HETATM    6 CL12 UNL     1     -37.369  16.612  -7.688  1.00 20.00    -0.121 Cl
ENDROOT
BRANCH   2   7
HETATM    7  C8  UNL     1     -33.546  16.101  -4.857  1.00 20.00     0.038 C 
BRANCH   7   8
HETATM    8  C11 UNL     1     -33.437  15.274  -3.562  1.00 20.00    -0.015 C 
HETATM    9  C7  UNL     1     -33.567  13.773  -3.848  1.00 20.00     0.010 C 
BRANCH   8  10
HETATM   10  C10 UNL     1     -34.443  15.684  -2.465  1.00 20.00     0.004 C 
BRANCH  10  11
HETATM   11  C9  UNL     1     -34.016  16.922  -1.674  1.00 20.00    -0.004 C 
HETATM   12  C6  UNL     1     -34.684  16.965  -0.308  1.00 20.00     0.005 C 
ENDBRANCH  10  11
ENDBRANCH   8  10
ENDBRANCH   7   8
ENDBRANCH   2   7
TORSDOF 4
ENDMDL
MODEL 7
REMARK VINA RESULT:      -4.5      2.900      5.649
REMARK  4 active torsions:
REMARK  status: ('A' for Active; 'I' for Inactive)
REMARK    1  A    between atoms: C2_2  and  C8_8 
REMARK    2  A    between atoms: C8_8  and  C11_11 
REMARK    3  A    between atoms: C9_9  and  C10_10 
REMARK    4  A    between atoms: C10_10  and  C11_11 
ROOT
HETATM    1  C1  UNL     1     -34.633  16.585  -0.875  1.00 20.00    -0.004 C 
HETATM    2  C2  UNL     1     -34.031  16.826  -2.046  1.00 20.00    -0.082 C 
HETATM    3  C3  UNL     1     -33.972  18.292  -2.343  1.00 20.00     0.036 C 
HETATM    4  C4  UNL     1     -34.967  18.873  -1.336  1.00 20.00     0.028 C 
HETATM    5  C5  UNL     1     -35.071  17.846  -0.206  1.00 20.00     0.105 C 
HETATM    6 CL12 UNL     1     -33.966  18.228   1.132  1.00 20.00    -0.121 Cl
ENDROOT
BRANCH   2   7
HETATM    7  C8  UNL     1     -33.439  15.826  -2.971  1.00 20.00     0.038 C 
BRANCH   7   8
HETATM    8  C11 UNL     1     -34.441  14.809  -3.551  1.00 20.00    -0.015 C 
HETATM    9  C7  UNL     1     -33.758  13.471  -3.860  1.00 20.00     0.010 C 
BRANCH   8  10
HETATM   10  C10 UNL     1     -35.195  15.308  -4.801  1.00 20.00     0.004 C 
BRANCH  10  11
HETATM   11  C9  UNL     1     -34.273  15.835  -5.903  1.00 20.00    -0.004 C 
HETATM   12  C6  UNL     1     -34.432  15.037  -7.188  1.00 20.00     0.005 C 
ENDBRANCH  10  11
ENDBRANCH   8  10
ENDBRANCH   7   8
ENDBRANCH   2   7
TORSDOF 4
ENDMDL
MODEL 8
REMARK VINA RESULT:      -4.4      2.698      5.379
REMARK  4 active torsions:
REMARK  status: ('A' for Active; 'I' for Inactive)
REMARK    1  A    between atoms: C2_2  and  C8_8 
REMARK    2  A    between atoms: C8_8  and  C11_11 
REMARK    3  A    between atoms: C9_9  and  C10_10 
REMARK    4  A    between atoms: C10_10  and  C11_11 
ROOT
HETATM    1  C1  UNL     1     -35.884  16.973  -3.110  1.00 20.00    -0.004 C 
HETATM    2  C2  UNL     1     -35.147  16.863  -4.222  1.00 20.00    -0.082 C 
HETATM    3  C3  UNL     1     -33.791  17.472  -4.045  1.00 20.00     0.036 C 
HETATM    4  C4  UNL     1     -33.963  18.296  -2.768  1.00 20.00     0.028 C 
HETATM    5  C5  UNL     1     -35.142  17.671  -2.018  1.00 20.00     0.105 C 
HETATM    6 CL12 UNL     1     -34.598  16.485  -0.812  1.00 20.00    -0.121 Cl
ENDROOT
BRANCH   2   7
HETATM    7  C8  UNL     1     -35.539  16.204  -5.494  1.00 20.00     0.038 C 
BRANCH   7   8
HETATM    8  C11 UNL     1     -34.622  15.046  -5.932  1.00 20.00    -0.015 C 
HETATM    9  C7  UNL     1     -34.481  14.995  -7.458  1.00 20.00     0.010 C 
BRANCH   8  10
HETATM   10  C10 UNL     1     -35.057  13.663  -5.403  1.00 20.00     0.004 C 
BRANCH  10  11
HETATM   11  C9  UNL     1     -34.666  13.414  -3.945  1.00 20.00    -0.004 C 
HETATM   12  C6  UNL     1     -33.212  13.778  -3.690  1.00 20.00     0.005 C 
ENDBRANCH  10  11
ENDBRANCH   8  10
ENDBRANCH   7   8
ENDBRANCH   2   7
TORSDOF 4
ENDMDL
MODEL 9
REMARK VINA RESULT:      -4.4      1.636      2.510
REMARK  4 active torsions:
REMARK  status: ('A' for Active; 'I' for Inactive)
REMARK    1  A    between atoms: C2_2  and  C8_8 
REMARK    2  A    between atoms: C8_8  and  C11_11 
REMARK    3  A    between atoms: C9_9  and  C10_10 
REMARK    4  A    between atoms: C10_10  and  C11_11 
ROOT
HETATM    1  C1  UNL     1     -33.410  15.646  -3.091  1.00 20.00    -0.004 C 
HETATM    2  C2  UNL     1     -34.164  16.535  -2.432  1.00 20.00    -0.082 C 
HETATM    3  C3  UNL     1     -34.583  17.665  -3.320  1.00 20.00     0.036 C 
HETATM    4  C4  UNL     1     -33.652  17.502  -4.524  1.00 20.00     0.028 C 
HETATM    5  C5  UNL     1     -33.207  16.038  -4.517  1.00 20.00     0.105 C 
HETATM    6 CL12 UNL     1     -34.233  15.036  -5.566  1.00 20.00    -0.121 Cl
ENDROOT
BRANCH   2   7
HETATM    7  C8  UNL     1     -34.601  16.463  -1.015  1.00 20.00     0.038 C 
BRANCH   7   8
HETATM    8  C11 UNL     1     -34.470  17.782  -0.229  1.00 20.00    -0.015 C 
HETATM    9  C7  UNL     1     -33.010  18.243  -0.155  1.00 20.00     0.010 C 
BRANCH   8  10
HETATM   10  C10 UNL     1     -35.072  17.734   1.191  1.00 20.00     0.004 C 
BRANCH  10  11
HETATM   11  C9  UNL     1     -34.372  18.663   2.184  1.00 20.00    -0.004 C 
HETATM   12  C6  UNL     1     -34.237  18.012   3.553  1.00 20.00     0.005 C 
ENDBRANCH  10  11
ENDBRANCH   8  10
ENDBRANCH   7   8
ENDBRANCH   2   7
TORSDOF 4
ENDMDL
