MODEL 1
REMARK VINA RESULT:      -5.4      0.000      0.000
REMARK  1 active torsions:
REMARK  status: ('A' for Active; 'I' for Inactive)
REMARK    1  A    between atoms: C2_2  and  C8_8 
ROOT
HETATM    1  C1  UNL     1     -34.358  14.439  -3.417  1.00 20.00     0.053 C 
HETATM    2  C2  UNL     1     -34.058  15.746  -3.449  1.00 20.00    -0.072 C 
HETATM    3  C3  UNL     1     -34.669  13.704  -4.666  1.00 20.00     0.150 C 
HETATM    4  C4  UNL     1     -34.059  16.556  -4.721  1.00 20.00     0.043 C 
HETATM    5  C5  UNL     1     -34.560  14.436  -5.987  1.00 20.00     0.092 C 
HETATM    6  C9  UNL     1     -34.893  15.931  -5.862  1.00 20.00    -0.037 C 
HETATM    7  C10 UNL     1     -36.401  16.124  -5.598  1.00 20.00     0.015 C 
HETATM    8  C11 UNL     1     -34.548  16.640  -7.185  1.00 20.00     0.015 C 
HETATM    9  O12 UNL     1     -34.950  12.507  -4.614  1.00 20.00    -0.293 OA
ENDROOT
BRANCH   2  10
HETATM   10  C8  UNL     1     -33.686  16.490  -2.199  1.00 20.00     0.014 A 
HETATM   11  C6  UNL     1     -34.431  17.741  -1.884  1.00 20.00     0.010 A 
HETATM   12  C7  UNL     1     -34.663  16.500  -1.075  1.00 20.00     0.010 A 
ENDBRANCH   2  10
TORSDOF 1
ENDMDL
MODEL 2
REMARK VINA RESULT:      -5.3      2.067      3.145
REMARK  1 active torsions:
REMARK  status: ('A' for Active; 'I' for Inactive)
REMARK    1  A    between atoms: C2_2  and  C8_8 
ROOT
HETATM    1  C1  UNL     1     -33.799  17.205  -2.957  1.00 20.00     0.053 C 
HETATM    2  C2  UNL     1     -34.422  16.359  -2.124  1.00 20.00    -0.072 C 
HETATM    3  C3  UNL     1     -33.649  16.877  -4.395  1.00 20.00     0.150 C 
HETATM    4  C4  UNL     1     -34.965  15.023  -2.567  1.00 20.00     0.043 C 
HETATM    5  C5  UNL     1     -34.286  15.609  -4.922  1.00 20.00     0.092 C 
HETATM    6  C9  UNL     1     -34.328  14.489  -3.869  1.00 20.00    -0.037 C 
HETATM    7  C10 UNL     1     -32.906  13.955  -3.598  1.00 20.00     0.015 C 
HETATM    8  C11 UNL     1     -35.179  13.322  -4.405  1.00 20.00     0.015 C 
HETATM    9  O12 UNL     1     -33.066  17.663  -5.141  1.00 20.00    -0.293 OA
ENDROOT
BRANCH   2  10
HETATM   10  C8  UNL     1     -34.632  16.703  -0.678  1.00 20.00     0.014 A 
HETATM   11  C6  UNL     1     -33.884  17.865  -0.122  1.00 20.00     0.010 A 
HETATM   12  C7  UNL     1     -35.361  17.962  -0.358  1.00 20.00     0.010 A 
ENDBRANCH   2  10
TORSDOF 1
ENDMDL
MODEL 3
REMARK VINA RESULT:      -5.2      1.288      1.526
REMARK  1 active torsions:
REMARK  status: ('A' for Active; 'I' for Inactive)
REMARK    1  A    between atoms: C2_2  and  C8_8 
ROOT
HETATM    1  C1  UNL     1     -34.322  14.382  -3.361  1.00 20.00     0.053 C 
HETATM    2  C2  UNL     1     -34.588  15.657  -3.042  1.00 20.00    -0.072 C 
HETATM    3  C3  UNL     1     -34.980  13.741  -4.524  1.00 20.00     0.150 C 
HETATM    4  C4  UNL     1     -35.585  16.500  -3.797  1.00 20.00     0.043 C 
HETATM    5  C5  UNL     1     -35.894  14.577  -5.395  1.00 20.00     0.092 C 
HETATM    6  C9  UNL     1     -36.616  15.680  -4.604  1.00 20.00    -0.037 C 
HETATM    7  C10 UNL     1     -37.672  15.060  -3.665  1.00 20.00     0.015 C 
HETATM    8  C11 UNL     1     -37.345  16.614  -5.587  1.00 20.00     0.015 C 
HETATM    9  O12 UNL     1     -34.729  12.567  -4.796  1.00 20.00    -0.293 OA
ENDROOT
BRANCH   2  10
HETATM   10  C8  UNL     1     -33.887  16.337  -1.901  1.00 20.00     0.014 A 
HETATM   11  C6  UNL     1     -34.183  17.776  -1.660  1.00 20.00     0.010 A 
HETATM   12  C7  UNL     1     -34.701  16.732  -0.718  1.00 20.00     0.010 A 
ENDBRANCH   2  10
TORSDOF 1
ENDMDL
MODEL 4
REMARK VINA RESULT:      -5.0      1.470      1.488
REMARK  1 active torsions:
REMARK  status: ('A' for Active; 'I' for Inactive)
REMARK    1  A    between atoms: C2_2  and  C8_8 
ROOT
HETATM    1  C1  UNL     1     -35.861  15.284  -2.986  1.00 20.00     0.053 C 
HETATM    2  C2  UNL     1     -34.645  15.794  -3.226  1.00 20.00    -0.072 C 
HETATM    3  C3  UNL     1     -36.646  14.655  -4.075  1.00 20.00     0.150 C 
HETATM    4  C4  UNL     1     -34.017  15.806  -4.598  1.00 20.00     0.043 C 
HETATM    5  C5  UNL     1     -36.014  14.524  -5.444  1.00 20.00     0.092 C 
HETATM    6  C9  UNL     1     -35.033  15.666  -5.753  1.00 20.00    -0.037 C 
HETATM    7  C10 UNL     1     -35.801  16.988  -5.963  1.00 20.00     0.015 C 
HETATM    8  C11 UNL     1     -34.276  15.346  -7.055  1.00 20.00     0.015 C 
HETATM    9  O12 UNL     1     -37.764  14.200  -3.836  1.00 20.00    -0.293 OA
ENDROOT
BRANCH   2  10
HETATM   10  C8  UNL     1     -33.815  16.383  -2.122  1.00 20.00     0.014 A 
HETATM   11  C6  UNL     1     -34.022  17.818  -1.784  1.00 20.00     0.010 A 
HETATM   12  C7  UNL     1     -34.501  16.747  -0.851  1.00 20.00     0.010 A 
ENDBRANCH   2  10
TORSDOF 1
ENDMDL
MODEL 5
REMARK VINA RESULT:      -4.9      2.382      4.495
REMARK  1 active torsions:
REMARK  status: ('A' for Active; 'I' for Inactive)
REMARK    1  A    between atoms: C2_2  and  C8_8 
ROOT
HETATM    1  C1  UNL     1     -33.645  16.602  -4.561  1.00 20.00     0.053 C 
HETATM    2  C2  UNL     1     -33.934  15.523  -3.819  1.00 20.00    -0.072 C 
HETATM    3  C3  UNL     1     -33.594  17.950  -3.946  1.00 20.00     0.150 C 
HETATM    4  C4  UNL     1     -34.265  15.604  -2.350  1.00 20.00     0.043 C 
HETATM    5  C5  UNL     1     -33.792  18.076  -2.451  1.00 20.00     0.092 C 
HETATM    6  C9  UNL     1     -34.735  17.001  -1.888  1.00 20.00    -0.037 C 
HETATM    7  C10 UNL     1     -36.184  17.266  -2.350  1.00 20.00     0.015 C 
HETATM    8  C11 UNL     1     -34.710  17.059  -0.349  1.00 20.00     0.015 C 
HETATM    9  O12 UNL     1     -33.335  18.929  -4.646  1.00 20.00    -0.293 OA
ENDROOT
BRANCH   2  10
HETATM   10  C8  UNL     1     -33.934  14.145  -4.415  1.00 20.00     0.014 A 
HETATM   11  C6  UNL     1     -35.165  13.321  -4.265  1.00 20.00     0.010 A 
HETATM   12  C7  UNL     1     -34.802  13.897  -5.601  1.00 20.00     0.010 A 
ENDBRANCH   2  10
TORSDOF 1
ENDMDL
MODEL 6
REMARK VINA RESULT:      -4.9      0.849      3.813
REMARK  1 active torsions:
REMARK  status: ('A' for Active; 'I' for Inactive)
REMARK    1  A    between atoms: C2_2  and  C8_8 
ROOT
HETATM    1  C1  UNL     1     -34.766  14.412  -5.842  1.00 20.00     0.053 C 
HETATM    2  C2  UNL     1     -34.443  15.713  -5.897  1.00 20.00    -0.072 C 
HETATM    3  C3  UNL     1     -34.893  13.719  -4.538  1.00 20.00     0.150 C 
HETATM    4  C4  UNL     1     -34.148  16.536  -4.668  1.00 20.00     0.043 C 
HETATM    5  C5  UNL     1     -34.734  14.526  -3.267  1.00 20.00     0.092 C 
HETATM    6  C9  UNL     1     -33.754  15.699  -3.431  1.00 20.00    -0.037 C 
HETATM    7  C10 UNL     1     -32.310  15.173  -3.570  1.00 20.00     0.015 C 
HETATM    8  C11 UNL     1     -33.815  16.590  -2.177  1.00 20.00     0.015 C 
HETATM    9  O12 UNL     1     -35.183  12.524  -4.509  1.00 20.00    -0.293 OA
ENDROOT
BRANCH   2  10
HETATM   10  C8  UNL     1     -34.366  16.442  -7.207  1.00 20.00     0.014 A 
HETATM   11  C6  UNL     1     -35.578  17.173  -7.670  1.00 20.00     0.010 A 
HETATM   12  C7  UNL     1     -34.382  17.931  -7.178  1.00 20.00     0.010 A 
ENDBRANCH   2  10
TORSDOF 1
ENDMDL
MODEL 7
REMARK VINA RESULT:      -4.7      1.875      3.031
REMARK  1 active torsions:
REMARK  status: ('A' for Active; 'I' for Inactive)
REMARK    1  A    between atoms: C2_2  and  C8_8 
ROOT
HETATM    1  C1  UNL     1     -35.113  13.773  -3.857  1.00 20.00     0.053 C 
HETATM    2  C2  UNL     1     -35.954  14.800  -4.047  1.00 20.00    -0.072 C 
HETATM    3  C3  UNL     1     -33.646  13.980  -3.900  1.00 20.00     0.150 C 
HETATM    4  C4  UNL     1     -35.483  16.199  -4.355  1.00 20.00     0.043 C 
HETATM    5  C5  UNL     1     -33.114  15.386  -4.078  1.00 20.00     0.092 C 
HETATM    6  C9  UNL     1     -34.048  16.267  -4.924  1.00 20.00    -0.037 C 
HETATM    7  C10 UNL     1     -34.027  15.807  -6.397  1.00 20.00     0.015 C 
HETATM    8  C11 UNL     1     -33.553  17.724  -4.875  1.00 20.00     0.015 C 
HETATM    9  O12 UNL     1     -32.891  13.023  -3.731  1.00 20.00    -0.293 OA
ENDROOT
BRANCH   2  10
HETATM   10  C8  UNL     1     -37.441  14.617  -3.950  1.00 20.00     0.014 A 
HETATM   11  C6  UNL     1     -38.273  15.816  -3.651  1.00 20.00     0.010 A 
HETATM   12  C7  UNL     1     -38.288  15.210  -5.022  1.00 20.00     0.010 A 
ENDBRANCH   2  10
TORSDOF 1
ENDMDL
MODEL 8
REMARK VINA RESULT:      -4.7      2.408      4.586
REMARK  1 active torsions:
REMARK  status: ('A' for Active; 'I' for Inactive)
REMARK    1  A    between atoms: C2_2  and  C8_8 
ROOT
HETATM    1  C1  UNL     1     -36.066  15.974  -3.097  1.00 20.00     0.053 C 
HETATM    2  C2  UNL     1     -34.789  15.590  -2.953  1.00 20.00    -0.072 C 
HETATM    3  C3  UNL     1     -36.502  17.324  -2.666  1.00 20.00     0.150 C 
HETATM    4  C4  UNL     1     -33.737  16.463  -2.317  1.00 20.00     0.043 C 
HETATM    5  C5  UNL     1     -35.463  18.290  -2.138  1.00 20.00     0.092 C 
HETATM    6  C9  UNL     1     -34.309  17.578  -1.413  1.00 20.00    -0.037 C 
HETATM    7  C10 UNL     1     -34.801  16.990  -0.073  1.00 20.00     0.015 C 
HETATM    8  C11 UNL     1     -33.198  18.597  -1.104  1.00 20.00     0.015 C 
HETATM    9  O12 UNL     1     -37.679  17.655  -2.799  1.00 20.00    -0.293 OA
ENDROOT
BRANCH   2  10
HETATM   10  C8  UNL     1     -34.321  14.248  -3.436  1.00 20.00     0.014 A 
HETATM   11  C6  UNL     1     -35.294  13.393  -4.172  1.00 20.00     0.010 A 
HETATM   12  C7  UNL     1     -34.164  14.051  -4.904  1.00 20.00     0.010 A 
ENDBRANCH   2  10
TORSDOF 1
ENDMDL
MODEL 9
REMARK VINA RESULT:      -4.7      1.930      2.758
REMARK  1 active torsions:
REMARK  status: ('A' for Active; 'I' for Inactive)
REMARK    1  A    between atoms: C2_2  and  C8_8 
ROOT
HETATM    1  C1  UNL     1     -36.068  16.766  -2.804  1.00 20.00     0.053 C 
HETATM    2  C2  UNL     1     -34.969  16.121  -2.387  1.00 20.00    -0.072 C 
HETATM    3  C3  UNL     1     -36.876  16.235  -3.927  1.00 20.00     0.150 C 
HETATM    4  C4  UNL     1     -34.460  14.861  -3.042  1.00 20.00     0.043 C 
HETATM    5  C5  UNL     1     -36.486  14.906  -4.539  1.00 20.00     0.092 C 
HETATM    6  C9  UNL     1     -34.971  14.655  -4.486  1.00 20.00    -0.037 C 
HETATM    7  C10 UNL     1     -34.237  15.600  -5.461  1.00 20.00     0.015 C 
HETATM    8  C11 UNL     1     -34.681  13.207  -4.921  1.00 20.00     0.015 C 
HETATM    9  O12 UNL     1     -37.877  16.846  -4.299  1.00 20.00    -0.293 OA
ENDROOT
BRANCH   2  10
HETATM   10  C8  UNL     1     -34.172  16.617  -1.215  1.00 20.00     0.014 A 
HETATM   11  C6  UNL     1     -34.121  18.086  -0.977  1.00 20.00     0.010 A 
HETATM   12  C7  UNL     1     -34.914  17.201  -0.063  1.00 20.00     0.010 A 
ENDBRANCH   2  10
TORSDOF 1
ENDMDL
