MODEL 1
REMARK VINA RESULT:      -4.6      0.000      0.000
REMARK  4 active torsions:
REMARK  status: ('A' for Active; 'I' for Inactive)
REMARK    1  A    between atoms: C2_2  and  C7_7 
REMARK    2  A    between atoms: C7_7  and  C8_8 
REMARK    3  A    between atoms: C8_8  and  C9_9 
REMARK    4  A    between atoms: C9_9  and  O10_10 
ROOT
HETATM    1  C1  UNL     1     -34.539   5.404   3.698  1.00 20.00    -0.004 C 
HETATM    2  C2  UNL     1     -33.402   6.111   3.717  1.00 20.00    -0.082 C 
HETATM    3  C3  UNL     1     -33.075   6.590   5.097  1.00 20.00     0.036 C 
HETATM    4  C4  UNL     1     -34.393   6.372   5.843  1.00 20.00     0.028 C 
HETATM    5  C5  UNL     1     -35.150   5.299   5.056  1.00 20.00     0.105 C 
HETATM    6 CL11 UNL     1     -34.862   3.675   5.718  1.00 20.00    -0.121 Cl
ENDROOT
BRANCH   2   7
HETATM    7  C7  UNL     1     -32.506   6.397   2.568  1.00 20.00     0.036 C 
BRANCH   7   8
HETATM    8  C8  UNL     1     -32.124   7.874   2.520  1.00 20.00     0.030 C 
BRANCH   8   9
HETATM    9  C9  UNL     1     -31.807   8.354   1.108  1.00 20.00     0.167 C 
BRANCH   9  10
HETATM   10  O10 UNL     1     -32.205   9.713   0.988  1.00 20.00    -0.396 OA
HETATM   11  C6  UNL     1     -32.843  10.177   2.169  1.00 20.00     0.201 C 
ENDBRANCH   9  10
ENDBRANCH   8   9
ENDBRANCH   7   8
ENDBRANCH   2   7
TORSDOF 4
ENDMDL
MODEL 2
REMARK VINA RESULT:      -4.3     10.884     11.543
REMARK  4 active torsions:
REMARK  status: ('A' for Active; 'I' for Inactive)
REMARK    1  A    between atoms: C2_2  and  C7_7 
REMARK    2  A    between atoms: C7_7  and  C8_8 
REMARK    3  A    between atoms: C8_8  and  C9_9 
REMARK    4  A    between atoms: C9_9  and  O10_10 
ROOT
HETATM    1  C1  UNL     1     -35.421  15.139  -3.303  1.00 20.00    -0.004 C 
HETATM    2  C2  UNL     1     -34.164  15.501  -3.014  1.00 20.00    -0.082 C 
HETATM    3  C3  UNL     1     -33.166  14.631  -3.714  1.00 20.00     0.036 C 
HETATM    4  C4  UNL     1     -34.024  13.452  -4.179  1.00 20.00     0.028 C 
HETATM    5  C5  UNL     1     -35.462  13.974  -4.236  1.00 20.00     0.105 C 
HETATM    6 CL11 UNL     1     -35.891  14.532  -5.869  1.00 20.00    -0.121 Cl
ENDROOT
BRANCH   2   7
HETATM    7  C7  UNL     1     -33.734  16.629  -2.150  1.00 20.00     0.036 C 
BRANCH   7   8
HETATM    8  C8  UNL     1     -34.572  16.699  -0.876  1.00 20.00     0.030 C 
BRANCH   8   9
HETATM    9  C9  UNL     1     -34.113  17.802   0.070  1.00 20.00     0.167 C 
BRANCH   9  10
HETATM   10  O10 UNL     1     -33.018  18.488  -0.522  1.00 20.00    -0.396 OA
HETATM   11  C6  UNL     1     -32.075  18.908   0.453  1.00 20.00     0.201 C 
ENDBRANCH   9  10
ENDBRANCH   8   9
ENDBRANCH   7   8
ENDBRANCH   2   7
TORSDOF 4
ENDMDL
MODEL 3
REMARK VINA RESULT:      -4.3     10.691     11.388
REMARK  4 active torsions:
REMARK  status: ('A' for Active; 'I' for Inactive)
REMARK    1  A    between atoms: C2_2  and  C7_7 
REMARK    2  A    between atoms: C7_7  and  C8_8 
REMARK    3  A    between atoms: C8_8  and  C9_9 
REMARK    4  A    between atoms: C9_9  and  O10_10 
ROOT
HETATM    1  C1  UNL     1     -35.198  14.911  -3.315  1.00 20.00    -0.004 C 
HETATM    2  C2  UNL     1     -34.080  15.541  -2.933  1.00 20.00    -0.082 C 
HETATM    3  C3  UNL     1     -32.857  14.873  -3.480  1.00 20.00     0.036 C 
HETATM    4  C4  UNL     1     -33.400  13.521  -3.949  1.00 20.00     0.028 C 
HETATM    5  C5  UNL     1     -34.901  13.726  -4.174  1.00 20.00     0.105 C 
HETATM    6 CL11 UNL     1     -35.262  14.113  -5.872  1.00 20.00    -0.121 Cl
ENDROOT
BRANCH   2   7
HETATM    7  C7  UNL     1     -33.983  16.769  -2.103  1.00 20.00     0.036 C 
BRANCH   7   8
HETATM    8  C8  UNL     1     -34.691  16.587  -0.763  1.00 20.00     0.030 C 
BRANCH   8   9
HETATM    9  C9  UNL     1     -34.466  17.759   0.185  1.00 20.00     0.167 C 
BRANCH   9  10
HETATM   10  O10 UNL     1     -35.634  17.939   0.975  1.00 20.00    -0.396 OA
HETATM   11  C6  UNL     1     -35.390  17.643   2.343  1.00 20.00     0.201 C 
ENDBRANCH   9  10
ENDBRANCH   8   9
ENDBRANCH   7   8
ENDBRANCH   2   7
TORSDOF 4
ENDMDL
MODEL 4
REMARK VINA RESULT:      -4.1     11.055     11.883
REMARK  4 active torsions:
REMARK  status: ('A' for Active; 'I' for Inactive)
REMARK    1  A    between atoms: C2_2  and  C7_7 
REMARK    2  A    between atoms: C7_7  and  C8_8 
REMARK    3  A    between atoms: C8_8  and  C9_9 
REMARK    4  A    between atoms: C9_9  and  O10_10 
ROOT
HETATM    1  C1  UNL     1     -35.779  15.870  -2.773  1.00 20.00    -0.004 C 
HETATM    2  C2  UNL     1     -35.050  14.979  -3.456  1.00 20.00    -0.082 C 
HETATM    3  C3  UNL     1     -33.594  15.329  -3.438  1.00 20.00     0.036 C 
HETATM    4  C4  UNL     1     -33.610  16.779  -2.947  1.00 20.00     0.028 C 
HETATM    5  C5  UNL     1     -34.931  16.954  -2.194  1.00 20.00     0.105 C 
HETATM    6 CL11 UNL     1     -34.730  16.688  -0.447  1.00 20.00    -0.121 Cl
ENDROOT
BRANCH   2   7
HETATM    7  C7  UNL     1     -35.541  13.756  -4.140  1.00 20.00     0.036 C 
BRANCH   7   8
HETATM    8  C8  UNL     1     -34.720  13.455  -5.391  1.00 20.00     0.030 C 
BRANCH   8   9
HETATM    9  C9  UNL     1     -35.201  14.231  -6.611  1.00 20.00     0.167 C 
BRANCH   9  10
HETATM   10  O10 UNL     1     -34.144  15.063  -7.071  1.00 20.00    -0.396 OA
HETATM   11  C6  UNL     1     -34.458  16.440  -6.914  1.00 20.00     0.201 C 
ENDBRANCH   9  10
ENDBRANCH   8   9
ENDBRANCH   7   8
ENDBRANCH   2   7
TORSDOF 4
ENDMDL
MODEL 5
REMARK VINA RESULT:      -4.1     10.606     11.704
REMARK  4 active torsions:
REMARK  status: ('A' for Active; 'I' for Inactive)
REMARK    1  A    between atoms: C2_2  and  C7_7 
REMARK    2  A    between atoms: C7_7  and  C8_8 
REMARK    3  A    between atoms: C8_8  and  C9_9 
REMARK    4  A    between atoms: C9_9  and  O10_10 
ROOT
HETATM    1  C1  UNL     1     -34.477  15.964  -1.810  1.00 20.00    -0.004 C 
HETATM    2  C2  UNL     1     -33.776  16.139  -2.937  1.00 20.00    -0.082 C 
HETATM    3  C3  UNL     1     -33.824  17.562  -3.400  1.00 20.00     0.036 C 
HETATM    4  C4  UNL     1     -34.974  18.140  -2.572  1.00 20.00     0.028 C 
HETATM    5  C5  UNL     1     -35.103  17.237  -1.343  1.00 20.00     0.105 C 
HETATM    6 CL11 UNL     1     -34.191  17.879   0.041  1.00 20.00    -0.121 Cl
ENDROOT
BRANCH   2   7
HETATM    7  C7  UNL     1     -32.995  15.113  -3.674  1.00 20.00     0.036 C 
BRANCH   7   8
HETATM    8  C8  UNL     1     -33.746  13.785  -3.734  1.00 20.00     0.030 C 
BRANCH   8   9
HETATM    9  C9  UNL     1     -34.864  13.787  -4.769  1.00 20.00     0.167 C 
BRANCH   9  10
HETATM   10  O10 UNL     1     -36.101  13.552  -4.109  1.00 20.00    -0.396 OA
HETATM   11  C6  UNL     1     -36.975  14.666  -4.225  1.00 20.00     0.201 C 
ENDBRANCH   9  10
ENDBRANCH   8   9
ENDBRANCH   7   8
ENDBRANCH   2   7
TORSDOF 4
ENDMDL
MODEL 6
REMARK VINA RESULT:      -4.1     11.004     11.927
REMARK  4 active torsions:
REMARK  status: ('A' for Active; 'I' for Inactive)
REMARK    1  A    between atoms: C2_2  and  C7_7 
REMARK    2  A    between atoms: C7_7  and  C8_8 
REMARK    3  A    between atoms: C8_8  and  C9_9 
REMARK    4  A    between atoms: C9_9  and  O10_10 
ROOT
HETATM    1  C1  UNL     1     -35.646  14.672  -3.594  1.00 20.00    -0.004 C 
HETATM    2  C2  UNL     1     -34.622  15.208  -2.919  1.00 20.00    -0.082 C 
HETATM    3  C3  UNL     1     -33.308  14.662  -3.388  1.00 20.00     0.036 C 
HETATM    4  C4  UNL     1     -33.731  13.436  -4.201  1.00 20.00     0.028 C 
HETATM    5  C5  UNL     1     -35.183  13.687  -4.617  1.00 20.00     0.105 C 
HETATM    6 CL11 UNL     1     -35.284  14.413  -6.236  1.00 20.00    -0.121 Cl
ENDROOT
BRANCH   2   7
HETATM    7  C7  UNL     1     -34.693  16.240  -1.855  1.00 20.00     0.036 C 
BRANCH   7   8
HETATM    8  C8  UNL     1     -33.812  17.440  -2.189  1.00 20.00     0.030 C 
BRANCH   8   9
HETATM    9  C9  UNL     1     -34.392  18.305  -3.302  1.00 20.00     0.167 C 
BRANCH   9  10
HETATM   10  O10 UNL     1     -33.404  18.480  -4.308  1.00 20.00    -0.396 OA
HETATM   11  C6  UNL     1     -33.707  17.728  -5.475  1.00 20.00     0.201 C 
ENDBRANCH   9  10
ENDBRANCH   8   9
ENDBRANCH   7   8
ENDBRANCH   2   7
TORSDOF 4
ENDMDL
MODEL 7
REMARK VINA RESULT:      -4.0      1.459      2.008
REMARK  4 active torsions:
REMARK  status: ('A' for Active; 'I' for Inactive)
REMARK    1  A    between atoms: C2_2  and  C7_7 
REMARK    2  A    between atoms: C7_7  and  C8_8 
REMARK    3  A    between atoms: C8_8  and  C9_9 
REMARK    4  A    between atoms: C9_9  and  O10_10 
ROOT
HETATM    1  C1  UNL     1     -33.269   5.832   5.097  1.00 20.00    -0.004 C 
HETATM    2  C2  UNL     1     -34.064   5.596   4.045  1.00 20.00    -0.082 C 
HETATM    3  C3  UNL     1     -35.422   5.134   4.474  1.00 20.00     0.036 C 
HETATM    4  C4  UNL     1     -35.200   4.774   5.945  1.00 20.00     0.028 C 
HETATM    5  C5  UNL     1     -33.967   5.566   6.390  1.00 20.00     0.105 C 
HETATM    6 CL11 UNL     1     -34.418   7.106   7.154  1.00 20.00    -0.121 Cl
ENDROOT
BRANCH   2   7
HETATM    7  C7  UNL     1     -33.727   5.778   2.611  1.00 20.00     0.036 C 
BRANCH   7   8
HETATM    8  C8  UNL     1     -32.294   6.272   2.438  1.00 20.00     0.030 C 
BRANCH   8   9
HETATM    9  C9  UNL     1     -32.170   7.784   2.583  1.00 20.00     0.167 C 
BRANCH   9  10
HETATM   10  O10 UNL     1     -31.716   8.326   1.350  1.00 20.00    -0.396 OA
HETATM   11  C6  UNL     1     -32.359   9.558   1.053  1.00 20.00     0.201 C 
ENDBRANCH   9  10
ENDBRANCH   8   9
ENDBRANCH   7   8
ENDBRANCH   2   7
TORSDOF 4
ENDMDL
MODEL 8
REMARK VINA RESULT:      -4.0     11.209     12.376
REMARK  4 active torsions:
REMARK  status: ('A' for Active; 'I' for Inactive)
REMARK    1  A    between atoms: C2_2  and  C7_7 
REMARK    2  A    between atoms: C7_7  and  C8_8 
REMARK    3  A    between atoms: C8_8  and  C9_9 
REMARK    4  A    between atoms: C9_9  and  O10_10 
ROOT
HETATM    1  C1  UNL     1     -35.076  13.925  -5.483  1.00 20.00    -0.004 C 
HETATM    2  C2  UNL     1     -34.257  14.782  -4.859  1.00 20.00    -0.082 C 
HETATM    3  C3  UNL     1     -33.854  15.910  -5.757  1.00 20.00     0.036 C 
HETATM    4  C4  UNL     1     -34.266  15.396  -7.139  1.00 20.00     0.028 C 
HETATM    5  C5  UNL     1     -35.348  14.342  -6.890  1.00 20.00     0.105 C 
HETATM    6 CL11 UNL     1     -36.980  15.039  -7.002  1.00 20.00    -0.121 Cl
ENDROOT
BRANCH   2   7
HETATM    7  C7  UNL     1     -33.791  14.711  -3.451  1.00 20.00     0.036 C 
BRANCH   7   8
HETATM    8  C8  UNL     1     -33.730  16.099  -2.820  1.00 20.00     0.030 C 
BRANCH   8   9
HETATM    9  C9  UNL     1     -34.701  16.260  -1.656  1.00 20.00     0.167 C 
BRANCH   9  10
HETATM   10  O10 UNL     1     -34.069  17.020  -0.634  1.00 20.00    -0.396 OA
HETATM   11  C6  UNL     1     -34.979  17.361   0.402  1.00 20.00     0.201 C 
ENDBRANCH   9  10
ENDBRANCH   8   9
ENDBRANCH   7   8
ENDBRANCH   2   7
TORSDOF 4
ENDMDL
MODEL 9
REMARK VINA RESULT:      -3.9     10.924     12.219
REMARK  4 active torsions:
REMARK  status: ('A' for Active; 'I' for Inactive)
REMARK    1  A    between atoms: C2_2  and  C7_7 
REMARK    2  A    between atoms: C7_7  and  C8_8 
REMARK    3  A    between atoms: C8_8  and  C9_9 
REMARK    4  A    between atoms: C9_9  and  O10_10 
ROOT
HETATM    1  C1  UNL     1     -33.727  17.438  -3.531  1.00 20.00    -0.004 C 
HETATM    2  C2  UNL     1     -33.765  16.182  -3.069  1.00 20.00    -0.082 C 
HETATM    3  C3  UNL     1     -34.446  16.106  -1.737  1.00 20.00     0.036 C 
HETATM    4  C4  UNL     1     -34.483  17.572  -1.301  1.00 20.00     0.028 C 
HETATM    5  C5  UNL     1     -34.373  18.397  -2.586  1.00 20.00     0.105 C 
HETATM    6 CL11 UNL     1     -35.973  18.861  -3.206  1.00 20.00    -0.121 Cl
ENDROOT
BRANCH   2   7
HETATM    7  C7  UNL     1     -33.252  14.963  -3.744  1.00 20.00     0.036 C 
BRANCH   7   8
HETATM    8  C8  UNL     1     -34.202  13.784  -3.552  1.00 20.00     0.030 C 
BRANCH   8   9
HETATM    9  C9  UNL     1     -34.927  13.397  -4.835  1.00 20.00     0.167 C 
BRANCH   9  10
HETATM   10  O10 UNL     1     -34.405  14.171  -5.907  1.00 20.00    -0.396 OA
HETATM   11  C6  UNL     1     -35.391  14.419  -6.900  1.00 20.00     0.201 C 
ENDBRANCH   9  10
ENDBRANCH   8   9
ENDBRANCH   7   8
ENDBRANCH   2   7
TORSDOF 4
ENDMDL
