MODEL 1
REMARK VINA RESULT:      -4.7      0.000      0.000
REMARK  1 active torsions:
REMARK  status: ('A' for Active; 'I' for Inactive)
REMARK    1  A    between atoms: C2_2  and  C9_9 
ROOT
HETATM    1  C1  UNL     1     -35.724  15.406  -3.080  1.00 20.00    -0.004 C 
HETATM    2  C2  UNL     1     -34.419  15.635  -2.834  1.00 20.00    -0.078 C 
HETATM    3  C3  UNL     1     -33.344  14.821  -3.523  1.00 20.00     0.034 C 
HETATM    4  C4  UNL     1     -33.864  13.548  -4.194  1.00 20.00     0.006 C 
HETATM    5  C5  UNL     1     -35.138  13.835  -4.981  1.00 20.00     0.024 C 
HETATM    6  C8  UNL     1     -36.227  14.380  -4.054  1.00 20.00     0.105 C 
HETATM    7 CL10 UNL     1     -37.549  15.076  -5.035  1.00 20.00    -0.121 Cl
ENDROOT
BRANCH   2   8
HETATM    8  C9  UNL     1     -33.935  16.652  -1.869  1.00 20.00     0.014 A 
HETATM    9  C6  UNL     1     -34.803  17.835  -1.605  1.00 20.00     0.010 A 
HETATM   10  C7  UNL     1     -34.641  16.770  -0.562  1.00 20.00     0.010 A 
ENDBRANCH   2   8
TORSDOF 1
ENDMDL
MODEL 2
REMARK VINA RESULT:      -4.6      1.706      2.183
REMARK  1 active torsions:
REMARK  status: ('A' for Active; 'I' for Inactive)
REMARK    1  A    between atoms: C2_2  and  C9_9 
ROOT
HETATM    1  C1  UNL     1     -34.178  14.881  -3.031  1.00 20.00    -0.004 C 
HETATM    2  C2  UNL     1     -34.283  16.140  -2.562  1.00 20.00    -0.078 C 
HETATM    3  C3  UNL     1     -34.064  17.330  -3.472  1.00 20.00     0.034 C 
HETATM    4  C4  UNL     1     -33.386  16.980  -4.799  1.00 20.00     0.006 C 
HETATM    5  C5  UNL     1     -34.014  15.734  -5.413  1.00 20.00     0.024 C 
HETATM    6  C8  UNL     1     -33.875  14.542  -4.463  1.00 20.00     0.105 C 
HETATM    7 CL10 UNL     1     -34.948  13.220  -5.009  1.00 20.00    -0.121 Cl
ENDROOT
BRANCH   2   8
HETATM    8  C9  UNL     1     -34.582  16.462  -1.145  1.00 20.00     0.014 A 
HETATM    9  C6  UNL     1     -33.891  17.631  -0.531  1.00 20.00     0.010 A 
HETATM   10  C7  UNL     1     -35.353  17.704  -0.856  1.00 20.00     0.010 A 
ENDBRANCH   2   8
TORSDOF 1
ENDMDL
MODEL 3
REMARK VINA RESULT:      -4.6     11.639     12.324
REMARK  1 active torsions:
REMARK  status: ('A' for Active; 'I' for Inactive)
REMARK    1  A    between atoms: C2_2  and  C9_9 
ROOT
HETATM    1  C1  UNL     1     -34.128   5.630   3.936  1.00 20.00    -0.004 C 
HETATM    2  C2  UNL     1     -33.093   6.489   4.033  1.00 20.00    -0.078 C 
HETATM    3  C3  UNL     1     -32.755   7.153   5.351  1.00 20.00     0.034 C 
HETATM    4  C4  UNL     1     -33.863   7.046   6.402  1.00 20.00     0.006 C 
HETATM    5  C5  UNL     1     -34.422   5.629   6.455  1.00 20.00     0.024 C 
HETATM    6  C8  UNL     1     -34.999   5.232   5.093  1.00 20.00     0.105 C 
HETATM    7 CL10 UNL     1     -35.277   3.466   5.059  1.00 20.00    -0.121 Cl
ENDROOT
BRANCH   2   8
HETATM    8  C9  UNL     1     -32.241   6.874   2.882  1.00 20.00     0.014 A 
HETATM    9  C6  UNL     1     -32.447   8.221   2.278  1.00 20.00     0.010 A 
HETATM   10  C7  UNL     1     -31.220   7.939   3.092  1.00 20.00     0.010 A 
ENDBRANCH   2   8
TORSDOF 1
ENDMDL
MODEL 4
REMARK VINA RESULT:      -4.5      1.618      1.731
REMARK  1 active torsions:
REMARK  status: ('A' for Active; 'I' for Inactive)
REMARK    1  A    between atoms: C2_2  and  C9_9 
ROOT
HETATM    1  C1  UNL     1     -34.723  16.217  -4.581  1.00 20.00    -0.004 C 
HETATM    2  C2  UNL     1     -34.244  15.579  -3.495  1.00 20.00    -0.078 C 
HETATM    3  C3  UNL     1     -34.232  14.067  -3.422  1.00 20.00     0.034 C 
HETATM    4  C4  UNL     1     -35.107  13.389  -4.479  1.00 20.00     0.006 C 
HETATM    5  C5  UNL     1     -34.892  14.027  -5.847  1.00 20.00     0.024 C 
HETATM    6  C8  UNL     1     -35.244  15.516  -5.803  1.00 20.00     0.105 C 
HETATM    7 CL10 UNL     1     -34.617  16.318  -7.272  1.00 20.00    -0.121 Cl
ENDROOT
BRANCH   2   8
HETATM    8  C9  UNL     1     -33.732  16.284  -2.294  1.00 20.00     0.014 A 
HETATM    9  C6  UNL     1     -34.260  17.647  -2.003  1.00 20.00     0.010 A 
HETATM   10  C7  UNL     1     -34.663  16.483  -1.148  1.00 20.00     0.010 A 
ENDBRANCH   2   8
TORSDOF 1
ENDMDL
MODEL 5
REMARK VINA RESULT:      -4.5      2.257      4.172
REMARK  1 active torsions:
REMARK  status: ('A' for Active; 'I' for Inactive)
REMARK    1  A    between atoms: C2_2  and  C9_9 
ROOT
HETATM    1  C1  UNL     1     -34.808  15.739  -2.338  1.00 20.00    -0.004 C 
HETATM    2  C2  UNL     1     -34.093  15.442  -3.442  1.00 20.00    -0.078 C 
HETATM    3  C3  UNL     1     -33.359  16.523  -4.207  1.00 20.00     0.034 C 
HETATM    4  C4  UNL     1     -33.790  17.945  -3.840  1.00 20.00     0.006 C 
HETATM    5  C5  UNL     1     -33.893  18.104  -2.327  1.00 20.00     0.024 C 
HETATM    6  C8  UNL     1     -34.916  17.119  -1.756  1.00 20.00     0.105 C 
HETATM    7 CL10 UNL     1     -34.735  17.040   0.021  1.00 20.00    -0.121 Cl
ENDROOT
BRANCH   2   8
HETATM    8  C9  UNL     1     -33.994  14.074  -4.007  1.00 20.00     0.014 A 
HETATM    9  C6  UNL     1     -35.256  13.304  -4.203  1.00 20.00     0.010 A 
HETATM   10  C7  UNL     1     -34.512  13.847  -5.386  1.00 20.00     0.010 A 
ENDBRANCH   2   8
TORSDOF 1
ENDMDL
MODEL 6
REMARK VINA RESULT:      -4.5     11.655     12.359
REMARK  1 active torsions:
REMARK  status: ('A' for Active; 'I' for Inactive)
REMARK    1  A    between atoms: C2_2  and  C9_9 
ROOT
HETATM    1  C1  UNL     1     -33.077   6.578   5.052  1.00 20.00    -0.004 C 
HETATM    2  C2  UNL     1     -33.371   6.198   3.793  1.00 20.00    -0.078 C 
HETATM    3  C3  UNL     1     -34.493   5.219   3.518  1.00 20.00     0.034 C 
HETATM    4  C4  UNL     1     -34.979   4.467   4.760  1.00 20.00     0.006 C 
HETATM    5  C5  UNL     1     -35.155   5.423   5.934  1.00 20.00     0.024 C 
HETATM    6  C8  UNL     1     -33.828   6.111   6.266  1.00 20.00     0.105 C 
HETATM    7 CL10 UNL     1     -34.133   7.495   7.356  1.00 20.00    -0.121 Cl
ENDROOT
BRANCH   2   8
HETATM    8  C9  UNL     1     -32.621   6.666   2.602  1.00 20.00     0.014 A 
HETATM    9  C6  UNL     1     -32.697   8.113   2.251  1.00 20.00     0.010 A 
HETATM   10  C7  UNL     1     -31.434   7.540   2.821  1.00 20.00     0.010 A 
ENDBRANCH   2   8
TORSDOF 1
ENDMDL
MODEL 7
REMARK VINA RESULT:      -4.3      3.451      5.581
REMARK  1 active torsions:
REMARK  status: ('A' for Active; 'I' for Inactive)
REMARK    1  A    between atoms: C2_2  and  C9_9 
ROOT
HETATM    1  C1  UNL     1     -35.142  17.488   0.589  1.00 20.00    -0.004 C 
HETATM    2  C2  UNL     1     -34.404  17.245  -0.513  1.00 20.00    -0.078 C 
HETATM    3  C3  UNL     1     -33.121  18.005  -0.773  1.00 20.00     0.034 C 
HETATM    4  C4  UNL     1     -32.955  19.256   0.092  1.00 20.00     0.006 C 
HETATM    5  C5  UNL     1     -33.311  18.959   1.545  1.00 20.00     0.024 C 
HETATM    6  C8  UNL     1     -34.761  18.479   1.651  1.00 20.00     0.105 C 
HETATM    7 CL10 UNL     1     -35.032  17.765   3.268  1.00 20.00    -0.121 Cl
ENDROOT
BRANCH   2   8
HETATM    8  C9  UNL     1     -34.792  16.263  -1.555  1.00 20.00     0.014 A 
HETATM    9  C6  UNL     1     -35.097  16.775  -2.921  1.00 20.00     0.010 A 
HETATM   10  C7  UNL     1     -33.834  16.007  -2.667  1.00 20.00     0.010 A 
ENDBRANCH   2   8
TORSDOF 1
ENDMDL
MODEL 8
REMARK VINA RESULT:      -4.3      2.896      4.186
REMARK  1 active torsions:
REMARK  status: ('A' for Active; 'I' for Inactive)
REMARK    1  A    between atoms: C2_2  and  C9_9 
ROOT
HETATM    1  C1  UNL     1     -33.612  15.984  -4.946  1.00 20.00    -0.004 C 
HETATM    2  C2  UNL     1     -34.305  15.502  -5.997  1.00 20.00    -0.078 C 
HETATM    3  C3  UNL     1     -34.946  14.132  -5.944  1.00 20.00     0.034 C 
HETATM    4  C4  UNL     1     -34.441  13.255  -4.795  1.00 20.00     0.006 C 
HETATM    5  C5  UNL     1     -34.380  14.051  -3.496  1.00 20.00     0.024 C 
HETATM    6  C8  UNL     1     -33.439  15.249  -3.648  1.00 20.00     0.105 C 
HETATM    7 CL10 UNL     1     -33.685  16.374  -2.281  1.00 20.00    -0.121 Cl
ENDROOT
BRANCH   2   8
HETATM    8  C9  UNL     1     -34.468  16.239  -7.274  1.00 20.00     0.014 A 
HETATM    9  C6  UNL     1     -35.750  16.964  -7.506  1.00 20.00     0.010 A 
HETATM   10  C7  UNL     1     -34.490  17.728  -7.227  1.00 20.00     0.010 A 
ENDBRANCH   2   8
TORSDOF 1
ENDMDL
MODEL 9
REMARK VINA RESULT:      -4.2     11.259     13.042
REMARK  1 active torsions:
REMARK  status: ('A' for Active; 'I' for Inactive)
REMARK    1  A    between atoms: C2_2  and  C9_9 
ROOT
HETATM    1  C1  UNL     1     -42.308   5.635  -2.704  1.00 20.00    -0.004 C 
HETATM    2  C2  UNL     1     -42.110   4.563  -1.912  1.00 20.00    -0.078 C 
HETATM    3  C3  UNL     1     -41.398   4.697  -0.583  1.00 20.00     0.034 C 
HETATM    4  C4  UNL     1     -40.645   6.019  -0.414  1.00 20.00     0.006 C 
HETATM    5  C5  UNL     1     -41.505   7.192  -0.871  1.00 20.00     0.024 C 
HETATM    6  C8  UNL     1     -41.887   7.031  -2.345  1.00 20.00     0.105 C 
HETATM    7 CL10 UNL     1     -43.198   8.179  -2.746  1.00 20.00    -0.121 Cl
ENDROOT
BRANCH   2   8
HETATM    8  C9  UNL     1     -42.531   3.188  -2.279  1.00 20.00     0.014 A 
HETATM    9  C6  UNL     1     -43.025   2.954  -3.666  1.00 20.00     0.010 A 
HETATM   10  C7  UNL     1     -41.685   2.431  -3.244  1.00 20.00     0.010 A 
ENDBRANCH   2   8
TORSDOF 1
ENDMDL
