MODEL 1
REMARK VINA RESULT:      -4.6      0.000      0.000
REMARK  1 active torsions:
REMARK  status: ('A' for Active; 'I' for Inactive)
REMARK    1  A    between atoms: C2_2  and  C10_10 
ROOT
HETATM    1  C1  UNL     1     -36.189  15.348  -3.150  1.00 20.00    -0.004 C 
HETATM    2  C2  UNL     1     -35.019  15.613  -2.537  1.00 20.00    -0.076 C 
HETATM    3  C3  UNL     1     -33.746  14.902  -2.944  1.00 20.00     0.034 C 
HETATM    4  C4  UNL     1     -33.841  14.163  -4.280  1.00 20.00     0.006 C 
HETATM    5  C5  UNL     1     -35.156  13.397  -4.388  1.00 20.00     0.024 C 
HETATM    6  C9  UNL     1     -36.364  14.325  -4.235  1.00 20.00     0.105 C 
HETATM    7 CL12 UNL     1     -36.680  15.194  -5.771  1.00 20.00    -0.121 Cl
ENDROOT
BRANCH   2   8
HETATM    8  C10 UNL     1     -34.872  16.628  -1.445  1.00 20.00     0.040 C 
HETATM    9  C6  UNL     1     -33.552  17.370  -1.509  1.00 20.00     0.037 C 
HETATM   10  C7  UNL     1     -33.837  18.492  -2.486  1.00 20.00     0.168 C 
HETATM   11  O11 UNL     1     -35.236  18.789  -2.384  1.00 20.00    -0.390 OA
HETATM   12  C8  UNL     1     -35.871  17.765  -1.601  1.00 20.00     0.176 C 
ENDBRANCH   2   8
TORSDOF 1
ENDMDL
MODEL 2
REMARK VINA RESULT:      -4.6      3.065      4.412
REMARK  1 active torsions:
REMARK  status: ('A' for Active; 'I' for Inactive)
REMARK    1  A    between atoms: C2_2  and  C10_10 
ROOT
HETATM    1  C1  UNL     1     -33.502  15.914  -5.049  1.00 20.00    -0.004 C 
HETATM    2  C2  UNL     1     -34.287  15.331  -5.976  1.00 20.00    -0.076 C 
HETATM    3  C3  UNL     1     -34.865  13.949  -5.753  1.00 20.00     0.034 C 
HETATM    4  C4  UNL     1     -34.775  13.459  -4.306  1.00 20.00     0.006 C 
HETATM    5  C5  UNL     1     -33.404  13.768  -3.710  1.00 20.00     0.024 C 
HETATM    6  C9  UNL     1     -33.093  15.267  -3.758  1.00 20.00     0.105 C 
HETATM    7 CL12 UNL     1     -33.929  16.119  -2.421  1.00 20.00    -0.121 Cl
ENDROOT
BRANCH   2   8
HETATM    8  C10 UNL     1     -34.670  15.990  -7.266  1.00 20.00     0.040 C 
HETATM    9  C6  UNL     1     -36.139  15.822  -7.596  1.00 20.00     0.037 C 
HETATM   10  C7  UNL     1     -36.793  16.961  -6.842  1.00 20.00     0.168 C 
HETATM   11  O11 UNL     1     -35.823  18.013  -6.752  1.00 20.00    -0.390 OA
HETATM   12  C8  UNL     1     -34.548  17.504  -7.177  1.00 20.00     0.176 C 
ENDBRANCH   2   8
TORSDOF 1
ENDMDL
MODEL 3
REMARK VINA RESULT:      -4.6      2.830      4.588
REMARK  1 active torsions:
REMARK  status: ('A' for Active; 'I' for Inactive)
REMARK    1  A    between atoms: C2_2  and  C10_10 
ROOT
HETATM    1  C1  UNL     1     -34.148  16.044  -1.954  1.00 20.00    -0.004 C 
HETATM    2  C2  UNL     1     -34.286  16.134  -3.291  1.00 20.00    -0.076 C 
HETATM    3  C3  UNL     1     -35.129  17.224  -3.917  1.00 20.00     0.034 C 
HETATM    4  C4  UNL     1     -35.491  18.363  -2.962  1.00 20.00     0.006 C 
HETATM    5  C5  UNL     1     -35.917  17.819  -1.601  1.00 20.00     0.024 C 
HETATM    6  C9  UNL     1     -34.821  16.956  -0.969  1.00 20.00     0.105 C 
HETATM    7 CL12 UNL     1     -33.565  17.993  -0.223  1.00 20.00    -0.121 Cl
ENDROOT
BRANCH   2   8
HETATM    8  C10 UNL     1     -33.616  15.202  -4.254  1.00 20.00     0.040 C 
HETATM    9  C6  UNL     1     -33.698  13.752  -3.819  1.00 20.00     0.037 C 
HETATM   10  C7  UNL     1     -35.043  13.309  -4.357  1.00 20.00     0.168 C 
HETATM   11  O11 UNL     1     -35.308  14.101  -5.522  1.00 20.00    -0.390 OA
HETATM   12  C8  UNL     1     -34.342  15.162  -5.590  1.00 20.00     0.176 C 
ENDBRANCH   2   8
TORSDOF 1
ENDMDL
MODEL 4
REMARK VINA RESULT:      -4.5      1.663      2.207
REMARK  1 active torsions:
REMARK  status: ('A' for Active; 'I' for Inactive)
REMARK    1  A    between atoms: C2_2  and  C10_10 
ROOT
HETATM    1  C1  UNL     1     -33.616  15.838  -2.745  1.00 20.00    -0.004 C 
HETATM    2  C2  UNL     1     -34.714  16.293  -2.113  1.00 20.00    -0.076 C 
HETATM    3  C3  UNL     1     -36.092  16.113  -2.714  1.00 20.00     0.034 C 
HETATM    4  C4  UNL     1     -36.148  15.104  -3.862  1.00 20.00     0.006 C 
HETATM    5  C5  UNL     1     -34.970  15.295  -4.814  1.00 20.00     0.024 C 
HETATM    6  C9  UNL     1     -33.629  15.162  -4.086  1.00 20.00     0.105 C 
HETATM    7 CL12 UNL     1     -33.222  13.434  -3.841  1.00 20.00    -0.121 Cl
ENDROOT
BRANCH   2   8
HETATM    8  C10 UNL     1     -34.675  16.979  -0.781  1.00 20.00     0.040 C 
HETATM    9  C6  UNL     1     -33.451  17.856  -0.611  1.00 20.00     0.037 C 
HETATM   10  C7  UNL     1     -33.875  19.163  -1.249  1.00 20.00     0.168 C 
HETATM   11  O11 UNL     1     -35.298  19.258  -1.100  1.00 20.00    -0.390 OA
HETATM   12  C8  UNL     1     -35.801  17.993  -0.641  1.00 20.00     0.176 C 
ENDBRANCH   2   8
TORSDOF 1
ENDMDL
MODEL 5
REMARK VINA RESULT:      -4.4      1.326      1.467
REMARK  1 active torsions:
REMARK  status: ('A' for Active; 'I' for Inactive)
REMARK    1  A    between atoms: C2_2  and  C10_10 
ROOT
HETATM    1  C1  UNL     1     -35.693  15.568  -4.783  1.00 20.00    -0.004 C 
HETATM    2  C2  UNL     1     -35.303  15.469  -3.498  1.00 20.00    -0.076 C 
HETATM    3  C3  UNL     1     -34.414  14.334  -3.037  1.00 20.00     0.034 C 
HETATM    4  C4  UNL     1     -33.745  13.560  -4.175  1.00 20.00     0.006 C 
HETATM    5  C5  UNL     1     -34.736  13.283  -5.302  1.00 20.00     0.024 C 
HETATM    6  C9  UNL     1     -35.338  14.579  -5.855  1.00 20.00     0.105 C 
HETATM    7 CL12 UNL     1     -34.191  15.368  -6.983  1.00 20.00    -0.121 Cl
ENDROOT
BRANCH   2   8
HETATM    8  C10 UNL     1     -35.682  16.462  -2.442  1.00 20.00     0.040 C 
HETATM    9  C6  UNL     1     -34.678  16.524  -1.308  1.00 20.00     0.037 C 
HETATM   10  C7  UNL     1     -33.639  17.498  -1.823  1.00 20.00     0.168 C 
HETATM   11  O11 UNL     1     -34.315  18.396  -2.714  1.00 20.00    -0.390 OA
HETATM   12  C8  UNL     1     -35.633  17.888  -2.972  1.00 20.00     0.176 C 
ENDBRANCH   2   8
TORSDOF 1
ENDMDL
MODEL 6
REMARK VINA RESULT:      -4.4      2.275      3.330
REMARK  1 active torsions:
REMARK  status: ('A' for Active; 'I' for Inactive)
REMARK    1  A    between atoms: C2_2  and  C10_10 
ROOT
HETATM    1  C1  UNL     1     -36.498  15.585  -5.186  1.00 20.00    -0.004 C 
HETATM    2  C2  UNL     1     -35.550  14.636  -5.061  1.00 20.00    -0.076 C 
HETATM    3  C3  UNL     1     -34.971  13.945  -6.277  1.00 20.00     0.034 C 
HETATM    4  C4  UNL     1     -35.286  14.642  -7.603  1.00 20.00     0.006 C 
HETATM    5  C5  UNL     1     -36.746  15.082  -7.654  1.00 20.00     0.024 C 
HETATM    6  C9  UNL     1     -37.095  16.018  -6.493  1.00 20.00     0.105 C 
HETATM    7 CL12 UNL     1     -36.524  17.681  -6.842  1.00 20.00    -0.121 Cl
ENDROOT
BRANCH   2   8
HETATM    8  C10 UNL     1     -34.979  14.209  -3.743  1.00 20.00     0.040 C 
HETATM    9  C6  UNL     1     -33.526  13.791  -3.842  1.00 20.00     0.037 C 
HETATM   10  C7  UNL     1     -32.782  15.104  -3.716  1.00 20.00     0.168 C 
HETATM   11  O11 UNL     1     -33.601  15.974  -2.923  1.00 20.00    -0.390 OA
HETATM   12  C8  UNL     1     -34.897  15.374  -2.767  1.00 20.00     0.176 C 
ENDBRANCH   2   8
TORSDOF 1
ENDMDL
MODEL 7
REMARK VINA RESULT:      -4.4      2.328      4.173
REMARK  1 active torsions:
REMARK  status: ('A' for Active; 'I' for Inactive)
REMARK    1  A    between atoms: C2_2  and  C10_10 
ROOT
HETATM    1  C1  UNL     1     -35.357  17.055  -3.876  1.00 20.00    -0.004 C 
HETATM    2  C2  UNL     1     -34.365  16.237  -3.474  1.00 20.00    -0.076 C 
HETATM    3  C3  UNL     1     -33.916  16.206  -2.029  1.00 20.00     0.034 C 
HETATM    4  C4  UNL     1     -34.884  16.885  -1.057  1.00 20.00     0.006 C 
HETATM    5  C5  UNL     1     -35.384  18.211  -1.624  1.00 20.00     0.024 C 
HETATM    6  C9  UNL     1     -36.075  18.021  -2.978  1.00 20.00     0.105 C 
HETATM    7 CL12 UNL     1     -37.749  17.424  -2.745  1.00 20.00    -0.121 Cl
ENDROOT
BRANCH   2   8
HETATM    8  C10 UNL     1     -33.652  15.292  -4.393  1.00 20.00     0.040 C 
HETATM    9  C6  UNL     1     -33.617  13.874  -3.861  1.00 20.00     0.037 C 
HETATM   10  C7  UNL     1     -34.939  13.300  -4.329  1.00 20.00     0.168 C 
HETATM   11  O11 UNL     1     -35.290  13.990  -5.535  1.00 20.00    -0.390 OA
HETATM   12  C8  UNL     1     -34.406  15.111  -5.702  1.00 20.00     0.176 C 
ENDBRANCH   2   8
TORSDOF 1
ENDMDL
MODEL 8
REMARK VINA RESULT:      -4.3      2.851      4.488
REMARK  1 active torsions:
REMARK  status: ('A' for Active; 'I' for Inactive)
REMARK    1  A    between atoms: C2_2  and  C10_10 
ROOT
HETATM    1  C1  UNL     1     -34.426  16.301  -1.439  1.00 20.00    -0.004 C 
HETATM    2  C2  UNL     1     -35.093  16.416  -2.604  1.00 20.00    -0.076 C 
HETATM    3  C3  UNL     1     -36.145  17.486  -2.800  1.00 20.00     0.034 C 
HETATM    4  C4  UNL     1     -36.123  18.588  -1.738  1.00 20.00     0.006 C 
HETATM    5  C5  UNL     1     -35.952  17.996  -0.342  1.00 20.00     0.024 C 
HETATM    6  C9  UNL     1     -34.671  17.163  -0.234  1.00 20.00     0.105 C 
HETATM    7 CL12 UNL     1     -33.250  18.231  -0.016  1.00 20.00    -0.121 Cl
ENDROOT
BRANCH   2   8
HETATM    8  C10 UNL     1     -34.841  15.534  -3.789  1.00 20.00     0.040 C 
HETATM    9  C6  UNL     1     -34.923  16.282  -5.104  1.00 20.00     0.037 C 
HETATM   10  C7  UNL     1     -33.530  16.856  -5.260  1.00 20.00     0.168 C 
HETATM   11  O11 UNL     1     -32.634  15.966  -4.581  1.00 20.00    -0.390 OA
HETATM   12  C8  UNL     1     -33.406  15.028  -3.813  1.00 20.00     0.176 C 
ENDBRANCH   2   8
TORSDOF 1
ENDMDL
MODEL 9
REMARK VINA RESULT:      -4.3      3.384      4.885
REMARK  1 active torsions:
REMARK  status: ('A' for Active; 'I' for Inactive)
REMARK    1  A    between atoms: C2_2  and  C10_10 
ROOT
HETATM    1  C1  UNL     1     -34.446  14.116  -5.229  1.00 20.00    -0.004 C 
HETATM    2  C2  UNL     1     -34.433  15.278  -5.911  1.00 20.00    -0.076 C 
HETATM    3  C3  UNL     1     -34.217  16.598  -5.201  1.00 20.00     0.034 C 
HETATM    4  C4  UNL     1     -33.684  16.462  -3.774  1.00 20.00     0.006 C 
HETATM    5  C5  UNL     1     -34.416  15.355  -3.021  1.00 20.00     0.024 C 
HETATM    6  C9  UNL     1     -34.294  14.007  -3.739  1.00 20.00     0.105 C 
HETATM    7 CL12 UNL     1     -32.700  13.262  -3.396  1.00 20.00    -0.121 Cl
ENDROOT
BRANCH   2   8
HETATM    8  C10 UNL     1     -34.602  15.363  -7.397  1.00 20.00     0.040 C 
HETATM    9  C6  UNL     1     -35.680  14.434  -7.918  1.00 20.00     0.037 C 
HETATM   10  C7  UNL     1     -36.946  15.248  -7.747  1.00 20.00     0.168 C 
HETATM   11  O11 UNL     1     -36.572  16.628  -7.849  1.00 20.00    -0.390 OA
HETATM   12  C8  UNL     1     -35.139  16.723  -7.821  1.00 20.00     0.176 C 
ENDBRANCH   2   8
TORSDOF 1
ENDMDL
