MODEL 1
REMARK VINA RESULT:      -5.1      0.000      0.000
REMARK  1 active torsions:
REMARK  status: ('A' for Active; 'I' for Inactive)
REMARK    1  A    between atoms: C2_2  and  C10_10 
ROOT
HETATM    1  C1  UNL     1     -35.687  15.389  -3.207  1.00 20.00    -0.004 C 
HETATM    2  C2  UNL     1     -34.394  15.531  -2.889  1.00 20.00    -0.078 C 
HETATM    3  C3  UNL     1     -33.545  14.503  -3.570  1.00 20.00     0.036 C 
HETATM    4  C4  UNL     1     -34.582  13.488  -4.058  1.00 20.00     0.028 C 
HETATM    5  C9  UNL     1     -35.907  14.249  -4.146  1.00 20.00     0.105 C 
HETATM    6 CL12 UNL     1     -36.198  14.872  -5.784  1.00 20.00    -0.121 Cl
ENDROOT
BRANCH   2   7
HETATM    7  C10 UNL     1     -33.783  16.590  -1.993  1.00 20.00     0.018 C 
HETATM    8  C5  UNL     1     -33.807  17.919  -2.739  1.00 20.00     0.035 C 
HETATM    9  C7  UNL     1     -33.434  19.060  -1.801  1.00 20.00     0.168 C 
HETATM   10  O11 UNL     1     -34.292  19.080  -0.660  1.00 20.00    -0.391 OA
HETATM   11  C8  UNL     1     -34.193  17.882   0.110  1.00 20.00     0.168 C 
HETATM   12  C6  UNL     1     -34.612  16.672  -0.717  1.00 20.00     0.035 C 
ENDBRANCH   2   7
TORSDOF 1
ENDMDL
MODEL 2
REMARK VINA RESULT:      -5.0      0.726      1.623
REMARK  1 active torsions:
REMARK  status: ('A' for Active; 'I' for Inactive)
REMARK    1  A    between atoms: C2_2  and  C10_10 
ROOT
HETATM    1  C1  UNL     1     -35.531  14.801  -3.473  1.00 20.00    -0.004 C 
HETATM    2  C2  UNL     1     -34.583  15.623  -3.006  1.00 20.00    -0.078 C 
HETATM    3  C3  UNL     1     -33.213  15.155  -3.388  1.00 20.00     0.036 C 
HETATM    4  C4  UNL     1     -33.471  13.717  -3.845  1.00 20.00     0.028 C 
HETATM    5  C9  UNL     1     -34.950  13.658  -4.237  1.00 20.00     0.105 C 
HETATM    6 CL12 UNL     1     -35.177  13.926  -5.979  1.00 20.00    -0.121 Cl
ENDROOT
BRANCH   2   7
HETATM    7  C10 UNL     1     -34.787  16.901  -2.216  1.00 20.00     0.018 C 
HETATM    8  C5  UNL     1     -34.627  16.579  -0.736  1.00 20.00     0.035 C 
HETATM    9  C7  UNL     1     -34.578  17.863   0.084  1.00 20.00     0.168 C 
HETATM   10  O11 UNL     1     -33.540  18.724  -0.384  1.00 20.00    -0.391 OA
HETATM   11  C8  UNL     1     -33.742  19.124  -1.740  1.00 20.00     0.168 C 
HETATM   12  C6  UNL     1     -33.740  17.912  -2.666  1.00 20.00     0.035 C 
ENDBRANCH   2   7
TORSDOF 1
ENDMDL
MODEL 3
REMARK VINA RESULT:      -4.9      3.074      5.046
REMARK  1 active torsions:
REMARK  status: ('A' for Active; 'I' for Inactive)
REMARK    1  A    between atoms: C2_2  and  C10_10 
ROOT
HETATM    1  C1  UNL     1     -34.272  17.147  -0.748  1.00 20.00    -0.004 C 
HETATM    2  C2  UNL     1     -34.251  16.755  -2.029  1.00 20.00    -0.078 C 
HETATM    3  C3  UNL     1     -33.787  17.855  -2.932  1.00 20.00     0.036 C 
HETATM    4  C4  UNL     1     -33.888  19.088  -2.030  1.00 20.00     0.028 C 
HETATM    5  C9  UNL     1     -33.830  18.564  -0.593  1.00 20.00     0.105 C 
HETATM    6 CL12 UNL     1     -32.175  18.606   0.054  1.00 20.00    -0.121 Cl
ENDROOT
BRANCH   2   7
HETATM    7  C10 UNL     1     -34.599  15.383  -2.571  1.00 20.00     0.018 C 
HETATM    8  C5  UNL     1     -35.924  15.487  -3.317  1.00 20.00     0.035 C 
HETATM    9  C7  UNL     1     -36.200  14.202  -4.088  1.00 20.00     0.168 C 
HETATM   10  O11 UNL     1     -35.120  13.898  -4.972  1.00 20.00    -0.391 OA
HETATM   11  C8  UNL     1     -33.893  13.688  -4.271  1.00 20.00     0.168 C 
HETATM   12  C6  UNL     1     -33.483  14.944  -3.511  1.00 20.00     0.035 C 
ENDBRANCH   2   7
TORSDOF 1
ENDMDL
MODEL 4
REMARK VINA RESULT:      -4.8     12.813     14.621
REMARK  1 active torsions:
REMARK  status: ('A' for Active; 'I' for Inactive)
REMARK    1  A    between atoms: C2_2  and  C10_10 
ROOT
HETATM    1  C1  UNL     1     -41.196   2.363  -3.324  1.00 20.00    -0.004 C 
HETATM    2  C2  UNL     1     -42.179   3.224  -3.032  1.00 20.00    -0.078 C 
HETATM    3  C3  UNL     1     -43.417   2.932  -3.820  1.00 20.00     0.036 C 
HETATM    4  C4  UNL     1     -42.902   1.985  -4.907  1.00 20.00     0.028 C 
HETATM    5  C9  UNL     1     -41.618   1.365  -4.350  1.00 20.00     0.105 C 
HETATM    6 CL12 UNL     1     -41.931  -0.200  -3.567  1.00 20.00    -0.121 Cl
ENDROOT
BRANCH   2   7
HETATM    7  C10 UNL     1     -42.137   4.352  -2.020  1.00 20.00     0.018 C 
HETATM    8  C5  UNL     1     -40.770   4.339  -1.346  1.00 20.00     0.035 C 
HETATM    9  C7  UNL     1     -40.583   5.593  -0.502  1.00 20.00     0.168 C 
HETATM   10  O11 UNL     1     -40.770   6.769  -1.290  1.00 20.00    -0.391 OA
HETATM   11  C8  UNL     1     -42.088   6.847  -1.836  1.00 20.00     0.168 C 
HETATM   12  C6  UNL     1     -42.362   5.666  -2.759  1.00 20.00     0.035 C 
ENDBRANCH   2   7
TORSDOF 1
ENDMDL
MODEL 5
REMARK VINA RESULT:      -4.7      1.187      1.847
REMARK  1 active torsions:
REMARK  status: ('A' for Active; 'I' for Inactive)
REMARK    1  A    between atoms: C2_2  and  C10_10 
ROOT
HETATM    1  C1  UNL     1     -35.622  15.533  -4.879  1.00 20.00    -0.004 C 
HETATM    2  C2  UNL     1     -34.838  15.672  -3.802  1.00 20.00    -0.078 C 
HETATM    3  C3  UNL     1     -33.841  14.560  -3.703  1.00 20.00     0.036 C 
HETATM    4  C4  UNL     1     -34.393  13.530  -4.690  1.00 20.00     0.028 C 
HETATM    5  C9  UNL     1     -35.275  14.314  -5.667  1.00 20.00     0.105 C 
HETATM    6 CL12 UNL     1     -34.380  14.780  -7.129  1.00 20.00    -0.121 Cl
ENDROOT
BRANCH   2   7
HETATM    7  C10 UNL     1     -34.869  16.797  -2.787  1.00 20.00     0.018 C 
HETATM    8  C5  UNL     1     -34.639  16.201  -1.404  1.00 20.00     0.035 C 
HETATM    9  C7  UNL     1     -34.415  17.307  -0.380  1.00 20.00     0.168 C 
HETATM   10  O11 UNL     1     -33.335  18.153  -0.775  1.00 20.00    -0.391 OA
HETATM   11  C8  UNL     1     -33.589  18.806  -2.019  1.00 20.00     0.168 C 
HETATM   12  C6  UNL     1     -33.764  17.787  -3.139  1.00 20.00     0.035 C 
ENDBRANCH   2   7
TORSDOF 1
ENDMDL
MODEL 6
REMARK VINA RESULT:      -4.6      3.088      4.976
REMARK  1 active torsions:
REMARK  status: ('A' for Active; 'I' for Inactive)
REMARK    1  A    between atoms: C2_2  and  C10_10 
ROOT
HETATM    1  C1  UNL     1     -35.325  17.317  -0.732  1.00 20.00    -0.004 C 
HETATM    2  C2  UNL     1     -34.116  17.219  -1.299  1.00 20.00    -0.078 C 
HETATM    3  C3  UNL     1     -33.116  18.099  -0.616  1.00 20.00     0.036 C 
HETATM    4  C4  UNL     1     -34.006  19.023   0.220  1.00 20.00     0.028 C 
HETATM    5  C9  UNL     1     -35.327  18.273   0.414  1.00 20.00     0.105 C 
HETATM    6 CL12 UNL     1     -35.350  17.372   1.946  1.00 20.00    -0.121 Cl
ENDROOT
BRANCH   2   7
HETATM    7  C10 UNL     1     -33.719  16.329  -2.460  1.00 20.00     0.018 C 
HETATM    8  C5  UNL     1     -34.807  15.279  -2.650  1.00 20.00     0.035 C 
HETATM    9  C7  UNL     1     -34.584  14.515  -3.950  1.00 20.00     0.168 C 
HETATM   10  O11 UNL     1     -34.516  15.410  -5.060  1.00 20.00    -0.391 OA
HETATM   11  C8  UNL     1     -33.428  16.328  -4.945  1.00 20.00     0.168 C 
HETATM   12  C6  UNL     1     -33.585  17.199  -3.704  1.00 20.00     0.035 C 
ENDBRANCH   2   7
TORSDOF 1
ENDMDL
MODEL 7
REMARK VINA RESULT:      -4.5     13.432     15.559
REMARK  1 active torsions:
REMARK  status: ('A' for Active; 'I' for Inactive)
REMARK    1  A    between atoms: C2_2  and  C10_10 
ROOT
HETATM    1  C1  UNL     1     -40.967   4.788  -1.272  1.00 20.00    -0.004 C 
HETATM    2  C2  UNL     1     -42.153   4.215  -1.514  1.00 20.00    -0.078 C 
HETATM    3  C3  UNL     1     -43.212   4.733  -0.593  1.00 20.00     0.036 C 
HETATM    4  C4  UNL     1     -42.392   5.438   0.490  1.00 20.00     0.028 C 
HETATM    5  C9  UNL     1     -41.044   5.774  -0.155  1.00 20.00     0.105 C 
HETATM    6 CL12 UNL     1     -41.025   7.425  -0.812  1.00 20.00    -0.121 Cl
ENDROOT
BRANCH   2   7
HETATM    7  C10 UNL     1     -42.472   3.193  -2.588  1.00 20.00     0.018 C 
HETATM    8  C5  UNL     1     -41.159   2.666  -3.152  1.00 20.00     0.035 C 
HETATM    9  C7  UNL     1     -41.414   1.466  -4.056  1.00 20.00     0.168 C 
HETATM   10  O11 UNL     1     -42.134   0.449  -3.358  1.00 20.00    -0.391 OA
HETATM   11  C8  UNL     1     -43.417   0.900  -2.922  1.00 20.00     0.168 C 
HETATM   12  C6  UNL     1     -43.277   2.067  -1.951  1.00 20.00     0.035 C 
ENDBRANCH   2   7
TORSDOF 1
ENDMDL
MODEL 8
REMARK VINA RESULT:      -4.5      1.425      2.370
REMARK  1 active torsions:
REMARK  status: ('A' for Active; 'I' for Inactive)
REMARK    1  A    between atoms: C2_2  and  C10_10 
ROOT
HETATM    1  C1  UNL     1     -33.908  15.562  -2.941  1.00 20.00    -0.004 C 
HETATM    2  C2  UNL     1     -34.049  16.892  -2.875  1.00 20.00    -0.078 C 
HETATM    3  C3  UNL     1     -33.812  17.537  -4.205  1.00 20.00     0.036 C 
HETATM    4  C4  UNL     1     -33.140  16.415  -5.000  1.00 20.00     0.028 C 
HETATM    5  C9  UNL     1     -33.555  15.108  -4.318  1.00 20.00     0.105 C 
HETATM    6 CL12 UNL     1     -34.982  14.387  -5.095  1.00 20.00    -0.121 Cl
ENDROOT
BRANCH   2   7
HETATM    7  C10 UNL     1     -34.434  17.712  -1.659  1.00 20.00     0.018 C 
HETATM    8  C5  UNL     1     -34.768  16.753  -0.523  1.00 20.00     0.035 C 
HETATM    9  C7  UNL     1     -34.922  17.517   0.787  1.00 20.00     0.168 C 
HETATM   10  O11 UNL     1     -33.750  18.282   1.069  1.00 20.00    -0.391 OA
HETATM   11  C8  UNL     1     -33.491  19.262   0.064  1.00 20.00     0.168 C 
HETATM   12  C6  UNL     1     -33.253  18.599  -1.288  1.00 20.00     0.035 C 
ENDBRANCH   2   7
TORSDOF 1
ENDMDL
MODEL 9
REMARK VINA RESULT:      -4.3      3.227      4.851
REMARK  1 active torsions:
REMARK  status: ('A' for Active; 'I' for Inactive)
REMARK    1  A    between atoms: C2_2  and  C10_10 
ROOT
HETATM    1  C1  UNL     1     -34.732  16.956  -0.357  1.00 20.00    -0.004 C 
HETATM    2  C2  UNL     1     -34.976  17.571  -1.521  1.00 20.00    -0.078 C 
HETATM    3  C3  UNL     1     -35.489  18.962  -1.311  1.00 20.00     0.036 C 
HETATM    4  C4  UNL     1     -35.867  18.953   0.172  1.00 20.00     0.028 C 
HETATM    5  C9  UNL     1     -35.043  17.832   0.811  1.00 20.00     0.105 C 
HETATM    6 CL12 UNL     1     -33.532  18.448   1.515  1.00 20.00    -0.121 Cl
ENDROOT
BRANCH   2   7
HETATM    7  C10 UNL     1     -34.752  17.016  -2.914  1.00 20.00     0.018 C 
HETATM    8  C5  UNL     1     -33.997  18.058  -3.729  1.00 20.00     0.035 C 
HETATM    9  C7  UNL     1     -33.532  17.461  -5.052  1.00 20.00     0.168 C 
HETATM   10  O11 UNL     1     -32.743  16.292  -4.831  1.00 20.00    -0.391 OA
HETATM   11  C8  UNL     1     -33.478  15.264  -4.167  1.00 20.00     0.168 C 
HETATM   12  C6  UNL     1     -33.939  15.733  -2.791  1.00 20.00     0.035 C 
ENDBRANCH   2   7
TORSDOF 1
ENDMDL
