MODEL 1
REMARK VINA RESULT:      -4.7      0.000      0.000
REMARK  1 active torsions:
REMARK  status: ('A' for Active; 'I' for Inactive)
REMARK    1  A    between atoms: C2_2  and  C9_9 
ROOT
HETATM    1  C1  UNL     1     -34.478  16.670  -1.213  1.00 20.00    -0.004 C 
HETATM    2  C2  UNL     1     -34.264  16.158  -2.432  1.00 20.00    -0.076 C 
HETATM    3  C3  UNL     1     -33.769  17.198  -3.387  1.00 20.00     0.036 C 
HETATM    4  C4  UNL     1     -34.071  18.501  -2.643  1.00 20.00     0.028 C 
HETATM    5  C8  UNL     1     -34.160  18.129  -1.161  1.00 20.00     0.105 C 
HETATM    6 CL11 UNL     1     -32.609  18.374  -0.328  1.00 20.00    -0.121 Cl
ENDROOT
BRANCH   2   7
HETATM    7  C9  UNL     1     -34.439  14.740  -2.852  1.00 20.00     0.040 C 
HETATM    8  C5  UNL     1     -35.576  14.529  -3.833  1.00 20.00     0.037 C 
HETATM    9  C6  UNL     1     -35.208  13.201  -4.455  1.00 20.00     0.168 C 
HETATM   10  O10 UNL     1     -33.776  13.159  -4.504  1.00 20.00    -0.390 OA
HETATM   11  C7  UNL     1     -33.259  14.176  -3.631  1.00 20.00     0.176 C 
ENDBRANCH   2   7
TORSDOF 1
ENDMDL
MODEL 2
REMARK VINA RESULT:      -4.7      3.085      4.750
REMARK  1 active torsions:
REMARK  status: ('A' for Active; 'I' for Inactive)
REMARK    1  A    between atoms: C2_2  and  C9_9 
ROOT
HETATM    1  C1  UNL     1     -35.585  14.802  -3.546  1.00 20.00    -0.004 C 
HETATM    2  C2  UNL     1     -34.637  15.584  -3.014  1.00 20.00    -0.076 C 
HETATM    3  C3  UNL     1     -33.264  15.090  -3.348  1.00 20.00     0.036 C 
HETATM    4  C4  UNL     1     -33.538  13.674  -3.859  1.00 20.00     0.028 C 
HETATM    5  C8  UNL     1     -34.997  13.667  -4.318  1.00 20.00     0.105 C 
HETATM    6 CL11 UNL     1     -35.139  13.990  -6.060  1.00 20.00    -0.121 Cl
ENDROOT
BRANCH   2   7
HETATM    7  C9  UNL     1     -34.841  16.821  -2.210  1.00 20.00     0.040 C 
HETATM    8  C5  UNL     1     -34.620  16.628  -0.722  1.00 20.00     0.037 C 
HETATM    9  C6  UNL     1     -34.380  18.047  -0.257  1.00 20.00     0.168 C 
HETATM   10  O10 UNL     1     -33.702  18.716  -1.327  1.00 20.00    -0.390 OA
HETATM   11  C7  UNL     1     -33.849  17.932  -2.522  1.00 20.00     0.176 C 
ENDBRANCH   2   7
TORSDOF 1
ENDMDL
MODEL 3
REMARK VINA RESULT:      -4.4     13.189     15.272
REMARK  1 active torsions:
REMARK  status: ('A' for Active; 'I' for Inactive)
REMARK    1  A    between atoms: C2_2  and  C9_9 
ROOT
HETATM    1  C1  UNL     1     -41.229   2.404  -3.234  1.00 20.00    -0.004 C 
HETATM    2  C2  UNL     1     -42.152   3.320  -2.914  1.00 20.00    -0.076 C 
HETATM    3  C3  UNL     1     -43.417   3.120  -3.688  1.00 20.00     0.036 C 
HETATM    4  C4  UNL     1     -42.978   2.160  -4.796  1.00 20.00     0.028 C 
HETATM    5  C8  UNL     1     -41.729   1.451  -4.269  1.00 20.00     0.105 C 
HETATM    6 CL11 UNL     1     -42.130  -0.104  -3.506  1.00 20.00    -0.121 Cl
ENDROOT
BRANCH   2   7
HETATM    7  C9  UNL     1     -42.026   4.407  -1.904  1.00 20.00     0.040 C 
HETATM    8  C5  UNL     1     -40.720   4.379  -1.135  1.00 20.00     0.037 C 
HETATM    9  C6  UNL     1     -40.637   5.795  -0.610  1.00 20.00     0.168 C 
HETATM   10  O10 UNL     1     -41.235   6.633  -1.607  1.00 20.00    -0.390 OA
HETATM   11  C7  UNL     1     -41.995   5.806  -2.503  1.00 20.00     0.176 C 
ENDBRANCH   2   7
TORSDOF 1
ENDMDL
MODEL 4
REMARK VINA RESULT:      -4.4      1.547      1.954
REMARK  1 active torsions:
REMARK  status: ('A' for Active; 'I' for Inactive)
REMARK    1  A    between atoms: C2_2  and  C9_9 
ROOT
HETATM    1  C1  UNL     1     -33.667  17.499  -2.899  1.00 20.00    -0.004 C 
HETATM    2  C2  UNL     1     -34.020  16.210  -2.819  1.00 20.00    -0.076 C 
HETATM    3  C3  UNL     1     -34.775  15.922  -1.560  1.00 20.00     0.036 C 
HETATM    4  C4  UNL     1     -34.499  17.170  -0.717  1.00 20.00     0.028 C 
HETATM    5  C8  UNL     1     -34.129  18.274  -1.709  1.00 20.00     0.105 C 
HETATM    6 CL11 UNL     1     -35.540  19.261  -2.149  1.00 20.00    -0.121 Cl
ENDROOT
BRANCH   2   7
HETATM    7  C9  UNL     1     -33.762  15.145  -3.828  1.00 20.00     0.040 C 
HETATM    8  C5  UNL     1     -34.494  13.847  -3.550  1.00 20.00     0.037 C 
HETATM    9  C6  UNL     1     -34.482  13.185  -4.909  1.00 20.00     0.168 C 
HETATM   10  O10 UNL     1     -34.572  14.239  -5.876  1.00 20.00    -0.390 OA
HETATM   11  C7  UNL     1     -34.263  15.483  -5.225  1.00 20.00     0.176 C 
ENDBRANCH   2   7
TORSDOF 1
ENDMDL
MODEL 5
REMARK VINA RESULT:      -4.4      1.155      1.567
REMARK  1 active torsions:
REMARK  status: ('A' for Active; 'I' for Inactive)
REMARK    1  A    between atoms: C2_2  and  C9_9 
ROOT
HETATM    1  C1  UNL     1     -34.644  16.125  -1.512  1.00 20.00    -0.004 C 
HETATM    2  C2  UNL     1     -34.997  16.303  -2.792  1.00 20.00    -0.076 C 
HETATM    3  C3  UNL     1     -35.408  17.717  -3.058  1.00 20.00     0.036 C 
HETATM    4  C4  UNL     1     -35.599  18.277  -1.646  1.00 20.00     0.028 C 
HETATM    5  C8  UNL     1     -34.763  17.388  -0.724  1.00 20.00     0.105 C 
HETATM    6 CL11 UNL     1     -33.146  18.072  -0.442  1.00 20.00    -0.121 Cl
ENDROOT
BRANCH   2   7
HETATM    7  C9  UNL     1     -34.977  15.284  -3.878  1.00 20.00     0.040 C 
HETATM    8  C5  UNL     1     -33.817  14.313  -3.786  1.00 20.00     0.037 C 
HETATM    9  C6  UNL     1     -34.311  13.156  -4.625  1.00 20.00     0.168 C 
HETATM   10  O10 UNL     1     -35.730  13.096  -4.436  1.00 20.00    -0.390 OA
HETATM   11  C7  UNL     1     -36.168  14.336  -3.858  1.00 20.00     0.176 C 
ENDBRANCH   2   7
TORSDOF 1
ENDMDL
MODEL 6
REMARK VINA RESULT:      -4.3      1.354      1.442
REMARK  1 active torsions:
REMARK  status: ('A' for Active; 'I' for Inactive)
REMARK    1  A    between atoms: C2_2  and  C9_9 
ROOT
HETATM    1  C1  UNL     1     -35.768  16.667  -2.129  1.00 20.00    -0.004 C 
HETATM    2  C2  UNL     1     -34.926  15.877  -2.807  1.00 20.00    -0.076 C 
HETATM    3  C3  UNL     1     -33.499  16.250  -2.557  1.00 20.00     0.036 C 
HETATM    4  C4  UNL     1     -33.627  17.630  -1.907  1.00 20.00     0.028 C 
HETATM    5  C8  UNL     1     -35.039  17.690  -1.321  1.00 20.00     0.105 C 
HETATM    6 CL11 UNL     1     -35.057  17.222   0.394  1.00 20.00    -0.121 Cl
ENDROOT
BRANCH   2   7
HETATM    7  C9  UNL     1     -35.285  14.731  -3.689  1.00 20.00     0.040 C 
HETATM    8  C5  UNL     1     -35.166  15.038  -5.169  1.00 20.00     0.037 C 
HETATM    9  C6  UNL     1     -35.071  13.653  -5.768  1.00 20.00     0.168 C 
HETATM   10  O10 UNL     1     -34.363  12.848  -4.816  1.00 20.00    -0.390 OA
HETATM   11  C7  UNL     1     -34.357  13.532  -3.553  1.00 20.00     0.176 C 
ENDBRANCH   2   7
TORSDOF 1
ENDMDL
MODEL 7
REMARK VINA RESULT:      -4.3     13.181     14.721
REMARK  1 active torsions:
REMARK  status: ('A' for Active; 'I' for Inactive)
REMARK    1  A    between atoms: C2_2  and  C9_9 
ROOT
HETATM    1  C1  UNL     1     -40.973   4.585  -1.411  1.00 20.00    -0.004 C 
HETATM    2  C2  UNL     1     -42.164   4.020  -1.644  1.00 20.00    -0.076 C 
HETATM    3  C3  UNL     1     -43.198   4.498  -0.674  1.00 20.00     0.036 C 
HETATM    4  C4  UNL     1     -42.350   5.163   0.413  1.00 20.00     0.028 C 
HETATM    5  C8  UNL     1     -41.022   5.527  -0.253  1.00 20.00     0.105 C 
HETATM    6 CL11 UNL     1     -41.022   7.203  -0.845  1.00 20.00    -0.121 Cl
ENDROOT
BRANCH   2   7
HETATM    7  C9  UNL     1     -42.505   3.058  -2.729  1.00 20.00     0.040 C 
HETATM    8  C5  UNL     1     -41.301   2.361  -3.329  1.00 20.00     0.037 C 
HETATM    9  C6  UNL     1     -41.932   1.146  -3.971  1.00 20.00     0.168 C 
HETATM   10  O10 UNL     1     -43.036   0.774  -3.136  1.00 20.00    -0.390 OA
HETATM   11  C7  UNL     1     -43.341   1.874  -2.264  1.00 20.00     0.176 C 
ENDBRANCH   2   7
TORSDOF 1
ENDMDL
MODEL 8
REMARK VINA RESULT:      -4.3      3.405      5.361
REMARK  1 active torsions:
REMARK  status: ('A' for Active; 'I' for Inactive)
REMARK    1  A    between atoms: C2_2  and  C9_9 
ROOT
HETATM    1  C1  UNL     1     -33.653  17.890  -2.421  1.00 20.00    -0.004 C 
HETATM    2  C2  UNL     1     -33.890  17.801  -1.107  1.00 20.00    -0.076 C 
HETATM    3  C3  UNL     1     -34.666  16.566  -0.771  1.00 20.00     0.036 C 
HETATM    4  C4  UNL     1     -35.178  16.114  -2.140  1.00 20.00     0.028 C 
HETATM    5  C8  UNL     1     -34.230  16.734  -3.169  1.00 20.00     0.105 C 
HETATM    6 CL11 UNL     1     -32.931  15.609  -3.627  1.00 20.00    -0.121 Cl
ENDROOT
BRANCH   2   7
HETATM    7  C9  UNL     1     -33.444  18.748  -0.047  1.00 20.00     0.040 C 
HETATM    8  C5  UNL     1     -33.907  18.370   1.346  1.00 20.00     0.037 C 
HETATM    9  C6  UNL     1     -32.936  19.137   2.215  1.00 20.00     0.168 C 
HETATM   10  O10 UNL     1     -31.690  19.160   1.508  1.00 20.00    -0.390 OA
HETATM   11  C7  UNL     1     -31.935  18.801   0.139  1.00 20.00     0.176 C 
ENDBRANCH   2   7
TORSDOF 1
ENDMDL
MODEL 9
REMARK VINA RESULT:      -4.2      3.196      4.728
REMARK  1 active torsions:
REMARK  status: ('A' for Active; 'I' for Inactive)
REMARK    1  A    between atoms: C2_2  and  C9_9 
ROOT
HETATM    1  C1  UNL     1     -34.352  15.016  -3.032  1.00 20.00    -0.004 C 
HETATM    2  C2  UNL     1     -34.215  16.272  -2.587  1.00 20.00    -0.076 C 
HETATM    3  C3  UNL     1     -33.709  17.183  -3.660  1.00 20.00     0.036 C 
HETATM    4  C4  UNL     1     -33.211  16.200  -4.722  1.00 20.00     0.028 C 
HETATM    5  C8  UNL     1     -33.960  14.891  -4.468  1.00 20.00     0.105 C 
HETATM    6 CL11 UNL     1     -35.418  14.763  -5.477  1.00 20.00    -0.121 Cl
ENDROOT
BRANCH   2   7
HETATM    7  C9  UNL     1     -34.537  16.781  -1.225  1.00 20.00     0.040 C 
HETATM    8  C5  UNL     1     -33.473  17.693  -0.646  1.00 20.00     0.037 C 
HETATM    9  C6  UNL     1     -34.246  18.435   0.422  1.00 20.00     0.168 C 
HETATM   10  O10 UNL     1     -35.582  18.585  -0.075  1.00 20.00    -0.390 OA
HETATM   11  C7  UNL     1     -35.766  17.678  -1.175  1.00 20.00     0.176 C 
ENDBRANCH   2   7
TORSDOF 1
ENDMDL
