MODEL 1
REMARK VINA RESULT:      -4.7      0.000      0.000
REMARK  1 active torsions:
REMARK  status: ('A' for Active; 'I' for Inactive)
REMARK    1  A    between atoms: C4_4  and  C6_6 
ROOT
HETATM    1  C5  UNL     1     -34.531  16.360  -1.169  1.00 20.00     0.001 C 
HETATM    2  C6  UNL     1     -34.276  16.208  -2.478  1.00 20.00    -0.048 C 
HETATM    3  C7  UNL     1     -33.788  17.500  -3.074  1.00 20.00     0.041 C 
HETATM    4  C8  UNL     1     -34.183  18.533  -2.017  1.00 20.00     0.028 C 
HETATM    5  C9  UNL     1     -34.259  17.753  -0.706  1.00 20.00     0.106 C 
HETATM    6 CL11 UNL     1     -35.548  18.362   0.343  1.00 20.00    -0.121 Cl
ENDROOT
BRANCH   2   7
HETATM    7  C4  UNL     1     -34.393  14.967  -3.265  1.00 20.00    -0.006 A 
HETATM    8  C1  UNL     1     -35.559  14.386  -3.819  1.00 20.00     0.038 A 
HETATM    9  C2  UNL     1     -35.148  13.240  -4.457  1.00 20.00     0.142 A 
HETATM   10  O10 UNL     1     -33.804  13.079  -4.331  1.00 20.00    -0.334 OA
HETATM   11  C3  UNL     1     -33.352  14.134  -3.604  1.00 20.00     0.153 A 
ENDBRANCH   2   7
TORSDOF 1
ENDMDL
MODEL 2
REMARK VINA RESULT:      -4.7      1.722      2.387
REMARK  1 active torsions:
REMARK  status: ('A' for Active; 'I' for Inactive)
REMARK    1  A    between atoms: C4_4  and  C6_6 
ROOT
HETATM    1  C5  UNL     1     -33.285  17.973  -1.506  1.00 20.00     0.001 C 
HETATM    2  C6  UNL     1     -34.156  16.953  -1.456  1.00 20.00    -0.048 C 
HETATM    3  C7  UNL     1     -34.959  17.006  -0.186  1.00 20.00     0.041 C 
HETATM    4  C8  UNL     1     -34.150  17.967   0.688  1.00 20.00     0.028 C 
HETATM    5  C9  UNL     1     -33.373  18.841  -0.294  1.00 20.00     0.106 C 
HETATM    6 CL11 UNL     1     -31.772  19.263   0.331  1.00 20.00    -0.121 Cl
ENDROOT
BRANCH   2   7
HETATM    7  C4  UNL     1     -34.374  15.924  -2.490  1.00 20.00    -0.006 A 
HETATM    8  C1  UNL     1     -33.404  15.199  -3.223  1.00 20.00     0.038 A 
HETATM    9  C2  UNL     1     -34.107  14.364  -4.060  1.00 20.00     0.142 A 
HETATM   10  O10 UNL     1     -35.445  14.530  -3.889  1.00 20.00    -0.334 OA
HETATM   11  C3  UNL     1     -35.599  15.481  -2.931  1.00 20.00     0.153 A 
ENDBRANCH   2   7
TORSDOF 1
ENDMDL
MODEL 3
REMARK VINA RESULT:      -4.6      3.247      4.955
REMARK  1 active torsions:
REMARK  status: ('A' for Active; 'I' for Inactive)
REMARK    1  A    between atoms: C4_4  and  C6_6 
ROOT
HETATM    1  C5  UNL     1     -34.465  15.662  -5.092  1.00 20.00     0.001 C 
HETATM    2  C6  UNL     1     -34.351  15.415  -3.778  1.00 20.00    -0.048 C 
HETATM    3  C7  UNL     1     -34.285  13.934  -3.524  1.00 20.00     0.041 C 
HETATM    4  C8  UNL     1     -34.790  13.340  -4.840  1.00 20.00     0.028 C 
HETATM    5  C9  UNL     1     -34.497  14.404  -5.895  1.00 20.00     0.106 C 
HETATM    6 CL11 UNL     1     -35.752  14.451  -7.142  1.00 20.00    -0.121 Cl
ENDROOT
BRANCH   2   7
HETATM    7  C4  UNL     1     -34.250  16.410  -2.695  1.00 20.00    -0.006 A 
HETATM    8  C1  UNL     1     -34.623  16.269  -1.337  1.00 20.00     0.038 A 
HETATM    9  C2  UNL     1     -34.333  17.472  -0.736  1.00 20.00     0.142 A 
HETATM   10  O10 UNL     1     -33.806  18.342  -1.637  1.00 20.00    -0.334 OA
HETATM   11  C3  UNL     1     -33.758  17.688  -2.827  1.00 20.00     0.153 A 
ENDBRANCH   2   7
TORSDOF 1
ENDMDL
MODEL 4
REMARK VINA RESULT:      -4.6      1.764      2.437
REMARK  1 active torsions:
REMARK  status: ('A' for Active; 'I' for Inactive)
REMARK    1  A    between atoms: C4_4  and  C6_6 
ROOT
HETATM    1  C5  UNL     1     -33.068  18.065  -0.933  1.00 20.00     0.001 C 
HETATM    2  C6  UNL     1     -34.069  17.182  -1.073  1.00 20.00    -0.048 C 
HETATM    3  C7  UNL     1     -35.023  17.279   0.086  1.00 20.00     0.041 C 
HETATM    4  C8  UNL     1     -34.217  18.059   1.126  1.00 20.00     0.028 C 
HETATM    5  C9  UNL     1     -33.201  18.866   0.320  1.00 20.00     0.106 C 
HETATM    6 CL11 UNL     1     -31.658  19.013   1.174  1.00 20.00    -0.121 Cl
ENDROOT
BRANCH   2   7
HETATM    7  C4  UNL     1     -34.284  16.258  -2.201  1.00 20.00    -0.006 A 
HETATM    8  C1  UNL     1     -35.488  15.634  -2.606  1.00 20.00     0.038 A 
HETATM    9  C2  UNL     1     -35.170  14.871  -3.705  1.00 20.00     0.142 A 
HETATM   10  O10 UNL     1     -33.848  14.984  -4.000  1.00 20.00    -0.334 OA
HETATM   11  C3  UNL     1     -33.316  15.831  -3.080  1.00 20.00     0.153 A 
ENDBRANCH   2   7
TORSDOF 1
ENDMDL
MODEL 5
REMARK VINA RESULT:      -4.5      3.298      4.846
REMARK  1 active torsions:
REMARK  status: ('A' for Active; 'I' for Inactive)
REMARK    1  A    between atoms: C4_4  and  C6_6 
ROOT
HETATM    1  C5  UNL     1     -34.482  15.501  -2.374  1.00 20.00     0.001 C 
HETATM    2  C6  UNL     1     -34.076  16.754  -2.114  1.00 20.00    -0.048 C 
HETATM    3  C7  UNL     1     -33.675  17.453  -3.383  1.00 20.00     0.041 C 
HETATM    4  C8  UNL     1     -33.515  16.297  -4.372  1.00 20.00     0.028 C 
HETATM    5  C9  UNL     1     -34.409  15.183  -3.831  1.00 20.00     0.106 C 
HETATM    6 CL11 UNL     1     -33.707  13.584  -4.121  1.00 20.00    -0.121 Cl
ENDROOT
BRANCH   2   7
HETATM    7  C4  UNL     1     -34.052  17.421  -0.799  1.00 20.00    -0.006 A 
HETATM    8  C1  UNL     1     -34.973  17.289   0.268  1.00 20.00     0.038 A 
HETATM    9  C2  UNL     1     -34.514  18.112   1.270  1.00 20.00     0.142 A 
HETATM   10  O10 UNL     1     -33.372  18.740   0.887  1.00 20.00    -0.334 OA
HETATM   11  C3  UNL     1     -33.097  18.314  -0.373  1.00 20.00     0.153 A 
ENDBRANCH   2   7
TORSDOF 1
ENDMDL
MODEL 6
REMARK VINA RESULT:      -4.4     12.656     14.440
REMARK  1 active torsions:
REMARK  status: ('A' for Active; 'I' for Inactive)
REMARK    1  A    between atoms: C4_4  and  C6_6 
ROOT
HETATM    1  C5  UNL     1     -42.756   5.072  -2.851  1.00 20.00     0.001 C 
HETATM    2  C6  UNL     1     -42.015   4.035  -2.430  1.00 20.00    -0.048 C 
HETATM    3  C7  UNL     1     -41.105   4.458  -1.309  1.00 20.00     0.041 C 
HETATM    4  C8  UNL     1     -41.126   5.984  -1.412  1.00 20.00     0.028 C 
HETATM    5  C9  UNL     1     -42.452   6.320  -2.090  1.00 20.00     0.106 C 
HETATM    6 CL11 UNL     1     -42.303   7.723  -3.159  1.00 20.00    -0.121 Cl
ENDROOT
BRANCH   2   7
HETATM    7  C4  UNL     1     -42.074   2.647  -2.922  1.00 20.00    -0.006 A 
HETATM    8  C1  UNL     1     -41.176   1.988  -3.796  1.00 20.00     0.038 A 
HETATM    9  C2  UNL     1     -41.663   0.711  -3.950  1.00 20.00     0.142 A 
HETATM   10  O10 UNL     1     -42.802   0.543  -3.227  1.00 20.00    -0.334 OA
HETATM   11  C3  UNL     1     -43.045   1.726  -2.605  1.00 20.00     0.153 A 
ENDBRANCH   2   7
TORSDOF 1
ENDMDL
MODEL 7
REMARK VINA RESULT:      -4.4     12.945     14.707
REMARK  1 active torsions:
REMARK  status: ('A' for Active; 'I' for Inactive)
REMARK    1  A    between atoms: C4_4  and  C6_6 
ROOT
HETATM    1  C5  UNL     1     -41.050   4.219  -1.699  1.00 20.00     0.001 C 
HETATM    2  C6  UNL     1     -41.994   3.748  -2.529  1.00 20.00    -0.048 C 
HETATM    3  C7  UNL     1     -42.919   4.854  -2.958  1.00 20.00     0.041 C 
HETATM    4  C8  UNL     1     -42.628   5.955  -1.937  1.00 20.00     0.028 C 
HETATM    5  C9  UNL     1     -41.206   5.683  -1.451  1.00 20.00     0.106 C 
HETATM    6 CL11 UNL     1     -41.013   6.085   0.262  1.00 20.00    -0.121 Cl
ENDROOT
BRANCH   2   7
HETATM    7  C4  UNL     1     -42.126   2.366  -3.025  1.00 20.00    -0.006 A 
HETATM    8  C1  UNL     1     -41.320   1.695  -3.975  1.00 20.00     0.038 A 
HETATM    9  C2  UNL     1     -41.848   0.431  -4.097  1.00 20.00     0.142 A 
HETATM   10  O10 UNL     1     -42.927   0.282  -3.284  1.00 20.00    -0.334 OA
HETATM   11  C3  UNL     1     -43.089   1.465  -2.635  1.00 20.00     0.153 A 
ENDBRANCH   2   7
TORSDOF 1
ENDMDL
MODEL 8
REMARK VINA RESULT:      -4.4      1.412      1.804
REMARK  1 active torsions:
REMARK  status: ('A' for Active; 'I' for Inactive)
REMARK    1  A    between atoms: C4_4  and  C6_6 
ROOT
HETATM    1  C5  UNL     1     -34.764  16.665  -0.535  1.00 20.00     0.001 C 
HETATM    2  C6  UNL     1     -34.063  17.017  -1.624  1.00 20.00    -0.048 C 
HETATM    3  C7  UNL     1     -33.327  18.306  -1.383  1.00 20.00     0.041 C 
HETATM    4  C8  UNL     1     -34.023  18.868  -0.143  1.00 20.00     0.028 C 
HETATM    5  C9  UNL     1     -34.606  17.652   0.573  1.00 20.00     0.106 C 
HETATM    6 CL11 UNL     1     -36.153  18.028   1.346  1.00 20.00    -0.121 Cl
ENDROOT
BRANCH   2   7
HETATM    7  C4  UNL     1     -33.952  16.264  -2.887  1.00 20.00    -0.006 A 
HETATM    8  C1  UNL     1     -34.256  14.902  -3.125  1.00 20.00     0.038 A 
HETATM    9  C2  UNL     1     -33.987  14.679  -4.456  1.00 20.00     0.142 A 
HETATM   10  O10 UNL     1     -33.538  15.816  -5.050  1.00 20.00    -0.334 OA
HETATM   11  C3  UNL     1     -33.519  16.776  -4.088  1.00 20.00     0.153 A 
ENDBRANCH   2   7
TORSDOF 1
ENDMDL
MODEL 9
REMARK VINA RESULT:      -4.3      3.165      4.832
REMARK  1 active torsions:
REMARK  status: ('A' for Active; 'I' for Inactive)
REMARK    1  A    between atoms: C4_4  and  C6_6 
ROOT
HETATM    1  C5  UNL     1     -33.584  17.255  -4.110  1.00 20.00     0.001 C 
HETATM    2  C6  UNL     1     -33.795  16.552  -2.986  1.00 20.00    -0.048 C 
HETATM    3  C7  UNL     1     -33.813  15.078  -3.282  1.00 20.00     0.041 C 
HETATM    4  C8  UNL     1     -33.992  15.037  -4.800  1.00 20.00     0.028 C 
HETATM    5  C9  UNL     1     -33.437  16.368  -5.303  1.00 20.00     0.106 C 
HETATM    6 CL11 UNL     1     -34.351  16.975  -6.691  1.00 20.00    -0.121 Cl
ENDROOT
BRANCH   2   7
HETATM    7  C4  UNL     1     -33.946  17.090  -1.622  1.00 20.00    -0.006 A 
HETATM    8  C1  UNL     1     -33.248  18.166  -1.022  1.00 20.00     0.038 A 
HETATM    9  C2  UNL     1     -33.746  18.276   0.255  1.00 20.00     0.142 A 
HETATM   10  O10 UNL     1     -34.703  17.338   0.479  1.00 20.00    -0.334 OA
HETATM   11  C3  UNL     1     -34.819  16.620  -0.669  1.00 20.00     0.153 A 
ENDBRANCH   2   7
TORSDOF 1
ENDMDL
