MODEL 1
REMARK VINA RESULT:      -4.0      0.000      0.000
REMARK  2 active torsions:
REMARK  status: ('A' for Active; 'I' for Inactive)
REMARK    1  A    between atoms: C4_4  and  C5_5 
REMARK    2  A    between atoms: C4_4  and  C6_6 
ROOT
HETATM    1  C1  UNL     1     -32.185   7.931   2.306  1.00 20.00     0.063 C 
HETATM    2  C2  UNL     1     -32.142   5.493   2.587  1.00 20.00     0.025 C 
HETATM    3  C5  UNL     1     -32.290   6.841   3.297  1.00 20.00     0.090 C 
HETATM    4  N7  UNL     1     -32.101   8.788   1.529  1.00 20.00    -0.197 NA
ENDROOT
BRANCH   3   5
HETATM    5  C4  UNL     1     -33.637   6.898   4.048  1.00 20.00     0.034 C 
BRANCH   5   6
HETATM    6  C6  UNL     1     -33.782   5.885   5.192  1.00 20.00     0.055 C 
HETATM    7  C3  UNL     1     -34.089   6.577   6.514  1.00 20.00     0.022 C 
HETATM    8 BR8  UNL     1     -35.253   4.644   4.812  1.00 20.00    -0.092 Br
ENDBRANCH   5   6
ENDBRANCH   3   5
TORSDOF 2
ENDMDL
MODEL 2
REMARK VINA RESULT:      -3.9     11.055     11.570
REMARK  2 active torsions:
REMARK  status: ('A' for Active; 'I' for Inactive)
REMARK    1  A    between atoms: C4_4  and  C5_5 
REMARK    2  A    between atoms: C4_4  and  C6_6 
ROOT
HETATM    1  C1  UNL     1     -34.498  13.643  -4.236  1.00 20.00     0.063 C 
HETATM    2  C2  UNL     1     -32.415  14.715  -3.503  1.00 20.00     0.025 C 
HETATM    3  C5  UNL     1     -33.885  14.935  -3.870  1.00 20.00     0.090 C 
HETATM    4  N7  UNL     1     -34.980  12.629  -4.526  1.00 20.00    -0.197 NA
ENDROOT
BRANCH   3   5
HETATM    5  C4  UNL     1     -34.632  15.593  -2.691  1.00 20.00     0.034 C 
BRANCH   5   6
HETATM    6  C6  UNL     1     -33.852  16.700  -1.969  1.00 20.00     0.055 C 
HETATM    7  C3  UNL     1     -33.808  17.981  -2.794  1.00 20.00     0.022 C 
HETATM    8 BR8  UNL     1     -34.710  17.123  -0.256  1.00 20.00    -0.092 Br
ENDBRANCH   5   6
ENDBRANCH   3   5
TORSDOF 2
ENDMDL
MODEL 3
REMARK VINA RESULT:      -3.8     11.324     12.706
REMARK  2 active torsions:
REMARK  status: ('A' for Active; 'I' for Inactive)
REMARK    1  A    between atoms: C4_4  and  C5_5 
REMARK    2  A    between atoms: C4_4  and  C6_6 
ROOT
HETATM    1  C1  UNL     1     -34.438  13.746  -3.835  1.00 20.00     0.063 C 
HETATM    2  C2  UNL     1     -34.799  15.748  -2.460  1.00 20.00     0.025 C 
HETATM    3  C5  UNL     1     -33.774  14.926  -3.246  1.00 20.00     0.090 C 
HETATM    4  N7  UNL     1     -34.959  12.818  -4.295  1.00 20.00    -0.197 NA
ENDROOT
BRANCH   3   5
HETATM    5  C4  UNL     1     -33.119  15.800  -4.336  1.00 20.00     0.034 C 
BRANCH   5   6
HETATM    6  C6  UNL     1     -34.103  16.596  -5.203  1.00 20.00     0.055 C 
HETATM    7  C3  UNL     1     -33.591  18.005  -5.478  1.00 20.00     0.022 C 
HETATM    8 BR8  UNL     1     -34.353  15.704  -6.933  1.00 20.00    -0.092 Br
ENDBRANCH   5   6
ENDBRANCH   3   5
TORSDOF 2
ENDMDL
MODEL 4
REMARK VINA RESULT:      -3.8     11.589     11.866
REMARK  2 active torsions:
REMARK  status: ('A' for Active; 'I' for Inactive)
REMARK    1  A    between atoms: C4_4  and  C5_5 
REMARK    2  A    between atoms: C4_4  and  C6_6 
ROOT
HETATM    1  C1  UNL     1     -36.704  14.442  -3.973  1.00 20.00     0.063 C 
HETATM    2  C2  UNL     1     -34.701  13.234  -4.719  1.00 20.00     0.025 C 
HETATM    3  C5  UNL     1     -35.260  14.579  -4.248  1.00 20.00     0.090 C 
HETATM    4  N7  UNL     1     -37.839  14.335  -3.759  1.00 20.00    -0.197 NA
ENDROOT
BRANCH   3   5
HETATM    5  C4  UNL     1     -34.496  15.059  -2.996  1.00 20.00     0.034 C 
BRANCH   5   6
HETATM    6  C6  UNL     1     -34.953  16.414  -2.440  1.00 20.00     0.055 C 
HETATM    7  C3  UNL     1     -34.616  16.553  -0.961  1.00 20.00     0.022 C 
HETATM    8 BR8  UNL     1     -34.056  17.874  -3.396  1.00 20.00    -0.092 Br
ENDBRANCH   5   6
ENDBRANCH   3   5
TORSDOF 2
ENDMDL
MODEL 5
REMARK VINA RESULT:      -3.7      1.427      1.620
REMARK  2 active torsions:
REMARK  status: ('A' for Active; 'I' for Inactive)
REMARK    1  A    between atoms: C4_4  and  C5_5 
REMARK    2  A    between atoms: C4_4  and  C6_6 
ROOT
HETATM    1  C1  UNL     1     -32.479   7.564   2.695  1.00 20.00     0.063 C 
HETATM    2  C2  UNL     1     -31.936   5.206   3.105  1.00 20.00     0.025 C 
HETATM    3  C5  UNL     1     -32.798   6.394   3.537  1.00 20.00     0.090 C 
HETATM    4  N7  UNL     1     -32.228   8.485   2.036  1.00 20.00    -0.197 NA
ENDROOT
BRANCH   3   5
HETATM    5  C4  UNL     1     -34.293   6.026   3.438  1.00 20.00     0.034 C 
BRANCH   5   6
HETATM    6  C6  UNL     1     -34.950   5.625   4.766  1.00 20.00     0.055 C 
HETATM    7  C3  UNL     1     -34.956   4.113   4.952  1.00 20.00     0.022 C 
HETATM    8 BR8  UNL     1     -33.962   6.407   6.270  1.00 20.00    -0.092 Br
ENDBRANCH   5   6
ENDBRANCH   3   5
TORSDOF 2
ENDMDL
MODEL 6
REMARK VINA RESULT:      -3.7     11.623     12.734
REMARK  2 active torsions:
REMARK  status: ('A' for Active; 'I' for Inactive)
REMARK    1  A    between atoms: C4_4  and  C5_5 
REMARK    2  A    between atoms: C4_4  and  C6_6 
ROOT
HETATM    1  C1  UNL     1     -34.699  13.822  -4.994  1.00 20.00     0.063 C 
HETATM    2  C2  UNL     1     -34.310  15.127  -7.036  1.00 20.00     0.025 C 
HETATM    3  C5  UNL     1     -34.558  15.192  -5.527  1.00 20.00     0.090 C 
HETATM    4  N7  UNL     1     -34.812  12.747  -4.575  1.00 20.00    -0.197 NA
ENDROOT
BRANCH   3   5
HETATM    5  C4  UNL     1     -33.403  15.945  -4.834  1.00 20.00     0.034 C 
BRANCH   5   6
HETATM    6  C6  UNL     1     -33.841  17.070  -3.886  1.00 20.00     0.055 C 
HETATM    7  C3  UNL     1     -35.087  17.780  -4.402  1.00 20.00     0.022 C 
HETATM    8 BR8  UNL     1     -34.262  16.336  -2.116  1.00 20.00    -0.092 Br
ENDBRANCH   5   6
ENDBRANCH   3   5
TORSDOF 2
ENDMDL
MODEL 7
REMARK VINA RESULT:      -3.6      3.170      4.452
REMARK  2 active torsions:
REMARK  status: ('A' for Active; 'I' for Inactive)
REMARK    1  A    between atoms: C4_4  and  C5_5 
REMARK    2  A    between atoms: C4_4  and  C6_6 
ROOT
HETATM    1  C1  UNL     1     -34.615   4.707   5.241  1.00 20.00     0.063 C 
HETATM    2  C2  UNL     1     -34.110   6.711   6.565  1.00 20.00     0.025 C 
HETATM    3  C5  UNL     1     -33.689   5.848   5.372  1.00 20.00     0.090 C 
HETATM    4  N7  UNL     1     -35.342   3.808   5.138  1.00 20.00    -0.197 NA
ENDROOT
BRANCH   3   5
HETATM    5  C4  UNL     1     -33.666   6.700   4.086  1.00 20.00     0.034 C 
BRANCH   5   6
HETATM    6  C6  UNL     1     -32.335   6.683   3.322  1.00 20.00     0.055 C 
HETATM    7  C3  UNL     1     -32.203   5.435   2.458  1.00 20.00     0.022 C 
HETATM    8 BR8  UNL     1     -32.216   8.243   2.138  1.00 20.00    -0.092 Br
ENDBRANCH   5   6
ENDBRANCH   3   5
TORSDOF 2
ENDMDL
MODEL 8
REMARK VINA RESULT:      -3.6      2.951      4.071
REMARK  2 active torsions:
REMARK  status: ('A' for Active; 'I' for Inactive)
REMARK    1  A    between atoms: C4_4  and  C5_5 
REMARK    2  A    between atoms: C4_4  and  C6_6 
ROOT
HETATM    1  C1  UNL     1     -34.016   6.494   6.354  1.00 20.00     0.063 C 
HETATM    2  C2  UNL     1     -34.458   4.133   5.845  1.00 20.00     0.025 C 
HETATM    3  C5  UNL     1     -34.913   5.578   5.621  1.00 20.00     0.090 C 
HETATM    4  N7  UNL     1     -33.314   7.213   6.931  1.00 20.00    -0.197 NA
ENDROOT
BRANCH   3   5
HETATM    5  C4  UNL     1     -34.927   5.899   4.112  1.00 20.00     0.034 C 
BRANCH   5   6
HETATM    6  C6  UNL     1     -33.673   5.457   3.345  1.00 20.00     0.055 C 
HETATM    7  C3  UNL     1     -34.025   4.920   1.963  1.00 20.00     0.022 C 
HETATM    8 BR8  UNL     1     -32.459   6.978   3.101  1.00 20.00    -0.092 Br
ENDBRANCH   5   6
ENDBRANCH   3   5
TORSDOF 2
ENDMDL
MODEL 9
REMARK VINA RESULT:      -3.5     11.667     12.774
REMARK  2 active torsions:
REMARK  status: ('A' for Active; 'I' for Inactive)
REMARK    1  A    between atoms: C4_4  and  C5_5 
REMARK    2  A    between atoms: C4_4  and  C6_6 
ROOT
HETATM    1  C1  UNL     1     -35.922  14.516  -3.582  1.00 20.00     0.063 C 
HETATM    2  C2  UNL     1     -34.659  16.036  -2.125  1.00 20.00     0.025 C 
HETATM    3  C5  UNL     1     -34.566  14.888  -3.134  1.00 20.00     0.090 C 
HETATM    4  N7  UNL     1     -36.988  14.222  -3.933  1.00 20.00    -0.197 NA
ENDROOT
BRANCH   3   5
HETATM    5  C4  UNL     1     -33.678  15.302  -4.326  1.00 20.00     0.034 C 
BRANCH   5   6
HETATM    6  C6  UNL     1     -34.372  16.183  -5.373  1.00 20.00     0.055 C 
HETATM    7  C3  UNL     1     -33.604  17.477  -5.612  1.00 20.00     0.022 C 
HETATM    8 BR8  UNL     1     -34.485  15.232  -7.086  1.00 20.00    -0.092 Br
ENDBRANCH   5   6
ENDBRANCH   3   5
TORSDOF 2
ENDMDL
