MODEL 1
REMARK VINA RESULT:      -5.0      0.000      0.000
REMARK  1 active torsions:
REMARK  status: ('A' for Active; 'I' for Inactive)
REMARK    1  A    between atoms: C6_6  and  O11_11 
ROOT
HETATM    1  C1  UNL     1     -37.454  14.593  -3.793  1.00 20.00     0.095 C 
HETATM    2  C2  UNL     1     -35.178  14.118  -4.342  1.00 20.00     0.022 C 
HETATM    3  C3  UNL     1     -36.059  14.847  -3.634  1.00 20.00     0.021 C 
HETATM    4  C4  UNL     1     -35.619  15.933  -2.679  1.00 20.00     0.058 C 
HETATM    5  C5  UNL     1     -33.252  15.184  -3.081  1.00 20.00     0.045 C 
HETATM    6  C6  UNL     1     -33.691  14.300  -4.254  1.00 20.00     0.143 C 
HETATM    7  C7  UNL     1     -34.160  16.415  -2.886  1.00 20.00    -0.041 C 
HETATM    8  C8  UNL     1     -34.070  17.361  -4.099  1.00 20.00     0.015 C 
HETATM    9  C9  UNL     1     -33.702  17.192  -1.639  1.00 20.00     0.015 C 
HETATM   10  N10 UNL     1     -38.588  14.388  -3.923  1.00 20.00    -0.192 NA
ENDROOT
BRANCH   6  11
HETATM   11  O11 UNL     1     -33.085  13.016  -4.119  1.00 20.00    -0.392 OA
HETATM   12  H24 UNL     1     -32.646  13.008  -3.255  1.00 20.00     0.210 HD
ENDBRANCH   6  11
TORSDOF 1
ENDMDL
MODEL 2
REMARK VINA RESULT:      -4.8      2.695      3.823
REMARK  1 active torsions:
REMARK  status: ('A' for Active; 'I' for Inactive)
REMARK    1  A    between atoms: C6_6  and  O11_11 
ROOT
HETATM    1  C1  UNL     1     -34.659  16.774  -0.922  1.00 20.00     0.095 C 
HETATM    2  C2  UNL     1     -33.641  17.070  -3.062  1.00 20.00     0.022 C 
HETATM    3  C3  UNL     1     -34.411  16.322  -2.252  1.00 20.00     0.021 C 
HETATM    4  C4  UNL     1     -35.016  15.013  -2.703  1.00 20.00     0.058 C 
HETATM    5  C5  UNL     1     -34.163  15.533  -5.011  1.00 20.00     0.045 C 
HETATM    6  C6  UNL     1     -33.315  16.693  -4.478  1.00 20.00     0.143 C 
HETATM    7  C7  UNL     1     -34.364  14.409  -3.974  1.00 20.00    -0.041 C 
HETATM    8  C8  UNL     1     -33.020  13.738  -3.626  1.00 20.00     0.015 C 
HETATM    9  C9  UNL     1     -35.296  13.335  -4.561  1.00 20.00     0.015 C 
HETATM   10  N10 UNL     1     -34.860  17.140   0.160  1.00 20.00    -0.192 NA
ENDROOT
BRANCH   6  11
HETATM   11  O11 UNL     1     -33.515  17.834  -5.309  1.00 20.00    -0.392 OA
HETATM   12  H24 UNL     1     -34.225  17.603  -5.928  1.00 20.00     0.210 HD
ENDBRANCH   6  11
TORSDOF 1
ENDMDL
MODEL 3
REMARK VINA RESULT:      -4.8      1.314      1.520
REMARK  1 active torsions:
REMARK  status: ('A' for Active; 'I' for Inactive)
REMARK    1  A    between atoms: C6_6  and  O11_11 
ROOT
HETATM    1  C1  UNL     1     -37.478  14.590  -3.926  1.00 20.00     0.095 C 
HETATM    2  C2  UNL     1     -35.258  13.741  -4.157  1.00 20.00     0.022 C 
HETATM    3  C3  UNL     1     -36.081  14.803  -4.118  1.00 20.00     0.021 C 
HETATM    4  C4  UNL     1     -35.575  16.218  -4.279  1.00 20.00     0.058 C 
HETATM    5  C5  UNL     1     -33.242  15.280  -4.219  1.00 20.00     0.045 C 
HETATM    6  C6  UNL     1     -33.773  13.848  -4.354  1.00 20.00     0.143 C 
HETATM    7  C7  UNL     1     -34.155  16.325  -4.893  1.00 20.00    -0.041 C 
HETATM    8  C8  UNL     1     -34.207  16.106  -6.417  1.00 20.00     0.015 C 
HETATM    9  C9  UNL     1     -33.594  17.734  -4.631  1.00 20.00     0.015 C 
HETATM   10  N10 UNL     1     -38.614  14.416  -3.771  1.00 20.00    -0.192 NA
ENDROOT
BRANCH   6  11
HETATM   11  O11 UNL     1     -33.127  13.021  -3.390  1.00 20.00    -0.392 OA
HETATM   12  H24 UNL     1     -33.780  12.360  -3.112  1.00 20.00     0.210 HD
ENDBRANCH   6  11
TORSDOF 1
ENDMDL
MODEL 4
REMARK VINA RESULT:      -4.7      2.569      3.557
REMARK  1 active torsions:
REMARK  status: ('A' for Active; 'I' for Inactive)
REMARK    1  A    between atoms: C6_6  and  O11_11 
ROOT
HETATM    1  C1  UNL     1     -34.013  16.607  -2.150  1.00 20.00     0.095 C 
HETATM    2  C2  UNL     1     -35.037  14.714  -3.186  1.00 20.00     0.022 C 
HETATM    3  C3  UNL     1     -34.433  15.908  -3.320  1.00 20.00     0.021 C 
HETATM    4  C4  UNL     1     -34.190  16.537  -4.672  1.00 20.00     0.058 C 
HETATM    5  C5  UNL     1     -35.009  14.394  -5.702  1.00 20.00     0.045 C 
HETATM    6  C6  UNL     1     -35.519  13.893  -4.346  1.00 20.00     0.143 C 
HETATM    7  C7  UNL     1     -35.035  15.931  -5.823  1.00 20.00    -0.041 C 
HETATM    8  C8  UNL     1     -36.482  16.461  -5.768  1.00 20.00     0.015 C 
HETATM    9  C9  UNL     1     -34.425  16.346  -7.173  1.00 20.00     0.015 C 
HETATM   10  N10 UNL     1     -33.672  17.176  -1.198  1.00 20.00    -0.192 NA
ENDROOT
BRANCH   6  11
HETATM   11  O11 UNL     1     -35.090  12.547  -4.157  1.00 20.00    -0.392 OA
HETATM   12  H24 UNL     1     -35.396  12.281  -3.276  1.00 20.00     0.210 HD
ENDBRANCH   6  11
TORSDOF 1
ENDMDL
MODEL 5
REMARK VINA RESULT:      -4.7      2.422      2.883
REMARK  1 active torsions:
REMARK  status: ('A' for Active; 'I' for Inactive)
REMARK    1  A    between atoms: C6_6  and  O11_11 
ROOT
HETATM    1  C1  UNL     1     -34.632  13.790  -4.463  1.00 20.00     0.095 C 
HETATM    2  C2  UNL     1     -34.284  16.106  -4.934  1.00 20.00     0.022 C 
HETATM    3  C3  UNL     1     -34.453  15.134  -4.020  1.00 20.00     0.021 C 
HETATM    4  C4  UNL     1     -34.466  15.421  -2.536  1.00 20.00     0.058 C 
HETATM    5  C5  UNL     1     -33.808  17.784  -3.092  1.00 20.00     0.045 C 
HETATM    6  C6  UNL     1     -34.087  17.552  -4.582  1.00 20.00     0.143 C 
HETATM    7  C7  UNL     1     -34.689  16.912  -2.173  1.00 20.00    -0.041 C 
HETATM    8  C8  UNL     1     -36.176  17.289  -2.321  1.00 20.00     0.015 C 
HETATM    9  C9  UNL     1     -34.281  17.144  -0.708  1.00 20.00     0.015 C 
HETATM   10  N10 UNL     1     -34.780  12.697  -4.823  1.00 20.00    -0.192 NA
ENDROOT
BRANCH   6  11
HETATM   11  O11 UNL     1     -32.994  18.058  -5.343  1.00 20.00    -0.392 OA
HETATM   12  H24 UNL     1     -32.224  17.515  -5.115  1.00 20.00     0.210 HD
ENDBRANCH   6  11
TORSDOF 1
ENDMDL
MODEL 6
REMARK VINA RESULT:      -4.6     11.724     12.991
REMARK  1 active torsions:
REMARK  status: ('A' for Active; 'I' for Inactive)
REMARK    1  A    between atoms: C6_6  and  O11_11 
ROOT
HETATM    1  C1  UNL     1     -41.917   2.491  -3.040  1.00 20.00     0.095 C 
HETATM    2  C2  UNL     1     -42.965   4.633  -3.180  1.00 20.00     0.022 C 
HETATM    3  C3  UNL     1     -42.040   3.844  -2.606  1.00 20.00     0.021 C 
HETATM    4  C4  UNL     1     -41.128   4.343  -1.508  1.00 20.00     0.058 C 
HETATM    5  C5  UNL     1     -42.070   6.640  -1.913  1.00 20.00     0.045 C 
HETATM    6  C6  UNL     1     -43.181   6.070  -2.802  1.00 20.00     0.143 C 
HETATM    7  C7  UNL     1     -41.605   5.651  -0.824  1.00 20.00    -0.041 C 
HETATM    8  C8  UNL     1     -42.744   5.356   0.171  1.00 20.00     0.015 C 
HETATM    9  C9  UNL     1     -40.433   6.269  -0.041  1.00 20.00     0.015 C 
HETATM   10  N10 UNL     1     -41.819   1.390  -3.393  1.00 20.00    -0.192 NA
ENDROOT
BRANCH   6  11
HETATM   11  O11 UNL     1     -43.263   6.845  -3.996  1.00 20.00    -0.392 OA
HETATM   12  H24 UNL     1     -44.134   7.270  -3.988  1.00 20.00     0.210 HD
ENDBRANCH   6  11
TORSDOF 1
ENDMDL
MODEL 7
REMARK VINA RESULT:      -4.6      2.850      4.052
REMARK  1 active torsions:
REMARK  status: ('A' for Active; 'I' for Inactive)
REMARK    1  A    between atoms: C6_6  and  O11_11 
ROOT
HETATM    1  C1  UNL     1     -34.170  16.872  -1.434  1.00 20.00     0.095 C 
HETATM    2  C2  UNL     1     -36.191  16.294  -2.566  1.00 20.00     0.022 C 
HETATM    3  C3  UNL     1     -34.881  16.065  -2.370  1.00 20.00     0.021 C 
HETATM    4  C4  UNL     1     -34.135  14.982  -3.115  1.00 20.00     0.058 C 
HETATM    5  C5  UNL     1     -36.351  14.240  -4.046  1.00 20.00     0.045 C 
HETATM    6  C6  UNL     1     -37.037  15.508  -3.525  1.00 20.00     0.143 C 
HETATM    7  C7  UNL     1     -34.861  14.459  -4.381  1.00 20.00    -0.041 C 
HETATM    8  C8  UNL     1     -34.702  15.455  -5.547  1.00 20.00     0.015 C 
HETATM    9  C9  UNL     1     -34.234  13.120  -4.808  1.00 20.00     0.015 C 
HETATM   10  N10 UNL     1     -33.590  17.529  -0.673  1.00 20.00    -0.192 NA
ENDROOT
BRANCH   6  11
HETATM   11  O11 UNL     1     -38.248  15.143  -2.867  1.00 20.00    -0.392 OA
HETATM   12  H24 UNL     1     -38.488  15.890  -2.297  1.00 20.00     0.210 HD
ENDBRANCH   6  11
TORSDOF 1
ENDMDL
MODEL 8
REMARK VINA RESULT:      -4.6      1.730      1.776
REMARK  1 active torsions:
REMARK  status: ('A' for Active; 'I' for Inactive)
REMARK    1  A    between atoms: C6_6  and  O11_11 
ROOT
HETATM    1  C1  UNL     1     -37.494  16.380  -5.573  1.00 20.00     0.095 C 
HETATM    2  C2  UNL     1     -36.025  14.537  -5.187  1.00 20.00     0.022 C 
HETATM    3  C3  UNL     1     -36.401  15.789  -4.873  1.00 20.00     0.021 C 
HETATM    4  C4  UNL     1     -35.697  16.595  -3.806  1.00 20.00     0.058 C 
HETATM    5  C5  UNL     1     -34.385  14.522  -3.252  1.00 20.00     0.045 C 
HETATM    6  C6  UNL     1     -34.891  13.818  -4.516  1.00 20.00     0.143 C 
HETATM    7  C7  UNL     1     -34.298  16.053  -3.412  1.00 20.00    -0.041 C 
HETATM    8  C8  UNL     1     -33.251  16.435  -4.476  1.00 20.00     0.015 C 
HETATM    9  C9  UNL     1     -33.870  16.681  -2.074  1.00 20.00     0.015 C 
HETATM   10  N10 UNL     1     -38.381  16.862  -6.144  1.00 20.00    -0.192 NA
ENDROOT
BRANCH   6  11
HETATM   11  O11 UNL     1     -35.328  12.505  -4.172  1.00 20.00    -0.392 OA
HETATM   12  H24 UNL     1     -35.307  12.452  -3.204  1.00 20.00     0.210 HD
ENDBRANCH   6  11
TORSDOF 1
ENDMDL
MODEL 9
REMARK VINA RESULT:      -4.6      2.406      3.534
REMARK  1 active torsions:
REMARK  status: ('A' for Active; 'I' for Inactive)
REMARK    1  A    between atoms: C6_6  and  O11_11 
ROOT
HETATM    1  C1  UNL     1     -34.744  16.755  -0.934  1.00 20.00     0.095 C 
HETATM    2  C2  UNL     1     -33.662  15.767  -2.820  1.00 20.00     0.022 C 
HETATM    3  C3  UNL     1     -34.758  16.348  -2.300  1.00 20.00     0.021 C 
HETATM    4  C4  UNL     1     -36.009  16.577  -3.117  1.00 20.00     0.058 C 
HETATM    5  C5  UNL     1     -34.714  15.800  -5.128  1.00 20.00     0.045 C 
HETATM    6  C6  UNL     1     -33.566  15.300  -4.244  1.00 20.00     0.143 C 
HETATM    7  C7  UNL     1     -36.084  15.743  -4.422  1.00 20.00    -0.041 C 
HETATM    8  C8  UNL     1     -36.481  14.286  -4.111  1.00 20.00     0.015 C 
HETATM    9  C9  UNL     1     -37.158  16.344  -5.346  1.00 20.00     0.015 C 
HETATM   10  N10 UNL     1     -34.733  17.085   0.179  1.00 20.00    -0.192 NA
ENDROOT
BRANCH   6  11
HETATM   11  O11 UNL     1     -32.330  15.756  -4.787  1.00 20.00    -0.392 OA
HETATM   12  H24 UNL     1     -31.715  15.840  -4.042  1.00 20.00     0.210 HD
ENDBRANCH   6  11
TORSDOF 1
ENDMDL
