MODEL 1
REMARK VINA RESULT:      -4.5      0.000      0.000
REMARK  0 active torsions:
REMARK  status: ('A' for Active; 'I' for Inactive)
ROOT
HETATM    1  C1  UNL     1     -32.437   7.466   2.542  1.00 20.00     0.064 C 
HETATM    2  C2  UNL     1     -33.991   5.520   2.596  1.00 20.00     0.021 C 
HETATM    3  C3  UNL     1     -34.969   5.473   3.766  1.00 20.00     0.021 C 
HETATM    4  C4  UNL     1     -32.921   6.279   4.669  1.00 20.00     0.039 C 
HETATM    5  C5  UNL     1     -32.705   6.158   3.152  1.00 20.00     0.094 C 
HETATM    6  C6  UNL     1     -34.052   5.304   4.966  1.00 20.00     0.083 C 
HETATM    7  N7  UNL     1     -32.225   8.501   2.060  1.00 20.00    -0.197 NA
HETATM    8 CL8  UNL     1     -34.869   5.665   6.493  1.00 20.00    -0.125 Cl
ENDROOT
TORSDOF 0
ENDMDL
MODEL 2
REMARK VINA RESULT:      -4.1      3.031      3.700
REMARK  0 active torsions:
REMARK  status: ('A' for Active; 'I' for Inactive)
ROOT
HETATM    1  C1  UNL     1     -34.971   4.580   5.054  1.00 20.00     0.064 C 
HETATM    2  C2  UNL     1     -34.220   5.239   2.773  1.00 20.00     0.021 C 
HETATM    3  C3  UNL     1     -32.793   5.770   2.661  1.00 20.00     0.021 C 
HETATM    4  C4  UNL     1     -33.655   6.655   4.695  1.00 20.00     0.039 C 
HETATM    5  C5  UNL     1     -34.734   5.709   4.145  1.00 20.00     0.094 C 
HETATM    6  C6  UNL     1     -32.848   7.057   3.467  1.00 20.00     0.083 C 
HETATM    7  N7  UNL     1     -35.158   3.688   5.774  1.00 20.00    -0.197 NA
HETATM    8 CL8  UNL     1     -31.238   7.658   3.886  1.00 20.00    -0.125 Cl
ENDROOT
TORSDOF 0
ENDMDL
MODEL 3
REMARK VINA RESULT:      -4.0     11.638     12.657
REMARK  0 active torsions:
REMARK  status: ('A' for Active; 'I' for Inactive)
ROOT
HETATM    1  C1  UNL     1     -34.448  13.715  -3.939  1.00 20.00     0.064 C 
HETATM    2  C2  UNL     1     -34.828  15.720  -2.512  1.00 20.00     0.021 C 
HETATM    3  C3  UNL     1     -34.961  17.053  -3.245  1.00 20.00     0.021 C 
HETATM    4  C4  UNL     1     -33.261  15.849  -4.395  1.00 20.00     0.039 C 
HETATM    5  C5  UNL     1     -33.819  14.894  -3.328  1.00 20.00     0.094 C 
HETATM    6  C6  UNL     1     -33.584  17.238  -3.861  1.00 20.00     0.083 C 
HETATM    7  N7  UNL     1     -34.943  12.783  -4.422  1.00 20.00    -0.197 NA
HETATM    8 CL8  UNL     1     -33.575  18.468  -5.132  1.00 20.00    -0.125 Cl
ENDROOT
TORSDOF 0
ENDMDL
MODEL 4
REMARK VINA RESULT:      -3.9     11.322     11.842
REMARK  0 active torsions:
REMARK  status: ('A' for Active; 'I' for Inactive)
ROOT
HETATM    1  C1  UNL     1     -34.862  13.748  -4.581  1.00 20.00     0.064 C 
HETATM    2  C2  UNL     1     -33.550  15.841  -4.266  1.00 20.00     0.021 C 
HETATM    3  C3  UNL     1     -33.289  16.262  -2.822  1.00 20.00     0.021 C 
HETATM    4  C4  UNL     1     -35.512  15.414  -2.857  1.00 20.00     0.039 C 
HETATM    5  C5  UNL     1     -34.940  15.180  -4.264  1.00 20.00     0.094 C 
HETATM    6  C6  UNL     1     -34.684  16.565  -2.302  1.00 20.00     0.083 C 
HETATM    7  N7  UNL     1     -34.802  12.616  -4.831  1.00 20.00    -0.197 NA
HETATM    8 CL8  UNL     1     -34.740  16.646  -0.535  1.00 20.00    -0.125 Cl
ENDROOT
TORSDOF 0
ENDMDL
MODEL 5
REMARK VINA RESULT:      -3.7     11.849     12.833
REMARK  0 active torsions:
REMARK  status: ('A' for Active; 'I' for Inactive)
ROOT
HETATM    1  C1  UNL     1     -36.730  14.385  -4.079  1.00 20.00     0.064 C 
HETATM    2  C2  UNL     1     -34.341  14.452  -3.378  1.00 20.00     0.021 C 
HETATM    3  C3  UNL     1     -33.664  15.819  -3.426  1.00 20.00     0.021 C 
HETATM    4  C4  UNL     1     -35.066  15.725  -5.346  1.00 20.00     0.039 C 
HETATM    5  C5  UNL     1     -35.339  14.440  -4.549  1.00 20.00     0.094 C 
HETATM    6  C6  UNL     1     -33.670  16.146  -4.910  1.00 20.00     0.083 C 
HETATM    7  N7  UNL     1     -37.829  14.342  -3.709  1.00 20.00    -0.197 NA
HETATM    8 CL8  UNL     1     -33.354  17.859  -5.223  1.00 20.00    -0.125 Cl
ENDROOT
TORSDOF 0
ENDMDL
MODEL 6
REMARK VINA RESULT:      -3.6     11.425     12.496
REMARK  0 active torsions:
REMARK  status: ('A' for Active; 'I' for Inactive)
ROOT
HETATM    1  C1  UNL     1     -35.747  14.700  -6.737  1.00 20.00     0.064 C 
HETATM    2  C2  UNL     1     -34.641  13.278  -5.018  1.00 20.00     0.021 C 
HETATM    3  C3  UNL     1     -34.538  13.873  -3.616  1.00 20.00     0.021 C 
HETATM    4  C4  UNL     1     -34.138  15.677  -5.116  1.00 20.00     0.039 C 
HETATM    5  C5  UNL     1     -34.506  14.465  -5.987  1.00 20.00     0.094 C 
HETATM    6  C6  UNL     1     -33.617  15.064  -3.823  1.00 20.00     0.083 C 
HETATM    7  N7  UNL     1     -36.727  14.887  -7.330  1.00 20.00    -0.197 NA
HETATM    8 CL8  UNL     1     -33.673  16.201  -2.469  1.00 20.00    -0.125 Cl
ENDROOT
TORSDOF 0
ENDMDL
MODEL 7
REMARK VINA RESULT:      -3.6     11.652     12.266
REMARK  0 active torsions:
REMARK  status: ('A' for Active; 'I' for Inactive)
ROOT
HETATM    1  C1  UNL     1     -37.632  14.811  -4.065  1.00 20.00     0.064 C 
HETATM    2  C2  UNL     1     -35.863  14.914  -5.815  1.00 20.00     0.021 C 
HETATM    3  C3  UNL     1     -34.620  14.064  -5.566  1.00 20.00     0.021 C 
HETATM    4  C4  UNL     1     -35.232  14.951  -3.444  1.00 20.00     0.039 C 
HETATM    5  C5  UNL     1     -36.330  15.386  -4.426  1.00 20.00     0.094 C 
HETATM    6  C6  UNL     1     -34.016  14.704  -4.328  1.00 20.00     0.083 C 
HETATM    7  N7  UNL     1     -38.661  14.357  -3.778  1.00 20.00    -0.197 NA
HETATM    8 CL8  UNL     1     -32.817  13.662  -3.549  1.00 20.00    -0.125 Cl
ENDROOT
TORSDOF 0
ENDMDL
MODEL 8
REMARK VINA RESULT:      -3.6     10.100     10.981
REMARK  0 active torsions:
REMARK  status: ('A' for Active; 'I' for Inactive)
ROOT
HETATM    1  C1  UNL     1     -41.563   2.559  -3.247  1.00 20.00     0.064 C 
HETATM    2  C2  UNL     1     -43.236   4.396  -3.073  1.00 20.00     0.021 C 
HETATM    3  C3  UNL     1     -42.676   5.798  -2.851  1.00 20.00     0.021 C 
HETATM    4  C4  UNL     1     -41.324   4.346  -1.538  1.00 20.00     0.039 C 
HETATM    5  C5  UNL     1     -42.287   3.444  -2.324  1.00 20.00     0.094 C 
HETATM    6  C6  UNL     1     -42.035   5.691  -1.477  1.00 20.00     0.083 C 
HETATM    7  N7  UNL     1     -40.990   1.860  -3.975  1.00 20.00    -0.197 NA
HETATM    8 CL8  UNL     1     -40.923   7.027  -1.148  1.00 20.00    -0.125 Cl
ENDROOT
TORSDOF 0
ENDMDL
MODEL 9
REMARK VINA RESULT:      -3.6     11.706     12.095
REMARK  0 active torsions:
REMARK  status: ('A' for Active; 'I' for Inactive)
ROOT
HETATM    1  C1  UNL     1     -34.456  14.597  -6.169  1.00 20.00     0.064 C 
HETATM    2  C2  UNL     1     -35.869  14.281  -4.143  1.00 20.00     0.021 C 
HETATM    3  C3  UNL     1     -35.814  15.397  -3.103  1.00 20.00     0.021 C 
HETATM    4  C4  UNL     1     -33.589  15.155  -3.910  1.00 20.00     0.039 C 
HETATM    5  C5  UNL     1     -34.458  14.209  -4.753  1.00 20.00     0.094 C 
HETATM    6  C6  UNL     1     -34.375  15.336  -2.619  1.00 20.00     0.083 C 
HETATM    7  N7  UNL     1     -34.453  14.904  -7.289  1.00 20.00    -0.197 NA
HETATM    8 CL8  UNL     1     -33.900  16.795  -1.738  1.00 20.00    -0.125 Cl
ENDROOT
TORSDOF 0
ENDMDL
