MODEL 1
REMARK VINA RESULT:      -4.1      0.000      0.000
REMARK  2 active torsions:
REMARK  status: ('A' for Active; 'I' for Inactive)
REMARK    1  A    between atoms: C4_4  and  C5_5 
REMARK    2  A    between atoms: C4_4  and  C6_6 
ROOT
HETATM    1  C1  UNL     1     -32.111   8.054   1.972  1.00 20.00     0.063 C 
HETATM    2  C2  UNL     1     -31.306   7.589   4.245  1.00 20.00     0.025 C 
HETATM    3  C5  UNL     1     -32.180   7.094   3.089  1.00 20.00     0.090 C 
HETATM    4  N7  UNL     1     -32.054   8.807   1.091  1.00 20.00    -0.197 NA
ENDROOT
BRANCH   3   5
HETATM    5  C4  UNL     1     -33.631   6.902   3.572  1.00 20.00     0.038 C 
BRANCH   5   6
HETATM    6  C6  UNL     1     -33.829   5.806   4.635  1.00 20.00     0.079 C 
HETATM    7  C3  UNL     1     -35.071   4.974   4.335  1.00 20.00     0.026 C 
HETATM    8 CL8  UNL     1     -33.993   6.518   6.269  1.00 20.00    -0.125 Cl
ENDBRANCH   5   6
ENDBRANCH   3   5
TORSDOF 2
ENDMDL
MODEL 2
REMARK VINA RESULT:      -3.9     10.817     11.401
REMARK  2 active torsions:
REMARK  status: ('A' for Active; 'I' for Inactive)
REMARK    1  A    between atoms: C4_4  and  C5_5 
REMARK    2  A    between atoms: C4_4  and  C6_6 
ROOT
HETATM    1  C1  UNL     1     -34.320  13.851  -3.830  1.00 20.00     0.063 C 
HETATM    2  C2  UNL     1     -33.231  15.926  -4.563  1.00 20.00     0.025 C 
HETATM    3  C5  UNL     1     -33.671  15.090  -3.360  1.00 20.00     0.090 C 
HETATM    4  N7  UNL     1     -34.827  12.875  -4.200  1.00 20.00    -0.197 NA
ENDROOT
BRANCH   3   5
HETATM    5  C4  UNL     1     -34.621  15.913  -2.466  1.00 20.00     0.038 C 
BRANCH   5   6
HETATM    6  C6  UNL     1     -33.926  16.843  -1.454  1.00 20.00     0.079 C 
HETATM    7  C3  UNL     1     -34.776  17.012  -0.199  1.00 20.00     0.026 C 
HETATM    8 CL8  UNL     1     -33.624  18.456  -2.167  1.00 20.00    -0.125 Cl
ENDBRANCH   5   6
ENDBRANCH   3   5
TORSDOF 2
ENDMDL
MODEL 3
REMARK VINA RESULT:      -3.8      1.649      2.263
REMARK  2 active torsions:
REMARK  status: ('A' for Active; 'I' for Inactive)
REMARK    1  A    between atoms: C4_4  and  C5_5 
REMARK    2  A    between atoms: C4_4  and  C6_6 
ROOT
HETATM    1  C1  UNL     1     -32.680   6.782   3.297  1.00 20.00     0.063 C 
HETATM    2  C2  UNL     1     -33.673   4.820   2.206  1.00 20.00     0.025 C 
HETATM    3  C5  UNL     1     -33.954   6.159   2.893  1.00 20.00     0.090 C 
HETATM    4  N7  UNL     1     -31.678   7.276   3.613  1.00 20.00    -0.197 NA
ENDROOT
BRANCH   3   5
HETATM    5  C4  UNL     1     -34.881   5.943   4.106  1.00 20.00     0.038 C 
BRANCH   5   6
HETATM    6  C6  UNL     1     -34.192   5.388   5.366  1.00 20.00     0.079 C 
HETATM    7  C3  UNL     1     -34.997   4.239   5.964  1.00 20.00     0.026 C 
HETATM    8 CL8  UNL     1     -33.998   6.662   6.607  1.00 20.00    -0.125 Cl
ENDBRANCH   5   6
ENDBRANCH   3   5
TORSDOF 2
ENDMDL
MODEL 4
REMARK VINA RESULT:      -3.8      3.104      4.240
REMARK  2 active torsions:
REMARK  status: ('A' for Active; 'I' for Inactive)
REMARK    1  A    between atoms: C4_4  and  C5_5 
REMARK    2  A    between atoms: C4_4  and  C6_6 
ROOT
HETATM    1  C1  UNL     1     -34.865   4.723   5.200  1.00 20.00     0.063 C 
HETATM    2  C2  UNL     1     -33.654   6.593   6.232  1.00 20.00     0.025 C 
HETATM    3  C5  UNL     1     -34.655   6.182   5.149  1.00 20.00     0.090 C 
HETATM    4  N7  UNL     1     -35.033   3.576   5.241  1.00 20.00    -0.197 NA
ENDROOT
BRANCH   3   5
HETATM    5  C4  UNL     1     -34.144   6.626   3.764  1.00 20.00     0.038 C 
BRANCH   5   6
HETATM    6  C6  UNL     1     -32.613   6.682   3.618  1.00 20.00     0.079 C 
HETATM    7  C3  UNL     1     -32.196   7.818   2.690  1.00 20.00     0.026 C 
HETATM    8 CL8  UNL     1     -31.972   5.143   2.968  1.00 20.00    -0.125 Cl
ENDBRANCH   5   6
ENDBRANCH   3   5
TORSDOF 2
ENDMDL
MODEL 5
REMARK VINA RESULT:      -3.7     10.784     11.594
REMARK  2 active torsions:
REMARK  status: ('A' for Active; 'I' for Inactive)
REMARK    1  A    between atoms: C4_4  and  C5_5 
REMARK    2  A    between atoms: C4_4  and  C6_6 
ROOT
HETATM    1  C1  UNL     1     -36.492  14.153  -4.014  1.00 20.00     0.063 C 
HETATM    2  C2  UNL     1     -34.722  14.209  -5.715  1.00 20.00     0.025 C 
HETATM    3  C5  UNL     1     -35.069  13.855  -4.267  1.00 20.00     0.090 C 
HETATM    4  N7  UNL     1     -37.611  14.384  -3.815  1.00 20.00    -0.197 NA
ENDROOT
BRANCH   3   5
HETATM    5  C4  UNL     1     -34.154  14.633  -3.300  1.00 20.00     0.038 C 
BRANCH   5   6
HETATM    6  C6  UNL     1     -34.625  16.059  -2.959  1.00 20.00     0.079 C 
HETATM    7  C3  UNL     1     -33.702  17.100  -3.581  1.00 20.00     0.026 C 
HETATM    8 CL8  UNL     1     -34.669  16.313  -1.188  1.00 20.00    -0.125 Cl
ENDBRANCH   5   6
ENDBRANCH   3   5
TORSDOF 2
ENDMDL
MODEL 6
REMARK VINA RESULT:      -3.7     10.875     11.474
REMARK  2 active torsions:
REMARK  status: ('A' for Active; 'I' for Inactive)
REMARK    1  A    between atoms: C4_4  and  C5_5 
REMARK    2  A    between atoms: C4_4  and  C6_6 
ROOT
HETATM    1  C1  UNL     1     -34.980  14.108  -5.484  1.00 20.00     0.063 C 
HETATM    2  C2  UNL     1     -33.309  13.624  -3.752  1.00 20.00     0.025 C 
HETATM    3  C5  UNL     1     -34.791  13.879  -4.040  1.00 20.00     0.090 C 
HETATM    4  N7  UNL     1     -35.130  14.285  -6.621  1.00 20.00    -0.197 NA
ENDROOT
BRANCH   3   5
HETATM    5  C4  UNL     1     -35.288  15.082  -3.213  1.00 20.00     0.038 C 
BRANCH   5   6
HETATM    6  C6  UNL     1     -34.183  15.915  -2.539  1.00 20.00     0.079 C 
HETATM    7  C3  UNL     1     -34.664  16.481  -1.208  1.00 20.00     0.026 C 
HETATM    8 CL8  UNL     1     -33.669  17.270  -3.589  1.00 20.00    -0.125 Cl
ENDBRANCH   5   6
ENDBRANCH   3   5
TORSDOF 2
ENDMDL
MODEL 7
REMARK VINA RESULT:      -3.7      3.025      4.295
REMARK  2 active torsions:
REMARK  status: ('A' for Active; 'I' for Inactive)
REMARK    1  A    between atoms: C4_4  and  C5_5 
REMARK    2  A    between atoms: C4_4  and  C6_6 
ROOT
HETATM    1  C1  UNL     1     -33.971   6.294   5.596  1.00 20.00     0.063 C 
HETATM    2  C2  UNL     1     -35.188   5.195   3.769  1.00 20.00     0.025 C 
HETATM    3  C5  UNL     1     -33.882   5.878   4.184  1.00 20.00     0.090 C 
HETATM    4  N7  UNL     1     -34.037   6.619   6.708  1.00 20.00    -0.197 NA
ENDROOT
BRANCH   3   5
HETATM    5  C4  UNL     1     -33.603   7.083   3.263  1.00 20.00     0.038 C 
BRANCH   5   6
HETATM    6  C6  UNL     1     -32.143   7.224   2.795  1.00 20.00     0.079 C 
HETATM    7  C3  UNL     1     -31.243   7.665   3.944  1.00 20.00     0.026 C 
HETATM    8 CL8  UNL     1     -32.007   8.417   1.467  1.00 20.00    -0.125 Cl
ENDBRANCH   5   6
ENDBRANCH   3   5
TORSDOF 2
ENDMDL
MODEL 8
REMARK VINA RESULT:      -3.6     11.256     12.575
REMARK  2 active torsions:
REMARK  status: ('A' for Active; 'I' for Inactive)
REMARK    1  A    between atoms: C4_4  and  C5_5 
REMARK    2  A    between atoms: C4_4  and  C6_6 
ROOT
HETATM    1  C1  UNL     1     -35.206  13.839  -4.009  1.00 20.00     0.063 C 
HETATM    2  C2  UNL     1     -34.635  15.633  -2.434  1.00 20.00     0.025 C 
HETATM    3  C5  UNL     1     -35.560  15.204  -3.576  1.00 20.00     0.090 C 
HETATM    4  N7  UNL     1     -34.932  12.764  -4.349  1.00 20.00    -0.197 NA
ENDROOT
BRANCH   3   5
HETATM    5  C4  UNL     1     -35.455  16.206  -4.743  1.00 20.00     0.038 C 
BRANCH   5   6
HETATM    6  C6  UNL     1     -34.082  16.261  -5.437  1.00 20.00     0.079 C 
HETATM    7  C3  UNL     1     -33.609  17.703  -5.592  1.00 20.00     0.026 C 
HETATM    8 CL8  UNL     1     -34.148  15.499  -7.055  1.00 20.00    -0.125 Cl
ENDBRANCH   5   6
ENDBRANCH   3   5
TORSDOF 2
ENDMDL
MODEL 9
REMARK VINA RESULT:      -3.6      9.759     10.893
REMARK  2 active torsions:
REMARK  status: ('A' for Active; 'I' for Inactive)
REMARK    1  A    between atoms: C4_4  and  C5_5 
REMARK    2  A    between atoms: C4_4  and  C6_6 
ROOT
HETATM    1  C1  UNL     1     -42.782   5.201  -2.916  1.00 20.00     0.063 C 
HETATM    2  C2  UNL     1     -41.956   2.889  -2.874  1.00 20.00     0.025 C 
HETATM    3  C5  UNL     1     -42.216   4.151  -2.048  1.00 20.00     0.090 C 
HETATM    4  N7  UNL     1     -43.230   6.026  -3.597  1.00 20.00    -0.197 NA
ENDROOT
BRANCH   3   5
HETATM    5  C4  UNL     1     -40.908   4.622  -1.381  1.00 20.00     0.038 C 
BRANCH   5   6
HETATM    6  C6  UNL     1     -41.089   5.582  -0.192  1.00 20.00     0.079 C 
HETATM    7  C3  UNL     1     -42.413   5.325   0.519  1.00 20.00     0.026 C 
HETATM    8 CL8  UNL     1     -41.047   7.288  -0.731  1.00 20.00    -0.125 Cl
ENDBRANCH   5   6
ENDBRANCH   3   5
TORSDOF 2
ENDMDL
