MODEL 1
REMARK VINA RESULT:      -4.4      0.000      0.000
REMARK  0 active torsions:
REMARK  status: ('A' for Active; 'I' for Inactive)
ROOT
HETATM    1  C1  UNL     1     -32.532   7.073   2.928  1.00 20.00     0.064 C 
HETATM    2  C2  UNL     1     -33.149   6.427   5.255  1.00 20.00     0.021 C 
HETATM    3  C3  UNL     1     -34.625   6.308   5.631  1.00 20.00     0.021 C 
HETATM    4  C4  UNL     1     -34.472   5.586   3.374  1.00 20.00     0.039 C 
HETATM    5  C5  UNL     1     -33.049   5.997   3.783  1.00 20.00     0.094 C 
HETATM    6  C6  UNL     1     -35.183   5.258   4.680  1.00 20.00     0.083 C 
HETATM    7  N7  UNL     1     -32.122   7.923   2.253  1.00 20.00    -0.197 NA
HETATM    8 CL8  UNL     1     -34.769   3.610   5.234  1.00 20.00    -0.125 Cl
ENDROOT
TORSDOF 0
ENDMDL
MODEL 2
REMARK VINA RESULT:      -4.2     11.572     12.323
REMARK  0 active torsions:
REMARK  status: ('A' for Active; 'I' for Inactive)
ROOT
HETATM    1  C1  UNL     1     -34.542  13.495  -4.164  1.00 20.00     0.064 C 
HETATM    2  C2  UNL     1     -33.032  15.442  -3.788  1.00 20.00     0.021 C 
HETATM    3  C3  UNL     1     -33.612  16.855  -3.825  1.00 20.00     0.021 C 
HETATM    4  C4  UNL     1     -35.310  15.484  -2.889  1.00 20.00     0.039 C 
HETATM    5  C5  UNL     1     -34.141  14.544  -3.217  1.00 20.00     0.094 C 
HETATM    6  C6  UNL     1     -34.682  16.864  -2.742  1.00 20.00     0.083 C 
HETATM    7  N7  UNL     1     -34.857  12.665  -4.911  1.00 20.00    -0.197 NA
HETATM    8 CL8  UNL     1     -33.951  17.062  -1.124  1.00 20.00    -0.125 Cl
ENDROOT
TORSDOF 0
ENDMDL
MODEL 3
REMARK VINA RESULT:      -4.1     11.646     12.099
REMARK  0 active torsions:
REMARK  status: ('A' for Active; 'I' for Inactive)
ROOT
HETATM    1  C1  UNL     1     -34.570  16.205  -1.829  1.00 20.00     0.064 C 
HETATM    2  C2  UNL     1     -33.129  15.033  -3.490  1.00 20.00     0.021 C 
HETATM    3  C3  UNL     1     -33.468  13.598  -3.894  1.00 20.00     0.021 C 
HETATM    4  C4  UNL     1     -35.552  14.677  -3.523  1.00 20.00     0.039 C 
HETATM    5  C5  UNL     1     -34.472  15.725  -3.213  1.00 20.00     0.094 C 
HETATM    6  C6  UNL     1     -34.880  13.678  -4.458  1.00 20.00     0.083 C 
HETATM    7  N7  UNL     1     -34.646  16.585  -0.735  1.00 20.00    -0.197 NA
HETATM    8 CL8  UNL     1     -34.863  14.289  -6.137  1.00 20.00    -0.125 Cl
ENDROOT
TORSDOF 0
ENDMDL
MODEL 4
REMARK VINA RESULT:      -3.9     12.118     12.518
REMARK  0 active torsions:
REMARK  status: ('A' for Active; 'I' for Inactive)
ROOT
HETATM    1  C1  UNL     1     -34.794  13.806  -4.323  1.00 20.00     0.064 C 
HETATM    2  C2  UNL     1     -35.687  15.655  -2.910  1.00 20.00     0.021 C 
HETATM    3  C3  UNL     1     -34.850  16.174  -1.742  1.00 20.00     0.021 C 
HETATM    4  C4  UNL     1     -33.297  15.580  -3.438  1.00 20.00     0.039 C 
HETATM    5  C5  UNL     1     -34.686  15.234  -3.996  1.00 20.00     0.094 C 
HETATM    6  C6  UNL     1     -33.549  16.645  -2.377  1.00 20.00     0.083 C 
HETATM    7  N7  UNL     1     -34.881  12.678  -4.581  1.00 20.00    -0.197 NA
HETATM    8 CL8  UNL     1     -33.749  18.254  -3.125  1.00 20.00    -0.125 Cl
ENDROOT
TORSDOF 0
ENDMDL
MODEL 5
REMARK VINA RESULT:      -3.8     11.781     12.819
REMARK  0 active torsions:
REMARK  status: ('A' for Active; 'I' for Inactive)
ROOT
HETATM    1  C1  UNL     1     -35.321  14.497  -6.660  1.00 20.00     0.064 C 
HETATM    2  C2  UNL     1     -34.857  13.517  -4.415  1.00 20.00     0.021 C 
HETATM    3  C3  UNL     1     -33.476  13.704  -3.789  1.00 20.00     0.021 C 
HETATM    4  C4  UNL     1     -33.911  15.698  -5.004  1.00 20.00     0.039 C 
HETATM    5  C5  UNL     1     -35.128  14.789  -5.233  1.00 20.00     0.094 C 
HETATM    6  C6  UNL     1     -33.292  15.212  -3.699  1.00 20.00     0.083 C 
HETATM    7  N7  UNL     1     -35.475  14.266  -7.786  1.00 20.00    -0.197 NA
HETATM    8 CL8  UNL     1     -34.169  15.878  -2.292  1.00 20.00    -0.125 Cl
ENDROOT
TORSDOF 0
ENDMDL
MODEL 6
REMARK VINA RESULT:      -3.7     12.152     12.608
REMARK  0 active torsions:
REMARK  status: ('A' for Active; 'I' for Inactive)
ROOT
HETATM    1  C1  UNL     1     -37.514  14.768  -3.921  1.00 20.00     0.064 C 
HETATM    2  C2  UNL     1     -35.875  16.403  -2.996  1.00 20.00     0.021 C 
HETATM    3  C3  UNL     1     -34.664  15.889  -2.219  1.00 20.00     0.021 C 
HETATM    4  C4  UNL     1     -35.079  14.276  -3.913  1.00 20.00     0.039 C 
HETATM    5  C5  UNL     1     -36.171  15.345  -4.070  1.00 20.00     0.094 C 
HETATM    6  C6  UNL     1     -33.932  14.982  -3.199  1.00 20.00     0.083 C 
HETATM    7  N7  UNL     1     -38.575  14.314  -3.803  1.00 20.00    -0.197 NA
HETATM    8 CL8  UNL     1     -32.957  15.939  -4.350  1.00 20.00    -0.125 Cl
ENDROOT
TORSDOF 0
ENDMDL
MODEL 7
REMARK VINA RESULT:      -3.7     12.055     12.987
REMARK  0 active torsions:
REMARK  status: ('A' for Active; 'I' for Inactive)
ROOT
HETATM    1  C1  UNL     1     -37.503  14.618  -3.802  1.00 20.00     0.064 C 
HETATM    2  C2  UNL     1     -35.271  13.594  -4.229  1.00 20.00     0.021 C 
HETATM    3  C3  UNL     1     -34.501  13.981  -5.491  1.00 20.00     0.021 C 
HETATM    4  C4  UNL     1     -35.660  15.940  -4.815  1.00 20.00     0.039 C 
HETATM    5  C5  UNL     1     -36.053  14.848  -3.808  1.00 20.00     0.094 C 
HETATM    6  C6  UNL     1     -34.323  15.489  -5.390  1.00 20.00     0.083 C 
HETATM    7  N7  UNL     1     -38.649  14.435  -3.797  1.00 20.00    -0.197 NA
HETATM    8 CL8  UNL     1     -32.982  15.900  -4.283  1.00 20.00    -0.125 Cl
ENDROOT
TORSDOF 0
ENDMDL
MODEL 8
REMARK VINA RESULT:      -3.6      9.508     10.379
REMARK  0 active torsions:
REMARK  status: ('A' for Active; 'I' for Inactive)
ROOT
HETATM    1  C1  UNL     1     -42.351   7.337  -3.180  1.00 20.00     0.064 C 
HETATM    2  C2  UNL     1     -42.509   4.922  -2.583  1.00 20.00     0.021 C 
HETATM    3  C3  UNL     1     -41.283   4.212  -2.009  1.00 20.00     0.021 C 
HETATM    4  C4  UNL     1     -41.195   6.434  -1.175  1.00 20.00     0.039 C 
HETATM    5  C5  UNL     1     -42.437   6.371  -2.077  1.00 20.00     0.094 C 
HETATM    6  C6  UNL     1     -40.938   4.994  -0.749  1.00 20.00     0.083 C 
HETATM    7  N7  UNL     1     -42.285   8.099  -4.052  1.00 20.00    -0.197 NA
HETATM    8 CL8  UNL     1     -42.009   4.530   0.604  1.00 20.00    -0.125 Cl
ENDROOT
TORSDOF 0
ENDMDL
MODEL 9
REMARK VINA RESULT:      -3.6      9.491     10.304
REMARK  0 active torsions:
REMARK  status: ('A' for Active; 'I' for Inactive)
ROOT
HETATM    1  C1  UNL     1     -41.798   3.669  -2.422  1.00 20.00     0.064 C 
HETATM    2  C2  UNL     1     -41.564   4.938  -0.290  1.00 20.00     0.021 C 
HETATM    3  C3  UNL     1     -40.818   6.272  -0.292  1.00 20.00     0.021 C 
HETATM    4  C4  UNL     1     -41.931   6.149  -2.386  1.00 20.00     0.039 C 
HETATM    5  C5  UNL     1     -42.256   4.836  -1.658  1.00 20.00     0.094 C 
HETATM    6  C6  UNL     1     -41.580   7.140  -1.283  1.00 20.00     0.083 C 
HETATM    7  N7  UNL     1     -41.437   2.745  -3.024  1.00 20.00    -0.197 NA
HETATM    8 CL8  UNL     1     -43.058   7.814  -0.538  1.00 20.00    -0.125 Cl
ENDROOT
TORSDOF 0
ENDMDL
