MODEL 1
REMARK VINA RESULT:      -4.3      0.000      0.000
REMARK  0 active torsions:
REMARK  status: ('A' for Active; 'I' for Inactive)
ROOT
HETATM    1  C1  UNL     1     -34.575  13.456  -4.227  1.00 20.00     0.064 C 
HETATM    2  C2  UNL     1     -33.095  15.354  -3.592  1.00 20.00     0.020 C 
HETATM    3  C3  UNL     1     -33.646  16.775  -3.710  1.00 20.00     0.017 C 
HETATM    4  C4  UNL     1     -35.475  15.415  -2.993  1.00 20.00     0.035 C 
HETATM    5  C5  UNL     1     -34.285  14.465  -3.200  1.00 20.00     0.094 C 
HETATM    6  C6  UNL     1     -34.866  16.795  -2.808  1.00 20.00     0.059 C 
HETATM    7  N7  UNL     1     -34.804  12.658  -5.038  1.00 20.00    -0.197 NA
HETATM    8 BR8  UNL     1     -34.347  17.078  -0.948  1.00 20.00    -0.091 Br
ENDROOT
TORSDOF 0
ENDMDL
MODEL 2
REMARK VINA RESULT:      -4.1      3.090      3.681
REMARK  0 active torsions:
REMARK  status: ('A' for Active; 'I' for Inactive)
ROOT
HETATM    1  C1  UNL     1     -34.587  16.267  -1.741  1.00 20.00     0.064 C 
HETATM    2  C2  UNL     1     -33.201  15.145  -3.478  1.00 20.00     0.020 C 
HETATM    3  C3  UNL     1     -33.549  13.709  -3.868  1.00 20.00     0.017 C 
HETATM    4  C4  UNL     1     -35.632  14.804  -3.455  1.00 20.00     0.035 C 
HETATM    5  C5  UNL     1     -34.534  15.832  -3.143  1.00 20.00     0.094 C 
HETATM    6  C6  UNL     1     -34.980  13.777  -4.367  1.00 20.00     0.059 C 
HETATM    7  N7  UNL     1     -34.630  16.611  -0.633  1.00 20.00    -0.197 NA
HETATM    8 BR8  UNL     1     -35.038  14.369  -6.226  1.00 20.00    -0.091 Br
ENDROOT
TORSDOF 0
ENDMDL
MODEL 3
REMARK VINA RESULT:      -3.9      1.242      1.892
REMARK  0 active torsions:
REMARK  status: ('A' for Active; 'I' for Inactive)
ROOT
HETATM    1  C1  UNL     1     -34.801  13.816  -4.344  1.00 20.00     0.064 C 
HETATM    2  C2  UNL     1     -35.717  15.623  -2.898  1.00 20.00     0.020 C 
HETATM    3  C3  UNL     1     -34.845  16.155  -1.760  1.00 20.00     0.017 C 
HETATM    4  C4  UNL     1     -33.356  15.682  -3.568  1.00 20.00     0.035 C 
HETATM    5  C5  UNL     1     -34.755  15.252  -4.036  1.00 20.00     0.094 C 
HETATM    6  C6  UNL     1     -33.592  16.673  -2.441  1.00 20.00     0.059 C 
HETATM    7  N7  UNL     1     -34.838  12.682  -4.588  1.00 20.00    -0.197 NA
HETATM    8 BR8  UNL     1     -33.881  18.468  -3.149  1.00 20.00    -0.091 Br
ENDROOT
TORSDOF 0
ENDMDL
MODEL 4
REMARK VINA RESULT:      -3.8      1.916      2.603
REMARK  0 active torsions:
REMARK  status: ('A' for Active; 'I' for Inactive)
ROOT
HETATM    1  C1  UNL     1     -35.382  14.511  -6.711  1.00 20.00     0.064 C 
HETATM    2  C2  UNL     1     -34.952  13.574  -4.444  1.00 20.00     0.020 C 
HETATM    3  C3  UNL     1     -33.582  13.810  -3.810  1.00 20.00     0.017 C 
HETATM    4  C4  UNL     1     -34.101  15.804  -5.021  1.00 20.00     0.035 C 
HETATM    5  C5  UNL     1     -35.256  14.826  -5.281  1.00 20.00     0.094 C 
HETATM    6  C6  UNL     1     -33.440  15.319  -3.741  1.00 20.00     0.059 C 
HETATM    7  N7  UNL     1     -35.482  14.262  -7.840  1.00 20.00    -0.197 NA
HETATM    8 BR8  UNL     1     -34.363  16.030  -2.175  1.00 20.00    -0.091 Br
ENDROOT
TORSDOF 0
ENDMDL
MODEL 5
REMARK VINA RESULT:      -3.8     11.429     12.121
REMARK  0 active torsions:
REMARK  status: ('A' for Active; 'I' for Inactive)
ROOT
HETATM    1  C1  UNL     1     -32.444   7.197   2.817  1.00 20.00     0.064 C 
HETATM    2  C2  UNL     1     -32.947   6.667   5.197  1.00 20.00     0.020 C 
HETATM    3  C3  UNL     1     -34.411   6.609   5.633  1.00 20.00     0.017 C 
HETATM    4  C4  UNL     1     -34.348   5.718   3.417  1.00 20.00     0.035 C 
HETATM    5  C5  UNL     1     -32.914   6.161   3.747  1.00 20.00     0.094 C 
HETATM    6  C6  UNL     1     -35.035   5.537   4.761  1.00 20.00     0.059 C 
HETATM    7  N7  UNL     1     -32.073   8.014   2.082  1.00 20.00    -0.197 NA
HETATM    8 BR8  UNL     1     -34.678   3.760   5.486  1.00 20.00    -0.091 Br
ENDROOT
TORSDOF 0
ENDMDL
MODEL 6
REMARK VINA RESULT:      -3.7      1.509      1.853
REMARK  0 active torsions:
REMARK  status: ('A' for Active; 'I' for Inactive)
ROOT
HETATM    1  C1  UNL     1     -34.990  13.796  -4.338  1.00 20.00     0.064 C 
HETATM    2  C2  UNL     1     -34.990  15.491  -2.514  1.00 20.00     0.020 C 
HETATM    3  C3  UNL     1     -33.783  16.422  -2.389  1.00 20.00     0.017 C 
HETATM    4  C4  UNL     1     -34.120  16.090  -4.731  1.00 20.00     0.035 C 
HETATM    5  C5  UNL     1     -35.164  15.219  -4.016  1.00 20.00     0.094 C 
HETATM    6  C6  UNL     1     -33.712  17.148  -3.718  1.00 20.00     0.059 C 
HETATM    7  N7  UNL     1     -34.852  12.672  -4.592  1.00 20.00    -0.197 NA
HETATM    8 BR8  UNL     1     -34.955  18.652  -3.753  1.00 20.00    -0.091 Br
ENDROOT
TORSDOF 0
ENDMDL
MODEL 7
REMARK VINA RESULT:      -3.6      1.147      1.162
REMARK  0 active torsions:
REMARK  status: ('A' for Active; 'I' for Inactive)
ROOT
HETATM    1  C1  UNL     1     -34.922  13.627  -4.149  1.00 20.00     0.064 C 
HETATM    2  C2  UNL     1     -33.732  15.514  -3.043  1.00 20.00     0.020 C 
HETATM    3  C3  UNL     1     -33.668  16.857  -3.771  1.00 20.00     0.017 C 
HETATM    4  C4  UNL     1     -35.818  15.941  -4.266  1.00 20.00     0.035 C 
HETATM    5  C5  UNL     1     -35.085  14.891  -3.417  1.00 20.00     0.094 C 
HETATM    6  C6  UNL     1     -35.116  17.258  -3.978  1.00 20.00     0.059 C 
HETATM    7  N7  UNL     1     -34.792  12.629  -4.726  1.00 20.00    -0.197 NA
HETATM    8 BR8  UNL     1     -35.841  18.088  -2.367  1.00 20.00    -0.091 Br
ENDROOT
TORSDOF 0
ENDMDL
MODEL 8
REMARK VINA RESULT:      -3.5      3.248      3.879
REMARK  0 active torsions:
REMARK  status: ('A' for Active; 'I' for Inactive)
ROOT
HETATM    1  C1  UNL     1     -33.917  16.943  -1.362  1.00 20.00     0.064 C 
HETATM    2  C2  UNL     1     -35.721  16.177  -2.898  1.00 20.00     0.020 C 
HETATM    3  C3  UNL     1     -35.440  16.172  -4.400  1.00 20.00     0.017 C 
HETATM    4  C4  UNL     1     -33.391  15.541  -3.345  1.00 20.00     0.035 C 
HETATM    5  C5  UNL     1     -34.387  15.842  -2.214  1.00 20.00     0.094 C 
HETATM    6  C6  UNL     1     -34.244  15.254  -4.570  1.00 20.00     0.059 C 
HETATM    7  N7  UNL     1     -33.546  17.812  -0.689  1.00 20.00    -0.197 NA
HETATM    8 BR8  UNL     1     -34.804  13.385  -4.599  1.00 20.00    -0.091 Br
ENDROOT
TORSDOF 0
ENDMDL
MODEL 9
REMARK VINA RESULT:      -3.5     11.683     12.542
REMARK  0 active torsions:
REMARK  status: ('A' for Active; 'I' for Inactive)
ROOT
HETATM    1  C1  UNL     1     -41.810   3.578  -2.513  1.00 20.00     0.064 C 
HETATM    2  C2  UNL     1     -41.452   5.059  -0.544  1.00 20.00     0.020 C 
HETATM    3  C3  UNL     1     -40.867   6.452  -0.781  1.00 20.00     0.017 C 
HETATM    4  C4  UNL     1     -42.295   6.010  -2.645  1.00 20.00     0.035 C 
HETATM    5  C5  UNL     1     -42.315   4.744  -1.776  1.00 20.00     0.094 C 
HETATM    6  C6  UNL     1     -41.845   7.130  -1.721  1.00 20.00     0.059 C 
HETATM    7  N7  UNL     1     -41.411   2.656  -3.095  1.00 20.00    -0.197 NA
HETATM    8 BR8  UNL     1     -43.361   7.860  -0.732  1.00 20.00    -0.091 Br
ENDROOT
TORSDOF 0
ENDMDL
