MODEL 1
REMARK VINA RESULT:      -3.9      0.000      0.000
REMARK  1 active torsions:
REMARK  status: ('A' for Active; 'I' for Inactive)
REMARK    1  A    between atoms: C4_4  and  C7_7 
ROOT
HETATM    1  C1  UNL     1     -33.939  18.246  -3.512  1.00 20.00     0.034 A 
HETATM    2  C2  UNL     1     -34.163  17.022  -2.820  1.00 20.00     0.026 A 
HETATM    3  C3  UNL     1     -33.785  18.054  -4.868  1.00 20.00    -0.019 A 
HETATM    4  C4  UNL     1     -34.172  15.940  -3.673  1.00 20.00     0.018 A 
HETATM    5  C5  UNL     1     -33.538  19.065  -5.919  1.00 20.00     0.056 C 
HETATM    6  S8  UNL     1     -33.912  16.402  -5.301  1.00 20.00    -0.097 SA
HETATM    7 BR10 UNL     1     -34.410  16.962  -0.953  1.00 20.00    -0.050 Br
ENDROOT
BRANCH   4   8
HETATM    8  C7  UNL     1     -34.371  14.505  -3.361  1.00 20.00     0.119 C 
HETATM    9  C6  UNL     1     -33.179  13.598  -3.712  1.00 20.00     0.032 C 
HETATM   10 CL9  UNL     1     -35.840  13.877  -4.188  1.00 20.00    -0.120 Cl
ENDBRANCH   4   8
TORSDOF 1
ENDMDL
MODEL 2
REMARK VINA RESULT:      -3.7      2.721      3.211
REMARK  1 active torsions:
REMARK  status: ('A' for Active; 'I' for Inactive)
REMARK    1  A    between atoms: C4_4  and  C7_7 
ROOT
HETATM    1  C1  UNL     1     -34.063  15.836  -5.882  1.00 20.00     0.034 A 
HETATM    2  C2  UNL     1     -33.848  15.570  -4.499  1.00 20.00     0.026 A 
HETATM    3  C3  UNL     1     -34.197  17.184  -6.136  1.00 20.00    -0.019 A 
HETATM    4  C4  UNL     1     -33.826  16.725  -3.748  1.00 20.00     0.018 A 
HETATM    5  C5  UNL     1     -34.429  17.858  -7.431  1.00 20.00     0.056 C 
HETATM    6  S8  UNL     1     -34.063  18.122  -4.709  1.00 20.00    -0.097 SA
HETATM    7 BR10 UNL     1     -33.629  13.818  -3.843  1.00 20.00    -0.050 Br
ENDROOT
BRANCH   4   8
HETATM    8  C7  UNL     1     -33.630  16.887  -2.288  1.00 20.00     0.119 C 
HETATM    9  C6  UNL     1     -34.777  16.341  -1.420  1.00 20.00     0.032 C 
HETATM   10 CL9  UNL     1     -33.365  18.618  -1.876  1.00 20.00    -0.120 Cl
ENDBRANCH   4   8
TORSDOF 1
ENDMDL
MODEL 3
REMARK VINA RESULT:      -3.7      2.474      3.260
REMARK  1 active torsions:
REMARK  status: ('A' for Active; 'I' for Inactive)
REMARK    1  A    between atoms: C4_4  and  C7_7 
ROOT
HETATM    1  C1  UNL     1     -34.137  17.630  -3.017  1.00 20.00     0.034 A 
HETATM    2  C2  UNL     1     -34.125  17.099  -4.339  1.00 20.00     0.026 A 
HETATM    3  C3  UNL     1     -34.469  16.676  -2.079  1.00 20.00    -0.019 A 
HETATM    4  C4  UNL     1     -34.448  15.760  -4.362  1.00 20.00     0.018 A 
HETATM    5  C5  UNL     1     -34.589  16.830  -0.613  1.00 20.00     0.056 C 
HETATM    6  S8  UNL     1     -34.763  15.148  -2.794  1.00 20.00    -0.097 SA
HETATM    7 BR10 UNL     1     -33.708  18.163  -5.837  1.00 20.00    -0.050 Br
ENDROOT
BRANCH   4   8
HETATM    8  C7  UNL     1     -34.547  14.842  -5.520  1.00 20.00     0.119 C 
HETATM    9  C6  UNL     1     -35.808  15.026  -6.382  1.00 20.00     0.032 C 
HETATM   10 CL9  UNL     1     -34.462  13.129  -4.976  1.00 20.00    -0.120 Cl
ENDBRANCH   4   8
TORSDOF 1
ENDMDL
MODEL 4
REMARK VINA RESULT:      -3.7      3.187      4.282
REMARK  1 active torsions:
REMARK  status: ('A' for Active; 'I' for Inactive)
REMARK    1  A    between atoms: C4_4  and  C7_7 
ROOT
HETATM    1  C1  UNL     1     -36.276  14.206  -4.224  1.00 20.00     0.034 A 
HETATM    2  C2  UNL     1     -35.059  14.607  -3.601  1.00 20.00     0.026 A 
HETATM    3  C3  UNL     1     -37.305  15.085  -3.963  1.00 20.00    -0.019 A 
HETATM    4  C4  UNL     1     -35.204  15.777  -2.888  1.00 20.00     0.018 A 
HETATM    5  C5  UNL     1     -38.709  15.021  -4.424  1.00 20.00     0.056 C 
HETATM    6  S8  UNL     1     -36.802  16.387  -2.972  1.00 20.00    -0.097 SA
HETATM    7 BR10 UNL     1     -33.473  13.604  -3.774  1.00 20.00    -0.050 Br
ENDROOT
BRANCH   4   8
HETATM    8  C7  UNL     1     -34.194  16.524  -2.104  1.00 20.00     0.119 C 
HETATM    9  C6  UNL     1     -34.586  16.797  -0.641  1.00 20.00     0.032 C 
HETATM   10 CL9  UNL     1     -33.808  18.090  -2.902  1.00 20.00    -0.120 Cl
ENDBRANCH   4   8
TORSDOF 1
ENDMDL
MODEL 5
REMARK VINA RESULT:      -3.7      2.636      3.557
REMARK  1 active torsions:
REMARK  status: ('A' for Active; 'I' for Inactive)
REMARK    1  A    between atoms: C4_4  and  C7_7 
ROOT
HETATM    1  C1  UNL     1     -34.269  15.497  -2.484  1.00 20.00     0.034 A 
HETATM    2  C2  UNL     1     -34.690  15.172  -3.806  1.00 20.00     0.026 A 
HETATM    3  C3  UNL     1     -34.079  16.852  -2.320  1.00 20.00    -0.019 A 
HETATM    4  C4  UNL     1     -34.807  16.290  -4.601  1.00 20.00     0.018 A 
HETATM    5  C5  UNL     1     -33.647  17.581  -1.108  1.00 20.00     0.056 C 
HETATM    6  S8  UNL     1     -34.410  17.725  -3.756  1.00 20.00    -0.097 SA
HETATM    7 BR10 UNL     1     -35.029  13.395  -4.335  1.00 20.00    -0.050 Br
ENDROOT
BRANCH   4   8
HETATM    8  C7  UNL     1     -35.215  16.388  -6.022  1.00 20.00     0.119 C 
HETATM    9  C6  UNL     1     -36.663  15.952  -6.308  1.00 20.00     0.032 C 
HETATM   10 CL9  UNL     1     -34.104  15.431  -7.065  1.00 20.00    -0.120 Cl
ENDBRANCH   4   8
TORSDOF 1
ENDMDL
MODEL 6
REMARK VINA RESULT:      -3.6      2.435      3.850
REMARK  1 active torsions:
REMARK  status: ('A' for Active; 'I' for Inactive)
REMARK    1  A    between atoms: C4_4  and  C7_7 
ROOT
HETATM    1  C1  UNL     1     -34.610  15.312  -2.469  1.00 20.00     0.034 A 
HETATM    2  C2  UNL     1     -34.406  15.283  -3.879  1.00 20.00     0.026 A 
HETATM    3  C3  UNL     1     -34.534  16.590  -1.960  1.00 20.00    -0.019 A 
HETATM    4  C4  UNL     1     -34.182  16.541  -4.394  1.00 20.00     0.018 A 
HETATM    5  C5  UNL     1     -34.688  17.033  -0.558  1.00 20.00     0.056 C 
HETATM    6  S8  UNL     1     -34.219  17.749  -3.181  1.00 20.00    -0.097 SA
HETATM    7 BR10 UNL     1     -34.450  13.676  -4.861  1.00 20.00    -0.050 Br
ENDROOT
BRANCH   4   8
HETATM    8  C7  UNL     1     -33.929  16.945  -5.797  1.00 20.00     0.119 C 
HETATM    9  C6  UNL     1     -33.575  18.431  -5.985  1.00 20.00     0.032 C 
HETATM   10 CL9  UNL     1     -35.347  16.552  -6.832  1.00 20.00    -0.120 Cl
ENDBRANCH   4   8
TORSDOF 1
ENDMDL
MODEL 7
REMARK VINA RESULT:      -3.6      2.073      3.845
REMARK  1 active torsions:
REMARK  status: ('A' for Active; 'I' for Inactive)
REMARK    1  A    between atoms: C4_4  and  C7_7 
ROOT
HETATM    1  C1  UNL     1     -34.530  14.844  -2.927  1.00 20.00     0.034 A 
HETATM    2  C2  UNL     1     -34.400  16.238  -2.667  1.00 20.00     0.026 A 
HETATM    3  C3  UNL     1     -34.464  14.559  -4.273  1.00 20.00    -0.019 A 
HETATM    4  C4  UNL     1     -34.239  16.967  -3.825  1.00 20.00     0.018 A 
HETATM    5  C5  UNL     1     -34.558  13.243  -4.942  1.00 20.00     0.056 C 
HETATM    6  S8  UNL     1     -34.245  15.971  -5.218  1.00 20.00    -0.097 SA
HETATM    7 BR10 UNL     1     -34.451  16.936  -0.918  1.00 20.00    -0.050 Br
ENDROOT
BRANCH   4   8
HETATM    8  C7  UNL     1     -34.070  18.429  -3.994  1.00 20.00     0.119 C 
HETATM    9  C6  UNL     1     -35.332  19.261  -3.705  1.00 20.00     0.032 C 
HETATM   10 CL9  UNL     1     -33.491  18.810  -5.654  1.00 20.00    -0.120 Cl
ENDBRANCH   4   8
TORSDOF 1
ENDMDL
MODEL 8
REMARK VINA RESULT:      -3.6      2.395      2.620
REMARK  1 active torsions:
REMARK  status: ('A' for Active; 'I' for Inactive)
REMARK    1  A    between atoms: C4_4  and  C7_7 
ROOT
HETATM    1  C1  UNL     1     -36.730  17.112  -3.027  1.00 20.00     0.034 A 
HETATM    2  C2  UNL     1     -35.603  16.332  -2.639  1.00 20.00     0.026 A 
HETATM    3  C3  UNL     1     -37.270  16.684  -4.220  1.00 20.00    -0.019 A 
HETATM    4  C4  UNL     1     -35.325  15.337  -3.550  1.00 20.00     0.018 A 
HETATM    5  C5  UNL     1     -38.435  17.228  -4.951  1.00 20.00     0.056 C 
HETATM    6  S8  UNL     1     -36.420  15.345  -4.867  1.00 20.00    -0.097 SA
HETATM    7 BR10 UNL     1     -34.650  16.677  -1.050  1.00 20.00    -0.050 Br
ENDROOT
BRANCH   4   8
HETATM    8  C7  UNL     1     -34.250  14.318  -3.523  1.00 20.00     0.119 C 
HETATM    9  C6  UNL     1     -32.827  14.878  -3.690  1.00 20.00     0.032 C 
HETATM   10 CL9  UNL     1     -34.532  13.067  -4.785  1.00 20.00    -0.120 Cl
ENDBRANCH   4   8
TORSDOF 1
ENDMDL
MODEL 9
REMARK VINA RESULT:      -3.6      3.010      3.422
REMARK  1 active torsions:
REMARK  status: ('A' for Active; 'I' for Inactive)
REMARK    1  A    between atoms: C4_4  and  C7_7 
ROOT
HETATM    1  C1  UNL     1     -36.073  17.162  -2.741  1.00 20.00     0.034 A 
HETATM    2  C2  UNL     1     -36.252  16.593  -4.034  1.00 20.00     0.026 A 
HETATM    3  C3  UNL     1     -35.077  16.529  -2.030  1.00 20.00    -0.019 A 
HETATM    4  C4  UNL     1     -35.384  15.547  -4.264  1.00 20.00     0.018 A 
HETATM    5  C5  UNL     1     -34.595  16.820  -0.662  1.00 20.00     0.056 C 
HETATM    6  S8  UNL     1     -34.360  15.255  -2.923  1.00 20.00    -0.097 SA
HETATM    7 BR10 UNL     1     -37.544  17.245  -5.241  1.00 20.00    -0.050 Br
ENDROOT
BRANCH   4   8
HETATM    8  C7  UNL     1     -35.243  14.697  -5.468  1.00 20.00     0.119 C 
HETATM    9  C6  UNL     1     -34.722  13.275  -5.195  1.00 20.00     0.032 C 
HETATM   10 CL9  UNL     1     -34.167  15.486  -6.676  1.00 20.00    -0.120 Cl
ENDBRANCH   4   8
TORSDOF 1
ENDMDL
