MODEL 1
REMARK VINA RESULT:      -4.2      0.000      0.000
REMARK  2 active torsions:
REMARK  status: ('A' for Active; 'I' for Inactive)
REMARK    1  A    between atoms: C5_5  and  C6_6 
REMARK    2  A    between atoms: C5_5  and  C7_7 
ROOT
HETATM    1  C1  UNL     1     -34.500  13.701  -4.331  1.00 20.00     0.068 C 
HETATM    2  C3  UNL     1     -32.465  14.813  -3.573  1.00 20.00     0.031 C 
HETATM    3  C4  UNL     1     -33.918  15.888  -5.298  1.00 20.00     0.031 C 
HETATM    4  C7  UNL     1     -33.925  15.031  -4.024  1.00 20.00     0.043 C 
HETATM    5  N8  UNL     1     -34.938  12.653  -4.573  1.00 20.00    -0.196 NA
ENDROOT
BRANCH   4   6
HETATM    6  C5  UNL     1     -34.693  15.721  -2.860  1.00 20.00     0.043 C 
BRANCH   6   7
HETATM    7  C6  UNL     1     -33.904  16.646  -1.909  1.00 20.00     0.080 C 
HETATM    8  C2  UNL     1     -34.633  16.789  -0.575  1.00 20.00     0.026 C 
HETATM    9 CL9  UNL     1     -33.663  18.277  -2.593  1.00 20.00    -0.125 Cl
ENDBRANCH   6   7
ENDBRANCH   4   6
TORSDOF 2
ENDMDL
MODEL 2
REMARK VINA RESULT:      -3.9      1.860      2.233
REMARK  2 active torsions:
REMARK  status: ('A' for Active; 'I' for Inactive)
REMARK    1  A    between atoms: C5_5  and  C6_6 
REMARK    2  A    between atoms: C5_5  and  C7_7 
ROOT
HETATM    1  C1  UNL     1     -36.574  14.446  -4.000  1.00 20.00     0.068 C 
HETATM    2  C3  UNL     1     -34.618  13.150  -4.672  1.00 20.00     0.031 C 
HETATM    3  C4  UNL     1     -35.008  15.426  -5.626  1.00 20.00     0.031 C 
HETATM    4  C7  UNL     1     -35.143  14.569  -4.360  1.00 20.00     0.043 C 
HETATM    5  N8  UNL     1     -37.697  14.337  -3.726  1.00 20.00    -0.196 NA
ENDROOT
BRANCH   4   6
HETATM    6  C5  UNL     1     -34.312  15.141  -3.175  1.00 20.00     0.043 C 
BRANCH   6   7
HETATM    7  C6  UNL     1     -34.748  16.487  -2.558  1.00 20.00     0.080 C 
HETATM    8  C2  UNL     1     -33.838  17.616  -3.040  1.00 20.00     0.026 C 
HETATM    9 CL9  UNL     1     -34.709  16.461  -0.773  1.00 20.00    -0.125 Cl
ENDBRANCH   6   7
ENDBRANCH   4   6
TORSDOF 2
ENDMDL
MODEL 3
REMARK VINA RESULT:      -3.9      1.362      1.996
REMARK  2 active torsions:
REMARK  status: ('A' for Active; 'I' for Inactive)
REMARK    1  A    between atoms: C5_5  and  C6_6 
REMARK    2  A    between atoms: C5_5  and  C7_7 
ROOT
HETATM    1  C1  UNL     1     -34.181  15.274  -5.349  1.00 20.00     0.068 C 
HETATM    2  C3  UNL     1     -35.253  13.372  -4.256  1.00 20.00     0.031 C 
HETATM    3  C4  UNL     1     -32.939  14.055  -3.607  1.00 20.00     0.031 C 
HETATM    4  C7  UNL     1     -34.314  14.580  -4.047  1.00 20.00     0.043 C 
HETATM    5  N8  UNL     1     -34.081  15.805  -6.375  1.00 20.00    -0.196 NA
ENDROOT
BRANCH   4   6
HETATM    6  C5  UNL     1     -34.954  15.510  -2.976  1.00 20.00     0.043 C 
BRANCH   6   7
HETATM    7  C6  UNL     1     -34.025  16.425  -2.151  1.00 20.00     0.080 C 
HETATM    8  C2  UNL     1     -34.612  16.672  -0.762  1.00 20.00     0.026 C 
HETATM    9 CL9  UNL     1     -33.759  18.007  -2.935  1.00 20.00    -0.125 Cl
ENDBRANCH   6   7
ENDBRANCH   4   6
TORSDOF 2
ENDMDL
MODEL 4
REMARK VINA RESULT:      -3.9     11.100     11.617
REMARK  2 active torsions:
REMARK  status: ('A' for Active; 'I' for Inactive)
REMARK    1  A    between atoms: C5_5  and  C6_6 
REMARK    2  A    between atoms: C5_5  and  C7_7 
ROOT
HETATM    1  C1  UNL     1     -32.239   8.052   2.111  1.00 20.00     0.068 C 
HETATM    2  C3  UNL     1     -31.801   5.756   2.812  1.00 20.00     0.031 C 
HETATM    3  C4  UNL     1     -31.312   7.657   4.358  1.00 20.00     0.031 C 
HETATM    4  C7  UNL     1     -32.282   7.146   3.282  1.00 20.00     0.043 C 
HETATM    5  N8  UNL     1     -32.195   8.754   1.188  1.00 20.00    -0.196 NA
ENDROOT
BRANCH   4   6
HETATM    6  C5  UNL     1     -33.732   6.997   3.825  1.00 20.00     0.043 C 
BRANCH   6   7
HETATM    7  C6  UNL     1     -34.059   5.781   4.718  1.00 20.00     0.080 C 
HETATM    8  C2  UNL     1     -35.364   5.124   4.271  1.00 20.00     0.026 C 
HETATM    9 CL9  UNL     1     -34.216   6.224   6.440  1.00 20.00    -0.125 Cl
ENDBRANCH   6   7
ENDBRANCH   4   6
TORSDOF 2
ENDMDL
MODEL 5
REMARK VINA RESULT:      -3.8      2.187      3.485
REMARK  2 active torsions:
REMARK  status: ('A' for Active; 'I' for Inactive)
REMARK    1  A    between atoms: C5_5  and  C6_6 
REMARK    2  A    between atoms: C5_5  and  C7_7 
ROOT
HETATM    1  C1  UNL     1     -34.848  13.781  -4.060  1.00 20.00     0.068 C 
HETATM    2  C3  UNL     1     -34.889  15.585  -2.418  1.00 20.00     0.031 C 
HETATM    3  C4  UNL     1     -32.802  15.102  -3.704  1.00 20.00     0.031 C 
HETATM    4  C7  UNL     1     -34.335  15.143  -3.790  1.00 20.00     0.043 C 
HETATM    5  N8  UNL     1     -35.252  12.711  -4.258  1.00 20.00    -0.196 NA
ENDROOT
BRANCH   4   6
HETATM    6  C5  UNL     1     -34.833  16.155  -4.861  1.00 20.00     0.043 C 
BRANCH   6   7
HETATM    7  C6  UNL     1     -34.025  16.295  -6.169  1.00 20.00     0.080 C 
HETATM    8  C2  UNL     1     -34.338  17.626  -6.852  1.00 20.00     0.026 C 
HETATM    9 CL9  UNL     1     -34.368  14.979  -7.324  1.00 20.00    -0.125 Cl
ENDBRANCH   6   7
ENDBRANCH   4   6
TORSDOF 2
ENDMDL
MODEL 6
REMARK VINA RESULT:      -3.8      1.935      2.610
REMARK  2 active torsions:
REMARK  status: ('A' for Active; 'I' for Inactive)
REMARK    1  A    between atoms: C5_5  and  C6_6 
REMARK    2  A    between atoms: C5_5  and  C7_7 
ROOT
HETATM    1  C1  UNL     1     -34.838  13.751  -5.175  1.00 20.00     0.068 C 
HETATM    2  C3  UNL     1     -34.530  14.857  -7.328  1.00 20.00     0.031 C 
HETATM    3  C4  UNL     1     -36.297  15.648  -5.749  1.00 20.00     0.031 C 
HETATM    4  C7  UNL     1     -34.875  15.074  -5.839  1.00 20.00     0.043 C 
HETATM    5  N8  UNL     1     -34.811  12.708  -4.667  1.00 20.00    -0.196 NA
ENDROOT
BRANCH   4   6
HETATM    6  C5  UNL     1     -33.816  16.038  -5.233  1.00 20.00     0.043 C 
BRANCH   6   7
HETATM    7  C6  UNL     1     -34.239  16.948  -4.060  1.00 20.00     0.080 C 
HETATM    8  C2  UNL     1     -33.644  18.345  -4.224  1.00 20.00     0.026 C 
HETATM    9 CL9  UNL     1     -33.722  16.302  -2.478  1.00 20.00    -0.125 Cl
ENDBRANCH   6   7
ENDBRANCH   4   6
TORSDOF 2
ENDMDL
MODEL 7
REMARK VINA RESULT:      -3.7      1.440      1.720
REMARK  2 active torsions:
REMARK  status: ('A' for Active; 'I' for Inactive)
REMARK    1  A    between atoms: C5_5  and  C6_6 
REMARK    2  A    between atoms: C5_5  and  C7_7 
ROOT
HETATM    1  C1  UNL     1     -34.745  14.012  -4.067  1.00 20.00     0.068 C 
HETATM    2  C3  UNL     1     -33.506  15.932  -4.925  1.00 20.00     0.031 C 
HETATM    3  C4  UNL     1     -35.901  16.177  -4.257  1.00 20.00     0.031 C 
HETATM    4  C7  UNL     1     -34.579  15.476  -3.913  1.00 20.00     0.043 C 
HETATM    5  N8  UNL     1     -34.870  12.867  -4.202  1.00 20.00    -0.196 NA
ENDROOT
BRANCH   4   6
HETATM    6  C5  UNL     1     -34.080  15.838  -2.484  1.00 20.00     0.043 C 
BRANCH   6   7
HETATM    7  C6  UNL     1     -34.628  17.119  -1.820  1.00 20.00     0.080 C 
HETATM    8  C2  UNL     1     -33.692  18.298  -2.078  1.00 20.00     0.026 C 
HETATM    9 CL9  UNL     1     -34.826  16.938  -0.055  1.00 20.00    -0.125 Cl
ENDBRANCH   6   7
ENDBRANCH   4   6
TORSDOF 2
ENDMDL
MODEL 8
REMARK VINA RESULT:      -3.6      2.352      3.771
REMARK  2 active torsions:
REMARK  status: ('A' for Active; 'I' for Inactive)
REMARK    1  A    between atoms: C5_5  and  C6_6 
REMARK    2  A    between atoms: C5_5  and  C7_7 
ROOT
HETATM    1  C1  UNL     1     -36.446  14.624  -3.734  1.00 20.00     0.068 C 
HETATM    2  C3  UNL     1     -34.810  15.773  -2.334  1.00 20.00     0.031 C 
HETATM    3  C4  UNL     1     -34.153  13.735  -3.622  1.00 20.00     0.031 C 
HETATM    4  C7  UNL     1     -35.016  15.005  -3.657  1.00 20.00     0.043 C 
HETATM    5  N8  UNL     1     -37.567  14.328  -3.779  1.00 20.00    -0.196 NA
ENDROOT
BRANCH   4   6
HETATM    6  C5  UNL     1     -34.621  15.947  -4.830  1.00 20.00     0.043 C 
BRANCH   6   7
HETATM    7  C6  UNL     1     -35.339  15.771  -6.186  1.00 20.00     0.080 C 
HETATM    8  C2  UNL     1     -34.455  14.996  -7.162  1.00 20.00     0.026 C 
HETATM    9 CL9  UNL     1     -35.767  17.333  -6.937  1.00 20.00    -0.125 Cl
ENDBRANCH   6   7
ENDBRANCH   4   6
TORSDOF 2
ENDMDL
MODEL 9
REMARK VINA RESULT:      -3.5      2.376      2.769
REMARK  2 active torsions:
REMARK  status: ('A' for Active; 'I' for Inactive)
REMARK    1  A    between atoms: C5_5  and  C6_6 
REMARK    2  A    between atoms: C5_5  and  C7_7 
ROOT
HETATM    1  C1  UNL     1     -36.920  14.737  -4.437  1.00 20.00     0.068 C 
HETATM    2  C3  UNL     1     -35.196  14.211  -6.083  1.00 20.00     0.031 C 
HETATM    3  C4  UNL     1     -36.563  16.290  -6.313  1.00 20.00     0.031 C 
HETATM    4  C7  UNL     1     -35.887  15.351  -5.304  1.00 20.00     0.043 C 
HETATM    5  N8  UNL     1     -37.729  14.245  -3.767  1.00 20.00    -0.196 NA
ENDROOT
BRANCH   4   6
HETATM    6  C5  UNL     1     -34.806  16.083  -4.458  1.00 20.00     0.043 C 
BRANCH   6   7
HETATM    7  C6  UNL     1     -34.215  15.352  -3.233  1.00 20.00     0.080 C 
HETATM    8  C2  UNL     1     -34.184  16.280  -2.020  1.00 20.00     0.026 C 
HETATM    9 CL9  UNL     1     -32.556  14.762  -3.529  1.00 20.00    -0.125 Cl
ENDBRANCH   6   7
ENDBRANCH   4   6
TORSDOF 2
ENDMDL
