MODEL 1
REMARK VINA RESULT:      -4.6      0.000      0.000
REMARK  0 active torsions:
REMARK  status: ('A' for Active; 'I' for Inactive)
ROOT
HETATM    1  C1  UNL     1     -32.699   7.104   3.163  1.00 20.00     0.095 C 
HETATM    2  C2  UNL     1     -34.532   5.664   3.845  1.00 20.00     0.011 C 
HETATM    3  C3  UNL     1     -33.492   6.453   4.136  1.00 20.00     0.020 C 
HETATM    4  C4  UNL     1     -33.265   6.549   5.612  1.00 20.00     0.051 C 
HETATM    5  C5  UNL     1     -34.575   5.997   6.179  1.00 20.00     0.029 C 
HETATM    6  C6  UNL     1     -35.168   5.111   5.080  1.00 20.00     0.106 C 
HETATM    7  N7  UNL     1     -32.048   7.637   2.365  1.00 20.00    -0.192 NA
HETATM    8 CL8  UNL     1     -34.700   3.408   5.283  1.00 20.00    -0.121 Cl
ENDROOT
TORSDOF 0
ENDMDL
MODEL 2
REMARK VINA RESULT:      -4.3     11.758     12.385
REMARK  0 active torsions:
REMARK  status: ('A' for Active; 'I' for Inactive)
ROOT
HETATM    1  C1  UNL     1     -34.727  13.647  -4.096  1.00 20.00     0.095 C 
HETATM    2  C2  UNL     1     -35.502  15.530  -2.771  1.00 20.00     0.011 C 
HETATM    3  C3  UNL     1     -34.549  14.902  -3.470  1.00 20.00     0.020 C 
HETATM    4  C4  UNL     1     -33.273  15.684  -3.492  1.00 20.00     0.051 C 
HETATM    5  C5  UNL     1     -33.730  17.066  -3.017  1.00 20.00     0.029 C 
HETATM    6  C6  UNL     1     -35.016  16.832  -2.221  1.00 20.00     0.106 C 
HETATM    7  N7  UNL     1     -34.872  12.618  -4.610  1.00 20.00    -0.192 NA
HETATM    8 CL8  UNL     1     -34.691  16.663  -0.481  1.00 20.00    -0.121 Cl
ENDROOT
TORSDOF 0
ENDMDL
MODEL 3
REMARK VINA RESULT:      -4.0     12.250     12.647
REMARK  0 active torsions:
REMARK  status: ('A' for Active; 'I' for Inactive)
ROOT
HETATM    1  C1  UNL     1     -34.657  13.637  -4.158  1.00 20.00     0.095 C 
HETATM    2  C2  UNL     1     -33.414  15.534  -3.287  1.00 20.00     0.011 C 
HETATM    3  C3  UNL     1     -34.546  14.832  -3.410  1.00 20.00     0.020 C 
HETATM    4  C4  UNL     1     -35.678  15.474  -2.671  1.00 20.00     0.051 C 
HETATM    5  C5  UNL     1     -34.953  16.473  -1.766  1.00 20.00     0.029 C 
HETATM    6  C6  UNL     1     -33.609  16.753  -2.444  1.00 20.00     0.106 C 
HETATM    7  N7  UNL     1     -34.748  12.658  -4.772  1.00 20.00    -0.192 NA
HETATM    8 CL8  UNL     1     -33.684  18.194  -3.483  1.00 20.00    -0.121 Cl
ENDROOT
TORSDOF 0
ENDMDL
MODEL 4
REMARK VINA RESULT:      -3.9     12.029     13.099
REMARK  0 active torsions:
REMARK  status: ('A' for Active; 'I' for Inactive)
ROOT
HETATM    1  C1  UNL     1     -35.206  14.463  -6.886  1.00 20.00     0.095 C 
HETATM    2  C2  UNL     1     -33.967  15.502  -5.074  1.00 20.00     0.011 C 
HETATM    3  C3  UNL     1     -34.561  14.439  -5.628  1.00 20.00     0.020 C 
HETATM    4  C4  UNL     1     -34.470  13.232  -4.748  1.00 20.00     0.051 C 
HETATM    5  C5  UNL     1     -33.390  13.641  -3.744  1.00 20.00     0.029 C 
HETATM    6  C6  UNL     1     -33.381  15.173  -3.738  1.00 20.00     0.106 C 
HETATM    7  N7  UNL     1     -35.735  14.482  -7.918  1.00 20.00    -0.192 NA
HETATM    8 CL8  UNL     1     -34.416  15.831  -2.452  1.00 20.00    -0.121 Cl
ENDROOT
TORSDOF 0
ENDMDL
MODEL 5
REMARK VINA RESULT:      -3.9     12.039     12.711
REMARK  0 active torsions:
REMARK  status: ('A' for Active; 'I' for Inactive)
ROOT
HETATM    1  C1  UNL     1     -34.553  15.833  -2.224  1.00 20.00     0.095 C 
HETATM    2  C2  UNL     1     -35.431  15.342  -4.436  1.00 20.00     0.011 C 
HETATM    3  C3  UNL     1     -34.638  15.050  -3.398  1.00 20.00     0.020 C 
HETATM    4  C4  UNL     1     -33.845  13.805  -3.642  1.00 20.00     0.051 C 
HETATM    5  C5  UNL     1     -34.573  13.182  -4.836  1.00 20.00     0.029 C 
HETATM    6  C6  UNL     1     -35.297  14.337  -5.534  1.00 20.00     0.106 C 
HETATM    7  N7  UNL     1     -34.484  16.475  -1.261  1.00 20.00    -0.192 NA
HETATM    8 CL8  UNL     1     -34.324  15.020  -6.855  1.00 20.00    -0.121 Cl
ENDROOT
TORSDOF 0
ENDMDL
MODEL 6
REMARK VINA RESULT:      -3.9      1.295      1.817
REMARK  0 active torsions:
REMARK  status: ('A' for Active; 'I' for Inactive)
ROOT
HETATM    1  C1  UNL     1     -32.699   7.220   2.781  1.00 20.00     0.095 C 
HETATM    2  C2  UNL     1     -33.077   5.763   4.687  1.00 20.00     0.011 C 
HETATM    3  C3  UNL     1     -33.505   6.373   3.577  1.00 20.00     0.020 C 
HETATM    4  C4  UNL     1     -34.941   6.062   3.292  1.00 20.00     0.051 C 
HETATM    5  C5  UNL     1     -35.199   4.857   4.200  1.00 20.00     0.029 C 
HETATM    6  C6  UNL     1     -34.156   4.943   5.318  1.00 20.00     0.106 C 
HETATM    7  N7  UNL     1     -32.039   7.914   2.128  1.00 20.00    -0.192 NA
HETATM    8 CL8  UNL     1     -34.793   5.787   6.746  1.00 20.00    -0.121 Cl
ENDROOT
TORSDOF 0
ENDMDL
MODEL 7
REMARK VINA RESULT:      -3.9     12.063     12.801
REMARK  0 active torsions:
REMARK  status: ('A' for Active; 'I' for Inactive)
ROOT
HETATM    1  C1  UNL     1     -37.044  14.752  -3.642  1.00 20.00     0.095 C 
HETATM    2  C2  UNL     1     -35.524  16.575  -3.127  1.00 20.00     0.011 C 
HETATM    3  C3  UNL     1     -35.760  15.283  -3.380  1.00 20.00     0.020 C 
HETATM    4  C4  UNL     1     -34.503  14.472  -3.337  1.00 20.00     0.051 C 
HETATM    5  C5  UNL     1     -33.418  15.550  -3.397  1.00 20.00     0.029 C 
HETATM    6  C6  UNL     1     -34.072  16.834  -2.880  1.00 20.00     0.106 C 
HETATM    7  N7  UNL     1     -38.097  14.316  -3.856  1.00 20.00    -0.192 NA
HETATM    8 CL8  UNL     1     -33.792  17.059  -1.139  1.00 20.00    -0.121 Cl
ENDROOT
TORSDOF 0
ENDMDL
MODEL 8
REMARK VINA RESULT:      -3.8      2.443      2.900
REMARK  0 active torsions:
REMARK  status: ('A' for Active; 'I' for Inactive)
ROOT
HETATM    1  C1  UNL     1     -33.665   7.024   6.605  1.00 20.00     0.095 C 
HETATM    2  C2  UNL     1     -34.623   6.523   4.430  1.00 20.00     0.011 C 
HETATM    3  C3  UNL     1     -34.199   6.140   5.640  1.00 20.00     0.020 C 
HETATM    4  C4  UNL     1     -34.347   4.664   5.836  1.00 20.00     0.051 C 
HETATM    5  C5  UNL     1     -35.286   4.276   4.692  1.00 20.00     0.029 C 
HETATM    6  C6  UNL     1     -35.126   5.366   3.629  1.00 20.00     0.106 C 
HETATM    7  N7  UNL     1     -33.226   7.749   7.397  1.00 20.00    -0.192 NA
HETATM    8 CL8  UNL     1     -33.920   4.917   2.403  1.00 20.00    -0.121 Cl
ENDROOT
TORSDOF 0
ENDMDL
MODEL 9
REMARK VINA RESULT:      -3.8      9.677     10.428
REMARK  0 active torsions:
REMARK  status: ('A' for Active; 'I' for Inactive)
ROOT
HETATM    1  C1  UNL     1     -41.722   3.587  -2.500  1.00 20.00     0.095 C 
HETATM    2  C2  UNL     1     -42.018   5.992  -2.328  1.00 20.00     0.011 C 
HETATM    3  C3  UNL     1     -41.593   4.826  -1.830  1.00 20.00     0.020 C 
HETATM    4  C4  UNL     1     -40.981   4.993  -0.475  1.00 20.00     0.051 C 
HETATM    5  C5  UNL     1     -40.758   6.506  -0.403  1.00 20.00     0.029 C 
HETATM    6  C6  UNL     1     -41.753   7.124  -1.389  1.00 20.00     0.106 C 
HETATM    7  N7  UNL     1     -41.828   2.571  -3.049  1.00 20.00    -0.192 NA
HETATM    8 CL8  UNL     1     -43.264   7.602  -0.585  1.00 20.00    -0.121 Cl
ENDROOT
TORSDOF 0
ENDMDL
