MODEL 1
REMARK VINA RESULT:      -5.0      0.000      0.000
REMARK  3 active torsions:
REMARK  status: ('A' for Active; 'I' for Inactive)
REMARK    1  A    between atoms: C4_4  and  C5_5 
REMARK    2  A    between atoms: C5_5  and  C7_7 
REMARK    3  A    between atoms: C6_6  and  C7_7 
ROOT
HETATM    1  C1  UNL     1     -32.084   8.033   2.076  1.00 20.00     0.059 C 
HETATM    2  C4  UNL     1     -32.219   6.864   2.957  1.00 20.00     0.125 C 
HETATM    3  N8  UNL     1     -31.976   8.955   1.380  1.00 20.00    -0.197 NA
ENDROOT
BRANCH   2   4
HETATM    4  C5  UNL     1     -33.474   6.978   3.829  1.00 20.00     0.034 C 
BRANCH   4   5
HETATM    5  C7  UNL     1     -34.120   5.616   4.144  1.00 20.00     0.086 C 
HETATM    6 CL9  UNL     1     -35.802   5.566   3.522  1.00 20.00    -0.125 Cl
BRANCH   5   7
HETATM    7  C6  UNL     1     -34.061   5.266   5.654  1.00 20.00    -0.004 C 
HETATM    8  C2  UNL     1     -34.033   6.525   6.529  1.00 20.00     0.011 C 
HETATM    9  C3  UNL     1     -35.181   4.333   6.126  1.00 20.00     0.011 C 
ENDBRANCH   5   7
ENDBRANCH   4   5
ENDBRANCH   2   4
TORSDOF 3
ENDMDL
MODEL 2
REMARK VINA RESULT:      -5.0      0.740      1.383
REMARK  3 active torsions:
REMARK  status: ('A' for Active; 'I' for Inactive)
REMARK    1  A    between atoms: C4_4  and  C5_5 
REMARK    2  A    between atoms: C5_5  and  C7_7 
REMARK    3  A    between atoms: C6_6  and  C7_7 
ROOT
HETATM    1  C1  UNL     1     -32.173   8.359   1.999  1.00 20.00     0.059 C 
HETATM    2  C4  UNL     1     -31.971   7.072   2.681  1.00 20.00     0.125 C 
HETATM    3  N8  UNL     1     -32.331   9.374   1.461  1.00 20.00    -0.197 NA
ENDROOT
BRANCH   2   4
HETATM    4  C5  UNL     1     -32.819   6.988   3.955  1.00 20.00     0.034 C 
BRANCH   4   5
HETATM    5  C7  UNL     1     -33.575   5.653   4.093  1.00 20.00     0.086 C 
HETATM    6 CL9  UNL     1     -34.447   5.272   2.571  1.00 20.00    -0.125 Cl
BRANCH   5   7
HETATM    7  C6  UNL     1     -34.529   5.635   5.315  1.00 20.00    -0.004 C 
HETATM    8  C2  UNL     1     -34.790   4.207   5.811  1.00 20.00     0.011 C 
HETATM    9  C3  UNL     1     -34.069   6.512   6.484  1.00 20.00     0.011 C 
ENDBRANCH   5   7
ENDBRANCH   4   5
ENDBRANCH   2   4
TORSDOF 3
ENDMDL
MODEL 3
REMARK VINA RESULT:      -4.7      1.605      1.914
REMARK  3 active torsions:
REMARK  status: ('A' for Active; 'I' for Inactive)
REMARK    1  A    between atoms: C4_4  and  C5_5 
REMARK    2  A    between atoms: C5_5  and  C7_7 
REMARK    3  A    between atoms: C6_6  and  C7_7 
ROOT
HETATM    1  C1  UNL     1     -31.952   8.200   2.179  1.00 20.00     0.059 C 
HETATM    2  C4  UNL     1     -31.717   7.565   3.484  1.00 20.00     0.125 C 
HETATM    3  N8  UNL     1     -32.137   8.703   1.150  1.00 20.00    -0.197 NA
ENDROOT
BRANCH   2   4
HETATM    4  C5  UNL     1     -32.533   6.274   3.619  1.00 20.00     0.034 C 
BRANCH   4   5
HETATM    5  C7  UNL     1     -33.780   6.437   4.507  1.00 20.00     0.086 C 
HETATM    6 CL9  UNL     1     -33.298   6.837   6.189  1.00 20.00    -0.125 Cl
BRANCH   5   7
HETATM    7  C6  UNL     1     -34.707   5.195   4.462  1.00 20.00    -0.004 C 
HETATM    8  C2  UNL     1     -34.978   4.635   5.864  1.00 20.00     0.011 C 
HETATM    9  C3  UNL     1     -36.035   5.428   3.733  1.00 20.00     0.011 C 
ENDBRANCH   5   7
ENDBRANCH   4   5
ENDBRANCH   2   4
TORSDOF 3
ENDMDL
MODEL 4
REMARK VINA RESULT:      -4.2     11.214     11.871
REMARK  3 active torsions:
REMARK  status: ('A' for Active; 'I' for Inactive)
REMARK    1  A    between atoms: C4_4  and  C5_5 
REMARK    2  A    between atoms: C5_5  and  C7_7 
REMARK    3  A    between atoms: C6_6  and  C7_7 
ROOT
HETATM    1  C1  UNL     1     -34.052  13.493  -4.120  1.00 20.00     0.059 C 
HETATM    2  C4  UNL     1     -32.961  14.375  -3.680  1.00 20.00     0.125 C 
HETATM    3  N8  UNL     1     -34.912  12.796  -4.466  1.00 20.00    -0.197 NA
ENDROOT
BRANCH   2   4
HETATM    4  C5  UNL     1     -33.461  15.812  -3.492  1.00 20.00     0.034 C 
BRANCH   4   5
HETATM    5  C7  UNL     1     -34.429  15.966  -2.304  1.00 20.00     0.086 C 
HETATM    6 CL9  UNL     1     -36.074  16.378  -2.892  1.00 20.00    -0.125 Cl
BRANCH   5   7
HETATM    7  C6  UNL     1     -33.925  16.993  -1.257  1.00 20.00    -0.004 C 
HETATM    8  C2  UNL     1     -33.657  18.365  -1.888  1.00 20.00     0.011 C 
HETATM    9  C3  UNL     1     -34.846  17.154  -0.042  1.00 20.00     0.011 C 
ENDBRANCH   5   7
ENDBRANCH   4   5
ENDBRANCH   2   4
TORSDOF 3
ENDMDL
MODEL 5
REMARK VINA RESULT:      -4.0     11.661     12.354
REMARK  3 active torsions:
REMARK  status: ('A' for Active; 'I' for Inactive)
REMARK    1  A    between atoms: C4_4  and  C5_5 
REMARK    2  A    between atoms: C5_5  and  C7_7 
REMARK    3  A    between atoms: C6_6  and  C7_7 
ROOT
HETATM    1  C1  UNL     1     -36.181  13.957  -4.031  1.00 20.00     0.059 C 
HETATM    2  C4  UNL     1     -34.815  13.482  -4.294  1.00 20.00     0.125 C 
HETATM    3  N8  UNL     1     -37.260  14.331  -3.825  1.00 20.00    -0.197 NA
ENDROOT
BRANCH   2   4
HETATM    4  C5  UNL     1     -33.782  14.368  -3.587  1.00 20.00     0.034 C 
BRANCH   4   5
HETATM    5  C7  UNL     1     -34.060  15.873  -3.755  1.00 20.00     0.086 C 
HETATM    6 CL9  UNL     1     -33.151  16.521  -5.161  1.00 20.00    -0.125 Cl
BRANCH   5   7
HETATM    7  C6  UNL     1     -33.761  16.680  -2.465  1.00 20.00    -0.004 C 
HETATM    8  C2  UNL     1     -33.774  18.191  -2.722  1.00 20.00     0.011 C 
HETATM    9  C3  UNL     1     -34.686  16.348  -1.288  1.00 20.00     0.011 C 
ENDBRANCH   5   7
ENDBRANCH   4   5
ENDBRANCH   2   4
TORSDOF 3
ENDMDL
MODEL 6
REMARK VINA RESULT:      -3.9     11.380     12.702
REMARK  3 active torsions:
REMARK  status: ('A' for Active; 'I' for Inactive)
REMARK    1  A    between atoms: C4_4  and  C5_5 
REMARK    2  A    between atoms: C5_5  and  C7_7 
REMARK    3  A    between atoms: C6_6  and  C7_7 
ROOT
HETATM    1  C1  UNL     1     -35.467  13.507  -4.307  1.00 20.00     0.059 C 
HETATM    2  C4  UNL     1     -36.504  14.457  -3.876  1.00 20.00     0.125 C 
HETATM    3  N8  UNL     1     -34.649  12.757  -4.646  1.00 20.00    -0.197 NA
ENDROOT
BRANCH   2   4
HETATM    4  C5  UNL     1     -35.920  15.864  -3.705  1.00 20.00     0.034 C 
BRANCH   4   5
HETATM    5  C7  UNL     1     -34.530  15.867  -3.042  1.00 20.00     0.086 C 
HETATM    6 CL9  UNL     1     -34.674  16.280  -1.301  1.00 20.00    -0.125 Cl
BRANCH   5   7
HETATM    7  C6  UNL     1     -33.528  16.802  -3.767  1.00 20.00    -0.004 C 
HETATM    8  C2  UNL     1     -33.380  16.437  -5.249  1.00 20.00     0.011 C 
HETATM    9  C3  UNL     1     -33.850  18.294  -3.632  1.00 20.00     0.011 C 
ENDBRANCH   5   7
ENDBRANCH   4   5
ENDBRANCH   2   4
TORSDOF 3
ENDMDL
MODEL 7
REMARK VINA RESULT:      -3.9     11.230     12.476
REMARK  3 active torsions:
REMARK  status: ('A' for Active; 'I' for Inactive)
REMARK    1  A    between atoms: C4_4  and  C5_5 
REMARK    2  A    between atoms: C5_5  and  C7_7 
REMARK    3  A    between atoms: C6_6  and  C7_7 
ROOT
HETATM    1  C1  UNL     1     -37.684  15.375  -3.572  1.00 20.00     0.059 C 
HETATM    2  C4  UNL     1     -37.279  16.764  -3.312  1.00 20.00     0.125 C 
HETATM    3  N8  UNL     1     -38.005  14.279  -3.778  1.00 20.00    -0.197 NA
ENDROOT
BRANCH   2   4
HETATM    4  C5  UNL     1     -35.752  16.900  -3.321  1.00 20.00     0.034 C 
BRANCH   4   5
HETATM    5  C7  UNL     1     -35.045  15.833  -2.465  1.00 20.00     0.086 C 
HETATM    6 CL9  UNL     1     -34.595  16.516  -0.867  1.00 20.00    -0.125 Cl
BRANCH   5   7
HETATM    7  C6  UNL     1     -33.818  15.213  -3.183  1.00 20.00    -0.004 C 
HETATM    8  C2  UNL     1     -34.114  13.798  -3.694  1.00 20.00     0.011 C 
HETATM    9  C3  UNL     1     -33.260  16.069  -4.325  1.00 20.00     0.011 C 
ENDBRANCH   5   7
ENDBRANCH   4   5
ENDBRANCH   2   4
TORSDOF 3
ENDMDL
MODEL 8
REMARK VINA RESULT:      -3.8     11.829     12.222
REMARK  3 active torsions:
REMARK  status: ('A' for Active; 'I' for Inactive)
REMARK    1  A    between atoms: C4_4  and  C5_5 
REMARK    2  A    between atoms: C5_5  and  C7_7 
REMARK    3  A    between atoms: C6_6  and  C7_7 
ROOT
HETATM    1  C1  UNL     1     -35.216  13.652  -4.823  1.00 20.00     0.059 C 
HETATM    2  C4  UNL     1     -36.028  14.877  -4.857  1.00 20.00     0.125 C 
HETATM    3  N8  UNL     1     -34.574  12.686  -4.798  1.00 20.00    -0.197 NA
ENDROOT
BRANCH   2   4
HETATM    4  C5  UNL     1     -36.640  15.166  -3.481  1.00 20.00     0.034 C 
BRANCH   4   5
HETATM    5  C7  UNL     1     -36.027  16.399  -2.792  1.00 20.00     0.086 C 
HETATM    6 CL9  UNL     1     -35.642  17.663  -4.007  1.00 20.00    -0.125 Cl
BRANCH   5   7
HETATM    7  C6  UNL     1     -34.788  16.044  -1.930  1.00 20.00    -0.004 C 
HETATM    8  C2  UNL     1     -33.482  16.209  -2.716  1.00 20.00     0.011 C 
HETATM    9  C3  UNL     1     -34.698  16.817  -0.610  1.00 20.00     0.011 C 
ENDBRANCH   5   7
ENDBRANCH   4   5
ENDBRANCH   2   4
TORSDOF 3
ENDMDL
MODEL 9
REMARK VINA RESULT:      -3.8     11.376     11.976
REMARK  3 active torsions:
REMARK  status: ('A' for Active; 'I' for Inactive)
REMARK    1  A    between atoms: C4_4  and  C5_5 
REMARK    2  A    between atoms: C5_5  and  C7_7 
REMARK    3  A    between atoms: C6_6  and  C7_7 
ROOT
HETATM    1  C1  UNL     1     -34.665  17.051  -0.308  1.00 20.00     0.059 C 
HETATM    2  C4  UNL     1     -34.085  16.696  -1.611  1.00 20.00     0.125 C 
HETATM    3  N8  UNL     1     -35.122  17.332   0.721  1.00 20.00    -0.197 NA
ENDROOT
BRANCH   2   4
HETATM    4  C5  UNL     1     -35.060  15.842  -2.430  1.00 20.00     0.034 C 
BRANCH   4   5
HETATM    5  C7  UNL     1     -34.390  14.624  -3.091  1.00 20.00     0.086 C 
HETATM    6 CL9  UNL     1     -32.795  15.086  -3.775  1.00 20.00    -0.125 Cl
BRANCH   5   7
HETATM    7  C6  UNL     1     -35.294  13.956  -4.159  1.00 20.00    -0.004 C 
HETATM    8  C2  UNL     1     -36.743  14.450  -4.068  1.00 20.00     0.011 C 
HETATM    9  C3  UNL     1     -34.786  14.108  -5.597  1.00 20.00     0.011 C 
ENDBRANCH   5   7
ENDBRANCH   4   5
ENDBRANCH   2   4
TORSDOF 3
ENDMDL
