MODEL 1
REMARK VINA RESULT:      -4.2      0.000      0.000
REMARK  2 active torsions:
REMARK  status: ('A' for Active; 'I' for Inactive)
REMARK    1  A    between atoms: C4_4  and  C5_5 
REMARK    2  A    between atoms: C4_4  and  C6_6 
ROOT
HETATM    1  C1  UNL     1     -32.187   7.864   2.396  1.00 20.00     0.063 C 
HETATM    2  C2  UNL     1     -32.153   5.444   2.803  1.00 20.00     0.025 C 
HETATM    3  C5  UNL     1     -32.319   6.827   3.437  1.00 20.00     0.090 C 
HETATM    4  N7  UNL     1     -32.082   8.681   1.579  1.00 20.00    -0.197 NA
ENDROOT
BRANCH   3   5
HETATM    5  C4  UNL     1     -33.684   6.920   4.149  1.00 20.00     0.038 C 
BRANCH   5   6
HETATM    6  C6  UNL     1     -34.088   5.672   4.953  1.00 20.00     0.079 C 
HETATM    7  C3  UNL     1     -34.320   6.020   6.420  1.00 20.00     0.026 C 
HETATM    8 CL8  UNL     1     -35.581   4.937   4.294  1.00 20.00    -0.125 Cl
ENDBRANCH   5   6
ENDBRANCH   3   5
TORSDOF 2
ENDMDL
MODEL 2
REMARK VINA RESULT:      -3.9     11.303     12.696
REMARK  2 active torsions:
REMARK  status: ('A' for Active; 'I' for Inactive)
REMARK    1  A    between atoms: C4_4  and  C5_5 
REMARK    2  A    between atoms: C4_4  and  C6_6 
ROOT
HETATM    1  C1  UNL     1     -34.430  13.731  -3.862  1.00 20.00     0.063 C 
HETATM    2  C2  UNL     1     -34.763  15.726  -2.472  1.00 20.00     0.025 C 
HETATM    3  C5  UNL     1     -33.750  14.893  -3.260  1.00 20.00     0.090 C 
HETATM    4  N7  UNL     1     -34.965  12.816  -4.336  1.00 20.00    -0.197 NA
ENDROOT
BRANCH   3   5
HETATM    5  C4  UNL     1     -33.073  15.765  -4.337  1.00 20.00     0.038 C 
BRANCH   5   6
HETATM    6  C6  UNL     1     -34.035  16.442  -5.329  1.00 20.00     0.079 C 
HETATM    7  C3  UNL     1     -33.622  17.887  -5.590  1.00 20.00     0.026 C 
HETATM    8 CL8  UNL     1     -34.076  15.565  -6.888  1.00 20.00    -0.125 Cl
ENDBRANCH   5   6
ENDBRANCH   3   5
TORSDOF 2
ENDMDL
MODEL 3
REMARK VINA RESULT:      -3.9      1.828      1.947
REMARK  2 active torsions:
REMARK  status: ('A' for Active; 'I' for Inactive)
REMARK    1  A    between atoms: C4_4  and  C5_5 
REMARK    2  A    between atoms: C4_4  and  C6_6 
ROOT
HETATM    1  C1  UNL     1     -32.536   6.787   3.232  1.00 20.00     0.063 C 
HETATM    2  C2  UNL     1     -33.887   5.049   2.147  1.00 20.00     0.025 C 
HETATM    3  C5  UNL     1     -33.476   5.678   3.480  1.00 20.00     0.090 C 
HETATM    4  N7  UNL     1     -31.795   7.658   3.038  1.00 20.00    -0.197 NA
ENDROOT
BRANCH   3   5
HETATM    5  C4  UNL     1     -34.726   6.164   4.242  1.00 20.00     0.038 C 
BRANCH   5   6
HETATM    6  C6  UNL     1     -34.763   5.802   5.737  1.00 20.00     0.079 C 
HETATM    7  C3  UNL     1     -34.403   4.335   5.951  1.00 20.00     0.026 C 
HETATM    8 CL8  UNL     1     -33.624   6.816   6.673  1.00 20.00    -0.125 Cl
ENDBRANCH   5   6
ENDBRANCH   3   5
TORSDOF 2
ENDMDL
MODEL 4
REMARK VINA RESULT:      -3.9     11.080     11.599
REMARK  2 active torsions:
REMARK  status: ('A' for Active; 'I' for Inactive)
REMARK    1  A    between atoms: C4_4  and  C5_5 
REMARK    2  A    between atoms: C4_4  and  C6_6 
ROOT
HETATM    1  C1  UNL     1     -34.553  13.693  -4.216  1.00 20.00     0.063 C 
HETATM    2  C2  UNL     1     -32.488  14.834  -3.540  1.00 20.00     0.025 C 
HETATM    3  C5  UNL     1     -33.983  14.996  -3.827  1.00 20.00     0.090 C 
HETATM    4  N7  UNL     1     -35.002  12.668  -4.524  1.00 20.00    -0.197 NA
ENDROOT
BRANCH   3   5
HETATM    5  C4  UNL     1     -34.698  15.572  -2.588  1.00 20.00     0.038 C 
BRANCH   5   6
HETATM    6  C6  UNL     1     -33.935  16.685  -1.850  1.00 20.00     0.079 C 
HETATM    7  C3  UNL     1     -33.976  17.990  -2.638  1.00 20.00     0.026 C 
HETATM    8 CL8  UNL     1     -34.626  16.973  -0.225  1.00 20.00    -0.125 Cl
ENDBRANCH   5   6
ENDBRANCH   3   5
TORSDOF 2
ENDMDL
MODEL 5
REMARK VINA RESULT:      -3.7      3.082      4.336
REMARK  2 active torsions:
REMARK  status: ('A' for Active; 'I' for Inactive)
REMARK    1  A    between atoms: C4_4  and  C5_5 
REMARK    2  A    between atoms: C4_4  and  C6_6 
ROOT
HETATM    1  C1  UNL     1     -34.637   4.689   5.255  1.00 20.00     0.063 C 
HETATM    2  C2  UNL     1     -34.134   6.686   6.590  1.00 20.00     0.025 C 
HETATM    3  C5  UNL     1     -33.723   5.839   5.384  1.00 20.00     0.090 C 
HETATM    4  N7  UNL     1     -35.356   3.783   5.154  1.00 20.00    -0.197 NA
ENDROOT
BRANCH   3   5
HETATM    5  C4  UNL     1     -33.728   6.704   4.106  1.00 20.00     0.038 C 
BRANCH   5   6
HETATM    6  C6  UNL     1     -32.395   6.744   3.339  1.00 20.00     0.079 C 
HETATM    7  C3  UNL     1     -32.217   5.490   2.489  1.00 20.00     0.026 C 
HETATM    8 CL8  UNL     1     -32.308   8.178   2.273  1.00 20.00    -0.125 Cl
ENDBRANCH   5   6
ENDBRANCH   3   5
TORSDOF 2
ENDMDL
MODEL 6
REMARK VINA RESULT:      -3.7     11.591     11.884
REMARK  2 active torsions:
REMARK  status: ('A' for Active; 'I' for Inactive)
REMARK    1  A    between atoms: C4_4  and  C5_5 
REMARK    2  A    between atoms: C4_4  and  C6_6 
ROOT
HETATM    1  C1  UNL     1     -36.729  14.447  -3.979  1.00 20.00     0.063 C 
HETATM    2  C2  UNL     1     -34.741  13.244  -4.770  1.00 20.00     0.025 C 
HETATM    3  C5  UNL     1     -35.286  14.579  -4.258  1.00 20.00     0.090 C 
HETATM    4  N7  UNL     1     -37.864  14.344  -3.761  1.00 20.00    -0.197 NA
ENDROOT
BRANCH   3   5
HETATM    5  C4  UNL     1     -34.512  15.018  -2.998  1.00 20.00     0.038 C 
BRANCH   5   6
HETATM    6  C6  UNL     1     -34.819  16.442  -2.505  1.00 20.00     0.079 C 
HETATM    7  C3  UNL     1     -34.616  16.553  -0.997  1.00 20.00     0.026 C 
HETATM    8 CL8  UNL     1     -33.772  17.645  -3.316  1.00 20.00    -0.125 Cl
ENDBRANCH   5   6
ENDBRANCH   3   5
TORSDOF 2
ENDMDL
MODEL 7
REMARK VINA RESULT:      -3.7      2.939      4.041
REMARK  2 active torsions:
REMARK  status: ('A' for Active; 'I' for Inactive)
REMARK    1  A    between atoms: C4_4  and  C5_5 
REMARK    2  A    between atoms: C4_4  and  C6_6 
ROOT
HETATM    1  C1  UNL     1     -33.968   6.450   5.396  1.00 20.00     0.063 C 
HETATM    2  C2  UNL     1     -35.101   5.453   3.461  1.00 20.00     0.025 C 
HETATM    3  C5  UNL     1     -34.010   6.421   3.922  1.00 20.00     0.090 C 
HETATM    4  N7  UNL     1     -33.936   6.474   6.556  1.00 20.00    -0.197 NA
ENDROOT
BRANCH   3   5
HETATM    5  C4  UNL     1     -32.648   6.001   3.332  1.00 20.00     0.038 C 
BRANCH   5   6
HETATM    6  C6  UNL     1     -31.717   7.162   2.944  1.00 20.00     0.079 C 
HETATM    7  C3  UNL     1     -32.459   8.202   2.111  1.00 20.00     0.026 C 
HETATM    8 CL8  UNL     1     -31.046   7.963   4.397  1.00 20.00    -0.125 Cl
ENDBRANCH   5   6
ENDBRANCH   3   5
TORSDOF 2
ENDMDL
MODEL 8
REMARK VINA RESULT:      -3.7     11.432     11.935
REMARK  2 active torsions:
REMARK  status: ('A' for Active; 'I' for Inactive)
REMARK    1  A    between atoms: C4_4  and  C5_5 
REMARK    2  A    between atoms: C4_4  and  C6_6 
ROOT
HETATM    1  C1  UNL     1     -35.156  13.665  -4.193  1.00 20.00     0.063 C 
HETATM    2  C2  UNL     1     -36.039  15.922  -4.577  1.00 20.00     0.025 C 
HETATM    3  C5  UNL     1     -35.611  14.898  -3.524  1.00 20.00     0.090 C 
HETATM    4  N7  UNL     1     -34.799  12.693  -4.718  1.00 20.00    -0.197 NA
ENDROOT
BRANCH   3   5
HETATM    5  C4  UNL     1     -34.503  15.492  -2.631  1.00 20.00     0.038 C 
BRANCH   5   6
HETATM    6  C6  UNL     1     -34.819  16.870  -2.026  1.00 20.00     0.079 C 
HETATM    7  C3  UNL     1     -34.650  16.853  -0.510  1.00 20.00     0.026 C 
HETATM    8 CL8  UNL     1     -33.751  18.133  -2.709  1.00 20.00    -0.125 Cl
ENDBRANCH   5   6
ENDBRANCH   3   5
TORSDOF 2
ENDMDL
MODEL 9
REMARK VINA RESULT:      -3.7     11.189     11.964
REMARK  2 active torsions:
REMARK  status: ('A' for Active; 'I' for Inactive)
REMARK    1  A    between atoms: C4_4  and  C5_5 
REMARK    2  A    between atoms: C4_4  and  C6_6 
ROOT
HETATM    1  C1  UNL     1     -36.725  14.496  -4.042  1.00 20.00     0.063 C 
HETATM    2  C2  UNL     1     -34.864  13.794  -5.480  1.00 20.00     0.025 C 
HETATM    3  C5  UNL     1     -35.323  14.778  -4.401  1.00 20.00     0.090 C 
HETATM    4  N7  UNL     1     -37.829  14.275  -3.759  1.00 20.00    -0.197 NA
ENDROOT
BRANCH   3   5
HETATM    5  C4  UNL     1     -34.399  14.680  -3.170  1.00 20.00     0.038 C 
BRANCH   5   6
HETATM    6  C6  UNL     1     -33.845  16.021  -2.659  1.00 20.00     0.079 C 
HETATM    7  C3  UNL     1     -34.140  17.145  -3.647  1.00 20.00     0.026 C 
HETATM    8 CL8  UNL     1     -34.553  16.448  -1.073  1.00 20.00    -0.125 Cl
ENDBRANCH   5   6
ENDBRANCH   3   5
TORSDOF 2
ENDMDL
