MODEL 1
REMARK VINA RESULT:      -4.5      0.000      0.000
REMARK  2 active torsions:
REMARK  status: ('A' for Active; 'I' for Inactive)
REMARK    1  A    between atoms: C3_3  and  C4_4 
REMARK    2  A    between atoms: C4_4  and  C5_5 
ROOT
HETATM    1  C1  UNL     1     -32.480   6.687   3.178  1.00 20.00     0.059 C 
HETATM    2  C3  UNL     1     -33.566   5.737   2.901  1.00 20.00     0.125 C 
HETATM    3  N6  UNL     1     -31.623   7.436   3.396  1.00 20.00    -0.197 NA
ENDROOT
BRANCH   2   4
HETATM    4  C4  UNL     1     -34.641   5.748   3.994  1.00 20.00     0.034 C 
BRANCH   4   5
HETATM    5  C5  UNL     1     -34.172   5.266   5.376  1.00 20.00     0.079 C 
HETATM    6  C2  UNL     1     -35.143   4.245   5.958  1.00 20.00     0.026 C 
HETATM    7 CL7  UNL     1     -34.024   6.635   6.518  1.00 20.00    -0.125 Cl
ENDBRANCH   4   5
ENDBRANCH   2   4
TORSDOF 2
ENDMDL
MODEL 2
REMARK VINA RESULT:      -4.4      1.080      1.237
REMARK  2 active torsions:
REMARK  status: ('A' for Active; 'I' for Inactive)
REMARK    1  A    between atoms: C3_3  and  C4_4 
REMARK    2  A    between atoms: C4_4  and  C5_5 
ROOT
HETATM    1  C1  UNL     1     -32.183   7.713   2.485  1.00 20.00     0.059 C 
HETATM    2  C3  UNL     1     -32.301   6.537   3.357  1.00 20.00     0.125 C 
HETATM    3  N6  UNL     1     -32.088   8.641   1.796  1.00 20.00    -0.197 NA
ENDROOT
BRANCH   2   4
HETATM    4  C4  UNL     1     -33.759   6.207   3.695  1.00 20.00     0.034 C 
BRANCH   4   5
HETATM    5  C5  UNL     1     -33.970   5.456   5.019  1.00 20.00     0.079 C 
HETATM    6  C2  UNL     1     -35.264   4.651   4.992  1.00 20.00     0.026 C 
HETATM    7 CL7  UNL     1     -34.027   6.592   6.400  1.00 20.00    -0.125 Cl
ENDBRANCH   4   5
ENDBRANCH   2   4
TORSDOF 2
ENDMDL
MODEL 3
REMARK VINA RESULT:      -4.4      1.558      1.693
REMARK  2 active torsions:
REMARK  status: ('A' for Active; 'I' for Inactive)
REMARK    1  A    between atoms: C3_3  and  C4_4 
REMARK    2  A    between atoms: C4_4  and  C5_5 
ROOT
HETATM    1  C1  UNL     1     -32.408   7.264   2.848  1.00 20.00     0.059 C 
HETATM    2  C3  UNL     1     -32.766   6.107   3.679  1.00 20.00     0.125 C 
HETATM    3  N6  UNL     1     -32.124   8.177   2.191  1.00 20.00    -0.197 NA
ENDROOT
BRANCH   2   4
HETATM    4  C4  UNL     1     -34.280   5.872   3.727  1.00 20.00     0.034 C 
BRANCH   4   5
HETATM    5  C5  UNL     1     -34.855   5.600   5.126  1.00 20.00     0.079 C 
HETATM    6  C2  UNL     1     -34.030   6.298   6.202  1.00 20.00     0.026 C 
HETATM    7 CL7  UNL     1     -34.892   3.846   5.477  1.00 20.00    -0.125 Cl
ENDBRANCH   4   5
ENDBRANCH   2   4
TORSDOF 2
ENDMDL
MODEL 4
REMARK VINA RESULT:      -3.9      2.778      3.921
REMARK  2 active torsions:
REMARK  status: ('A' for Active; 'I' for Inactive)
REMARK    1  A    between atoms: C3_3  and  C4_4 
REMARK    2  A    between atoms: C4_4  and  C5_5 
ROOT
HETATM    1  C1  UNL     1     -34.768   4.624   5.823  1.00 20.00     0.059 C 
HETATM    2  C3  UNL     1     -34.231   5.933   6.220  1.00 20.00     0.125 C 
HETATM    3  N6  UNL     1     -35.192   3.590   5.511  1.00 20.00    -0.197 NA
ENDROOT
BRANCH   2   4
HETATM    4  C4  UNL     1     -33.868   6.802   5.010  1.00 20.00     0.034 C 
BRANCH   4   5
HETATM    5  C5  UNL     1     -33.091   6.081   3.898  1.00 20.00     0.079 C 
HETATM    6  C2  UNL     1     -32.085   7.017   3.237  1.00 20.00     0.026 C 
HETATM    7 CL7  UNL     1     -34.200   5.450   2.644  1.00 20.00    -0.125 Cl
ENDBRANCH   4   5
ENDBRANCH   2   4
TORSDOF 2
ENDMDL
MODEL 5
REMARK VINA RESULT:      -3.6     11.580     12.153
REMARK  2 active torsions:
REMARK  status: ('A' for Active; 'I' for Inactive)
REMARK    1  A    between atoms: C3_3  and  C4_4 
REMARK    2  A    between atoms: C4_4  and  C5_5 
ROOT
HETATM    1  C1  UNL     1     -34.047  13.560  -4.082  1.00 20.00     0.059 C 
HETATM    2  C3  UNL     1     -33.015  14.499  -3.624  1.00 20.00     0.125 C 
HETATM    3  N6  UNL     1     -34.862  12.817  -4.443  1.00 20.00    -0.197 NA
ENDROOT
BRANCH   2   4
HETATM    4  C4  UNL     1     -33.601  15.861  -3.234  1.00 20.00     0.034 C 
BRANCH   4   5
HETATM    5  C5  UNL     1     -34.865  15.802  -2.362  1.00 20.00     0.079 C 
HETATM    6  C2  UNL     1     -36.030  16.518  -3.038  1.00 20.00     0.026 C 
HETATM    7 CL7  UNL     1     -34.580  16.551  -0.763  1.00 20.00    -0.125 Cl
ENDBRANCH   4   5
ENDBRANCH   2   4
TORSDOF 2
ENDMDL
MODEL 6
REMARK VINA RESULT:      -3.6     12.023     12.378
REMARK  2 active torsions:
REMARK  status: ('A' for Active; 'I' for Inactive)
REMARK    1  A    between atoms: C3_3  and  C4_4 
REMARK    2  A    between atoms: C4_4  and  C5_5 
ROOT
HETATM    1  C1  UNL     1     -34.407  13.687  -4.038  1.00 20.00     0.059 C 
HETATM    2  C3  UNL     1     -33.751  14.892  -3.514  1.00 20.00     0.125 C 
HETATM    3  N6  UNL     1     -34.924  12.736  -4.453  1.00 20.00    -0.197 NA
ENDROOT
BRANCH   2   4
HETATM    4  C4  UNL     1     -34.642  15.658  -2.529  1.00 20.00     0.034 C 
BRANCH   4   5
HETATM    5  C5  UNL     1     -33.918  16.712  -1.676  1.00 20.00     0.079 C 
HETATM    6  C2  UNL     1     -34.682  16.992  -0.387  1.00 20.00     0.026 C 
HETATM    7 CL7  UNL     1     -33.724  18.246  -2.576  1.00 20.00    -0.125 Cl
ENDBRANCH   4   5
ENDBRANCH   2   4
TORSDOF 2
ENDMDL
MODEL 7
REMARK VINA RESULT:      -3.4      2.354      3.789
REMARK  2 active torsions:
REMARK  status: ('A' for Active; 'I' for Inactive)
REMARK    1  A    between atoms: C3_3  and  C4_4 
REMARK    2  A    between atoms: C4_4  and  C5_5 
ROOT
HETATM    1  C1  UNL     1     -34.069   6.113   5.125  1.00 20.00     0.059 C 
HETATM    2  C3  UNL     1     -34.101   5.769   3.698  1.00 20.00     0.125 C 
HETATM    3  N6  UNL     1     -34.045   6.384   6.253  1.00 20.00    -0.197 NA
ENDROOT
BRANCH   2   4
HETATM    4  C4  UNL     1     -32.793   6.130   2.984  1.00 20.00     0.034 C 
BRANCH   4   5
HETATM    5  C5  UNL     1     -32.387   7.610   3.074  1.00 20.00     0.079 C 
HETATM    6  C2  UNL     1     -32.001   8.157   1.704  1.00 20.00     0.026 C 
HETATM    7 CL7  UNL     1     -31.008   7.832   4.192  1.00 20.00    -0.125 Cl
ENDBRANCH   4   5
ENDBRANCH   2   4
TORSDOF 2
ENDMDL
MODEL 8
REMARK VINA RESULT:      -3.4     12.235     12.713
REMARK  2 active torsions:
REMARK  status: ('A' for Active; 'I' for Inactive)
REMARK    1  A    between atoms: C3_3  and  C4_4 
REMARK    2  A    between atoms: C4_4  and  C5_5 
ROOT
HETATM    1  C1  UNL     1     -36.009  13.936  -4.275  1.00 20.00     0.059 C 
HETATM    2  C3  UNL     1     -34.671  13.644  -4.805  1.00 20.00     0.125 C 
HETATM    3  N6  UNL     1     -37.066  14.167  -3.857  1.00 20.00    -0.197 NA
ENDROOT
BRANCH   2   4
HETATM    4  C4  UNL     1     -33.567  13.902  -3.772  1.00 20.00     0.034 C 
BRANCH   4   5
HETATM    5  C5  UNL     1     -33.058  15.350  -3.709  1.00 20.00     0.079 C 
HETATM    6  C2  UNL     1     -33.743  16.123  -2.588  1.00 20.00     0.026 C 
HETATM    7 CL7  UNL     1     -33.347  16.202  -5.256  1.00 20.00    -0.125 Cl
ENDBRANCH   4   5
ENDBRANCH   2   4
TORSDOF 2
ENDMDL
MODEL 9
REMARK VINA RESULT:      -3.3      2.986      4.030
REMARK  2 active torsions:
REMARK  status: ('A' for Active; 'I' for Inactive)
REMARK    1  A    between atoms: C3_3  and  C4_4 
REMARK    2  A    between atoms: C4_4  and  C5_5 
ROOT
HETATM    1  C1  UNL     1     -34.585   4.923   4.974  1.00 20.00     0.059 C 
HETATM    2  C3  UNL     1     -33.847   6.173   4.749  1.00 20.00     0.125 C 
HETATM    3  N6  UNL     1     -35.169   3.937   5.153  1.00 20.00    -0.197 NA
ENDROOT
BRANCH   2   4
HETATM    4  C4  UNL     1     -33.530   6.402   3.267  1.00 20.00     0.034 C 
BRANCH   4   5
HETATM    5  C5  UNL     1     -32.132   6.972   2.978  1.00 20.00     0.079 C 
HETATM    6  C2  UNL     1     -31.523   7.588   4.233  1.00 20.00     0.026 C 
HETATM    7 CL7  UNL     1     -32.198   8.220   1.698  1.00 20.00    -0.125 Cl
ENDBRANCH   4   5
ENDBRANCH   2   4
TORSDOF 2
ENDMDL
