MODEL 1
REMARK VINA RESULT:      -5.3      0.000      0.000
REMARK  3 active torsions:
REMARK  status: ('A' for Active; 'I' for Inactive)
REMARK    1  A    between atoms: C3_3  and  C7_7 
REMARK    2  A    between atoms: C3_3  and  C9_9 
REMARK    3  A    between atoms: C8_8  and  C9_9 
ROOT
HETATM    1  C1  UNL     1     -32.499   9.728   1.486  1.00 20.00     0.012 C 
HETATM    2  C2  UNL     1     -32.155   8.644   1.869  1.00 20.00    -0.117 C 
HETATM    3  C8  UNL     1     -31.731   7.315   2.335  1.00 20.00     0.100 C 
ENDROOT
BRANCH   3   4
HETATM    4  C9  UNL     1     -32.481   6.886   3.594  1.00 20.00     0.091 C 
BRANCH   4   5
HETATM    5  C3  UNL     1     -33.664   5.969   3.323  1.00 20.00     0.134 C 
HETATM    6  O10 UNL     1     -33.772   5.303   2.294  1.00 20.00    -0.297 OA
BRANCH   5   7
HETATM    7  C7  UNL     1     -34.713   5.895   4.412  1.00 20.00     0.081 C 
HETATM    8  C4  UNL     1     -34.073   6.176   5.752  1.00 20.00     0.040 C 
HETATM    9  C5  UNL     1     -34.738   5.175   6.666  1.00 20.00     0.168 C 
HETATM   10  O11 UNL     1     -34.950   4.016   5.856  1.00 20.00    -0.390 OA
HETATM   11  C6  UNL     1     -35.240   4.475   4.528  1.00 20.00     0.179 C 
ENDBRANCH   5   7
ENDBRANCH   4   5
ENDBRANCH   3   4
TORSDOF 3
ENDMDL
MODEL 2
REMARK VINA RESULT:      -4.8     11.021     12.702
REMARK  3 active torsions:
REMARK  status: ('A' for Active; 'I' for Inactive)
REMARK    1  A    between atoms: C3_3  and  C7_7 
REMARK    2  A    between atoms: C3_3  and  C9_9 
REMARK    3  A    between atoms: C8_8  and  C9_9 
ROOT
HETATM    1  C1  UNL     1     -34.597  16.488  -1.278  1.00 20.00     0.012 C 
HETATM    2  C2  UNL     1     -34.022  16.075  -2.248  1.00 20.00    -0.117 C 
HETATM    3  C8  UNL     1     -33.318  15.571  -3.437  1.00 20.00     0.100 C 
ENDROOT
BRANCH   3   4
HETATM    4  C9  UNL     1     -33.508  14.067  -3.618  1.00 20.00     0.091 C 
BRANCH   4   5
HETATM    5  C3  UNL     1     -34.485  13.700  -4.726  1.00 20.00     0.134 C 
HETATM    6  O10 UNL     1     -34.850  12.545  -4.941  1.00 20.00    -0.297 OA
BRANCH   5   7
HETATM    7  C7  UNL     1     -35.015  14.852  -5.554  1.00 20.00     0.081 C 
HETATM    8  C4  UNL     1     -36.505  14.986  -5.341  1.00 20.00     0.040 C 
HETATM    9  C5  UNL     1     -37.025  15.284  -6.727  1.00 20.00     0.168 C 
HETATM   10  O11 UNL     1     -36.180  14.540  -7.608  1.00 20.00    -0.390 OA
HETATM   11  C6  UNL     1     -34.865  14.538  -7.033  1.00 20.00     0.179 C 
ENDBRANCH   5   7
ENDBRANCH   4   5
ENDBRANCH   3   4
TORSDOF 3
ENDMDL
MODEL 3
REMARK VINA RESULT:      -4.7     11.395     12.302
REMARK  3 active torsions:
REMARK  status: ('A' for Active; 'I' for Inactive)
REMARK    1  A    between atoms: C3_3  and  C7_7 
REMARK    2  A    between atoms: C3_3  and  C9_9 
REMARK    3  A    between atoms: C8_8  and  C9_9 
ROOT
HETATM    1  C1  UNL     1     -34.883  17.848   0.891  1.00 20.00     0.012 C 
HETATM    2  C2  UNL     1     -34.790  17.169  -0.094  1.00 20.00    -0.117 C 
HETATM    3  C8  UNL     1     -34.677  16.335  -1.301  1.00 20.00     0.100 C 
ENDROOT
BRANCH   3   4
HETATM    4  C9  UNL     1     -33.661  16.899  -2.291  1.00 20.00     0.091 C 
BRANCH   4   5
HETATM    5  C3  UNL     1     -33.646  16.180  -3.632  1.00 20.00     0.134 C 
HETATM    6  O10 UNL     1     -32.888  16.491  -4.550  1.00 20.00    -0.297 OA
BRANCH   5   7
HETATM    7  C7  UNL     1     -34.613  15.024  -3.778  1.00 20.00     0.081 C 
HETATM    8  C4  UNL     1     -33.841  13.737  -3.959  1.00 20.00     0.040 C 
HETATM    9  C5  UNL     1     -34.635  13.007  -5.016  1.00 20.00     0.168 C 
HETATM   10  O11 UNL     1     -35.134  14.031  -5.879  1.00 20.00    -0.390 OA
HETATM   11  C6  UNL     1     -35.412  15.176  -5.061  1.00 20.00     0.179 C 
ENDBRANCH   5   7
ENDBRANCH   4   5
ENDBRANCH   3   4
TORSDOF 3
ENDMDL
MODEL 4
REMARK VINA RESULT:      -4.6     11.311     12.993
REMARK  3 active torsions:
REMARK  status: ('A' for Active; 'I' for Inactive)
REMARK    1  A    between atoms: C3_3  and  C7_7 
REMARK    2  A    between atoms: C3_3  and  C9_9 
REMARK    3  A    between atoms: C8_8  and  C9_9 
ROOT
HETATM    1  C1  UNL     1     -34.050  17.028  -1.020  1.00 20.00     0.012 C 
HETATM    2  C2  UNL     1     -34.516  16.245  -1.802  1.00 20.00    -0.117 C 
HETATM    3  C8  UNL     1     -35.090  15.286  -2.758  1.00 20.00     0.100 C 
ENDROOT
BRANCH   3   4
HETATM    4  C9  UNL     1     -34.030  14.707  -3.691  1.00 20.00     0.091 C 
BRANCH   4   5
HETATM    5  C3  UNL     1     -34.597  13.815  -4.786  1.00 20.00     0.134 C 
HETATM    6  O10 UNL     1     -34.893  12.636  -4.602  1.00 20.00    -0.297 OA
BRANCH   5   7
HETATM    7  C7  UNL     1     -34.803  14.469  -6.137  1.00 20.00     0.081 C 
HETATM    8  C4  UNL     1     -33.963  15.722  -6.227  1.00 20.00     0.040 C 
HETATM    9  C5  UNL     1     -34.880  16.701  -6.921  1.00 20.00     0.168 C 
HETATM   10  O11 UNL     1     -36.190  16.379  -6.451  1.00 20.00    -0.390 OA
HETATM   11  C6  UNL     1     -36.236  14.958  -6.262  1.00 20.00     0.179 C 
ENDBRANCH   5   7
ENDBRANCH   4   5
ENDBRANCH   3   4
TORSDOF 3
ENDMDL
MODEL 5
REMARK VINA RESULT:      -4.6     11.067     12.586
REMARK  3 active torsions:
REMARK  status: ('A' for Active; 'I' for Inactive)
REMARK    1  A    between atoms: C3_3  and  C7_7 
REMARK    2  A    between atoms: C3_3  and  C9_9 
REMARK    3  A    between atoms: C8_8  and  C9_9 
ROOT
HETATM    1  C1  UNL     1     -34.168  17.639  -6.637  1.00 20.00     0.012 C 
HETATM    2  C2  UNL     1     -34.373  16.460  -6.732  1.00 20.00    -0.117 C 
HETATM    3  C8  UNL     1     -34.623  15.015  -6.852  1.00 20.00     0.100 C 
ENDROOT
BRANCH   3   4
HETATM    4  C9  UNL     1     -35.562  14.506  -5.760  1.00 20.00     0.091 C 
BRANCH   4   5
HETATM    5  C3  UNL     1     -34.881  13.618  -4.730  1.00 20.00     0.134 C 
HETATM    6  O10 UNL     1     -34.661  12.422  -4.918  1.00 20.00    -0.297 OA
BRANCH   5   7
HETATM    7  C7  UNL     1     -34.459  14.295  -3.442  1.00 20.00     0.081 C 
HETATM    8  C4  UNL     1     -35.402  15.435  -3.136  1.00 20.00     0.040 C 
HETATM    9  C5  UNL     1     -34.477  16.520  -2.638  1.00 20.00     0.168 C 
HETATM   10  O11 UNL     1     -33.276  16.361  -3.395  1.00 20.00    -0.390 OA
HETATM   11  C6  UNL     1     -33.103  14.955  -3.626  1.00 20.00     0.179 C 
ENDBRANCH   5   7
ENDBRANCH   4   5
ENDBRANCH   3   4
TORSDOF 3
ENDMDL
MODEL 6
REMARK VINA RESULT:      -4.5     11.222     12.691
REMARK  3 active torsions:
REMARK  status: ('A' for Active; 'I' for Inactive)
REMARK    1  A    between atoms: C3_3  and  C7_7 
REMARK    2  A    between atoms: C3_3  and  C9_9 
REMARK    3  A    between atoms: C8_8  and  C9_9 
ROOT
HETATM    1  C1  UNL     1     -37.020  16.805  -5.013  1.00 20.00     0.012 C 
HETATM    2  C2  UNL     1     -36.588  15.898  -5.670  1.00 20.00    -0.117 C 
HETATM    3  C8  UNL     1     -36.062  14.786  -6.477  1.00 20.00     0.100 C 
ENDROOT
BRANCH   3   4
HETATM    4  C9  UNL     1     -34.621  14.445  -6.106  1.00 20.00     0.091 C 
BRANCH   4   5
HETATM    5  C3  UNL     1     -34.470  13.846  -4.716  1.00 20.00     0.134 C 
HETATM    6  O10 UNL     1     -34.959  12.764  -4.396  1.00 20.00    -0.297 OA
BRANCH   5   7
HETATM    7  C7  UNL     1     -33.651  14.653  -3.729  1.00 20.00     0.081 C 
HETATM    8  C4  UNL     1     -34.564  15.250  -2.682  1.00 20.00     0.040 C 
HETATM    9  C5  UNL     1     -34.004  16.639  -2.492  1.00 20.00     0.168 C 
HETATM   10  O11 UNL     1     -33.535  17.031  -3.784  1.00 20.00    -0.390 OA
HETATM   11  C6  UNL     1     -33.033  15.851  -4.428  1.00 20.00     0.179 C 
ENDBRANCH   5   7
ENDBRANCH   4   5
ENDBRANCH   3   4
TORSDOF 3
ENDMDL
MODEL 7
REMARK VINA RESULT:      -4.5     11.046     12.617
REMARK  3 active torsions:
REMARK  status: ('A' for Active; 'I' for Inactive)
REMARK    1  A    between atoms: C3_3  and  C7_7 
REMARK    2  A    between atoms: C3_3  and  C9_9 
REMARK    3  A    between atoms: C8_8  and  C9_9 
ROOT
HETATM    1  C1  UNL     1     -33.491  17.311  -5.265  1.00 20.00     0.012 C 
HETATM    2  C2  UNL     1     -33.283  16.329  -4.608  1.00 20.00    -0.117 C 
HETATM    3  C8  UNL     1     -33.025  15.124  -3.803  1.00 20.00     0.100 C 
ENDROOT
BRANCH   3   4
HETATM    4  C9  UNL     1     -34.294  14.604  -3.133  1.00 20.00     0.091 C 
BRANCH   4   5
HETATM    5  C3  UNL     1     -35.199  13.809  -4.063  1.00 20.00     0.134 C 
HETATM    6  O10 UNL     1     -34.892  12.706  -4.514  1.00 20.00    -0.297 OA
BRANCH   5   7
HETATM    7  C7  UNL     1     -36.533  14.444  -4.397  1.00 20.00     0.081 C 
HETATM    8  C4  UNL     1     -36.480  15.030  -5.789  1.00 20.00     0.040 C 
HETATM    9  C5  UNL     1     -37.220  16.338  -5.638  1.00 20.00     0.168 C 
HETATM   10  O11 UNL     1     -36.901  16.796  -4.322  1.00 20.00    -0.390 OA
HETATM   11  C6  UNL     1     -36.781  15.635  -3.488  1.00 20.00     0.179 C 
ENDBRANCH   5   7
ENDBRANCH   4   5
ENDBRANCH   3   4
TORSDOF 3
ENDMDL
MODEL 8
REMARK VINA RESULT:      -4.4     11.156     12.460
REMARK  3 active torsions:
REMARK  status: ('A' for Active; 'I' for Inactive)
REMARK    1  A    between atoms: C3_3  and  C7_7 
REMARK    2  A    between atoms: C3_3  and  C9_9 
REMARK    3  A    between atoms: C8_8  and  C9_9 
ROOT
HETATM    1  C1  UNL     1     -34.232  15.637  -6.761  1.00 20.00     0.012 C 
HETATM    2  C2  UNL     1     -34.516  14.701  -6.065  1.00 20.00    -0.117 C 
HETATM    3  C8  UNL     1     -34.866  13.554  -5.214  1.00 20.00     0.100 C 
ENDROOT
BRANCH   3   4
HETATM    4  C9  UNL     1     -34.416  13.757  -3.769  1.00 20.00     0.091 C 
BRANCH   4   5
HETATM    5  C3  UNL     1     -35.015  14.988  -3.106  1.00 20.00     0.134 C 
HETATM    6  O10 UNL     1     -36.224  15.218  -3.090  1.00 20.00    -0.297 OA
BRANCH   5   7
HETATM    7  C7  UNL     1     -34.034  15.926  -2.434  1.00 20.00     0.081 C 
HETATM    8  C4  UNL     1     -34.656  16.496  -1.180  1.00 20.00     0.040 C 
HETATM    9  C5  UNL     1     -34.218  17.941  -1.207  1.00 20.00     0.168 C 
HETATM   10  O11 UNL     1     -34.196  18.297  -2.591  1.00 20.00    -0.390 OA
HETATM   11  C6  UNL     1     -33.782  17.133  -3.321  1.00 20.00     0.179 C 
ENDBRANCH   5   7
ENDBRANCH   4   5
ENDBRANCH   3   4
TORSDOF 3
ENDMDL
MODEL 9
REMARK VINA RESULT:      -4.4     11.312     12.949
REMARK  3 active torsions:
REMARK  status: ('A' for Active; 'I' for Inactive)
REMARK    1  A    between atoms: C3_3  and  C7_7 
REMARK    2  A    between atoms: C3_3  and  C9_9 
REMARK    3  A    between atoms: C8_8  and  C9_9 
ROOT
HETATM    1  C1  UNL     1     -34.786  16.800  -0.641  1.00 20.00     0.012 C 
HETATM    2  C2  UNL     1     -34.380  16.355  -1.679  1.00 20.00    -0.117 C 
HETATM    3  C8  UNL     1     -33.882  15.813  -2.953  1.00 20.00     0.100 C 
ENDROOT
BRANCH   3   4
HETATM    4  C9  UNL     1     -34.580  14.507  -3.328  1.00 20.00     0.091 C 
BRANCH   4   5
HETATM    5  C3  UNL     1     -35.963  14.701  -3.931  1.00 20.00     0.134 C 
HETATM    6  O10 UNL     1     -36.985  14.775  -3.250  1.00 20.00    -0.297 OA
BRANCH   5   7
HETATM    7  C7  UNL     1     -36.021  14.824  -5.439  1.00 20.00     0.081 C 
HETATM    8  C4  UNL     1     -34.830  14.124  -6.051  1.00 20.00     0.040 C 
HETATM    9  C5  UNL     1     -34.416  15.059  -7.162  1.00 20.00     0.168 C 
HETATM   10  O11 UNL     1     -34.687  16.371  -6.664  1.00 20.00    -0.390 OA
HETATM   11  C6  UNL     1     -35.863  16.279  -5.847  1.00 20.00     0.179 C 
ENDBRANCH   5   7
ENDBRANCH   4   5
ENDBRANCH   3   4
TORSDOF 3
ENDMDL
