MODEL 1
REMARK VINA RESULT:      -5.5      0.000      0.000
REMARK  4 active torsions:
REMARK  status: ('A' for Active; 'I' for Inactive)
REMARK    1  A    between atoms: C5_5  and  C9_9 
REMARK    2  A    between atoms: C6_6  and  C10_10 
REMARK    3  A    between atoms: C10_10  and  C12_12 
REMARK    4  A    between atoms: C11_11  and  C12_12 
ROOT
HETATM    1  C1  UNL     1     -37.073  14.642  -3.789  1.00 20.00     0.069 C 
HETATM    2  C2  UNL     1     -34.600  13.455  -5.252  1.00 20.00     0.006 C 
HETATM    3  C3  UNL     1     -34.764  13.764  -3.769  1.00 20.00     0.025 C 
HETATM    4  C4  UNL     1     -35.265  15.786  -5.041  1.00 20.00     0.029 C 
HETATM    5  C5  UNL     1     -34.374  14.836  -5.860  1.00 20.00    -0.013 C 
HETATM    6  C6  UNL     1     -35.643  15.025  -3.748  1.00 20.00     0.049 C 
HETATM    7  N13 UNL     1     -38.193  14.343  -3.820  1.00 20.00    -0.196 NA
ENDROOT
BRANCH   6   8
HETATM    8  C10 UNL     1     -35.389  15.865  -2.496  1.00 20.00     0.024 C 
BRANCH   8   9
HETATM    9  C12 UNL     1     -33.931  16.304  -2.413  1.00 20.00     0.001 C 
BRANCH   9  10
HETATM   10  C11 UNL     1     -33.707  17.241  -1.226  1.00 20.00    -0.004 C 
HETATM   11  C8  UNL     1     -34.789  17.073  -0.171  1.00 20.00     0.005 C 
ENDBRANCH   9  10
ENDBRANCH   8   9
ENDBRANCH   6   8
BRANCH   5  12
HETATM   12  C9  UNL     1     -34.660  14.881  -7.352  1.00 20.00     0.000 C 
HETATM   13  C7  UNL     1     -36.120  14.733  -7.646  1.00 20.00     0.005 C 
ENDBRANCH   5  12
TORSDOF 4
ENDMDL
MODEL 2
REMARK VINA RESULT:      -5.0      1.577      2.033
REMARK  4 active torsions:
REMARK  status: ('A' for Active; 'I' for Inactive)
REMARK    1  A    between atoms: C5_5  and  C9_9 
REMARK    2  A    between atoms: C6_6  and  C10_10 
REMARK    3  A    between atoms: C10_10  and  C12_12 
REMARK    4  A    between atoms: C11_11  and  C12_12 
ROOT
HETATM    1  C1  UNL     1     -34.773  13.942  -4.071  1.00 20.00     0.069 C 
HETATM    2  C2  UNL     1     -33.192  16.231  -5.461  1.00 20.00     0.006 C 
HETATM    3  C3  UNL     1     -33.247  15.883  -3.978  1.00 20.00     0.025 C 
HETATM    4  C4  UNL     1     -35.529  16.193  -4.785  1.00 20.00     0.029 C 
HETATM    5  C5  UNL     1     -34.528  16.931  -5.691  1.00 20.00    -0.013 C 
HETATM    6  C6  UNL     1     -34.687  15.390  -3.766  1.00 20.00     0.049 C 
HETATM    7  N13 UNL     1     -34.842  12.809  -4.310  1.00 20.00    -0.196 NA
ENDROOT
BRANCH   6   8
HETATM    8  C10 UNL     1     -35.153  15.622  -2.329  1.00 20.00     0.024 C 
BRANCH   8   9
HETATM    9  C12 UNL     1     -34.201  16.551  -1.584  1.00 20.00     0.001 C 
BRANCH   9  10
HETATM   10  C11 UNL     1     -34.804  17.005  -0.254  1.00 20.00    -0.004 C 
HETATM   11  C8  UNL     1     -33.977  18.110   0.383  1.00 20.00     0.005 C 
ENDBRANCH   9  10
ENDBRANCH   8   9
ENDBRANCH   6   8
BRANCH   5  12
HETATM   12  C9  UNL     1     -34.943  16.951  -7.153  1.00 20.00     0.000 C 
HETATM   13  C7  UNL     1     -34.952  15.579  -7.751  1.00 20.00     0.005 C 
ENDBRANCH   5  12
TORSDOF 4
ENDMDL
MODEL 3
REMARK VINA RESULT:      -4.9      0.834      4.853
REMARK  4 active torsions:
REMARK  status: ('A' for Active; 'I' for Inactive)
REMARK    1  A    between atoms: C5_5  and  C9_9 
REMARK    2  A    between atoms: C6_6  and  C10_10 
REMARK    3  A    between atoms: C10_10  and  C12_12 
REMARK    4  A    between atoms: C11_11  and  C12_12 
ROOT
HETATM    1  C1  UNL     1     -37.024  14.705  -3.922  1.00 20.00     0.069 C 
HETATM    2  C2  UNL     1     -35.520  17.304  -3.113  1.00 20.00     0.006 C 
HETATM    3  C3  UNL     1     -35.604  16.647  -4.485  1.00 20.00     0.025 C 
HETATM    4  C4  UNL     1     -34.791  14.994  -2.884  1.00 20.00     0.029 C 
HETATM    5  C5  UNL     1     -34.516  16.421  -2.378  1.00 20.00    -0.013 C 
HETATM    6  C6  UNL     1     -35.631  15.142  -4.174  1.00 20.00     0.049 C 
HETATM    7  N13 UNL     1     -38.115  14.363  -3.723  1.00 20.00    -0.196 NA
ENDROOT
BRANCH   6   8
HETATM    8  C10 UNL     1     -35.056  14.321  -5.329  1.00 20.00     0.024 C 
BRANCH   8   9
HETATM    9  C12 UNL     1     -34.370  15.217  -6.355  1.00 20.00     0.001 C 
BRANCH   9  10
HETATM   10  C11 UNL     1     -34.825  14.875  -7.774  1.00 20.00    -0.004 C 
HETATM   11  C8  UNL     1     -36.338  14.749  -7.858  1.00 20.00     0.005 C 
ENDBRANCH   9  10
ENDBRANCH   8   9
ENDBRANCH   6   8
BRANCH   5  12
HETATM   12  C9  UNL     1     -34.607  16.550  -0.866  1.00 20.00     0.000 C 
HETATM   13  C7  UNL     1     -33.945  17.796  -0.370  1.00 20.00     0.005 C 
ENDBRANCH   5  12
TORSDOF 4
ENDMDL
MODEL 4
REMARK VINA RESULT:      -4.9      1.994      3.043
REMARK  4 active torsions:
REMARK  status: ('A' for Active; 'I' for Inactive)
REMARK    1  A    between atoms: C5_5  and  C9_9 
REMARK    2  A    between atoms: C6_6  and  C10_10 
REMARK    3  A    between atoms: C10_10  and  C12_12 
REMARK    4  A    between atoms: C11_11  and  C12_12 
ROOT
HETATM    1  C1  UNL     1     -33.914  17.464  -3.915  1.00 20.00     0.069 C 
HETATM    2  C2  UNL     1     -36.009  15.168  -3.819  1.00 20.00     0.006 C 
HETATM    3  C3  UNL     1     -35.742  16.249  -2.780  1.00 20.00     0.025 C 
HETATM    4  C4  UNL     1     -33.645  15.091  -3.249  1.00 20.00     0.029 C 
HETATM    5  C5  UNL     1     -34.849  14.201  -3.605  1.00 20.00    -0.013 C 
HETATM    6  C6  UNL     1     -34.223  16.472  -2.859  1.00 20.00     0.049 C 
HETATM    7  N13 UNL     1     -33.672  18.240  -4.742  1.00 20.00    -0.196 NA
ENDROOT
BRANCH   6   8
HETATM    8  C10 UNL     1     -33.660  16.972  -1.528  1.00 20.00     0.024 C 
BRANCH   8   9
HETATM    9  C12 UNL     1     -34.731  16.975  -0.443  1.00 20.00     0.001 C 
BRANCH   9  10
HETATM   10  C11 UNL     1     -34.345  17.906   0.707  1.00 20.00    -0.004 C 
HETATM   11  C8  UNL     1     -33.069  18.673   0.397  1.00 20.00     0.005 C 
ENDBRANCH   9  10
ENDBRANCH   8   9
ENDBRANCH   6   8
BRANCH   5  12
HETATM   12  C9  UNL     1     -34.596  13.302  -4.805  1.00 20.00     0.000 C 
HETATM   13  C7  UNL     1     -34.933  13.982  -6.095  1.00 20.00     0.005 C 
ENDBRANCH   5  12
TORSDOF 4
ENDMDL
MODEL 5
REMARK VINA RESULT:      -4.8      1.936      4.648
REMARK  4 active torsions:
REMARK  status: ('A' for Active; 'I' for Inactive)
REMARK    1  A    between atoms: C5_5  and  C9_9 
REMARK    2  A    between atoms: C6_6  and  C10_10 
REMARK    3  A    between atoms: C10_10  and  C12_12 
REMARK    4  A    between atoms: C11_11  and  C12_12 
ROOT
HETATM    1  C1  UNL     1     -34.662  13.788  -5.005  1.00 20.00     0.069 C 
HETATM    2  C2  UNL     1     -35.686  16.282  -3.454  1.00 20.00     0.006 C 
HETATM    3  C3  UNL     1     -35.889  15.932  -4.923  1.00 20.00     0.025 C 
HETATM    4  C4  UNL     1     -33.496  15.903  -4.445  1.00 20.00     0.029 C 
HETATM    5  C5  UNL     1     -34.244  16.778  -3.424  1.00 20.00    -0.013 C 
HETATM    6  C6  UNL     1     -34.579  15.233  -5.323  1.00 20.00     0.049 C 
HETATM    7  N13 UNL     1     -34.727  12.657  -4.756  1.00 20.00    -0.196 NA
ENDROOT
BRANCH   6   8
HETATM    8  C10 UNL     1     -34.289  15.397  -6.815  1.00 20.00     0.024 C 
BRANCH   8   9
HETATM    9  C12 UNL     1     -35.155  16.492  -7.428  1.00 20.00     0.001 C 
BRANCH   9  10
HETATM   10  C11 UNL     1     -34.309  17.697  -7.837  1.00 20.00    -0.004 C 
HETATM   11  C8  UNL     1     -34.305  18.767  -6.757  1.00 20.00     0.005 C 
ENDBRANCH   9  10
ENDBRANCH   8   9
ENDBRANCH   6   8
BRANCH   5  12
HETATM   12  C9  UNL     1     -33.630  16.735  -2.034  1.00 20.00     0.000 C 
HETATM   13  C7  UNL     1     -34.672  16.614  -0.966  1.00 20.00     0.005 C 
ENDBRANCH   5  12
TORSDOF 4
ENDMDL
MODEL 6
REMARK VINA RESULT:      -4.7      1.696      2.794
REMARK  4 active torsions:
REMARK  status: ('A' for Active; 'I' for Inactive)
REMARK    1  A    between atoms: C5_5  and  C9_9 
REMARK    2  A    between atoms: C6_6  and  C10_10 
REMARK    3  A    between atoms: C10_10  and  C12_12 
REMARK    4  A    between atoms: C11_11  and  C12_12 
ROOT
HETATM    1  C1  UNL     1     -34.750  13.723  -5.124  1.00 20.00     0.069 C 
HETATM    2  C2  UNL     1     -35.812  14.615  -7.907  1.00 20.00     0.006 C 
HETATM    3  C3  UNL     1     -34.446  14.881  -7.285  1.00 20.00     0.025 C 
HETATM    4  C4  UNL     1     -36.166  15.662  -5.740  1.00 20.00     0.029 C 
HETATM    5  C5  UNL     1     -36.712  15.607  -7.177  1.00 20.00    -0.013 C 
HETATM    6  C6  UNL     1     -34.747  15.047  -5.787  1.00 20.00     0.049 C 
HETATM    7  N13 UNL     1     -34.753  12.686  -4.604  1.00 20.00    -0.196 NA
ENDROOT
BRANCH   6   8
HETATM    8  C10 UNL     1     -33.713  15.942  -5.104  1.00 20.00     0.024 C 
BRANCH   8   9
HETATM    9  C12 UNL     1     -34.312  16.655  -3.897  1.00 20.00     0.001 C 
BRANCH   9  10
HETATM   10  C11 UNL     1     -33.772  16.071  -2.591  1.00 20.00    -0.004 C 
HETATM   11  C8  UNL     1     -34.677  16.406  -1.416  1.00 20.00     0.005 C 
ENDBRANCH   9  10
ENDBRANCH   8   9
ENDBRANCH   6   8
BRANCH   5  12
HETATM   12  C9  UNL     1     -38.184  15.234  -7.246  1.00 20.00     0.000 C 
HETATM   13  C7  UNL     1     -38.837  15.282  -5.900  1.00 20.00     0.005 C 
ENDBRANCH   5  12
TORSDOF 4
ENDMDL
MODEL 7
REMARK VINA RESULT:      -4.7      2.182      5.462
REMARK  4 active torsions:
REMARK  status: ('A' for Active; 'I' for Inactive)
REMARK    1  A    between atoms: C5_5  and  C9_9 
REMARK    2  A    between atoms: C6_6  and  C10_10 
REMARK    3  A    between atoms: C10_10  and  C12_12 
REMARK    4  A    between atoms: C11_11  and  C12_12 
ROOT
HETATM    1  C1  UNL     1     -36.281  17.473  -2.431  1.00 20.00     0.069 C 
HETATM    2  C2  UNL     1     -33.534  18.678  -1.610  1.00 20.00     0.006 C 
HETATM    3  C3  UNL     1     -33.846  17.732  -2.762  1.00 20.00     0.025 C 
HETATM    4  C4  UNL     1     -34.673  16.732  -0.695  1.00 20.00     0.029 C 
HETATM    5  C5  UNL     1     -33.560  17.752  -0.398  1.00 20.00    -0.013 C 
HETATM    6  C6  UNL     1     -34.963  16.832  -2.212  1.00 20.00     0.049 C 
HETATM    7  N13 UNL     1     -37.312  17.975  -2.603  1.00 20.00    -0.196 NA
ENDROOT
BRANCH   6   8
HETATM    8  C10 UNL     1     -34.961  15.459  -2.886  1.00 20.00     0.024 C 
BRANCH   8   9
HETATM    9  C12 UNL     1     -33.593  15.139  -3.478  1.00 20.00     0.001 C 
BRANCH   9  10
HETATM   10  C11 UNL     1     -33.533  13.692  -3.969  1.00 20.00    -0.004 C 
HETATM   11  C8  UNL     1     -34.883  13.225  -4.491  1.00 20.00     0.005 C 
ENDBRANCH   9  10
ENDBRANCH   8   9
ENDBRANCH   6   8
BRANCH   5  12
HETATM   12  C9  UNL     1     -33.761  18.495   0.912  1.00 20.00     0.000 C 
HETATM   13  C7  UNL     1     -34.965  18.007   1.654  1.00 20.00     0.005 C 
ENDBRANCH   5  12
TORSDOF 4
ENDMDL
MODEL 8
REMARK VINA RESULT:      -4.6      1.527      1.897
REMARK  4 active torsions:
REMARK  status: ('A' for Active; 'I' for Inactive)
REMARK    1  A    between atoms: C5_5  and  C9_9 
REMARK    2  A    between atoms: C6_6  and  C10_10 
REMARK    3  A    between atoms: C10_10  and  C12_12 
REMARK    4  A    between atoms: C11_11  and  C12_12 
ROOT
HETATM    1  C1  UNL     1     -35.766  17.289  -3.558  1.00 20.00     0.069 C 
HETATM    2  C2  UNL     1     -35.546  14.503  -4.923  1.00 20.00     0.006 C 
HETATM    3  C3  UNL     1     -35.361  14.854  -3.451  1.00 20.00     0.025 C 
HETATM    4  C4  UNL     1     -33.867  16.259  -4.775  1.00 20.00     0.029 C 
HETATM    5  C5  UNL     1     -34.240  14.982  -5.549  1.00 20.00    -0.013 C 
HETATM    6  C6  UNL     1     -34.714  16.248  -3.481  1.00 20.00     0.049 C 
HETATM    7  N13 UNL     1     -36.589  18.104  -3.619  1.00 20.00    -0.196 NA
ENDROOT
BRANCH   6   8
HETATM    8  C10 UNL     1     -33.861  16.497  -2.237  1.00 20.00     0.024 C 
BRANCH   8   9
HETATM    9  C12 UNL     1     -34.707  16.444  -0.969  1.00 20.00     0.001 C 
BRANCH   9  10
HETATM   10  C11 UNL     1     -34.380  17.616  -0.042  1.00 20.00    -0.004 C 
HETATM   11  C8  UNL     1     -33.104  18.324  -0.470  1.00 20.00     0.005 C 
ENDBRANCH   9  10
ENDBRANCH   8   9
ENDBRANCH   6   8
BRANCH   5  12
HETATM   12  C9  UNL     1     -34.345  15.198  -7.049  1.00 20.00     0.000 C 
HETATM   13  C7  UNL     1     -35.516  14.476  -7.638  1.00 20.00     0.005 C 
ENDBRANCH   5  12
TORSDOF 4
ENDMDL
MODEL 9
REMARK VINA RESULT:      -4.5      1.883      4.825
REMARK  4 active torsions:
REMARK  status: ('A' for Active; 'I' for Inactive)
REMARK    1  A    between atoms: C5_5  and  C9_9 
REMARK    2  A    between atoms: C6_6  and  C10_10 
REMARK    3  A    between atoms: C10_10  and  C12_12 
REMARK    4  A    between atoms: C11_11  and  C12_12 
ROOT
HETATM    1  C1  UNL     1     -36.262  17.817  -4.206  1.00 20.00     0.069 C 
HETATM    2  C2  UNL     1     -33.671  17.527  -2.511  1.00 20.00     0.006 C 
HETATM    3  C3  UNL     1     -33.917  17.081  -3.946  1.00 20.00     0.025 C 
HETATM    4  C4  UNL     1     -35.644  16.102  -2.526  1.00 20.00     0.029 C 
HETATM    5  C5  UNL     1     -34.396  16.459  -1.698  1.00 20.00    -0.013 C 
HETATM    6  C6  UNL     1     -35.391  16.645  -3.952  1.00 20.00     0.049 C 
HETATM    7  N13 UNL     1     -36.944  18.734  -4.405  1.00 20.00    -0.196 NA
ENDROOT
BRANCH   6   8
HETATM    8  C10 UNL     1     -35.659  15.587  -5.023  1.00 20.00     0.024 C 
BRANCH   8   9
HETATM    9  C12 UNL     1     -35.795  14.200  -4.404  1.00 20.00     0.001 C 
BRANCH   9  10
HETATM   10  C11 UNL     1     -34.605  13.314  -4.775  1.00 20.00    -0.004 C 
HETATM   11  C8  UNL     1     -33.444  13.511  -3.813  1.00 20.00     0.005 C 
ENDBRANCH   9  10
ENDBRANCH   8   9
ENDBRANCH   6   8
BRANCH   5  12
HETATM   12  C9  UNL     1     -34.723  16.910  -0.284  1.00 20.00     0.000 C 
HETATM   13  C7  UNL     1     -34.073  18.215   0.052  1.00 20.00     0.005 C 
ENDBRANCH   5  12
TORSDOF 4
ENDMDL
