MODEL 1
REMARK VINA RESULT:      -4.7      0.000      0.000
REMARK  4 active torsions:
REMARK  status: ('A' for Active; 'I' for Inactive)
REMARK    1  A    between atoms: C2_2  and  C8_8 
REMARK    2  A    between atoms: C6_6  and  C9_9 
REMARK    3  A    between atoms: C8_8  and  C9_9 
REMARK    4  A    between atoms: C9_9  and  O11_11 
ROOT
HETATM    1  C1  UNL     1     -34.646  16.652  -0.881  1.00 20.00    -0.111 C 
HETATM    2  C2  UNL     1     -34.401  16.061  -1.896  1.00 20.00    -0.104 C 
HETATM    3  C7  UNL     1     -34.946  17.375   0.355  1.00 20.00     0.112 C 
ENDROOT
BRANCH   2   4
HETATM    4  C8  UNL     1     -34.102  15.334  -3.141  1.00 20.00     0.128 C 
BRANCH   4   5
HETATM    5  C9  UNL     1     -33.663  16.289  -4.253  1.00 20.00     0.158 C 
BRANCH   5   6
HETATM    6  C6  UNL     1     -34.701  16.352  -5.364  1.00 20.00     0.151 C 
HETATM    7  C4  UNL     1     -35.727  15.231  -5.281  1.00 20.00     0.036 C 
HETATM    8  C3  UNL     1     -35.122  14.161  -6.156  1.00 20.00     0.029 C 
HETATM    9  C5  UNL     1     -34.464  14.983  -7.240  1.00 20.00     0.168 C 
HETATM   10  O10 UNL     1     -34.025  16.201  -6.624  1.00 20.00    -0.383 OA
ENDBRANCH   5   6
BRANCH   5  11
HETATM   11  O11 UNL     1     -32.435  15.819  -4.805  1.00 20.00    -0.392 OA
HETATM   12  H25 UNL     1     -31.854  15.623  -4.055  1.00 20.00     0.210 HD
ENDBRANCH   5  11
ENDBRANCH   4   5
ENDBRANCH   2   4
TORSDOF 4
ENDMDL
MODEL 2
REMARK VINA RESULT:      -4.7     11.718     12.956
REMARK  4 active torsions:
REMARK  status: ('A' for Active; 'I' for Inactive)
REMARK    1  A    between atoms: C2_2  and  C8_8 
REMARK    2  A    between atoms: C6_6  and  C9_9 
REMARK    3  A    between atoms: C8_8  and  C9_9 
REMARK    4  A    between atoms: C9_9  and  O11_11 
ROOT
HETATM    1  C1  UNL     1     -32.242   8.564   1.717  1.00 20.00    -0.111 C 
HETATM    2  C2  UNL     1     -32.281   7.496   2.262  1.00 20.00    -0.104 C 
HETATM    3  C7  UNL     1     -32.197   9.867   1.052  1.00 20.00     0.112 C 
ENDROOT
BRANCH   2   4
HETATM    4  C8  UNL     1     -32.327   6.186   2.933  1.00 20.00     0.128 C 
BRANCH   4   5
HETATM    5  C9  UNL     1     -32.588   6.337   4.433  1.00 20.00     0.158 C 
BRANCH   5   6
HETATM    6  C6  UNL     1     -34.080   6.356   4.732  1.00 20.00     0.151 C 
HETATM    7  C4  UNL     1     -34.404   5.951   6.162  1.00 20.00     0.036 C 
HETATM    8  C3  UNL     1     -34.631   4.465   6.045  1.00 20.00     0.029 C 
HETATM    9  C5  UNL     1     -35.288   4.358   4.688  1.00 20.00     0.168 C 
HETATM   10  O10 UNL     1     -34.724   5.396   3.876  1.00 20.00    -0.383 OA
ENDBRANCH   5   6
BRANCH   5  11
HETATM   11  O11 UNL     1     -32.021   7.569   4.876  1.00 20.00    -0.392 OA
HETATM   12  H25 UNL     1     -31.787   8.066   4.078  1.00 20.00     0.210 HD
ENDBRANCH   5  11
ENDBRANCH   4   5
ENDBRANCH   2   4
TORSDOF 4
ENDMDL
MODEL 3
REMARK VINA RESULT:      -4.7      1.590      4.842
REMARK  4 active torsions:
REMARK  status: ('A' for Active; 'I' for Inactive)
REMARK    1  A    between atoms: C2_2  and  C8_8 
REMARK    2  A    between atoms: C6_6  and  C9_9 
REMARK    3  A    between atoms: C8_8  and  C9_9 
REMARK    4  A    between atoms: C9_9  and  O11_11 
ROOT
HETATM    1  C1  UNL     1     -34.986  14.317  -6.495  1.00 20.00    -0.111 C 
HETATM    2  C2  UNL     1     -34.477  14.175  -5.417  1.00 20.00    -0.104 C 
HETATM    3  C7  UNL     1     -35.608  14.488  -7.808  1.00 20.00     0.112 C 
ENDROOT
BRANCH   2   4
HETATM    4  C8  UNL     1     -33.851  14.004  -4.096  1.00 20.00     0.128 C 
BRANCH   4   5
HETATM    5  C9  UNL     1     -33.233  15.313  -3.598  1.00 20.00     0.158 C 
BRANCH   5   6
HETATM    6  C6  UNL     1     -34.307  16.289  -3.141  1.00 20.00     0.151 C 
HETATM    7  C4  UNL     1     -33.746  17.647  -2.745  1.00 20.00     0.036 C 
HETATM    8  C3  UNL     1     -33.512  17.493  -1.263  1.00 20.00     0.029 C 
HETATM    9  C5  UNL     1     -34.672  16.612  -0.856  1.00 20.00     0.168 C 
HETATM   10  O10 UNL     1     -34.940  15.747  -1.968  1.00 20.00    -0.383 OA
ENDBRANCH   5   6
BRANCH   5  11
HETATM   11  O11 UNL     1     -32.502  15.911  -4.667  1.00 20.00    -0.392 OA
HETATM   12  H25 UNL     1     -33.123  16.491  -5.134  1.00 20.00     0.210 HD
ENDBRANCH   5  11
ENDBRANCH   4   5
ENDBRANCH   2   4
TORSDOF 4
ENDMDL
MODEL 4
REMARK VINA RESULT:      -4.6      1.896      2.351
REMARK  4 active torsions:
REMARK  status: ('A' for Active; 'I' for Inactive)
REMARK    1  A    between atoms: C2_2  and  C8_8 
REMARK    2  A    between atoms: C6_6  and  C9_9 
REMARK    3  A    between atoms: C8_8  and  C9_9 
REMARK    4  A    between atoms: C9_9  and  O11_11 
ROOT
HETATM    1  C1  UNL     1     -34.515  16.433  -1.867  1.00 20.00    -0.111 C 
HETATM    2  C2  UNL     1     -35.149  15.703  -2.578  1.00 20.00    -0.104 C 
HETATM    3  C7  UNL     1     -33.740  17.323  -1.003  1.00 20.00     0.112 C 
ENDROOT
BRANCH   2   4
HETATM    4  C8  UNL     1     -35.929  14.809  -3.450  1.00 20.00     0.128 C 
BRANCH   4   5
HETATM    5  C9  UNL     1     -35.027  14.075  -4.445  1.00 20.00     0.158 C 
BRANCH   5   6
HETATM    6  C6  UNL     1     -35.452  14.353  -5.880  1.00 20.00     0.151 C 
HETATM    7  C4  UNL     1     -34.325  14.916  -6.733  1.00 20.00     0.036 C 
HETATM    8  C3  UNL     1     -34.507  16.406  -6.584  1.00 20.00     0.029 C 
HETATM    9  C5  UNL     1     -36.011  16.530  -6.513  1.00 20.00     0.168 C 
HETATM   10  O10 UNL     1     -36.491  15.347  -5.859  1.00 20.00    -0.383 OA
ENDBRANCH   5   6
BRANCH   5  11
HETATM   11  O11 UNL     1     -35.126  12.672  -4.206  1.00 20.00    -0.392 OA
HETATM   12  H25 UNL     1     -34.787  12.521  -3.311  1.00 20.00     0.210 HD
ENDBRANCH   5  11
ENDBRANCH   4   5
ENDBRANCH   2   4
TORSDOF 4
ENDMDL
MODEL 5
REMARK VINA RESULT:      -4.6      1.402      1.958
REMARK  4 active torsions:
REMARK  status: ('A' for Active; 'I' for Inactive)
REMARK    1  A    between atoms: C2_2  and  C8_8 
REMARK    2  A    between atoms: C6_6  and  C9_9 
REMARK    3  A    between atoms: C8_8  and  C9_9 
REMARK    4  A    between atoms: C9_9  and  O11_11 
ROOT
HETATM    1  C1  UNL     1     -34.667  16.622  -0.893  1.00 20.00    -0.111 C 
HETATM    2  C2  UNL     1     -34.428  16.003  -1.894  1.00 20.00    -0.104 C 
HETATM    3  C7  UNL     1     -34.958  17.379   0.324  1.00 20.00     0.112 C 
ENDROOT
BRANCH   2   4
HETATM    4  C8  UNL     1     -34.137  15.241  -3.119  1.00 20.00     0.128 C 
BRANCH   4   5
HETATM    5  C9  UNL     1     -33.098  15.957  -3.987  1.00 20.00     0.158 C 
BRANCH   5   6
HETATM    6  C6  UNL     1     -33.651  16.253  -5.373  1.00 20.00     0.151 C 
HETATM    7  C4  UNL     1     -33.626  17.735  -5.718  1.00 20.00     0.036 C 
HETATM    8  C3  UNL     1     -34.989  18.204  -5.274  1.00 20.00     0.029 C 
HETATM    9  C5  UNL     1     -35.850  17.005  -5.599  1.00 20.00     0.168 C 
HETATM   10  O10 UNL     1     -35.030  15.845  -5.407  1.00 20.00    -0.383 OA
ENDBRANCH   5   6
BRANCH   5  11
HETATM   11  O11 UNL     1     -31.955  15.115  -4.124  1.00 20.00    -0.392 OA
HETATM   12  H25 UNL     1     -32.237  14.225  -3.863  1.00 20.00     0.210 HD
ENDBRANCH   5  11
ENDBRANCH   4   5
ENDBRANCH   2   4
TORSDOF 4
ENDMDL
MODEL 6
REMARK VINA RESULT:      -4.5      1.175      1.587
REMARK  4 active torsions:
REMARK  status: ('A' for Active; 'I' for Inactive)
REMARK    1  A    between atoms: C2_2  and  C8_8 
REMARK    2  A    between atoms: C6_6  and  C9_9 
REMARK    3  A    between atoms: C8_8  and  C9_9 
REMARK    4  A    between atoms: C9_9  and  O11_11 
ROOT
HETATM    1  C1  UNL     1     -34.546  16.468  -1.263  1.00 20.00    -0.111 C 
HETATM    2  C2  UNL     1     -34.260  15.746  -2.178  1.00 20.00    -0.104 C 
HETATM    3  C7  UNL     1     -34.894  17.347  -0.147  1.00 20.00     0.112 C 
ENDROOT
BRANCH   2   4
HETATM    4  C8  UNL     1     -33.907  14.861  -3.300  1.00 20.00     0.128 C 
BRANCH   4   5
HETATM    5  C9  UNL     1     -34.010  15.594  -4.640  1.00 20.00     0.158 C 
BRANCH   5   6
HETATM    6  C6  UNL     1     -34.553  14.678  -5.727  1.00 20.00     0.151 C 
HETATM    7  C4  UNL     1     -34.263  15.186  -7.131  1.00 20.00     0.036 C 
HETATM    8  C3  UNL     1     -35.494  15.996  -7.454  1.00 20.00     0.029 C 
HETATM    9  C5  UNL     1     -36.579  15.199  -6.766  1.00 20.00     0.168 C 
HETATM   10  O10 UNL     1     -35.984  14.621  -5.596  1.00 20.00    -0.383 OA
ENDBRANCH   5   6
BRANCH   5  11
HETATM   11  O11 UNL     1     -32.708  16.032  -5.025  1.00 20.00    -0.392 OA
HETATM   12  H25 UNL     1     -32.795  16.401  -5.917  1.00 20.00     0.210 HD
ENDBRANCH   5  11
ENDBRANCH   4   5
ENDBRANCH   2   4
TORSDOF 4
ENDMDL
MODEL 7
REMARK VINA RESULT:      -4.4      1.932      2.552
REMARK  4 active torsions:
REMARK  status: ('A' for Active; 'I' for Inactive)
REMARK    1  A    between atoms: C2_2  and  C8_8 
REMARK    2  A    between atoms: C6_6  and  C9_9 
REMARK    3  A    between atoms: C8_8  and  C9_9 
REMARK    4  A    between atoms: C9_9  and  O11_11 
ROOT
HETATM    1  C1  UNL     1     -35.005  17.371   0.812  1.00 20.00    -0.111 C 
HETATM    2  C2  UNL     1     -34.600  17.084  -0.281  1.00 20.00    -0.104 C 
HETATM    3  C7  UNL     1     -35.498  17.724   2.143  1.00 20.00     0.112 C 
ENDROOT
BRANCH   2   4
HETATM    4  C8  UNL     1     -34.105  16.730  -1.621  1.00 20.00     0.128 C 
BRANCH   4   5
HETATM    5  C9  UNL     1     -35.075  15.793  -2.344  1.00 20.00     0.158 C 
BRANCH   5   6
HETATM    6  C6  UNL     1     -34.633  15.546  -3.779  1.00 20.00     0.151 C 
HETATM    7  C4  UNL     1     -35.705  14.871  -4.622  1.00 20.00     0.036 C 
HETATM    8  C3  UNL     1     -35.382  13.407  -4.464  1.00 20.00     0.029 C 
HETATM    9  C5  UNL     1     -33.872  13.427  -4.401  1.00 20.00     0.168 C 
HETATM   10  O10 UNL     1     -33.504  14.655  -3.758  1.00 20.00    -0.383 OA
ENDBRANCH   5   6
BRANCH   5  11
HETATM   11  O11 UNL     1     -36.368  16.396  -2.365  1.00 20.00    -0.392 OA
HETATM   12  H25 UNL     1     -36.781  16.131  -3.200  1.00 20.00     0.210 HD
ENDBRANCH   5  11
ENDBRANCH   4   5
ENDBRANCH   2   4
TORSDOF 4
ENDMDL
MODEL 8
REMARK VINA RESULT:      -4.3     11.996     13.261
REMARK  4 active torsions:
REMARK  status: ('A' for Active; 'I' for Inactive)
REMARK    1  A    between atoms: C2_2  and  C8_8 
REMARK    2  A    between atoms: C6_6  and  C9_9 
REMARK    3  A    between atoms: C8_8  and  C9_9 
REMARK    4  A    between atoms: C9_9  and  O11_11 
ROOT
HETATM    1  C1  UNL     1     -32.115   8.483   1.808  1.00 20.00    -0.111 C 
HETATM    2  C2  UNL     1     -32.386   7.624   2.601  1.00 20.00    -0.104 C 
HETATM    3  C7  UNL     1     -31.784   9.528   0.840  1.00 20.00     0.112 C 
ENDROOT
BRANCH   2   4
HETATM    4  C8  UNL     1     -32.721   6.572   3.575  1.00 20.00     0.128 C 
BRANCH   4   5
HETATM    5  C9  UNL     1     -34.123   6.009   3.327  1.00 20.00     0.158 C 
BRANCH   5   6
HETATM    6  C6  UNL     1     -34.948   6.010   4.606  1.00 20.00     0.151 C 
HETATM    7  C4  UNL     1     -34.101   6.179   5.858  1.00 20.00     0.036 C 
HETATM    8  C3  UNL     1     -33.814   4.754   6.262  1.00 20.00     0.029 C 
HETATM    9  C5  UNL     1     -35.100   4.058   5.880  1.00 20.00     0.168 C 
HETATM   10  O10 UNL     1     -35.605   4.735   4.720  1.00 20.00    -0.383 OA
ENDBRANCH   5   6
BRANCH   5  11
HETATM   11  O11 UNL     1     -34.002   4.665   2.865  1.00 20.00    -0.392 OA
HETATM   12  H25 UNL     1     -34.895   4.288   2.880  1.00 20.00     0.210 HD
ENDBRANCH   5  11
ENDBRANCH   4   5
ENDBRANCH   2   4
TORSDOF 4
ENDMDL
MODEL 9
REMARK VINA RESULT:      -4.3      1.992      2.197
REMARK  4 active torsions:
REMARK  status: ('A' for Active; 'I' for Inactive)
REMARK    1  A    between atoms: C2_2  and  C8_8 
REMARK    2  A    between atoms: C6_6  and  C9_9 
REMARK    3  A    between atoms: C8_8  and  C9_9 
REMARK    4  A    between atoms: C9_9  and  O11_11 
ROOT
HETATM    1  C1  UNL     1     -34.616  17.043  -0.371  1.00 20.00    -0.111 C 
HETATM    2  C2  UNL     1     -34.661  16.387  -1.376  1.00 20.00    -0.104 C 
HETATM    3  C7  UNL     1     -34.559  17.844   0.852  1.00 20.00     0.112 C 
ENDROOT
BRANCH   2   4
HETATM    4  C8  UNL     1     -34.719  15.583  -2.607  1.00 20.00     0.128 C 
BRANCH   4   5
HETATM    5  C9  UNL     1     -36.133  15.560  -3.191  1.00 20.00     0.158 C 
BRANCH   5   6
HETATM    6  C6  UNL     1     -36.320  14.376  -4.129  1.00 20.00     0.151 C 
HETATM    7  C4  UNL     1     -35.019  13.647  -4.431  1.00 20.00     0.036 C 
HETATM    8  C3  UNL     1     -34.536  14.331  -5.685  1.00 20.00     0.029 C 
HETATM    9  C5  UNL     1     -35.836  14.619  -6.401  1.00 20.00     0.168 C 
HETATM   10  O10 UNL     1     -36.818  14.869  -5.386  1.00 20.00    -0.383 OA
ENDBRANCH   5   6
BRANCH   5  11
HETATM   11  O11 UNL     1     -36.346  16.761  -3.929  1.00 20.00    -0.392 OA
HETATM   12  H25 UNL     1     -35.508  16.964  -4.372  1.00 20.00     0.210 HD
ENDBRANCH   5  11
ENDBRANCH   4   5
ENDBRANCH   2   4
TORSDOF 4
ENDMDL
