MODEL 1
REMARK VINA RESULT:      -4.6      0.000      0.000
REMARK  0 active torsions:
REMARK  status: ('A' for Active; 'I' for Inactive)
ROOT
HETATM    1  C1  UNL     1     -36.416  14.403  -4.019  1.00 20.00     0.071 C 
HETATM    2  C2  UNL     1     -34.214  17.094  -3.226  1.00 20.00     0.034 C 
HETATM    3  C3  UNL     1     -34.553  15.939  -2.284  1.00 20.00     0.036 C 
HETATM    4  C4  UNL     1     -34.606  15.631  -5.237  1.00 20.00     0.058 C 
HETATM    5  C5  UNL     1     -33.558  16.365  -4.397  1.00 20.00     0.123 C 
HETATM    6  C6  UNL     1     -34.100  14.718  -3.091  1.00 20.00     0.144 C 
HETATM    7  C7  UNL     1     -34.978  14.437  -4.330  1.00 20.00     0.074 C 
HETATM    8  C8  UNL     1     -34.574  13.111  -4.991  1.00 20.00     0.034 C 
HETATM    9  N9  UNL     1     -37.550  14.376  -3.773  1.00 20.00    -0.196 NA
HETATM   10  O10 UNL     1     -32.909  15.264  -3.719  1.00 20.00    -0.379 OA
ENDROOT
TORSDOF 0
ENDMDL
MODEL 2
REMARK VINA RESULT:      -4.5      1.127      2.504
REMARK  0 active torsions:
REMARK  status: ('A' for Active; 'I' for Inactive)
ROOT
HETATM    1  C1  UNL     1     -36.881  14.917  -3.839  1.00 20.00     0.071 C 
HETATM    2  C2  UNL     1     -33.554  13.634  -3.836  1.00 20.00     0.034 C 
HETATM    3  C3  UNL     1     -34.458  13.708  -5.067  1.00 20.00     0.036 C 
HETATM    4  C4  UNL     1     -34.711  15.619  -2.807  1.00 20.00     0.058 C 
HETATM    5  C5  UNL     1     -33.420  15.105  -3.452  1.00 20.00     0.123 C 
HETATM    6  C6  UNL     1     -34.759  15.208  -5.157  1.00 20.00     0.144 C 
HETATM    7  C7  UNL     1     -35.664  15.726  -4.017  1.00 20.00     0.074 C 
HETATM    8  C8  UNL     1     -36.062  17.188  -4.264  1.00 20.00     0.034 C 
HETATM    9  N9  UNL     1     -37.841  14.281  -3.698  1.00 20.00    -0.196 NA
HETATM   10  O10 UNL     1     -33.472  15.744  -4.749  1.00 20.00    -0.379 OA
ENDROOT
TORSDOF 0
ENDMDL
MODEL 3
REMARK VINA RESULT:      -4.5      1.596      2.077
REMARK  0 active torsions:
REMARK  status: ('A' for Active; 'I' for Inactive)
ROOT
HETATM    1  C1  UNL     1     -34.676  13.809  -5.011  1.00 20.00     0.071 C 
HETATM    2  C2  UNL     1     -34.606  16.464  -2.630  1.00 20.00     0.034 C 
HETATM    3  C3  UNL     1     -33.390  15.635  -3.047  1.00 20.00     0.036 C 
HETATM    4  C4  UNL     1     -35.686  16.096  -4.875  1.00 20.00     0.058 C 
HETATM    5  C5  UNL     1     -35.012  17.115  -3.950  1.00 20.00     0.123 C 
HETATM    6  C6  UNL     1     -33.330  15.885  -4.558  1.00 20.00     0.144 C 
HETATM    7  C7  UNL     1     -34.492  15.232  -5.338  1.00 20.00     0.074 C 
HETATM    8  C8  UNL     1     -34.277  15.377  -6.852  1.00 20.00     0.034 C 
HETATM    9  N9  UNL     1     -34.820  12.687  -4.753  1.00 20.00    -0.196 NA
HETATM   10  O10 UNL     1     -33.727  17.282  -4.594  1.00 20.00    -0.379 OA
ENDROOT
TORSDOF 0
ENDMDL
MODEL 4
REMARK VINA RESULT:      -4.4      1.735      2.751
REMARK  0 active torsions:
REMARK  status: ('A' for Active; 'I' for Inactive)
ROOT
HETATM    1  C1  UNL     1     -34.743  13.948  -4.035  1.00 20.00     0.071 C 
HETATM    2  C2  UNL     1     -34.078  16.347  -6.588  1.00 20.00     0.034 C 
HETATM    3  C3  UNL     1     -35.475  15.911  -6.145  1.00 20.00     0.036 C 
HETATM    4  C4  UNL     1     -33.147  15.859  -4.300  1.00 20.00     0.058 C 
HETATM    5  C5  UNL     1     -33.514  16.954  -5.306  1.00 20.00     0.123 C 
HETATM    6  C6  UNL     1     -35.470  16.274  -4.656  1.00 20.00     0.144 C 
HETATM    7  C7  UNL     1     -34.533  15.387  -3.807  1.00 20.00     0.074 C 
HETATM    8  C8  UNL     1     -34.706  15.692  -2.313  1.00 20.00     0.034 C 
HETATM    9  N9  UNL     1     -34.910  12.814  -4.213  1.00 20.00    -0.196 NA
HETATM   10  O10 UNL     1     -34.707  17.510  -4.704  1.00 20.00    -0.379 OA
ENDROOT
TORSDOF 0
ENDMDL
MODEL 5
REMARK VINA RESULT:      -4.4      2.297      3.427
REMARK  0 active torsions:
REMARK  status: ('A' for Active; 'I' for Inactive)
ROOT
HETATM    1  C1  UNL     1     -33.455  16.154  -4.773  1.00 20.00     0.071 C 
HETATM    2  C2  UNL     1     -36.731  14.822  -5.232  1.00 20.00     0.034 C 
HETATM    3  C3  UNL     1     -35.570  14.636  -6.209  1.00 20.00     0.036 C 
HETATM    4  C4  UNL     1     -35.132  15.024  -3.297  1.00 20.00     0.058 C 
HETATM    5  C5  UNL     1     -36.194  14.149  -3.971  1.00 20.00     0.123 C 
HETATM    6  C6  UNL     1     -34.518  13.945  -5.335  1.00 20.00     0.144 C 
HETATM    7  C7  UNL     1     -33.923  14.862  -4.244  1.00 20.00     0.074 C 
HETATM    8  C8  UNL     1     -32.762  14.163  -3.523  1.00 20.00     0.034 C 
HETATM    9  N9  UNL     1     -33.085  17.172  -5.189  1.00 20.00    -0.196 NA
HETATM   10  O10 UNL     1     -35.381  13.093  -4.535  1.00 20.00    -0.379 OA
ENDROOT
TORSDOF 0
ENDMDL
MODEL 6
REMARK VINA RESULT:      -4.4      1.658      2.583
REMARK  0 active torsions:
REMARK  status: ('A' for Active; 'I' for Inactive)
ROOT
HETATM    1  C1  UNL     1     -35.276  13.639  -4.349  1.00 20.00     0.071 C 
HETATM    2  C2  UNL     1     -33.259  16.578  -4.470  1.00 20.00     0.034 C 
HETATM    3  C3  UNL     1     -34.044  16.011  -5.653  1.00 20.00     0.036 C 
HETATM    4  C4  UNL     1     -34.916  15.606  -2.843  1.00 20.00     0.058 C 
HETATM    5  C5  UNL     1     -34.372  16.892  -3.473  1.00 20.00     0.123 C 
HETATM    6  C6  UNL     1     -35.482  16.023  -5.123  1.00 20.00     0.144 C 
HETATM    7  C7  UNL     1     -35.735  14.993  -4.000  1.00 20.00     0.074 C 
HETATM    8  C8  UNL     1     -37.226  14.942  -3.638  1.00 20.00     0.034 C 
HETATM    9  N9  UNL     1     -34.914  12.571  -4.625  1.00 20.00    -0.196 NA
HETATM   10  O10 UNL     1     -35.454  17.259  -4.360  1.00 20.00    -0.379 OA
ENDROOT
TORSDOF 0
ENDMDL
MODEL 7
REMARK VINA RESULT:      -4.2      1.267      1.933
REMARK  0 active torsions:
REMARK  status: ('A' for Active; 'I' for Inactive)
ROOT
HETATM    1  C1  UNL     1     -36.329  14.427  -4.119  1.00 20.00     0.071 C 
HETATM    2  C2  UNL     1     -35.207  16.863  -6.469  1.00 20.00     0.034 C 
HETATM    3  C3  UNL     1     -35.414  17.123  -4.977  1.00 20.00     0.036 C 
HETATM    4  C4  UNL     1     -34.707  14.435  -6.026  1.00 20.00     0.058 C 
HETATM    5  C5  UNL     1     -34.125  15.785  -6.456  1.00 20.00     0.123 C 
HETATM    6  C6  UNL     1     -34.467  16.103  -4.336  1.00 20.00     0.144 C 
HETATM    7  C7  UNL     1     -34.926  14.638  -4.510  1.00 20.00     0.074 C 
HETATM    8  C8  UNL     1     -34.029  13.690  -3.703  1.00 20.00     0.034 C 
HETATM    9  N9  UNL     1     -37.435  14.259  -3.809  1.00 20.00    -0.196 NA
HETATM   10  O10 UNL     1     -33.365  16.158  -5.282  1.00 20.00    -0.379 OA
ENDROOT
TORSDOF 0
ENDMDL
MODEL 8
REMARK VINA RESULT:      -4.2      2.275      3.119
REMARK  0 active torsions:
REMARK  status: ('A' for Active; 'I' for Inactive)
ROOT
HETATM    1  C1  UNL     1     -34.603  16.637  -5.478  1.00 20.00     0.071 C 
HETATM    2  C2  UNL     1     -33.704  13.602  -3.836  1.00 20.00     0.034 C 
HETATM    3  C3  UNL     1     -34.348  14.806  -3.149  1.00 20.00     0.036 C 
HETATM    4  C4  UNL     1     -34.801  14.201  -6.021  1.00 20.00     0.058 C 
HETATM    5  C5  UNL     1     -34.772  13.210  -4.854  1.00 20.00     0.123 C 
HETATM    6  C6  UNL     1     -35.658  14.961  -3.928  1.00 20.00     0.144 C 
HETATM    7  C7  UNL     1     -35.459  15.444  -5.381  1.00 20.00     0.074 C 
HETATM    8  C8  UNL     1     -36.812  15.739  -6.044  1.00 20.00     0.034 C 
HETATM    9  N9  UNL     1     -33.929  17.579  -5.554  1.00 20.00    -0.196 NA
HETATM   10  O10 UNL     1     -35.984  13.562  -4.146  1.00 20.00    -0.379 OA
ENDROOT
TORSDOF 0
ENDMDL
MODEL 9
REMARK VINA RESULT:      -4.2      1.861      3.151
REMARK  0 active torsions:
REMARK  status: ('A' for Active; 'I' for Inactive)
ROOT
HETATM    1  C1  UNL     1     -34.521  16.273  -2.128  1.00 20.00     0.071 C 
HETATM    2  C2  UNL     1     -35.264  13.419  -4.133  1.00 20.00     0.034 C 
HETATM    3  C3  UNL     1     -36.245  14.554  -3.835  1.00 20.00     0.036 C 
HETATM    4  C4  UNL     1     -33.306  14.985  -3.898  1.00 20.00     0.058 C 
HETATM    5  C5  UNL     1     -34.146  14.152  -4.871  1.00 20.00     0.123 C 
HETATM    6  C6  UNL     1     -35.504  15.776  -4.389  1.00 20.00     0.144 C 
HETATM    7  C7  UNL     1     -34.252  16.162  -3.571  1.00 20.00     0.074 C 
HETATM    8  C8  UNL     1     -33.661  17.486  -4.077  1.00 20.00     0.034 C 
HETATM    9  N9  UNL     1     -34.733  16.362  -0.991  1.00 20.00    -0.196 NA
HETATM   10  O10 UNL     1     -34.890  15.182  -5.564  1.00 20.00    -0.379 OA
ENDROOT
TORSDOF 0
ENDMDL
