MODEL 1
REMARK VINA RESULT:      -5.2      0.000      0.000
REMARK  2 active torsions:
REMARK  status: ('A' for Active; 'I' for Inactive)
REMARK    1  A    between atoms: C6_6  and  C10_10 
REMARK    2  A    between atoms: C7_7  and  C11_11 
ROOT
HETATM    1  C1  UNL     1     -35.307  13.750  -4.457  1.00 20.00     0.069 C 
HETATM    2  C2  UNL     1     -33.438  16.133  -4.654  1.00 20.00     0.002 C 
HETATM    3  C3  UNL     1     -33.404  16.036  -3.129  1.00 20.00     0.005 C 
HETATM    4  C4  UNL     1     -34.846  16.042  -5.251  1.00 20.00     0.024 C 
HETATM    5  C5  UNL     1     -35.909  15.647  -2.973  1.00 20.00     0.029 C 
HETATM    6  C6  UNL     1     -34.715  16.503  -2.500  1.00 20.00    -0.013 C 
HETATM    7  C7  UNL     1     -35.801  15.149  -4.437  1.00 20.00     0.049 C 
HETATM    8  N12 UNL     1     -34.920  12.657  -4.472  1.00 20.00    -0.196 NA
ENDROOT
BRANCH   7   9
HETATM    9  C11 UNL     1     -37.195  15.160  -5.089  1.00 20.00     0.020 C 
HETATM   10  C9  UNL     1     -38.257  14.834  -4.098  1.00 20.00     0.007 C 
ENDBRANCH   7   9
BRANCH   6  11
HETATM   11  C10 UNL     1     -34.624  16.506  -0.974  1.00 20.00     0.000 C 
HETATM   12  C8  UNL     1     -33.829  17.665  -0.472  1.00 20.00     0.005 C 
ENDBRANCH   6  11
TORSDOF 2
ENDMDL
MODEL 2
REMARK VINA RESULT:      -4.9      1.662      2.321
REMARK  2 active torsions:
REMARK  status: ('A' for Active; 'I' for Inactive)
REMARK    1  A    between atoms: C6_6  and  C10_10 
REMARK    2  A    between atoms: C7_7  and  C11_11 
ROOT
HETATM    1  C1  UNL     1     -37.282  14.681  -4.405  1.00 20.00     0.069 C 
HETATM    2  C2  UNL     1     -34.525  13.418  -4.298  1.00 20.00     0.002 C 
HETATM    3  C3  UNL     1     -34.293  14.392  -3.143  1.00 20.00     0.005 C 
HETATM    4  C4  UNL     1     -35.175  14.058  -5.530  1.00 20.00     0.024 C 
HETATM    5  C5  UNL     1     -35.411  16.313  -4.373  1.00 20.00     0.029 C 
HETATM    6  C6  UNL     1     -34.145  15.832  -3.633  1.00 20.00    -0.013 C 
HETATM    7  C7  UNL     1     -36.137  15.210  -5.186  1.00 20.00     0.049 C 
HETATM    8  N12 UNL     1     -38.176  14.268  -3.794  1.00 20.00    -0.196 NA
ENDROOT
BRANCH   7   9
HETATM    9  C11 UNL     1     -36.699  15.815  -6.486  1.00 20.00     0.020 C 
HETATM   10  C9  UNL     1     -36.388  14.953  -7.660  1.00 20.00     0.007 C 
ENDBRANCH   7   9
BRANCH   6  11
HETATM   11  C10 UNL     1     -33.803  16.774  -2.480  1.00 20.00     0.000 C 
HETATM   12  C8  UNL     1     -34.576  16.438  -1.248  1.00 20.00     0.005 C 
ENDBRANCH   6  11
TORSDOF 2
ENDMDL
MODEL 3
REMARK VINA RESULT:      -4.9      1.664      4.035
REMARK  2 active torsions:
REMARK  status: ('A' for Active; 'I' for Inactive)
REMARK    1  A    between atoms: C6_6  and  C10_10 
REMARK    2  A    between atoms: C7_7  and  C11_11 
ROOT
HETATM    1  C1  UNL     1     -33.611  16.635  -4.339  1.00 20.00     0.069 C 
HETATM    2  C2  UNL     1     -34.000  13.626  -4.294  1.00 20.00     0.002 C 
HETATM    3  C3  UNL     1     -35.397  13.954  -4.820  1.00 20.00     0.005 C 
HETATM    4  C4  UNL     1     -33.561  14.495  -3.110  1.00 20.00     0.024 C 
HETATM    5  C5  UNL     1     -35.688  15.890  -3.201  1.00 20.00     0.029 C 
HETATM    6  C6  UNL     1     -36.282  14.570  -3.737  1.00 20.00    -0.013 C 
HETATM    7  C7  UNL     1     -34.138  15.923  -3.150  1.00 20.00     0.049 C 
HETATM    8  N12 UNL     1     -33.199  17.192  -5.270  1.00 20.00    -0.196 NA
ENDROOT
BRANCH   7   9
HETATM    9  C11 UNL     1     -33.680  16.696  -1.901  1.00 20.00     0.020 C 
HETATM   10  C9  UNL     1     -34.703  16.630  -0.821  1.00 20.00     0.007 C 
ENDBRANCH   7   9
BRANCH   6  11
HETATM   11  C10 UNL     1     -37.706  14.788  -4.248  1.00 20.00     0.000 C 
HETATM   12  C8  UNL     1     -37.716  15.473  -5.575  1.00 20.00     0.005 C 
ENDBRANCH   6  11
TORSDOF 2
ENDMDL
MODEL 4
REMARK VINA RESULT:      -4.8      1.879      2.911
REMARK  2 active torsions:
REMARK  status: ('A' for Active; 'I' for Inactive)
REMARK    1  A    between atoms: C6_6  and  C10_10 
REMARK    2  A    between atoms: C7_7  and  C11_11 
ROOT
HETATM    1  C1  UNL     1     -33.641  16.393  -4.491  1.00 20.00     0.069 C 
HETATM    2  C2  UNL     1     -36.482  16.654  -3.455  1.00 20.00     0.002 C 
HETATM    3  C3  UNL     1     -35.836  17.483  -2.345  1.00 20.00     0.005 C 
HETATM    4  C4  UNL     1     -35.750  15.341  -3.756  1.00 20.00     0.024 C 
HETATM    5  C5  UNL     1     -33.904  15.854  -2.081  1.00 20.00     0.029 C 
HETATM    6  C6  UNL     1     -35.046  16.611  -1.370  1.00 20.00    -0.013 C 
HETATM    7  C7  UNL     1     -34.228  15.422  -3.535  1.00 20.00     0.049 C 
HETATM    8  N12 UNL     1     -33.182  17.152  -5.238  1.00 20.00    -0.196 NA
ENDROOT
BRANCH   7   9
HETATM    9  C11 UNL     1     -33.595  14.048  -3.817  1.00 20.00     0.020 C 
HETATM   10  C9  UNL     1     -34.449  13.238  -4.729  1.00 20.00     0.007 C 
ENDBRANCH   7   9
BRANCH   6  11
HETATM   11  C10 UNL     1     -34.502  17.439  -0.206  1.00 20.00     0.000 C 
HETATM   12  C8  UNL     1     -33.228  18.128  -0.570  1.00 20.00     0.005 C 
ENDBRANCH   6  11
TORSDOF 2
ENDMDL
MODEL 5
REMARK VINA RESULT:      -4.8      1.419      4.175
REMARK  2 active torsions:
REMARK  status: ('A' for Active; 'I' for Inactive)
REMARK    1  A    between atoms: C6_6  and  C10_10 
REMARK    2  A    between atoms: C7_7  and  C11_11 
ROOT
HETATM    1  C1  UNL     1     -33.879  14.178  -3.610  1.00 20.00     0.069 C 
HETATM    2  C2  UNL     1     -36.828  14.634  -4.163  1.00 20.00     0.002 C 
HETATM    3  C3  UNL     1     -36.362  14.882  -5.598  1.00 20.00     0.005 C 
HETATM    4  C4  UNL     1     -35.988  15.355  -3.103  1.00 20.00     0.024 C 
HETATM    5  C5  UNL     1     -34.376  16.275  -4.844  1.00 20.00     0.029 C 
HETATM    6  C6  UNL     1     -35.634  16.218  -5.736  1.00 20.00    -0.013 C 
HETATM    7  C7  UNL     1     -34.509  15.516  -3.498  1.00 20.00     0.049 C 
HETATM    8  N12 UNL     1     -33.388  13.131  -3.699  1.00 20.00    -0.196 NA
ENDROOT
BRANCH   7   9
HETATM    9  C11 UNL     1     -33.765  16.290  -2.395  1.00 20.00     0.020 C 
HETATM   10  C9  UNL     1     -34.620  16.467  -1.190  1.00 20.00     0.007 C 
ENDBRANCH   7   9
BRANCH   6  11
HETATM   11  C10 UNL     1     -35.275  16.501  -7.194  1.00 20.00     0.000 C 
HETATM   12  C8  UNL     1     -34.887  15.254  -7.917  1.00 20.00     0.005 C 
ENDBRANCH   6  11
TORSDOF 2
ENDMDL
MODEL 6
REMARK VINA RESULT:      -4.8      1.315      2.899
REMARK  2 active torsions:
REMARK  status: ('A' for Active; 'I' for Inactive)
REMARK    1  A    between atoms: C6_6  and  C10_10 
REMARK    2  A    between atoms: C7_7  and  C11_11 
ROOT
HETATM    1  C1  UNL     1     -34.602  13.754  -5.017  1.00 20.00     0.069 C 
HETATM    2  C2  UNL     1     -33.680  15.816  -2.991  1.00 20.00     0.002 C 
HETATM    3  C3  UNL     1     -35.163  15.895  -2.627  1.00 20.00     0.005 C 
HETATM    4  C4  UNL     1     -33.408  15.851  -4.499  1.00 20.00     0.024 C 
HETATM    5  C5  UNL     1     -35.890  15.876  -5.061  1.00 20.00     0.029 C 
HETATM    6  C6  UNL     1     -35.976  16.609  -3.705  1.00 20.00    -0.013 C 
HETATM    7  C7  UNL     1     -34.522  15.199  -5.339  1.00 20.00     0.049 C 
HETATM    8  N12 UNL     1     -34.665  12.623  -4.765  1.00 20.00    -0.196 NA
ENDROOT
BRANCH   7   9
HETATM    9  C11 UNL     1     -34.179  15.327  -6.834  1.00 20.00     0.020 C 
HETATM   10  C9  UNL     1     -35.247  14.733  -7.685  1.00 20.00     0.007 C 
ENDBRANCH   7   9
BRANCH   6  11
HETATM   11  C10 UNL     1     -37.433  16.777  -3.275  1.00 20.00     0.000 C 
HETATM   12  C8  UNL     1     -38.245  15.567  -3.598  1.00 20.00     0.005 C 
ENDBRANCH   6  11
TORSDOF 2
ENDMDL
MODEL 7
REMARK VINA RESULT:      -4.7      2.328      4.071
REMARK  2 active torsions:
REMARK  status: ('A' for Active; 'I' for Inactive)
REMARK    1  A    between atoms: C6_6  and  C10_10 
REMARK    2  A    between atoms: C7_7  and  C11_11 
ROOT
HETATM    1  C1  UNL     1     -35.865  17.406  -2.726  1.00 20.00     0.069 C 
HETATM    2  C2  UNL     1     -33.806  17.446  -4.956  1.00 20.00     0.002 C 
HETATM    3  C3  UNL     1     -34.037  15.935  -4.986  1.00 20.00     0.005 C 
HETATM    4  C4  UNL     1     -33.619  18.018  -3.547  1.00 20.00     0.024 C 
HETATM    5  C5  UNL     1     -34.028  15.757  -2.452  1.00 20.00     0.029 C 
HETATM    6  C6  UNL     1     -33.419  15.241  -3.773  1.00 20.00    -0.013 C 
HETATM    7  C7  UNL     1     -34.412  17.260  -2.466  1.00 20.00     0.049 C 
HETATM    8  N12 UNL     1     -37.001  17.519  -2.930  1.00 20.00    -0.196 NA
ENDROOT
BRANCH   7   9
HETATM    9  C11 UNL     1     -34.120  17.878  -1.087  1.00 20.00     0.020 C 
HETATM   10  C9  UNL     1     -34.823  17.136  -0.004  1.00 20.00     0.007 C 
ENDBRANCH   7   9
BRANCH   6  11
HETATM   11  C10 UNL     1     -33.560  13.723  -3.876  1.00 20.00     0.000 C 
HETATM   12  C8  UNL     1     -34.935  13.326  -4.302  1.00 20.00     0.005 C 
ENDBRANCH   6  11
TORSDOF 2
ENDMDL
MODEL 8
REMARK VINA RESULT:      -4.5     11.164     12.717
REMARK  2 active torsions:
REMARK  status: ('A' for Active; 'I' for Inactive)
REMARK    1  A    between atoms: C6_6  and  C10_10 
REMARK    2  A    between atoms: C7_7  and  C11_11 
ROOT
HETATM    1  C1  UNL     1     -42.711   4.079  -0.571  1.00 20.00     0.069 C 
HETATM    2  C2  UNL     1     -40.449   6.089  -0.338  1.00 20.00     0.002 C 
HETATM    3  C3  UNL     1     -41.504   7.096  -0.796  1.00 20.00     0.005 C 
HETATM    4  C4  UNL     1     -40.425   4.797  -1.163  1.00 20.00     0.024 C 
HETATM    5  C5  UNL     1     -42.418   5.524  -2.569  1.00 20.00     0.029 C 
HETATM    6  C6  UNL     1     -41.849   6.928  -2.275  1.00 20.00    -0.013 C 
HETATM    7  C7  UNL     1     -41.807   4.389  -1.706  1.00 20.00     0.049 C 
HETATM    8  N12 UNL     1     -43.417   3.837   0.316  1.00 20.00    -0.196 NA
ENDROOT
BRANCH   7   9
HETATM    9  C11 UNL     1     -41.669   3.113  -2.555  1.00 20.00     0.020 C 
HETATM   10  C9  UNL     1     -42.808   2.971  -3.504  1.00 20.00     0.007 C 
ENDBRANCH   7   9
BRANCH   6  11
HETATM   11  C10 UNL     1     -42.820   8.012  -2.741  1.00 20.00     0.000 C 
HETATM   12  C8  UNL     1     -42.877   8.096  -4.230  1.00 20.00     0.005 C 
ENDBRANCH   6  11
TORSDOF 2
ENDMDL
MODEL 9
REMARK VINA RESULT:      -4.4      3.179      5.381
REMARK  2 active torsions:
REMARK  status: ('A' for Active; 'I' for Inactive)
REMARK    1  A    between atoms: C6_6  and  C10_10 
REMARK    2  A    between atoms: C7_7  and  C11_11 
ROOT
HETATM    1  C1  UNL     1     -36.051  18.650  -0.346  1.00 20.00     0.069 C 
HETATM    2  C2  UNL     1     -33.320  19.099  -1.591  1.00 20.00     0.002 C 
HETATM    3  C3  UNL     1     -33.773  18.034  -2.591  1.00 20.00     0.005 C 
HETATM    4  C4  UNL     1     -33.594  18.733  -0.128  1.00 20.00     0.024 C 
HETATM    5  C5  UNL     1     -34.766  16.567  -0.770  1.00 20.00     0.029 C 
HETATM    6  C6  UNL     1     -33.794  16.640  -1.966  1.00 20.00    -0.013 C 
HETATM    7  C7  UNL     1     -34.856  17.872   0.064  1.00 20.00     0.049 C 
HETATM    8  N12 UNL     1     -36.985  19.257  -0.667  1.00 20.00    -0.196 NA
ENDROOT
BRANCH   7   9
HETATM    9  C11 UNL     1     -35.016  17.521   1.554  1.00 20.00     0.020 C 
HETATM   10  C9  UNL     1     -34.284  18.488   2.418  1.00 20.00     0.007 C 
ENDBRANCH   7   9
BRANCH   6  11
HETATM   11  C10 UNL     1     -34.139  15.575  -3.007  1.00 20.00     0.000 C 
HETATM   12  C8  UNL     1     -32.916  15.046  -3.680  1.00 20.00     0.005 C 
ENDBRANCH   6  11
TORSDOF 2
ENDMDL
