MODEL 1
REMARK VINA RESULT:      -5.2      0.000      0.000
REMARK  3 active torsions:
REMARK  status: ('A' for Active; 'I' for Inactive)
REMARK    1  A    between atoms: C6_6  and  C10_10 
REMARK    2  A    between atoms: C7_7  and  C11_11 
REMARK    3  A    between atoms: C11_11  and  C12_12 
ROOT
HETATM    1  C1  UNL     1     -34.697  13.675  -4.840  1.00 20.00     0.069 C 
HETATM    2  C2  UNL     1     -33.399  15.767  -2.956  1.00 20.00     0.006 C 
HETATM    3  C3  UNL     1     -35.916  15.918  -3.082  1.00 20.00     0.006 C 
HETATM    4  C4  UNL     1     -33.323  15.704  -4.484  1.00 20.00     0.025 C 
HETATM    5  C5  UNL     1     -35.848  15.856  -4.610  1.00 20.00     0.025 C 
HETATM    6  C6  UNL     1     -34.644  16.526  -2.481  1.00 20.00    -0.015 C 
HETATM    7  C7  UNL     1     -34.595  15.123  -5.134  1.00 20.00     0.049 C 
HETATM    8  N13 UNL     1     -34.776  12.540  -4.610  1.00 20.00    -0.196 NA
ENDROOT
BRANCH   7   9
HETATM    9  C11 UNL     1     -34.509  15.293  -6.661  1.00 20.00     0.024 C 
BRANCH   9  10
HETATM   10  C12 UNL     1     -35.367  16.460  -7.125  1.00 20.00    -0.003 C 
HETATM   11  C9  UNL     1     -34.502  17.657  -7.488  1.00 20.00     0.005 C 
ENDBRANCH   9  10
ENDBRANCH   7   9
BRANCH   6  12
HETATM   12  C10 UNL     1     -34.719  16.536  -0.955  1.00 20.00     0.000 C 
HETATM   13  C8  UNL     1     -33.919  17.653  -0.371  1.00 20.00     0.005 C 
ENDBRANCH   6  12
TORSDOF 3
ENDMDL
MODEL 2
REMARK VINA RESULT:      -4.9      1.702      1.946
REMARK  3 active torsions:
REMARK  status: ('A' for Active; 'I' for Inactive)
REMARK    1  A    between atoms: C6_6  and  C10_10 
REMARK    2  A    between atoms: C7_7  and  C11_11 
REMARK    3  A    between atoms: C11_11  and  C12_12 
ROOT
HETATM    1  C1  UNL     1     -36.603  14.646  -4.053  1.00 20.00     0.069 C 
HETATM    2  C2  UNL     1     -34.492  15.709  -2.047  1.00 20.00     0.006 C 
HETATM    3  C3  UNL     1     -35.335  17.449  -3.670  1.00 20.00     0.006 C 
HETATM    4  C4  UNL     1     -34.278  14.729  -3.203  1.00 20.00     0.025 C 
HETATM    5  C5  UNL     1     -35.124  16.475  -4.831  1.00 20.00     0.025 C 
HETATM    6  C6  UNL     1     -34.375  17.166  -2.509  1.00 20.00    -0.015 C 
HETATM    7  C7  UNL     1     -35.207  14.994  -4.406  1.00 20.00     0.049 C 
HETATM    8  N13 UNL     1     -37.696  14.373  -3.777  1.00 20.00    -0.196 NA
ENDROOT
BRANCH   7   9
HETATM    9  C11 UNL     1     -34.779  14.102  -5.586  1.00 20.00     0.024 C 
BRANCH   9  10
HETATM   10  C12 UNL     1     -34.597  14.928  -6.850  1.00 20.00    -0.003 C 
HETATM   11  C9  UNL     1     -35.595  14.511  -7.918  1.00 20.00     0.005 C 
ENDBRANCH   9  10
ENDBRANCH   7   9
BRANCH   6  12
HETATM   12  C10 UNL     1     -34.636  18.124  -1.347  1.00 20.00     0.000 C 
HETATM   13  C8  UNL     1     -34.775  17.393  -0.053  1.00 20.00     0.005 C 
ENDBRANCH   6  12
TORSDOF 3
ENDMDL
MODEL 3
REMARK VINA RESULT:      -4.9      1.650      4.769
REMARK  3 active torsions:
REMARK  status: ('A' for Active; 'I' for Inactive)
REMARK    1  A    between atoms: C6_6  and  C10_10 
REMARK    2  A    between atoms: C7_7  and  C11_11 
REMARK    3  A    between atoms: C11_11  and  C12_12 
ROOT
HETATM    1  C1  UNL     1     -36.622  15.266  -3.383  1.00 20.00     0.069 C 
HETATM    2  C2  UNL     1     -35.098  16.593  -5.734  1.00 20.00     0.006 C 
HETATM    3  C3  UNL     1     -34.488  14.174  -5.349  1.00 20.00     0.006 C 
HETATM    4  C4  UNL     1     -34.943  16.875  -4.237  1.00 20.00     0.025 C 
HETATM    5  C5  UNL     1     -34.332  14.447  -3.851  1.00 20.00     0.025 C 
HETATM    6  C6  UNL     1     -34.212  15.428  -6.187  1.00 20.00    -0.015 C 
HETATM    7  C7  UNL     1     -35.187  15.632  -3.356  1.00 20.00     0.049 C 
HETATM    8  N13 UNL     1     -37.747  14.980  -3.404  1.00 20.00    -0.196 NA
ENDROOT
BRANCH   7   9
HETATM    9  C11 UNL     1     -34.808  15.959  -1.900  1.00 20.00     0.024 C 
BRANCH   9  10
HETATM   10  C12 UNL     1     -33.777  17.075  -1.847  1.00 20.00    -0.003 C 
HETATM   11  C9  UNL     1     -33.747  17.720  -0.470  1.00 20.00     0.005 C 
ENDBRANCH   9  10
ENDBRANCH   7   9
BRANCH   6  12
HETATM   12  C10 UNL     1     -34.417  15.139  -7.673  1.00 20.00     0.000 C 
HETATM   13  C8  UNL     1     -35.684  14.387  -7.918  1.00 20.00     0.005 C 
ENDBRANCH   6  12
TORSDOF 3
ENDMDL
MODEL 4
REMARK VINA RESULT:      -4.7      2.038      4.969
REMARK  3 active torsions:
REMARK  status: ('A' for Active; 'I' for Inactive)
REMARK    1  A    between atoms: C6_6  and  C10_10 
REMARK    2  A    between atoms: C7_7  and  C11_11 
REMARK    3  A    between atoms: C11_11  and  C12_12 
ROOT
HETATM    1  C1  UNL     1     -36.119  17.151  -3.168  1.00 20.00     0.069 C 
HETATM    2  C2  UNL     1     -33.870  16.700  -5.255  1.00 20.00     0.006 C 
HETATM    3  C3  UNL     1     -35.416  14.725  -4.967  1.00 20.00     0.006 C 
HETATM    4  C4  UNL     1     -33.731  16.818  -3.735  1.00 20.00     0.025 C 
HETATM    5  C5  UNL     1     -35.281  14.836  -3.446  1.00 20.00     0.025 C 
HETATM    6  C6  UNL     1     -34.174  15.261  -5.688  1.00 20.00    -0.015 C 
HETATM    7  C7  UNL     1     -34.949  16.265  -2.967  1.00 20.00     0.049 C 
HETATM    8  N13 UNL     1     -37.035  17.845  -3.326  1.00 20.00    -0.196 NA
ENDROOT
BRANCH   7   9
HETATM    9  C11 UNL     1     -34.630  16.235  -1.462  1.00 20.00     0.024 C 
BRANCH   9  10
HETATM   10  C12 UNL     1     -33.768  17.424  -1.067  1.00 20.00    -0.003 C 
HETATM   11  C9  UNL     1     -34.189  17.972   0.287  1.00 20.00     0.005 C 
ENDBRANCH   9  10
ENDBRANCH   7   9
BRANCH   6  12
HETATM   12  C10 UNL     1     -34.352  15.179  -7.203  1.00 20.00     0.000 C 
HETATM   13  C8  UNL     1     -35.613  14.469  -7.571  1.00 20.00     0.005 C 
ENDBRANCH   6  12
TORSDOF 3
ENDMDL
MODEL 5
REMARK VINA RESULT:      -4.7      2.351      3.572
REMARK  3 active torsions:
REMARK  status: ('A' for Active; 'I' for Inactive)
REMARK    1  A    between atoms: C6_6  and  C10_10 
REMARK    2  A    between atoms: C7_7  and  C11_11 
REMARK    3  A    between atoms: C11_11  and  C12_12 
ROOT
HETATM    1  C1  UNL     1     -36.227  17.335  -3.284  1.00 20.00     0.069 C 
HETATM    2  C2  UNL     1     -34.569  16.716  -0.737  1.00 20.00     0.006 C 
HETATM    3  C3  UNL     1     -33.620  18.577  -2.154  1.00 20.00     0.006 C 
HETATM    4  C4  UNL     1     -34.734  15.844  -1.985  1.00 20.00     0.025 C 
HETATM    5  C5  UNL     1     -33.781  17.711  -3.407  1.00 20.00     0.025 C 
HETATM    6  C6  UNL     1     -33.425  17.724  -0.895  1.00 20.00    -0.015 C 
HETATM    7  C7  UNL     1     -34.906  16.663  -3.281  1.00 20.00     0.049 C 
HETATM    8  N13 UNL     1     -37.261  17.860  -3.285  1.00 20.00    -0.196 NA
ENDROOT
BRANCH   7   9
HETATM    9  C11 UNL     1     -34.854  15.715  -4.492  1.00 20.00     0.024 C 
BRANCH   9  10
HETATM   10  C12 UNL     1     -34.053  14.464  -4.166  1.00 20.00    -0.003 C 
HETATM   11  C9  UNL     1     -34.784  13.215  -4.632  1.00 20.00     0.005 C 
ENDBRANCH   9  10
ENDBRANCH   7   9
BRANCH   6  12
HETATM   12  C10 UNL     1     -33.311  18.610   0.344  1.00 20.00     0.000 C 
HETATM   13  C8  UNL     1     -31.900  19.029   0.593  1.00 20.00     0.005 C 
ENDBRANCH   6  12
TORSDOF 3
ENDMDL
MODEL 6
REMARK VINA RESULT:      -4.7      2.274      4.976
REMARK  3 active torsions:
REMARK  status: ('A' for Active; 'I' for Inactive)
REMARK    1  A    between atoms: C6_6  and  C10_10 
REMARK    2  A    between atoms: C7_7  and  C11_11 
REMARK    3  A    between atoms: C11_11  and  C12_12 
ROOT
HETATM    1  C1  UNL     1     -34.356  17.797  -3.492  1.00 20.00     0.069 C 
HETATM    2  C2  UNL     1     -33.363  14.938  -4.166  1.00 20.00     0.006 C 
HETATM    3  C3  UNL     1     -35.797  15.051  -3.506  1.00 20.00     0.006 C 
HETATM    4  C4  UNL     1     -32.990  15.800  -2.957  1.00 20.00     0.025 C 
HETATM    5  C5  UNL     1     -35.433  15.914  -2.295  1.00 20.00     0.025 C 
HETATM    6  C6  UNL     1     -34.641  14.130  -3.915  1.00 20.00    -0.015 C 
HETATM    7  C7  UNL     1     -34.135  16.725  -2.493  1.00 20.00     0.049 C 
HETATM    8  N13 UNL     1     -34.529  18.636  -4.274  1.00 20.00    -0.196 NA
ENDROOT
BRANCH   7   9
HETATM    9  C11 UNL     1     -33.744  17.390  -1.162  1.00 20.00     0.024 C 
BRANCH   9  10
HETATM   10  C12 UNL     1     -34.785  17.109  -0.089  1.00 20.00    -0.003 C 
HETATM   11  C9  UNL     1     -34.605  18.042   1.098  1.00 20.00     0.005 C 
ENDBRANCH   9  10
ENDBRANCH   7   9
BRANCH   6  12
HETATM   12  C10 UNL     1     -35.015  13.313  -5.151  1.00 20.00     0.000 C 
HETATM   13  C8  UNL     1     -35.139  14.175  -6.364  1.00 20.00     0.005 C 
ENDBRANCH   6  12
TORSDOF 3
ENDMDL
MODEL 7
REMARK VINA RESULT:      -4.6      1.221      4.601
REMARK  3 active torsions:
REMARK  status: ('A' for Active; 'I' for Inactive)
REMARK    1  A    between atoms: C6_6  and  C10_10 
REMARK    2  A    between atoms: C7_7  and  C11_11 
REMARK    3  A    between atoms: C11_11  and  C12_12 
ROOT
HETATM    1  C1  UNL     1     -34.836  13.740  -4.350  1.00 20.00     0.069 C 
HETATM    2  C2  UNL     1     -37.023  15.772  -5.187  1.00 20.00     0.006 C 
HETATM    3  C3  UNL     1     -34.912  15.909  -6.565  1.00 20.00     0.006 C 
HETATM    4  C4  UNL     1     -36.190  15.766  -3.903  1.00 20.00     0.025 C 
HETATM    5  C5  UNL     1     -34.072  15.903  -5.285  1.00 20.00     0.025 C 
HETATM    6  C6  UNL     1     -36.305  16.504  -6.327  1.00 20.00    -0.015 C 
HETATM    7  C7  UNL     1     -34.769  15.200  -4.102  1.00 20.00     0.049 C 
HETATM    8  N13 UNL     1     -34.889  12.597  -4.544  1.00 20.00    -0.196 NA
ENDROOT
BRANCH   7   9
HETATM    9  C11 UNL     1     -33.947  15.426  -2.821  1.00 20.00     0.024 C 
BRANCH   9  10
HETATM   10  C12 UNL     1     -34.754  16.200  -1.790  1.00 20.00    -0.003 C 
HETATM   11  C9  UNL     1     -33.884  17.226  -1.081  1.00 20.00     0.005 C 
ENDBRANCH   9  10
ENDBRANCH   7   9
BRANCH   6  12
HETATM   12  C10 UNL     1     -37.138  16.457  -7.607  1.00 20.00     0.000 C 
HETATM   13  C8  UNL     1     -37.612  15.073  -7.906  1.00 20.00     0.005 C 
ENDBRANCH   6  12
TORSDOF 3
ENDMDL
MODEL 8
REMARK VINA RESULT:      -4.5      1.243      1.538
REMARK  3 active torsions:
REMARK  status: ('A' for Active; 'I' for Inactive)
REMARK    1  A    between atoms: C6_6  and  C10_10 
REMARK    2  A    between atoms: C7_7  and  C11_11 
REMARK    3  A    between atoms: C11_11  and  C12_12 
ROOT
HETATM    1  C1  UNL     1     -34.263  14.067  -4.147  1.00 20.00     0.069 C 
HETATM    2  C2  UNL     1     -33.536  17.029  -3.590  1.00 20.00     0.006 C 
HETATM    3  C3  UNL     1     -35.191  16.051  -1.952  1.00 20.00     0.006 C 
HETATM    4  C4  UNL     1     -34.352  16.466  -4.756  1.00 20.00     0.025 C 
HETATM    5  C5  UNL     1     -36.012  15.485  -3.114  1.00 20.00     0.025 C 
HETATM    6  C6  UNL     1     -34.415  17.308  -2.365  1.00 20.00    -0.015 C 
HETATM    7  C7  UNL     1     -35.171  15.214  -4.378  1.00 20.00     0.049 C 
HETATM    8  N13 UNL     1     -33.551  13.168  -3.965  1.00 20.00    -0.196 NA
ENDROOT
BRANCH   7   9
HETATM    9  C11 UNL     1     -36.109  14.849  -5.543  1.00 20.00     0.024 C 
BRANCH   9  10
HETATM   10  C12 UNL     1     -35.723  15.605  -6.806  1.00 20.00    -0.003 C 
HETATM   11  C9  UNL     1     -35.229  14.649  -7.880  1.00 20.00     0.005 C 
ENDBRANCH   9  10
ENDBRANCH   7   9
BRANCH   6  12
HETATM   12  C10 UNL     1     -33.570  17.826  -1.202  1.00 20.00     0.000 C 
HETATM   13  C8  UNL     1     -34.277  17.670   0.104  1.00 20.00     0.005 C 
ENDBRANCH   6  12
TORSDOF 3
ENDMDL
MODEL 9
REMARK VINA RESULT:      -4.5      2.181      3.178
REMARK  3 active torsions:
REMARK  status: ('A' for Active; 'I' for Inactive)
REMARK    1  A    between atoms: C6_6  and  C10_10 
REMARK    2  A    between atoms: C7_7  and  C11_11 
REMARK    3  A    between atoms: C11_11  and  C12_12 
ROOT
HETATM    1  C1  UNL     1     -33.833  17.780  -4.752  1.00 20.00     0.069 C 
HETATM    2  C2  UNL     1     -35.891  17.257  -2.493  1.00 20.00     0.006 C 
HETATM    3  C3  UNL     1     -33.526  16.601  -1.901  1.00 20.00     0.006 C 
HETATM    4  C4  UNL     1     -35.762  16.528  -3.833  1.00 20.00     0.025 C 
HETATM    5  C5  UNL     1     -33.389  15.870  -3.239  1.00 20.00     0.025 C 
HETATM    6  C6  UNL     1     -34.982  16.643  -1.422  1.00 20.00    -0.015 C 
HETATM    7  C7  UNL     1     -34.308  16.439  -4.340  1.00 20.00     0.049 C 
HETATM    8  N13 UNL     1     -33.461  18.831  -5.075  1.00 20.00    -0.196 NA
ENDROOT
BRANCH   7   9
HETATM    9  C11 UNL     1     -34.254  15.518  -5.572  1.00 20.00     0.024 C 
BRANCH   9  10
HETATM   10  C12 UNL     1     -35.316  14.433  -5.483  1.00 20.00    -0.003 C 
HETATM   11  C9  UNL     1     -34.728  13.143  -4.932  1.00 20.00     0.005 C 
ENDBRANCH   9  10
ENDBRANCH   7   9
BRANCH   6  12
HETATM   12  C10 UNL     1     -35.096  17.415  -0.109  1.00 20.00     0.000 C 
HETATM   13  C8  UNL     1     -33.834  18.147   0.211  1.00 20.00     0.005 C 
ENDBRANCH   6  12
TORSDOF 3
ENDMDL
