MODEL 1
REMARK VINA RESULT:      -5.3      0.000      0.000
REMARK  2 active torsions:
REMARK  status: ('A' for Active; 'I' for Inactive)
REMARK    1  A    between atoms: C3_3  and  C8_8 
REMARK    2  A    between atoms: C3_3  and  C9_9 
ROOT
HETATM    1  C1  UNL     1     -32.182   9.070   0.741  1.00 20.00     0.012 C 
HETATM    2  C2  UNL     1     -32.077   8.556   1.822  1.00 20.00    -0.110 C 
HETATM    3  C9  UNL     1     -31.944   7.934   3.143  1.00 20.00     0.171 C 
ENDROOT
BRANCH   3   4
HETATM    4  C3  UNL     1     -32.546   6.544   3.196  1.00 20.00     0.142 C 
HETATM    5  O10 UNL     1     -32.081   5.585   2.582  1.00 20.00    -0.297 OA
BRANCH   4   6
HETATM    6  C8  UNL     1     -33.781   6.388   4.062  1.00 20.00     0.060 C 
HETATM    7  C4  UNL     1     -34.452   5.068   3.703  1.00 20.00     0.038 C 
HETATM    8  C6  UNL     1     -35.553   4.742   4.706  1.00 20.00     0.168 C 
HETATM    9  O11 UNL     1     -35.036   4.727   6.038  1.00 20.00    -0.391 OA
HETATM   10  C7  UNL     1     -34.506   5.995   6.425  1.00 20.00     0.168 C 
HETATM   11  C5  UNL     1     -33.344   6.392   5.522  1.00 20.00     0.038 C 
ENDBRANCH   4   6
ENDBRANCH   3   4
TORSDOF 2
ENDMDL
MODEL 2
REMARK VINA RESULT:      -4.7     11.357     12.468
REMARK  2 active torsions:
REMARK  status: ('A' for Active; 'I' for Inactive)
REMARK    1  A    between atoms: C3_3  and  C8_8 
REMARK    2  A    between atoms: C3_3  and  C9_9 
ROOT
HETATM    1  C1  UNL     1     -34.467  17.721   0.353  1.00 20.00     0.012 C 
HETATM    2  C2  UNL     1     -34.581  16.978  -0.583  1.00 20.00    -0.110 C 
HETATM    3  C9  UNL     1     -34.724  16.065  -1.722  1.00 20.00     0.171 C 
ENDROOT
BRANCH   3   4
HETATM    4  C3  UNL     1     -33.982  16.548  -2.953  1.00 20.00     0.142 C 
HETATM    5  O10 UNL     1     -33.580  17.703  -3.086  1.00 20.00    -0.297 OA
BRANCH   4   6
HETATM    6  C8  UNL     1     -33.753  15.516  -4.039  1.00 20.00     0.060 C 
HETATM    7  C4  UNL     1     -34.403  14.209  -3.601  1.00 20.00     0.038 C 
HETATM    8  C6  UNL     1     -34.418  13.212  -4.754  1.00 20.00     0.168 C 
HETATM    9  O11 UNL     1     -35.070  13.768  -5.896  1.00 20.00    -0.391 OA
HETATM   10  C7  UNL     1     -34.402  14.932  -6.385  1.00 20.00     0.168 C 
HETATM   11  C5  UNL     1     -34.387  16.029  -5.327  1.00 20.00     0.038 C 
ENDBRANCH   4   6
ENDBRANCH   3   4
TORSDOF 2
ENDMDL
MODEL 3
REMARK VINA RESULT:      -4.7     11.019     11.935
REMARK  2 active torsions:
REMARK  status: ('A' for Active; 'I' for Inactive)
REMARK    1  A    between atoms: C3_3  and  C8_8 
REMARK    2  A    between atoms: C3_3  and  C9_9 
ROOT
HETATM    1  C1  UNL     1     -34.341  18.318   0.530  1.00 20.00     0.012 C 
HETATM    2  C2  UNL     1     -34.442  17.411  -0.250  1.00 20.00    -0.110 C 
HETATM    3  C9  UNL     1     -34.567  16.298  -1.197  1.00 20.00     0.171 C 
ENDROOT
BRANCH   3   4
HETATM    4  C3  UNL     1     -34.202  16.695  -2.614  1.00 20.00     0.142 C 
HETATM    5  O10 UNL     1     -33.665  17.765  -2.896  1.00 20.00    -0.297 OA
BRANCH   4   6
HETATM    6  C8  UNL     1     -34.537  15.686  -3.694  1.00 20.00     0.060 C 
HETATM    7  C4  UNL     1     -33.488  14.581  -3.659  1.00 20.00     0.038 C 
HETATM    8  C6  UNL     1     -33.909  13.421  -4.553  1.00 20.00     0.168 C 
HETATM    9  O11 UNL     1     -35.199  12.935  -4.178  1.00 20.00    -0.391 OA
HETATM   10  C7  UNL     1     -36.212  13.932  -4.315  1.00 20.00     0.168 C 
HETATM   11  C5  UNL     1     -35.924  15.122  -3.407  1.00 20.00     0.038 C 
ENDBRANCH   4   6
ENDBRANCH   3   4
TORSDOF 2
ENDMDL
MODEL 4
REMARK VINA RESULT:      -4.7      1.220      1.887
REMARK  2 active torsions:
REMARK  status: ('A' for Active; 'I' for Inactive)
REMARK    1  A    between atoms: C3_3  and  C8_8 
REMARK    2  A    between atoms: C3_3  and  C9_9 
ROOT
HETATM    1  C1  UNL     1     -32.425   9.893   1.385  1.00 20.00     0.012 C 
HETATM    2  C2  UNL     1     -32.311   8.745   1.720  1.00 20.00    -0.110 C 
HETATM    3  C9  UNL     1     -32.172   7.341   2.121  1.00 20.00     0.171 C 
ENDROOT
BRANCH   3   4
HETATM    4  C3  UNL     1     -32.058   7.174   3.624  1.00 20.00     0.142 C 
HETATM    5  O10 UNL     1     -31.342   7.884   4.328  1.00 20.00    -0.297 OA
BRANCH   4   6
HETATM    6  C8  UNL     1     -32.888   6.062   4.233  1.00 20.00     0.060 C 
HETATM    7  C4  UNL     1     -33.455   6.559   5.557  1.00 20.00     0.038 C 
HETATM    8  C6  UNL     1     -34.491   5.578   6.093  1.00 20.00     0.168 C 
HETATM    9  O11 UNL     1     -35.522   5.354   5.130  1.00 20.00    -0.391 OA
HETATM   10  C7  UNL     1     -35.016   4.781   3.923  1.00 20.00     0.168 C 
HETATM   11  C5  UNL     1     -34.011   5.716   3.262  1.00 20.00     0.038 C 
ENDBRANCH   4   6
ENDBRANCH   3   4
TORSDOF 2
ENDMDL
MODEL 5
REMARK VINA RESULT:      -4.6     11.158     12.992
REMARK  2 active torsions:
REMARK  status: ('A' for Active; 'I' for Inactive)
REMARK    1  A    between atoms: C3_3  and  C8_8 
REMARK    2  A    between atoms: C3_3  and  C9_9 
ROOT
HETATM    1  C1  UNL     1     -34.659  16.429  -1.367  1.00 20.00     0.012 C 
HETATM    2  C2  UNL     1     -34.045  16.007  -2.309  1.00 20.00    -0.110 C 
HETATM    3  C9  UNL     1     -33.289  15.498  -3.458  1.00 20.00     0.171 C 
ENDROOT
BRANCH   3   4
HETATM    4  C3  UNL     1     -33.952  14.299  -4.106  1.00 20.00     0.142 C 
HETATM    5  O10 UNL     1     -33.997  13.188  -3.579  1.00 20.00    -0.297 OA
BRANCH   4   6
HETATM    6  C8  UNL     1     -34.573  14.538  -5.468  1.00 20.00     0.060 C 
HETATM    7  C4  UNL     1     -36.073  14.732  -5.282  1.00 20.00     0.038 C 
HETATM    8  C6  UNL     1     -36.711  15.217  -6.578  1.00 20.00     0.168 C 
HETATM    9  O11 UNL     1     -36.077  16.412  -7.038  1.00 20.00    -0.391 OA
HETATM   10  C7  UNL     1     -34.692  16.213  -7.324  1.00 20.00     0.168 C 
HETATM   11  C5  UNL     1     -33.938  15.786  -6.070  1.00 20.00     0.038 C 
ENDBRANCH   4   6
ENDBRANCH   3   4
TORSDOF 2
ENDMDL
MODEL 6
REMARK VINA RESULT:      -4.5     10.973     12.013
REMARK  2 active torsions:
REMARK  status: ('A' for Active; 'I' for Inactive)
REMARK    1  A    between atoms: C3_3  and  C8_8 
REMARK    2  A    between atoms: C3_3  and  C9_9 
ROOT
HETATM    1  C1  UNL     1     -35.225  17.481   0.950  1.00 20.00     0.012 C 
HETATM    2  C2  UNL     1     -34.521  17.451  -0.023  1.00 20.00    -0.110 C 
HETATM    3  C9  UNL     1     -33.654  17.416  -1.205  1.00 20.00     0.171 C 
ENDROOT
BRANCH   3   4
HETATM    4  C3  UNL     1     -34.404  17.033  -2.466  1.00 20.00     0.142 C 
HETATM    5  O10 UNL     1     -34.872  17.859  -3.248  1.00 20.00    -0.297 OA
BRANCH   4   6
HETATM    6  C8  UNL     1     -34.555  15.547  -2.723  1.00 20.00     0.060 C 
HETATM    7  C4  UNL     1     -35.796  15.334  -3.582  1.00 20.00     0.038 C 
HETATM    8  C6  UNL     1     -35.860  13.893  -4.075  1.00 20.00     0.168 C 
HETATM    9  O11 UNL     1     -34.666  13.546  -4.778  1.00 20.00    -0.391 OA
HETATM   10  C7  UNL     1     -33.507  13.633  -3.949  1.00 20.00     0.168 C 
HETATM   11  C5  UNL     1     -33.307  15.058  -3.450  1.00 20.00     0.038 C 
ENDBRANCH   4   6
ENDBRANCH   3   4
TORSDOF 2
ENDMDL
MODEL 7
REMARK VINA RESULT:      -4.4     10.925     12.339
REMARK  2 active torsions:
REMARK  status: ('A' for Active; 'I' for Inactive)
REMARK    1  A    between atoms: C3_3  and  C8_8 
REMARK    2  A    between atoms: C3_3  and  C9_9 
ROOT
HETATM    1  C1  UNL     1     -34.709  14.762  -7.280  1.00 20.00     0.012 C 
HETATM    2  C2  UNL     1     -34.932  14.259  -6.212  1.00 20.00    -0.110 C 
HETATM    3  C9  UNL     1     -35.212  13.643  -4.911  1.00 20.00     0.171 C 
ENDROOT
BRANCH   3   4
HETATM    4  C3  UNL     1     -34.122  13.915  -3.892  1.00 20.00     0.142 C 
HETATM    5  O10 UNL     1     -33.137  13.193  -3.751  1.00 20.00    -0.297 OA
BRANCH   4   6
HETATM    6  C8  UNL     1     -34.310  15.149  -3.032  1.00 20.00     0.060 C 
HETATM    7  C4  UNL     1     -33.453  16.269  -3.610  1.00 20.00     0.038 C 
HETATM    8  C6  UNL     1     -33.788  17.595  -2.937  1.00 20.00     0.168 C 
HETATM    9  O11 UNL     1     -35.182  17.884  -3.054  1.00 20.00    -0.391 OA
HETATM   10  C7  UNL     1     -35.992  16.897  -2.416  1.00 20.00     0.168 C 
HETATM   11  C5  UNL     1     -35.786  15.531  -3.060  1.00 20.00     0.038 C 
ENDBRANCH   4   6
ENDBRANCH   3   4
TORSDOF 2
ENDMDL
MODEL 8
REMARK VINA RESULT:      -4.3     11.441     12.629
REMARK  2 active torsions:
REMARK  status: ('A' for Active; 'I' for Inactive)
REMARK    1  A    between atoms: C3_3  and  C8_8 
REMARK    2  A    between atoms: C3_3  and  C9_9 
ROOT
HETATM    1  C1  UNL     1     -34.886  14.537  -7.028  1.00 20.00     0.012 C 
HETATM    2  C2  UNL     1     -35.049  14.171  -5.896  1.00 20.00    -0.110 C 
HETATM    3  C9  UNL     1     -35.242  13.718  -4.514  1.00 20.00     0.171 C 
ENDROOT
BRANCH   3   4
HETATM    4  C3  UNL     1     -36.335  14.486  -3.798  1.00 20.00     0.142 C 
HETATM    5  O10 UNL     1     -37.523  14.173  -3.850  1.00 20.00    -0.297 OA
BRANCH   4   6
HETATM    6  C8  UNL     1     -35.884  15.690  -2.994  1.00 20.00     0.060 C 
HETATM    7  C4  UNL     1     -34.424  15.487  -2.608  1.00 20.00     0.038 C 
HETATM    8  C6  UNL     1     -33.849  16.767  -2.013  1.00 20.00     0.168 C 
HETATM    9  O11 UNL     1     -34.008  17.861  -2.918  1.00 20.00    -0.391 OA
HETATM   10  C7  UNL     1     -35.381  18.133  -3.200  1.00 20.00     0.168 C 
HETATM   11  C5  UNL     1     -36.044  16.932  -3.863  1.00 20.00     0.038 C 
ENDBRANCH   4   6
ENDBRANCH   3   4
TORSDOF 2
ENDMDL
MODEL 9
REMARK VINA RESULT:      -4.3     11.496     13.122
REMARK  2 active torsions:
REMARK  status: ('A' for Active; 'I' for Inactive)
REMARK    1  A    between atoms: C3_3  and  C8_8 
REMARK    2  A    between atoms: C3_3  and  C9_9 
ROOT
HETATM    1  C1  UNL     1     -33.411  18.014  -1.144  1.00 20.00     0.012 C 
HETATM    2  C2  UNL     1     -33.887  17.028  -1.639  1.00 20.00    -0.110 C 
HETATM    3  C9  UNL     1     -34.472  15.823  -2.236  1.00 20.00     0.171 C 
ENDROOT
BRANCH   3   4
HETATM    4  C3  UNL     1     -33.760  15.398  -3.505  1.00 20.00     0.142 C 
HETATM    5  O10 UNL     1     -32.606  14.972  -3.519  1.00 20.00    -0.297 OA
BRANCH   4   6
HETATM    6  C8  UNL     1     -34.556  15.525  -4.788  1.00 20.00     0.060 C 
HETATM    7  C4  UNL     1     -33.774  16.411  -5.750  1.00 20.00     0.038 C 
HETATM    8  C6  UNL     1     -34.404  16.376  -7.137  1.00 20.00     0.168 C 
HETATM    9  O11 UNL     1     -34.499  15.033  -7.615  1.00 20.00    -0.391 OA
HETATM   10  C7  UNL     1     -35.324  14.220  -6.781  1.00 20.00     0.168 C 
HETATM   11  C5  UNL     1     -34.746  14.131  -5.374  1.00 20.00     0.038 C 
ENDBRANCH   4   6
ENDBRANCH   3   4
TORSDOF 2
ENDMDL
