MODEL 1
REMARK VINA RESULT:      -5.1      0.000      0.000
REMARK  4 active torsions:
REMARK  status: ('A' for Active; 'I' for Inactive)
REMARK    1  A    between atoms: C6_6  and  C10_10 
REMARK    2  A    between atoms: C7_7  and  C11_11 
REMARK    3  A    between atoms: C9_9  and  C11_11 
REMARK    4  A    between atoms: C11_11  and  O12_12 
ROOT
HETATM    1  C1  UNL     1     -32.828  10.346   1.893  1.00 20.00     0.012 C 
HETATM    2  C2  UNL     1     -32.360   9.251   1.740  1.00 20.00    -0.115 C 
HETATM    3  C9  UNL     1     -31.786   7.909   1.548  1.00 20.00     0.125 C 
ENDROOT
BRANCH   3   4
HETATM    4  C11 UNL     1     -31.779   7.108   2.854  1.00 20.00     0.133 C 
BRANCH   4   5
HETATM    5  C7  UNL     1     -33.190   6.877   3.367  1.00 20.00     0.015 C 
HETATM    6  C4  UNL     1     -33.871   5.659   2.738  1.00 20.00     0.007 C 
HETATM    7  C3  UNL     1     -34.828   5.114   3.804  1.00 20.00     0.005 C 
HETATM    8  C6  UNL     1     -34.648   6.009   5.034  1.00 20.00    -0.014 C 
HETATM    9  C5  UNL     1     -33.245   6.587   4.864  1.00 20.00     0.012 C 
BRANCH   8  10
HETATM   10  C10 UNL     1     -34.834   5.268   6.347  1.00 20.00     0.000 C 
HETATM   11  C8  UNL     1     -35.111   3.812   6.135  1.00 20.00     0.005 C 
ENDBRANCH   8  10
ENDBRANCH   4   5
BRANCH   4  12
HETATM   12  O12 UNL     1     -31.050   7.845   3.836  1.00 20.00    -0.394 OA
HETATM   13  H30 UNL     1     -30.247   8.165   3.399  1.00 20.00     0.210 HD
ENDBRANCH   4  12
ENDBRANCH   3   4
TORSDOF 4
ENDMDL
MODEL 2
REMARK VINA RESULT:      -5.0     10.818     11.814
REMARK  4 active torsions:
REMARK  status: ('A' for Active; 'I' for Inactive)
REMARK    1  A    between atoms: C6_6  and  C10_10 
REMARK    2  A    between atoms: C7_7  and  C11_11 
REMARK    3  A    between atoms: C9_9  and  C11_11 
REMARK    4  A    between atoms: C11_11  and  O12_12 
ROOT
HETATM    1  C1  UNL     1     -36.016  14.769  -7.802  1.00 20.00     0.012 C 
HETATM    2  C2  UNL     1     -35.312  14.513  -6.864  1.00 20.00    -0.115 C 
HETATM    3  C9  UNL     1     -34.445  14.199  -5.717  1.00 20.00     0.125 C 
ENDROOT
BRANCH   3   4
HETATM    4  C11 UNL     1     -35.262  13.968  -4.442  1.00 20.00     0.133 C 
BRANCH   4   5
HETATM    5  C7  UNL     1     -34.586  14.590  -3.232  1.00 20.00     0.015 C 
HETATM    6  C4  UNL     1     -33.419  15.512  -3.597  1.00 20.00     0.007 C 
HETATM    7  C3  UNL     1     -33.371  16.585  -2.504  1.00 20.00     0.005 C 
HETATM    8  C6  UNL     1     -34.533  16.277  -1.555  1.00 20.00    -0.014 C 
HETATM    9  C5  UNL     1     -35.514  15.490  -2.420  1.00 20.00     0.012 C 
BRANCH   8  10
HETATM   10  C10 UNL     1     -35.148  17.520  -0.935  1.00 20.00     0.000 C 
HETATM   11  C8  UNL     1     -35.138  17.463   0.561  1.00 20.00     0.005 C 
ENDBRANCH   8  10
ENDBRANCH   4   5
BRANCH   4  12
HETATM   12  O12 UNL     1     -35.381  12.561  -4.225  1.00 20.00    -0.394 OA
HETATM   13  H30 UNL     1     -35.065  12.394  -3.325  1.00 20.00     0.210 HD
ENDBRANCH   4  12
ENDBRANCH   3   4
TORSDOF 4
ENDMDL
MODEL 3
REMARK VINA RESULT:      -4.8     10.830     12.345
REMARK  4 active torsions:
REMARK  status: ('A' for Active; 'I' for Inactive)
REMARK    1  A    between atoms: C6_6  and  C10_10 
REMARK    2  A    between atoms: C7_7  and  C11_11 
REMARK    3  A    between atoms: C9_9  and  C11_11 
REMARK    4  A    between atoms: C11_11  and  O12_12 
ROOT
HETATM    1  C1  UNL     1     -35.144  17.409   0.657  1.00 20.00     0.012 C 
HETATM    2  C2  UNL     1     -34.695  17.055  -0.399  1.00 20.00    -0.115 C 
HETATM    3  C9  UNL     1     -34.142  16.626  -1.693  1.00 20.00     0.125 C 
ENDROOT
BRANCH   3   4
HETATM    4  C11 UNL     1     -34.954  15.476  -2.297  1.00 20.00     0.133 C 
BRANCH   4   5
HETATM    5  C7  UNL     1     -34.311  14.955  -3.572  1.00 20.00     0.015 C 
HETATM    6  C4  UNL     1     -34.876  13.607  -4.028  1.00 20.00     0.007 C 
HETATM    7  C3  UNL     1     -34.765  13.600  -5.556  1.00 20.00     0.005 C 
HETATM    8  C6  UNL     1     -34.173  14.957  -5.946  1.00 20.00    -0.014 C 
HETATM    9  C5  UNL     1     -34.538  15.866  -4.775  1.00 20.00     0.012 C 
BRANCH   8  10
HETATM   10  C10 UNL     1     -34.681  15.472  -7.282  1.00 20.00     0.000 C 
HETATM   11  C8  UNL     1     -35.753  14.594  -7.850  1.00 20.00     0.005 C 
ENDBRANCH   8  10
ENDBRANCH   4   5
BRANCH   4  12
HETATM   12  O12 UNL     1     -36.262  15.956  -2.609  1.00 20.00    -0.394 OA
HETATM   13  H30 UNL     1     -36.147  16.839  -2.990  1.00 20.00     0.210 HD
ENDBRANCH   4  12
ENDBRANCH   3   4
TORSDOF 4
ENDMDL
MODEL 4
REMARK VINA RESULT:      -4.8     10.614     11.751
REMARK  4 active torsions:
REMARK  status: ('A' for Active; 'I' for Inactive)
REMARK    1  A    between atoms: C6_6  and  C10_10 
REMARK    2  A    between atoms: C7_7  and  C11_11 
REMARK    3  A    between atoms: C9_9  and  C11_11 
REMARK    4  A    between atoms: C11_11  and  O12_12 
ROOT
HETATM    1  C1  UNL     1     -34.437  15.266  -7.094  1.00 20.00     0.012 C 
HETATM    2  C2  UNL     1     -34.651  14.390  -6.301  1.00 20.00    -0.115 C 
HETATM    3  C9  UNL     1     -34.916  13.314  -5.333  1.00 20.00     0.125 C 
ENDROOT
BRANCH   3   4
HETATM    4  C11 UNL     1     -34.433  13.689  -3.929  1.00 20.00     0.133 C 
BRANCH   4   5
HETATM    5  C7  UNL     1     -34.589  15.178  -3.671  1.00 20.00     0.015 C 
HETATM    6  C4  UNL     1     -35.947  15.548  -3.067  1.00 20.00     0.007 C 
HETATM    7  C3  UNL     1     -35.697  16.781  -2.192  1.00 20.00     0.005 C 
HETATM    8  C6  UNL     1     -34.195  17.070  -2.284  1.00 20.00    -0.014 C 
HETATM    9  C5  UNL     1     -33.585  15.722  -2.658  1.00 20.00     0.012 C 
BRANCH   8  10
HETATM   10  C10 UNL     1     -33.617  17.654  -1.006  1.00 20.00     0.000 C 
HETATM   11  C8  UNL     1     -34.549  17.493   0.154  1.00 20.00     0.005 C 
ENDBRANCH   8  10
ENDBRANCH   4   5
BRANCH   4  12
HETATM   12  O12 UNL     1     -33.050  13.349  -3.817  1.00 20.00    -0.394 OA
HETATM   13  H30 UNL     1     -32.577  13.911  -4.448  1.00 20.00     0.210 HD
ENDBRANCH   4  12
ENDBRANCH   3   4
TORSDOF 4
ENDMDL
MODEL 5
REMARK VINA RESULT:      -4.7     10.826     13.103
REMARK  4 active torsions:
REMARK  status: ('A' for Active; 'I' for Inactive)
REMARK    1  A    between atoms: C6_6  and  C10_10 
REMARK    2  A    between atoms: C7_7  and  C11_11 
REMARK    3  A    between atoms: C9_9  and  C11_11 
REMARK    4  A    between atoms: C11_11  and  O12_12 
ROOT
HETATM    1  C1  UNL     1     -34.869  15.758  -2.333  1.00 20.00     0.012 C 
HETATM    2  C2  UNL     1     -34.247  15.000  -3.026  1.00 20.00    -0.115 C 
HETATM    3  C9  UNL     1     -33.480  14.073  -3.874  1.00 20.00     0.125 C 
ENDROOT
BRANCH   3   4
HETATM    4  C11 UNL     1     -34.396  13.290  -4.820  1.00 20.00     0.133 C 
BRANCH   4   5
HETATM    5  C7  UNL     1     -34.925  14.176  -5.935  1.00 20.00     0.015 C 
HETATM    6  C4  UNL     1     -36.296  14.783  -5.627  1.00 20.00     0.007 C 
HETATM    7  C3  UNL     1     -36.332  16.133  -6.352  1.00 20.00     0.005 C 
HETATM    8  C6  UNL     1     -34.967  16.286  -7.031  1.00 20.00    -0.014 C 
HETATM    9  C5  UNL     1     -34.045  15.392  -6.206  1.00 20.00     0.012 C 
BRANCH   8  10
HETATM   10  C10 UNL     1     -34.493  17.728  -7.105  1.00 20.00     0.000 C 
HETATM   11  C8  UNL     1     -33.682  18.112  -5.907  1.00 20.00     0.005 C 
ENDBRANCH   8  10
ENDBRANCH   4   5
BRANCH   4  12
HETATM   12  O12 UNL     1     -35.503  12.787  -4.071  1.00 20.00    -0.394 OA
HETATM   13  H30 UNL     1     -35.824  12.007  -4.547  1.00 20.00     0.210 HD
ENDBRANCH   4  12
ENDBRANCH   3   4
TORSDOF 4
ENDMDL
MODEL 6
REMARK VINA RESULT:      -4.7     10.853     11.903
REMARK  4 active torsions:
REMARK  status: ('A' for Active; 'I' for Inactive)
REMARK    1  A    between atoms: C6_6  and  C10_10 
REMARK    2  A    between atoms: C7_7  and  C11_11 
REMARK    3  A    between atoms: C9_9  and  C11_11 
REMARK    4  A    between atoms: C11_11  and  O12_12 
ROOT
HETATM    1  C1  UNL     1     -38.683  15.035  -3.769  1.00 20.00     0.012 C 
HETATM    2  C2  UNL     1     -37.639  14.784  -4.306  1.00 20.00    -0.115 C 
HETATM    3  C9  UNL     1     -36.361  14.477  -4.970  1.00 20.00     0.125 C 
ENDROOT
BRANCH   3   4
HETATM    4  C11 UNL     1     -35.387  13.777  -4.016  1.00 20.00     0.133 C 
BRANCH   4   5
HETATM    5  C7  UNL     1     -34.330  14.739  -3.503  1.00 20.00     0.015 C 
HETATM    6  C4  UNL     1     -34.004  15.864  -4.489  1.00 20.00     0.007 C 
HETATM    7  C3  UNL     1     -33.605  17.071  -3.633  1.00 20.00     0.005 C 
HETATM    8  C6  UNL     1     -33.745  16.624  -2.175  1.00 20.00    -0.014 C 
HETATM    9  C5  UNL     1     -34.754  15.480  -2.238  1.00 20.00     0.012 C 
BRANCH   8  10
HETATM   10  C10 UNL     1     -34.170  17.745  -1.242  1.00 20.00     0.000 C 
HETATM   11  C8  UNL     1     -34.795  17.222   0.014  1.00 20.00     0.005 C 
ENDBRANCH   8  10
ENDBRANCH   4   5
BRANCH   4  12
HETATM   12  O12 UNL     1     -34.738  12.719  -4.724  1.00 20.00    -0.394 OA
HETATM   13  H30 UNL     1     -34.762  11.945  -4.141  1.00 20.00     0.210 HD
ENDBRANCH   4  12
ENDBRANCH   3   4
TORSDOF 4
ENDMDL
MODEL 7
REMARK VINA RESULT:      -4.6     10.473     11.802
REMARK  4 active torsions:
REMARK  status: ('A' for Active; 'I' for Inactive)
REMARK    1  A    between atoms: C6_6  and  C10_10 
REMARK    2  A    between atoms: C7_7  and  C11_11 
REMARK    3  A    between atoms: C9_9  and  C11_11 
REMARK    4  A    between atoms: C11_11  and  O12_12 
ROOT
HETATM    1  C1  UNL     1     -32.775  13.622  -3.525  1.00 20.00     0.012 C 
HETATM    2  C2  UNL     1     -33.940  13.887  -3.641  1.00 20.00    -0.115 C 
HETATM    3  C9  UNL     1     -35.370  14.207  -3.785  1.00 20.00     0.125 C 
ENDROOT
BRANCH   3   4
HETATM    4  C11 UNL     1     -35.659  15.665  -3.415  1.00 20.00     0.133 C 
BRANCH   4   5
HETATM    5  C7  UNL     1     -34.511  16.274  -2.628  1.00 20.00     0.015 C 
HETATM    6  C4  UNL     1     -34.100  17.660  -3.132  1.00 20.00     0.007 C 
HETATM    7  C3  UNL     1     -33.580  18.417  -1.906  1.00 20.00     0.005 C 
HETATM    8  C6  UNL     1     -33.738  17.462  -0.718  1.00 20.00    -0.014 C 
HETATM    9  C5  UNL     1     -34.848  16.511  -1.159  1.00 20.00     0.012 C 
BRANCH   8  10
HETATM   10  C10 UNL     1     -34.045  18.174   0.588  1.00 20.00     0.000 C 
HETATM   11  C8  UNL     1     -35.270  17.626   1.250  1.00 20.00     0.005 C 
ENDBRANCH   8  10
ENDBRANCH   4   5
BRANCH   4  12
HETATM   12  O12 UNL     1     -36.838  15.706  -2.609  1.00 20.00    -0.394 OA
HETATM   13  H30 UNL     1     -37.354  14.918  -2.837  1.00 20.00     0.210 HD
ENDBRANCH   4  12
ENDBRANCH   3   4
TORSDOF 4
ENDMDL
MODEL 8
REMARK VINA RESULT:      -4.5     10.612     12.809
REMARK  4 active torsions:
REMARK  status: ('A' for Active; 'I' for Inactive)
REMARK    1  A    between atoms: C6_6  and  C10_10 
REMARK    2  A    between atoms: C7_7  and  C11_11 
REMARK    3  A    between atoms: C9_9  and  C11_11 
REMARK    4  A    between atoms: C11_11  and  O12_12 
ROOT
HETATM    1  C1  UNL     1     -34.023  16.059  -2.483  1.00 20.00     0.012 C 
HETATM    2  C2  UNL     1     -33.713  15.056  -3.066  1.00 20.00    -0.115 C 
HETATM    3  C9  UNL     1     -33.328  13.826  -3.777  1.00 20.00     0.125 C 
ENDROOT
BRANCH   3   4
HETATM    4  C11 UNL     1     -34.399  13.404  -4.788  1.00 20.00     0.133 C 
BRANCH   4   5
HETATM    5  C7  UNL     1     -35.011  14.609  -5.480  1.00 20.00     0.015 C 
HETATM    6  C4  UNL     1     -34.886  14.559  -7.005  1.00 20.00     0.007 C 
HETATM    7  C3  UNL     1     -36.110  15.301  -7.553  1.00 20.00     0.005 C 
HETATM    8  C6  UNL     1     -36.929  15.728  -6.332  1.00 20.00    -0.014 C 
HETATM    9  C5  UNL     1     -36.513  14.738  -5.247  1.00 20.00     0.012 C 
BRANCH   8  10
HETATM   10  C10 UNL     1     -38.427  15.740  -6.588  1.00 20.00     0.000 C 
HETATM   11  C8  UNL     1     -38.793  14.945  -7.803  1.00 20.00     0.005 C 
ENDBRANCH   8  10
ENDBRANCH   4   5
BRANCH   4  12
HETATM   12  O12 UNL     1     -35.431  12.703  -4.092  1.00 20.00    -0.394 OA
HETATM   13  H30 UNL     1     -35.985  13.377  -3.671  1.00 20.00     0.210 HD
ENDBRANCH   4  12
ENDBRANCH   3   4
TORSDOF 4
ENDMDL
MODEL 9
REMARK VINA RESULT:      -4.5     10.989     11.850
REMARK  4 active torsions:
REMARK  status: ('A' for Active; 'I' for Inactive)
REMARK    1  A    between atoms: C6_6  and  C10_10 
REMARK    2  A    between atoms: C7_7  and  C11_11 
REMARK    3  A    between atoms: C9_9  and  C11_11 
REMARK    4  A    between atoms: C11_11  and  O12_12 
ROOT
HETATM    1  C1  UNL     1     -35.213  17.683   1.312  1.00 20.00     0.012 C 
HETATM    2  C2  UNL     1     -34.498  17.638   0.348  1.00 20.00    -0.115 C 
HETATM    3  C9  UNL     1     -33.617  17.584  -0.829  1.00 20.00     0.125 C 
ENDROOT
BRANCH   3   4
HETATM    4  C11 UNL     1     -34.421  17.463  -2.127  1.00 20.00     0.133 C 
BRANCH   4   5
HETATM    5  C7  UNL     1     -34.902  16.040  -2.349  1.00 20.00     0.015 C 
HETATM    6  C4  UNL     1     -36.309  15.962  -2.947  1.00 20.00     0.007 C 
HETATM    7  C3  UNL     1     -36.339  14.683  -3.791  1.00 20.00     0.005 C 
HETATM    8  C6  UNL     1     -34.937  14.074  -3.688  1.00 20.00    -0.014 C 
HETATM    9  C5  UNL     1     -34.045  15.264  -3.346  1.00 20.00     0.012 C 
BRANCH   8  10
HETATM   10  C10 UNL     1     -34.506  13.346  -4.950  1.00 20.00     0.000 C 
HETATM   11  C8  UNL     1     -34.900  14.090  -6.187  1.00 20.00     0.005 C 
ENDBRANCH   8  10
ENDBRANCH   4   5
BRANCH   4  12
HETATM   12  O12 UNL     1     -33.581  17.838  -3.220  1.00 20.00    -0.394 OA
HETATM   13  H30 UNL     1     -34.012  18.591  -3.651  1.00 20.00     0.210 HD
ENDBRANCH   4  12
ENDBRANCH   3   4
TORSDOF 4
ENDMDL
