MODEL 1
REMARK VINA RESULT:      -4.7      0.000      0.000
REMARK  1 active torsions:
REMARK  status: ('A' for Active; 'I' for Inactive)
REMARK    1  A    between atoms: C6_6  and  C8_8 
ROOT
HETATM    1  C1  UNL     1     -34.068  16.392  -4.750  1.00 20.00     0.069 C 
HETATM    2  C2  UNL     1     -33.579  14.147  -3.677  1.00 20.00     0.051 C 
HETATM    3  C3  UNL     1     -35.784  15.277  -3.252  1.00 20.00     0.051 C 
HETATM    4  C4  UNL     1     -34.317  13.234  -4.650  1.00 20.00     0.169 C 
HETATM    5  C5  UNL     1     -36.394  14.299  -4.251  1.00 20.00     0.169 C 
HETATM    6  C6  UNL     1     -34.280  15.511  -3.505  1.00 20.00     0.052 C 
HETATM    7  N9  UNL     1     -33.908  17.055  -5.688  1.00 20.00    -0.196 NA
HETATM    8  O10 UNL     1     -35.678  13.066  -4.255  1.00 20.00    -0.391 OA
ENDROOT
BRANCH   6   9
HETATM    9  C8  UNL     1     -33.694  16.215  -2.341  1.00 20.00     0.020 C 
HETATM   10  C7  UNL     1     -34.704  16.410  -1.264  1.00 20.00     0.007 C 
ENDBRANCH   6   9
TORSDOF 1
ENDMDL
MODEL 2
REMARK VINA RESULT:      -4.3      2.189      2.838
REMARK  1 active torsions:
REMARK  status: ('A' for Active; 'I' for Inactive)
REMARK    1  A    between atoms: C6_6  and  C8_8 
ROOT
HETATM    1  C1  UNL     1     -37.155  14.762  -3.682  1.00 20.00     0.069 C 
HETATM    2  C2  UNL     1     -35.419  16.104  -4.954  1.00 20.00     0.051 C 
HETATM    3  C3  UNL     1     -34.724  14.037  -3.703  1.00 20.00     0.051 C 
HETATM    4  C4  UNL     1     -35.338  15.271  -6.229  1.00 20.00     0.169 C 
HETATM    5  C5  UNL     1     -34.684  13.324  -5.051  1.00 20.00     0.169 C 
HETATM    6  C6  UNL     1     -35.691  15.240  -3.705  1.00 20.00     0.052 C 
HETATM    7  N9  UNL     1     -38.257  14.401  -3.666  1.00 20.00    -0.196 NA
HETATM    8  O10 UNL     1     -34.364  14.237  -6.098  1.00 20.00    -0.391 OA
ENDROOT
BRANCH   6   9
HETATM    9  C8  UNL     1     -35.457  16.054  -2.490  1.00 20.00     0.020 C 
HETATM   10  C7  UNL     1     -34.002  16.251  -2.244  1.00 20.00     0.007 C 
ENDBRANCH   6   9
TORSDOF 1
ENDMDL
MODEL 3
REMARK VINA RESULT:      -4.2      2.375      3.699
REMARK  1 active torsions:
REMARK  status: ('A' for Active; 'I' for Inactive)
REMARK    1  A    between atoms: C6_6  and  C8_8 
ROOT
HETATM    1  C1  UNL     1     -36.668  14.526  -4.334  1.00 20.00     0.069 C 
HETATM    2  C2  UNL     1     -34.405  13.599  -5.007  1.00 20.00     0.051 C 
HETATM    3  C3  UNL     1     -34.754  16.086  -4.912  1.00 20.00     0.051 C 
HETATM    4  C4  UNL     1     -33.673  13.724  -3.675  1.00 20.00     0.169 C 
HETATM    5  C5  UNL     1     -34.002  16.067  -3.585  1.00 20.00     0.169 C 
HETATM    6  C6  UNL     1     -35.428  14.733  -5.223  1.00 20.00     0.052 C 
HETATM    7  N9  UNL     1     -37.601  14.369  -3.662  1.00 20.00    -0.196 NA
HETATM    8  O10 UNL     1     -33.053  15.003  -3.556  1.00 20.00    -0.391 OA
ENDROOT
BRANCH   6   9
HETATM    9  C8  UNL     1     -35.873  14.725  -6.636  1.00 20.00     0.020 C 
HETATM   10  C7  UNL     1     -34.724  14.910  -7.565  1.00 20.00     0.007 C 
ENDBRANCH   6   9
TORSDOF 1
ENDMDL
MODEL 4
REMARK VINA RESULT:      -4.2      2.551      3.750
REMARK  1 active torsions:
REMARK  status: ('A' for Active; 'I' for Inactive)
REMARK    1  A    between atoms: C6_6  and  C8_8 
ROOT
HETATM    1  C1  UNL     1     -34.695  13.796  -4.934  1.00 20.00     0.069 C 
HETATM    2  C2  UNL     1     -33.370  15.942  -4.666  1.00 20.00     0.051 C 
HETATM    3  C3  UNL     1     -35.831  16.051  -5.164  1.00 20.00     0.051 C 
HETATM    4  C4  UNL     1     -33.721  16.279  -3.221  1.00 20.00     0.169 C 
HETATM    5  C5  UNL     1     -36.040  16.382  -3.690  1.00 20.00     0.169 C 
HETATM    6  C6  UNL     1     -34.534  15.252  -5.408  1.00 20.00     0.052 C 
HETATM    7  N9  UNL     1     -34.816  12.699  -4.575  1.00 20.00    -0.196 NA
HETATM    8  O10 UNL     1     -34.908  17.067  -3.159  1.00 20.00    -0.391 OA
ENDROOT
BRANCH   6   9
HETATM    9  C8  UNL     1     -34.241  15.230  -6.859  1.00 20.00     0.020 C 
HETATM   10  C7  UNL     1     -35.329  14.554  -7.620  1.00 20.00     0.007 C 
ENDBRANCH   6   9
TORSDOF 1
ENDMDL
MODEL 5
REMARK VINA RESULT:      -4.2      2.196      2.994
REMARK  1 active torsions:
REMARK  status: ('A' for Active; 'I' for Inactive)
REMARK    1  A    between atoms: C6_6  and  C8_8 
ROOT
HETATM    1  C1  UNL     1     -34.066  14.263  -3.535  1.00 20.00     0.069 C 
HETATM    2  C2  UNL     1     -35.905  15.913  -4.107  1.00 20.00     0.051 C 
HETATM    3  C3  UNL     1     -33.534  16.717  -3.891  1.00 20.00     0.051 C 
HETATM    4  C4  UNL     1     -35.717  15.990  -5.618  1.00 20.00     0.169 C 
HETATM    5  C5  UNL     1     -33.483  16.747  -5.415  1.00 20.00     0.169 C 
HETATM    6  C6  UNL     1     -34.572  15.707  -3.358  1.00 20.00     0.052 C 
HETATM    7  N9  UNL     1     -33.685  13.175  -3.669  1.00 20.00    -0.196 NA
HETATM    8  O10 UNL     1     -34.775  17.004  -5.960  1.00 20.00    -0.391 OA
ENDROOT
BRANCH   6   9
HETATM    9  C8  UNL     1     -34.784  15.943  -1.912  1.00 20.00     0.020 C 
HETATM   10  C7  UNL     1     -33.885  17.016  -1.403  1.00 20.00     0.007 C 
ENDBRANCH   6   9
TORSDOF 1
ENDMDL
MODEL 6
REMARK VINA RESULT:      -4.2      2.493      3.627
REMARK  1 active torsions:
REMARK  status: ('A' for Active; 'I' for Inactive)
REMARK    1  A    between atoms: C6_6  and  C8_8 
ROOT
HETATM    1  C1  UNL     1     -37.027  14.544  -3.842  1.00 20.00     0.069 C 
HETATM    2  C2  UNL     1     -34.982  15.512  -2.696  1.00 20.00     0.051 C 
HETATM    3  C3  UNL     1     -35.208  15.683  -5.193  1.00 20.00     0.051 C 
HETATM    4  C4  UNL     1     -35.397  16.978  -2.630  1.00 20.00     0.169 C 
HETATM    5  C5  UNL     1     -35.611  17.139  -4.983  1.00 20.00     0.169 C 
HETATM    6  C6  UNL     1     -35.514  14.807  -3.960  1.00 20.00     0.052 C 
HETATM    7  N9  UNL     1     -38.166  14.347  -3.751  1.00 20.00    -0.196 NA
HETATM    8  O10 UNL     1     -34.997  17.671  -3.811  1.00 20.00    -0.391 OA
ENDROOT
BRANCH   6   9
HETATM    9  C8  UNL     1     -34.834  13.500  -4.111  1.00 20.00     0.020 C 
HETATM   10  C7  UNL     1     -33.388  13.601  -3.768  1.00 20.00     0.007 C 
ENDBRANCH   6   9
TORSDOF 1
ENDMDL
MODEL 7
REMARK VINA RESULT:      -4.1      1.831      2.930
REMARK  1 active torsions:
REMARK  status: ('A' for Active; 'I' for Inactive)
REMARK    1  A    between atoms: C6_6  and  C8_8 
ROOT
HETATM    1  C1  UNL     1     -34.406  16.190  -2.156  1.00 20.00     0.069 C 
HETATM    2  C2  UNL     1     -35.253  15.382  -4.405  1.00 20.00     0.051 C 
HETATM    3  C3  UNL     1     -32.830  15.087  -3.807  1.00 20.00     0.051 C 
HETATM    4  C4  UNL     1     -35.437  13.901  -4.091  1.00 20.00     0.169 C 
HETATM    5  C5  UNL     1     -33.154  13.622  -3.527  1.00 20.00     0.169 C 
HETATM    6  C6  UNL     1     -34.063  16.001  -3.644  1.00 20.00     0.052 C 
HETATM    7  N9  UNL     1     -34.666  16.332  -1.034  1.00 20.00    -0.196 NA
HETATM    8  O10 UNL     1     -34.234  13.177  -4.344  1.00 20.00    -0.391 OA
ENDROOT
BRANCH   6   9
HETATM    9  C8  UNL     1     -33.759  17.333  -4.216  1.00 20.00     0.020 C 
HETATM   10  C7  UNL     1     -33.618  17.265  -5.697  1.00 20.00     0.007 C 
ENDBRANCH   6   9
TORSDOF 1
ENDMDL
MODEL 8
REMARK VINA RESULT:      -4.1      1.123      1.522
REMARK  1 active torsions:
REMARK  status: ('A' for Active; 'I' for Inactive)
REMARK    1  A    between atoms: C6_6  and  C8_8 
ROOT
HETATM    1  C1  UNL     1     -34.842  16.545  -4.769  1.00 20.00     0.069 C 
HETATM    2  C2  UNL     1     -33.422  15.497  -2.947  1.00 20.00     0.051 C 
HETATM    3  C3  UNL     1     -35.554  14.375  -3.665  1.00 20.00     0.051 C 
HETATM    4  C4  UNL     1     -32.679  14.452  -3.773  1.00 20.00     0.169 C 
HETATM    5  C5  UNL     1     -34.687  13.395  -4.450  1.00 20.00     0.169 C 
HETATM    6  C6  UNL     1     -34.858  15.737  -3.458  1.00 20.00     0.052 C 
HETATM    7  N9  UNL     1     -34.829  17.153  -5.757  1.00 20.00    -0.196 NA
HETATM    8  O10 UNL     1     -33.415  13.232  -3.827  1.00 20.00    -0.391 OA
ENDROOT
BRANCH   6   9
HETATM    9  C8  UNL     1     -35.609  16.518  -2.449  1.00 20.00     0.020 C 
HETATM   10  C7  UNL     1     -34.845  16.632  -1.175  1.00 20.00     0.007 C 
ENDBRANCH   6   9
TORSDOF 1
ENDMDL
MODEL 9
REMARK VINA RESULT:      -4.1      2.730      3.488
REMARK  1 active torsions:
REMARK  status: ('A' for Active; 'I' for Inactive)
REMARK    1  A    between atoms: C6_6  and  C8_8 
ROOT
HETATM    1  C1  UNL     1     -34.734  13.756  -4.921  1.00 20.00     0.069 C 
HETATM    2  C2  UNL     1     -35.941  15.939  -5.376  1.00 20.00     0.051 C 
HETATM    3  C3  UNL     1     -34.388  14.990  -7.110  1.00 20.00     0.051 C 
HETATM    4  C4  UNL     1     -37.094  15.420  -6.229  1.00 20.00     0.169 C 
HETATM    5  C5  UNL     1     -35.631  14.525  -7.862  1.00 20.00     0.169 C 
HETATM    6  C6  UNL     1     -34.641  15.138  -5.594  1.00 20.00     0.052 C 
HETATM    7  N9  UNL     1     -34.805  12.715  -4.414  1.00 20.00    -0.196 NA
HETATM    8  O10 UNL     1     -36.732  15.395  -7.608  1.00 20.00    -0.391 OA
ENDROOT
BRANCH   6   9
HETATM    9  C8  UNL     1     -33.509  15.870  -4.981  1.00 20.00     0.020 C 
HETATM   10  C7  UNL     1     -33.709  16.043  -3.515  1.00 20.00     0.007 C 
ENDBRANCH   6   9
TORSDOF 1
ENDMDL
