MODEL 1
REMARK VINA RESULT:      -4.9      0.000      0.000
REMARK  3 active torsions:
REMARK  status: ('A' for Active; 'I' for Inactive)
REMARK    1  A    between atoms: C6_6  and  C9_9 
REMARK    2  A    between atoms: C9_9  and  C11_11 
REMARK    3  A    between atoms: C10_10  and  C11_11 
ROOT
HETATM    1  C1  UNL     1     -36.909  14.794  -3.818  1.00 20.00     0.069 C 
HETATM    2  C2  UNL     1     -35.655  16.613  -6.010  1.00 20.00     0.006 C 
HETATM    3  C3  UNL     1     -35.695  16.834  -4.504  1.00 20.00     0.025 C 
HETATM    4  C4  UNL     1     -34.706  14.645  -4.942  1.00 20.00     0.029 C 
HETATM    5  C5  UNL     1     -34.558  15.564  -6.168  1.00 20.00    -0.017 C 
HETATM    6  C6  UNL     1     -35.570  15.418  -3.918  1.00 20.00     0.049 C 
HETATM    7  C7  UNL     1     -34.634  14.819  -7.490  1.00 20.00     0.010 C 
HETATM    8  N12 UNL     1     -37.960  14.306  -3.740  1.00 20.00    -0.196 NA
ENDROOT
BRANCH   6   9
HETATM    9  C9  UNL     1     -34.928  15.440  -2.530  1.00 20.00     0.024 C 
BRANCH   9  10
HETATM   10  C11 UNL     1     -33.677  16.312  -2.516  1.00 20.00     0.001 C 
BRANCH  10  11
HETATM   11  C10 UNL     1     -33.713  17.304  -1.354  1.00 20.00    -0.004 C 
HETATM   12  C8  UNL     1     -34.775  16.929  -0.333  1.00 20.00     0.005 C 
ENDBRANCH  10  11
ENDBRANCH   9  10
ENDBRANCH   6   9
TORSDOF 3
ENDMDL
MODEL 2
REMARK VINA RESULT:      -4.8      1.490      1.720
REMARK  3 active torsions:
REMARK  status: ('A' for Active; 'I' for Inactive)
REMARK    1  A    between atoms: C6_6  and  C9_9 
REMARK    2  A    between atoms: C9_9  and  C11_11 
REMARK    3  A    between atoms: C10_10  and  C11_11 
ROOT
HETATM    1  C1  UNL     1     -34.640  13.873  -4.544  1.00 20.00     0.069 C 
HETATM    2  C2  UNL     1     -36.221  16.260  -5.764  1.00 20.00     0.006 C 
HETATM    3  C3  UNL     1     -35.946  15.957  -4.298  1.00 20.00     0.025 C 
HETATM    4  C4  UNL     1     -33.818  16.008  -5.494  1.00 20.00     0.029 C 
HETATM    5  C5  UNL     1     -34.886  16.817  -6.250  1.00 20.00    -0.017 C 
HETATM    6  C6  UNL     1     -34.541  15.331  -4.306  1.00 20.00     0.049 C 
HETATM    7  C7  UNL     1     -34.731  16.755  -7.760  1.00 20.00     0.010 C 
HETATM    8  N12 UNL     1     -34.719  12.730  -4.730  1.00 20.00    -0.196 NA
ENDROOT
BRANCH   6   9
HETATM    9  C9  UNL     1     -33.813  15.570  -2.982  1.00 20.00     0.024 C 
BRANCH   9  10
HETATM   10  C11 UNL     1     -34.775  16.063  -1.906  1.00 20.00     0.001 C 
BRANCH  10  11
HETATM   11  C10 UNL     1     -34.108  17.106  -1.010  1.00 20.00    -0.004 C 
HETATM   12  C8  UNL     1     -34.883  17.311   0.281  1.00 20.00     0.005 C 
ENDBRANCH  10  11
ENDBRANCH   9  10
ENDBRANCH   6   9
TORSDOF 3
ENDMDL
MODEL 3
REMARK VINA RESULT:      -4.7      2.342      3.188
REMARK  3 active torsions:
REMARK  status: ('A' for Active; 'I' for Inactive)
REMARK    1  A    between atoms: C6_6  and  C9_9 
REMARK    2  A    between atoms: C9_9  and  C11_11 
REMARK    3  A    between atoms: C10_10  and  C11_11 
ROOT
HETATM    1  C1  UNL     1     -33.700  16.693  -4.312  1.00 20.00     0.069 C 
HETATM    2  C2  UNL     1     -35.332  14.053  -4.081  1.00 20.00     0.006 C 
HETATM    3  C3  UNL     1     -34.159  14.519  -3.230  1.00 20.00     0.025 C 
HETATM    4  C4  UNL     1     -35.874  16.256  -3.206  1.00 20.00     0.029 C 
HETATM    5  C5  UNL     1     -36.491  14.887  -3.542  1.00 20.00    -0.017 C 
HETATM    6  C6  UNL     1     -34.343  16.044  -3.147  1.00 20.00     0.049 C 
HETATM    7  C7  UNL     1     -37.659  14.976  -4.510  1.00 20.00     0.010 C 
HETATM    8  N12 UNL     1     -33.196  17.201  -5.226  1.00 20.00    -0.196 NA
ENDROOT
BRANCH   6   9
HETATM    9  C9  UNL     1     -33.735  16.612  -1.863  1.00 20.00     0.024 C 
BRANCH   9  10
HETATM   10  C11 UNL     1     -34.763  16.651  -0.737  1.00 20.00     0.001 C 
BRANCH  10  11
HETATM   11  C10 UNL     1     -34.422  17.740   0.279  1.00 20.00    -0.004 C 
HETATM   12  C8  UNL     1     -33.130  18.455  -0.083  1.00 20.00     0.005 C 
ENDBRANCH  10  11
ENDBRANCH   9  10
ENDBRANCH   6   9
TORSDOF 3
ENDMDL
MODEL 4
REMARK VINA RESULT:      -4.5      2.148      2.884
REMARK  3 active torsions:
REMARK  status: ('A' for Active; 'I' for Inactive)
REMARK    1  A    between atoms: C6_6  and  C9_9 
REMARK    2  A    between atoms: C9_9  and  C11_11 
REMARK    3  A    between atoms: C10_10  and  C11_11 
ROOT
HETATM    1  C1  UNL     1     -35.095  17.468  -4.236  1.00 20.00     0.069 C 
HETATM    2  C2  UNL     1     -33.344  14.920  -3.875  1.00 20.00     0.006 C 
HETATM    3  C3  UNL     1     -33.456  16.130  -2.958  1.00 20.00     0.025 C 
HETATM    4  C4  UNL     1     -35.696  15.236  -3.342  1.00 20.00     0.029 C 
HETATM    5  C5  UNL     1     -34.629  14.152  -3.578  1.00 20.00    -0.017 C 
HETATM    6  C6  UNL     1     -34.929  16.555  -3.082  1.00 20.00     0.049 C 
HETATM    7  C7  UNL     1     -35.002  13.172  -4.678  1.00 20.00     0.010 C 
HETATM    8  N12 UNL     1     -35.223  18.184  -5.140  1.00 20.00    -0.196 NA
ENDROOT
BRANCH   6   9
HETATM    9  C9  UNL     1     -35.418  17.260  -1.816  1.00 20.00     0.024 C 
BRANCH   9  10
HETATM   10  C11 UNL     1     -34.696  16.735  -0.579  1.00 20.00     0.001 C 
BRANCH  10  11
HETATM   11  C10 UNL     1     -34.254  17.884   0.327  1.00 20.00    -0.004 C 
HETATM   12  C8  UNL     1     -32.983  18.541  -0.185  1.00 20.00     0.005 C 
ENDBRANCH  10  11
ENDBRANCH   9  10
ENDBRANCH   6   9
TORSDOF 3
ENDMDL
MODEL 5
REMARK VINA RESULT:      -4.5      2.487      4.699
REMARK  3 active torsions:
REMARK  status: ('A' for Active; 'I' for Inactive)
REMARK    1  A    between atoms: C6_6  and  C9_9 
REMARK    2  A    between atoms: C9_9  and  C11_11 
REMARK    3  A    between atoms: C10_10  and  C11_11 
ROOT
HETATM    1  C1  UNL     1     -33.706  18.168  -4.071  1.00 20.00     0.069 C 
HETATM    2  C2  UNL     1     -35.975  17.304  -2.125  1.00 20.00     0.006 C 
HETATM    3  C3  UNL     1     -35.659  16.761  -3.511  1.00 20.00     0.025 C 
HETATM    4  C4  UNL     1     -33.643  16.616  -2.141  1.00 20.00     0.029 C 
HETATM    5  C5  UNL     1     -34.901  16.657  -1.255  1.00 20.00    -0.017 C 
HETATM    6  C6  UNL     1     -34.125  16.830  -3.595  1.00 20.00     0.049 C 
HETATM    7  C7  UNL     1     -34.686  17.383   0.062  1.00 20.00     0.010 C 
HETATM    8  N12 UNL     1     -33.379  19.217  -4.445  1.00 20.00    -0.196 NA
ENDROOT
BRANCH   6   9
HETATM    9  C9  UNL     1     -33.567  15.767  -4.545  1.00 20.00     0.024 C 
BRANCH   9  10
HETATM   10  C11 UNL     1     -33.400  14.428  -3.835  1.00 20.00     0.001 C 
BRANCH  10  11
HETATM   11  C10 UNL     1     -34.396  13.398  -4.367  1.00 20.00    -0.004 C 
HETATM   12  C8  UNL     1     -34.964  13.816  -5.713  1.00 20.00     0.005 C 
ENDBRANCH  10  11
ENDBRANCH   9  10
ENDBRANCH   6   9
TORSDOF 3
ENDMDL
MODEL 6
REMARK VINA RESULT:      -4.5      1.475      4.644
REMARK  3 active torsions:
REMARK  status: ('A' for Active; 'I' for Inactive)
REMARK    1  A    between atoms: C6_6  and  C9_9 
REMARK    2  A    between atoms: C9_9  and  C11_11 
REMARK    3  A    between atoms: C10_10  and  C11_11 
ROOT
HETATM    1  C1  UNL     1     -34.897  14.020  -4.291  1.00 20.00     0.069 C 
HETATM    2  C2  UNL     1     -33.172  16.103  -2.752  1.00 20.00     0.006 C 
HETATM    3  C3  UNL     1     -33.325  15.927  -4.256  1.00 20.00     0.025 C 
HETATM    4  C4  UNL     1     -35.545  16.184  -3.273  1.00 20.00     0.029 C 
HETATM    5  C5  UNL     1     -34.471  16.800  -2.359  1.00 20.00    -0.017 C 
HETATM    6  C6  UNL     1     -34.790  15.490  -4.430  1.00 20.00     0.049 C 
HETATM    7  C7  UNL     1     -34.792  16.668  -0.880  1.00 20.00     0.010 C 
HETATM    8  N12 UNL     1     -34.980  12.867  -4.182  1.00 20.00    -0.196 NA
ENDROOT
BRANCH   6   9
HETATM    9  C9  UNL     1     -35.338  15.901  -5.798  1.00 20.00     0.024 C 
BRANCH   9  10
HETATM   10  C11 UNL     1     -34.533  15.266  -6.928  1.00 20.00     0.001 C 
BRANCH  10  11
HETATM   11  C10 UNL     1     -35.450  14.547  -7.917  1.00 20.00    -0.004 C 
HETATM   12  C8  UNL     1     -36.900  14.968  -7.740  1.00 20.00     0.005 C 
ENDBRANCH  10  11
ENDBRANCH   9  10
ENDBRANCH   6   9
TORSDOF 3
ENDMDL
MODEL 7
REMARK VINA RESULT:      -4.5      1.465      1.668
REMARK  3 active torsions:
REMARK  status: ('A' for Active; 'I' for Inactive)
REMARK    1  A    between atoms: C6_6  and  C9_9 
REMARK    2  A    between atoms: C9_9  and  C11_11 
REMARK    3  A    between atoms: C10_10  and  C11_11 
ROOT
HETATM    1  C1  UNL     1     -35.895  16.886  -4.162  1.00 20.00     0.069 C 
HETATM    2  C2  UNL     1     -33.997  16.142  -6.513  1.00 20.00     0.006 C 
HETATM    3  C3  UNL     1     -33.644  16.390  -5.053  1.00 20.00     0.025 C 
HETATM    4  C4  UNL     1     -35.378  14.674  -5.153  1.00 20.00     0.029 C 
HETATM    5  C5  UNL     1     -34.603  14.742  -6.480  1.00 20.00    -0.017 C 
HETATM    6  C6  UNL     1     -34.854  15.839  -4.280  1.00 20.00     0.049 C 
HETATM    7  C7  UNL     1     -35.464  14.438  -7.695  1.00 20.00     0.010 C 
HETATM    8  N12 UNL     1     -36.710  17.707  -4.069  1.00 20.00    -0.196 NA
ENDROOT
BRANCH   6   9
HETATM    9  C9  UNL     1     -34.458  15.371  -2.879  1.00 20.00     0.024 C 
BRANCH   9  10
HETATM   10  C11 UNL     1     -33.880  16.519  -2.057  1.00 20.00     0.001 C 
BRANCH  10  11
HETATM   11  C10 UNL     1     -34.637  16.685  -0.740  1.00 20.00    -0.004 C 
HETATM   12  C8  UNL     1     -34.093  17.849   0.072  1.00 20.00     0.005 C 
ENDBRANCH  10  11
ENDBRANCH   9  10
ENDBRANCH   6   9
TORSDOF 3
ENDMDL
MODEL 8
REMARK VINA RESULT:      -4.5      1.689      4.248
REMARK  3 active torsions:
REMARK  status: ('A' for Active; 'I' for Inactive)
REMARK    1  A    between atoms: C6_6  and  C9_9 
REMARK    2  A    between atoms: C9_9  and  C11_11 
REMARK    3  A    between atoms: C10_10  and  C11_11 
ROOT
HETATM    1  C1  UNL     1     -34.890  13.830  -4.608  1.00 20.00     0.069 C 
HETATM    2  C2  UNL     1     -33.135  15.908  -3.097  1.00 20.00     0.006 C 
HETATM    3  C3  UNL     1     -33.331  15.748  -4.598  1.00 20.00     0.025 C 
HETATM    4  C4  UNL     1     -35.523  15.978  -3.547  1.00 20.00     0.029 C 
HETATM    5  C5  UNL     1     -34.426  16.591  -2.659  1.00 20.00    -0.017 C 
HETATM    6  C6  UNL     1     -34.797  15.302  -4.734  1.00 20.00     0.049 C 
HETATM    7  C7  UNL     1     -34.703  16.441  -1.172  1.00 20.00     0.010 C 
HETATM    8  N12 UNL     1     -34.962  12.676  -4.510  1.00 20.00    -0.196 NA
ENDROOT
BRANCH   6   9
HETATM    9  C9  UNL     1     -35.388  15.724  -6.081  1.00 20.00     0.024 C 
BRANCH   9  10
HETATM   10  C11 UNL     1     -34.326  16.355  -6.975  1.00 20.00     0.001 C 
BRANCH  10  11
HETATM   11  C10 UNL     1     -34.715  17.780  -7.367  1.00 20.00    -0.004 C 
HETATM   12  C8  UNL     1     -33.852  18.809  -6.655  1.00 20.00     0.005 C 
ENDBRANCH  10  11
ENDBRANCH   9  10
ENDBRANCH   6   9
TORSDOF 3
ENDMDL
MODEL 9
REMARK VINA RESULT:      -4.4      2.066      4.810
REMARK  3 active torsions:
REMARK  status: ('A' for Active; 'I' for Inactive)
REMARK    1  A    between atoms: C6_6  and  C9_9 
REMARK    2  A    between atoms: C9_9  and  C11_11 
REMARK    3  A    between atoms: C10_10  and  C11_11 
ROOT
HETATM    1  C1  UNL     1     -35.633  17.771  -3.230  1.00 20.00     0.069 C 
HETATM    2  C2  UNL     1     -34.710  16.909  -0.386  1.00 20.00     0.006 C 
HETATM    3  C3  UNL     1     -34.603  16.134  -1.692  1.00 20.00     0.025 C 
HETATM    4  C4  UNL     1     -33.555  18.318  -1.996  1.00 20.00     0.029 C 
HETATM    5  C5  UNL     1     -33.584  17.931  -0.507  1.00 20.00    -0.017 C 
HETATM    6  C6  UNL     1     -34.345  17.222  -2.749  1.00 20.00     0.049 C 
HETATM    7  C7  UNL     1     -33.761  19.122   0.420  1.00 20.00     0.010 C 
HETATM    8  N12 UNL     1     -36.643  18.201  -3.608  1.00 20.00    -0.196 NA
ENDROOT
BRANCH   6   9
HETATM    9  C9  UNL     1     -33.563  16.670  -3.942  1.00 20.00     0.024 C 
BRANCH   9  10
HETATM   10  C11 UNL     1     -33.374  15.161  -3.827  1.00 20.00     0.001 C 
BRANCH  10  11
HETATM   11  C10 UNL     1     -34.201  14.424  -4.880  1.00 20.00    -0.004 C 
HETATM   12  C8  UNL     1     -35.091  13.366  -4.250  1.00 20.00     0.005 C 
ENDBRANCH  10  11
ENDBRANCH   9  10
ENDBRANCH   6   9
TORSDOF 3
ENDMDL
