MODEL 1
REMARK VINA RESULT:      -5.1      0.000      0.000
REMARK  3 active torsions:
REMARK  status: ('A' for Active; 'I' for Inactive)
REMARK    1  A    between atoms: C5_5  and  C9_9 
REMARK    2  A    between atoms: C6_6  and  C10_10 
REMARK    3  A    between atoms: C10_10  and  O11_11 
ROOT
HETATM    1  C1  UNL     1     -33.353  17.261  -4.532  1.00 20.00     0.001 C 
HETATM    2  C2  UNL     1     -34.049  17.514  -3.199  1.00 20.00     0.005 C 
HETATM    3  C3  UNL     1     -33.882  16.003  -5.215  1.00 20.00     0.007 C 
HETATM    4  C4  UNL     1     -34.488  15.036  -2.960  1.00 20.00     0.011 C 
HETATM    5  C5  UNL     1     -33.951  16.298  -2.269  1.00 20.00    -0.014 C 
HETATM    6  C6  UNL     1     -33.783  14.777  -4.298  1.00 20.00     0.014 C 
ENDROOT
BRANCH   6   7
HETATM    7  C10 UNL     1     -34.363  13.543  -4.985  1.00 20.00     0.118 C 
HETATM    8  C8  UNL     1     -35.278  13.921  -6.137  1.00 20.00     0.040 C 
BRANCH   7   9
HETATM    9  O11 UNL     1     -35.094  12.783  -4.030  1.00 20.00    -0.396 OA
HETATM   10  H31 UNL     1     -35.867  13.315  -3.782  1.00 20.00     0.210 HD
ENDBRANCH   7   9
ENDBRANCH   6   7
BRANCH   5  11
HETATM   11  C9  UNL     1     -34.699  16.557  -0.962  1.00 20.00     0.000 C 
HETATM   12  C7  UNL     1     -34.076  17.667  -0.181  1.00 20.00     0.005 C 
ENDBRANCH   5  11
TORSDOF 3
ENDMDL
MODEL 2
REMARK VINA RESULT:      -4.8      1.035      1.035
REMARK  3 active torsions:
REMARK  status: ('A' for Active; 'I' for Inactive)
REMARK    1  A    between atoms: C5_5  and  C9_9 
REMARK    2  A    between atoms: C6_6  and  C10_10 
REMARK    3  A    between atoms: C10_10  and  O11_11 
ROOT
HETATM    1  C1  UNL     1     -33.661  17.867  -4.165  1.00 20.00     0.001 C 
HETATM    2  C2  UNL     1     -34.331  17.991  -2.800  1.00 20.00     0.005 C 
HETATM    3  C3  UNL     1     -33.980  16.531  -4.831  1.00 20.00     0.007 C 
HETATM    4  C4  UNL     1     -34.295  15.475  -2.557  1.00 20.00     0.011 C 
HETATM    5  C5  UNL     1     -33.969  16.816  -1.884  1.00 20.00    -0.014 C 
HETATM    6  C6  UNL     1     -33.616  15.347  -3.927  1.00 20.00     0.014 C 
ENDROOT
BRANCH   6   7
HETATM    7  C10 UNL     1     -33.990  14.025  -4.594  1.00 20.00     0.118 C 
HETATM    8  C8  UNL     1     -35.410  13.608  -4.253  1.00 20.00     0.040 C 
BRANCH   7   9
HETATM    9  O11 UNL     1     -33.084  13.017  -4.163  1.00 20.00    -0.396 OA
HETATM   10  H31 UNL     1     -32.341  13.023  -4.787  1.00 20.00     0.210 HD
ENDBRANCH   7   9
ENDBRANCH   6   7
BRANCH   5  11
HETATM   11  C9  UNL     1     -34.692  16.936  -0.543  1.00 20.00     0.000 C 
HETATM   12  C7  UNL     1     -34.101  18.012   0.308  1.00 20.00     0.005 C 
ENDBRANCH   5  11
TORSDOF 3
ENDMDL
MODEL 3
REMARK VINA RESULT:      -4.7      2.024      2.541
REMARK  3 active torsions:
REMARK  status: ('A' for Active; 'I' for Inactive)
REMARK    1  A    between atoms: C5_5  and  C9_9 
REMARK    2  A    between atoms: C6_6  and  C10_10 
REMARK    3  A    between atoms: C10_10  and  O11_11 
ROOT
HETATM    1  C1  UNL     1     -33.698  13.910  -4.141  1.00 20.00     0.001 C 
HETATM    2  C2  UNL     1     -33.282  15.178  -3.402  1.00 20.00     0.005 C 
HETATM    3  C3  UNL     1     -35.065  14.065  -4.803  1.00 20.00     0.007 C 
HETATM    4  C4  UNL     1     -35.714  15.770  -3.054  1.00 20.00     0.011 C 
HETATM    5  C5  UNL     1     -34.342  15.612  -2.383  1.00 20.00    -0.014 C 
HETATM    6  C6  UNL     1     -36.136  14.492  -3.792  1.00 20.00     0.014 C 
ENDROOT
BRANCH   6   7
HETATM    7  C10 UNL     1     -37.483  14.689  -4.486  1.00 20.00     0.118 C 
HETATM    8  C8  UNL     1     -37.664  16.120  -4.962  1.00 20.00     0.040 C 
BRANCH   7   9
HETATM    9  O11 UNL     1     -38.524  14.358  -3.576  1.00 20.00    -0.396 OA
HETATM   10  H31 UNL     1     -39.359  14.442  -4.063  1.00 20.00     0.210 HD
ENDBRANCH   7   9
ENDBRANCH   6   7
BRANCH   5  11
HETATM   11  C9  UNL     1     -33.927  16.911  -1.693  1.00 20.00     0.000 C 
HETATM   12  C7  UNL     1     -34.606  17.076  -0.374  1.00 20.00     0.005 C 
ENDBRANCH   5  11
TORSDOF 3
ENDMDL
MODEL 4
REMARK VINA RESULT:      -4.5      2.108      2.354
REMARK  3 active torsions:
REMARK  status: ('A' for Active; 'I' for Inactive)
REMARK    1  A    between atoms: C5_5  and  C9_9 
REMARK    2  A    between atoms: C6_6  and  C10_10 
REMARK    3  A    between atoms: C10_10  and  O11_11 
ROOT
HETATM    1  C1  UNL     1     -34.055  15.521  -5.343  1.00 20.00     0.001 C 
HETATM    2  C2  UNL     1     -33.631  16.432  -4.195  1.00 20.00     0.005 C 
HETATM    3  C3  UNL     1     -35.567  15.312  -5.367  1.00 20.00     0.007 C 
HETATM    4  C4  UNL     1     -35.660  15.707  -2.873  1.00 20.00     0.011 C 
HETATM    5  C5  UNL     1     -34.138  15.913  -2.844  1.00 20.00    -0.014 C 
HETATM    6  C6  UNL     1     -36.086  14.785  -4.024  1.00 20.00     0.014 C 
ENDROOT
BRANCH   6   7
HETATM    7  C10 UNL     1     -37.605  14.631  -4.057  1.00 20.00     0.118 C 
HETATM    8  C8  UNL     1     -38.234  15.506  -5.128  1.00 20.00     0.040 C 
BRANCH   7   9
HETATM    9  O11 UNL     1     -38.134  14.985  -2.785  1.00 20.00    -0.396 OA
HETATM   10  H31 UNL     1     -38.921  14.434  -2.646  1.00 20.00     0.210 HD
ENDBRANCH   7   9
ENDBRANCH   6   7
BRANCH   5  11
HETATM   11  C9  UNL     1     -33.745  16.867  -1.717  1.00 20.00     0.000 C 
HETATM   12  C7  UNL     1     -34.684  16.770  -0.560  1.00 20.00     0.005 C 
ENDBRANCH   5  11
TORSDOF 3
ENDMDL
MODEL 5
REMARK VINA RESULT:      -4.5      3.462      6.514
REMARK  3 active torsions:
REMARK  status: ('A' for Active; 'I' for Inactive)
REMARK    1  A    between atoms: C5_5  and  C9_9 
REMARK    2  A    between atoms: C6_6  and  C10_10 
REMARK    3  A    between atoms: C10_10  and  O11_11 
ROOT
HETATM    1  C1  UNL     1     -32.579  19.181   0.174  1.00 20.00     0.001 C 
HETATM    2  C2  UNL     1     -32.986  18.004  -0.707  1.00 20.00     0.005 C 
HETATM    3  C3  UNL     1     -32.952  18.947   1.636  1.00 20.00     0.007 C 
HETATM    4  C4  UNL     1     -34.848  17.443   0.908  1.00 20.00     0.011 C 
HETATM    5  C5  UNL     1     -34.478  17.681  -0.564  1.00 20.00    -0.014 C 
HETATM    6  C6  UNL     1     -34.444  18.630   1.794  1.00 20.00     0.014 C 
ENDROOT
BRANCH   6   7
HETATM    7  C10 UNL     1     -34.784  18.351   3.256  1.00 20.00     0.118 C 
HETATM    8  C8  UNL     1     -33.534  18.110   4.085  1.00 20.00     0.040 C 
BRANCH   7   9
HETATM    9  O11 UNL     1     -35.626  17.207   3.326  1.00 20.00    -0.396 OA
HETATM   10  H31 UNL     1     -36.532  17.517   3.172  1.00 20.00     0.210 HD
ENDBRANCH   7   9
ENDBRANCH   6   7
BRANCH   5  11
HETATM   11  C9  UNL     1     -34.851  16.468  -1.416  1.00 20.00     0.000 C 
HETATM   12  C7  UNL     1     -33.829  16.200  -2.471  1.00 20.00     0.005 C 
ENDBRANCH   5  11
TORSDOF 3
ENDMDL
MODEL 6
REMARK VINA RESULT:      -4.4     11.799     13.292
REMARK  3 active torsions:
REMARK  status: ('A' for Active; 'I' for Inactive)
REMARK    1  A    between atoms: C5_5  and  C9_9 
REMARK    2  A    between atoms: C6_6  and  C10_10 
REMARK    3  A    between atoms: C10_10  and  O11_11 
ROOT
HETATM    1  C1  UNL     1     -40.759   5.477  -0.649  1.00 20.00     0.001 C 
HETATM    2  C2  UNL     1     -41.123   6.775  -1.362  1.00 20.00     0.005 C 
HETATM    3  C3  UNL     1     -41.023   4.257  -1.527  1.00 20.00     0.007 C 
HETATM    4  C4  UNL     1     -42.832   5.531  -2.748  1.00 20.00     0.011 C 
HETATM    5  C5  UNL     1     -42.572   6.759  -1.862  1.00 20.00    -0.014 C 
HETATM    6  C6  UNL     1     -42.473   4.224  -2.028  1.00 20.00     0.014 C 
ENDROOT
BRANCH   6   7
HETATM    7  C10 UNL     1     -42.699   3.023  -2.943  1.00 20.00     0.118 C 
HETATM    8  C8  UNL     1     -41.387   2.389  -3.370  1.00 20.00     0.040 C 
BRANCH   7   9
HETATM    9  O11 UNL     1     -43.416   3.449  -4.095  1.00 20.00    -0.396 OA
HETATM   10  H31 UNL     1     -43.420   4.419  -4.080  1.00 20.00     0.210 HD
ENDBRANCH   7   9
ENDBRANCH   6   7
BRANCH   5  11
HETATM   11  C9  UNL     1     -42.897   8.047  -2.617  1.00 20.00     0.000 C 
HETATM   12  C7  UNL     1     -42.676   7.895  -4.086  1.00 20.00     0.005 C 
ENDBRANCH   5  11
TORSDOF 3
ENDMDL
MODEL 7
REMARK VINA RESULT:      -4.4      1.963      4.813
REMARK  3 active torsions:
REMARK  status: ('A' for Active; 'I' for Inactive)
REMARK    1  A    between atoms: C5_5  and  C9_9 
REMARK    2  A    between atoms: C6_6  and  C10_10 
REMARK    3  A    between atoms: C10_10  and  O11_11 
ROOT
HETATM    1  C1  UNL     1     -34.279  13.554  -4.091  1.00 20.00     0.001 C 
HETATM    2  C2  UNL     1     -34.809  13.947  -5.466  1.00 20.00     0.005 C 
HETATM    3  C3  UNL     1     -34.426  14.690  -3.083  1.00 20.00     0.007 C 
HETATM    4  C4  UNL     1     -34.301  16.372  -4.964  1.00 20.00     0.011 C 
HETATM    5  C5  UNL     1     -34.147  15.231  -5.981  1.00 20.00    -0.014 C 
HETATM    6  C6  UNL     1     -33.762  15.979  -3.582  1.00 20.00     0.014 C 
ENDROOT
BRANCH   6   7
HETATM    7  C10 UNL     1     -33.965  17.113  -2.581  1.00 20.00     0.118 C 
HETATM    8  C8  UNL     1     -34.451  16.595  -1.238  1.00 20.00     0.040 C 
BRANCH   7   9
HETATM    9  O11 UNL     1     -34.918  18.030  -3.106  1.00 20.00    -0.396 OA
HETATM   10  H31 UNL     1     -35.263  17.636  -3.923  1.00 20.00     0.210 HD
ENDBRANCH   7   9
ENDBRANCH   6   7
BRANCH   5  11
HETATM   11  C9  UNL     1     -34.730  15.633  -7.335  1.00 20.00     0.000 C 
HETATM   12  C7  UNL     1     -35.571  14.546  -7.917  1.00 20.00     0.005 C 
ENDBRANCH   5  11
TORSDOF 3
ENDMDL
MODEL 8
REMARK VINA RESULT:      -4.3      1.735      2.225
REMARK  3 active torsions:
REMARK  status: ('A' for Active; 'I' for Inactive)
REMARK    1  A    between atoms: C5_5  and  C9_9 
REMARK    2  A    between atoms: C6_6  and  C10_10 
REMARK    3  A    between atoms: C10_10  and  O11_11 
ROOT
HETATM    1  C1  UNL     1     -35.029  18.533  -3.412  1.00 20.00     0.001 C 
HETATM    2  C2  UNL     1     -35.480  18.305  -1.973  1.00 20.00     0.005 C 
HETATM    3  C3  UNL     1     -34.686  17.221  -4.111  1.00 20.00     0.007 C 
HETATM    4  C4  UNL     1     -34.101  16.189  -1.880  1.00 20.00     0.011 C 
HETATM    5  C5  UNL     1     -34.440  17.510  -1.174  1.00 20.00    -0.014 C 
HETATM    6  C6  UNL     1     -33.641  16.419  -3.326  1.00 20.00     0.014 C 
ENDROOT
BRANCH   6   7
HETATM    7  C10 UNL     1     -33.351  15.089  -4.018  1.00 20.00     0.118 C 
HETATM    8  C8  UNL     1     -34.302  13.998  -3.556  1.00 20.00     0.040 C 
BRANCH   7   9
HETATM    9  O11 UNL     1     -32.012  14.701  -3.733  1.00 20.00    -0.396 OA
HETATM   10  H31 UNL     1     -32.046  14.142  -2.941  1.00 20.00     0.210 HD
ENDBRANCH   7   9
ENDBRANCH   6   7
BRANCH   5  11
HETATM   11  C9  UNL     1     -34.935  17.250   0.248  1.00 20.00     0.000 C 
HETATM   12  C7  UNL     1     -36.049  18.173   0.621  1.00 20.00     0.005 C 
ENDBRANCH   5  11
TORSDOF 3
ENDMDL
MODEL 9
REMARK VINA RESULT:      -4.3      1.974      4.425
REMARK  3 active torsions:
REMARK  status: ('A' for Active; 'I' for Inactive)
REMARK    1  A    between atoms: C5_5  and  C9_9 
REMARK    2  A    between atoms: C6_6  and  C10_10 
REMARK    3  A    between atoms: C10_10  and  O11_11 
ROOT
HETATM    1  C1  UNL     1     -33.715  17.734  -4.475  1.00 20.00     0.001 C 
HETATM    2  C2  UNL     1     -33.352  16.255  -4.561  1.00 20.00     0.005 C 
HETATM    3  C3  UNL     1     -33.735  18.227  -3.030  1.00 20.00     0.007 C 
HETATM    4  C4  UNL     1     -34.293  15.891  -2.244  1.00 20.00     0.011 C 
HETATM    5  C5  UNL     1     -34.279  15.393  -3.696  1.00 20.00    -0.014 C 
HETATM    6  C6  UNL     1     -34.665  17.377  -2.156  1.00 20.00     0.014 C 
ENDROOT
BRANCH   6   7
HETATM    7  C10 UNL     1     -34.630  17.858  -0.707  1.00 20.00     0.118 C 
HETATM    8  C8  UNL     1     -33.227  18.261  -0.284  1.00 20.00     0.040 C 
BRANCH   7   9
HETATM    9  O11 UNL     1     -35.097  16.814   0.139  1.00 20.00    -0.396 OA
HETATM   10  H31 UNL     1     -34.496  16.063   0.014  1.00 20.00     0.210 HD
ENDBRANCH   7   9
ENDBRANCH   6   7
BRANCH   5  11
HETATM   11  C9  UNL     1     -33.864  13.924  -3.759  1.00 20.00     0.000 C 
HETATM   12  C7  UNL     1     -34.666  13.166  -4.765  1.00 20.00     0.005 C 
ENDBRANCH   5  11
TORSDOF 3
ENDMDL
