MODEL 1
REMARK VINA RESULT:      -4.5      0.000      0.000
REMARK  5 active torsions:
REMARK  status: ('A' for Active; 'I' for Inactive)
REMARK    1  A    between atoms: C1_1  and  C5_5 
REMARK    2  A    between atoms: C1_1  and  C9_9 
REMARK    3  A    between atoms: C6_6  and  C10_10 
REMARK    4  A    between atoms: C9_9  and  C12_12 
REMARK    5  A    between atoms: C11_11  and  C12_12 
ROOT
HETATM    1  C2  UNL     1     -35.908  14.017  -4.186  1.00 20.00     0.012 C 
HETATM    2  C3  UNL     1     -35.817  15.201  -3.232  1.00 20.00     0.005 C 
HETATM    3  C4  UNL     1     -33.607  14.863  -4.099  1.00 20.00     0.016 C 
HETATM    4  C5  UNL     1     -34.573  14.012  -4.934  1.00 20.00     0.056 C 
HETATM    5  C6  UNL     1     -34.355  15.174  -2.800  1.00 20.00    -0.014 C 
ENDROOT
BRANCH   4   6
HETATM    6  C1  UNL     1     -34.731  14.602  -6.303  1.00 20.00     0.131 C 
HETATM    7  O13 UNL     1     -35.380  14.041  -7.192  1.00 20.00    -0.298 OA
BRANCH   6   8
HETATM    8  C9  UNL     1     -34.049  15.941  -6.543  1.00 20.00     0.079 C 
BRANCH   8   9
HETATM    9  C12 UNL     1     -35.041  17.091  -6.706  1.00 20.00     0.007 C 
BRANCH   9  10
HETATM   10  C11 UNL     1     -34.977  18.052  -5.521  1.00 20.00    -0.004 C 
HETATM   11  C8  UNL     1     -33.545  18.466  -5.217  1.00 20.00     0.005 C 
ENDBRANCH   9  10
ENDBRANCH   8   9
ENDBRANCH   6   8
ENDBRANCH   4   6
BRANCH   5  12
HETATM   12  C10 UNL     1     -33.902  16.467  -2.144  1.00 20.00     0.000 C 
HETATM   13  C7  UNL     1     -34.581  16.696  -0.829  1.00 20.00     0.005 C 
ENDBRANCH   5  12
TORSDOF 5
ENDMDL
MODEL 2
REMARK VINA RESULT:      -4.5      1.151      3.644
REMARK  5 active torsions:
REMARK  status: ('A' for Active; 'I' for Inactive)
REMARK    1  A    between atoms: C1_1  and  C5_5 
REMARK    2  A    between atoms: C1_1  and  C9_9 
REMARK    3  A    between atoms: C6_6  and  C10_10 
REMARK    4  A    between atoms: C9_9  and  C12_12 
REMARK    5  A    between atoms: C11_11  and  C12_12 
ROOT
HETATM    1  C2  UNL     1     -34.553  14.826  -6.939  1.00 20.00     0.012 C 
HETATM    2  C3  UNL     1     -34.093  16.256  -6.683  1.00 20.00     0.005 C 
HETATM    3  C4  UNL     1     -36.076  15.942  -5.373  1.00 20.00     0.016 C 
HETATM    4  C5  UNL     1     -35.629  14.566  -5.882  1.00 20.00     0.056 C 
HETATM    5  C6  UNL     1     -35.385  16.959  -6.283  1.00 20.00    -0.014 C 
ENDROOT
BRANCH   4   6
HETATM    6  C1  UNL     1     -35.074  13.750  -4.754  1.00 20.00     0.131 C 
HETATM    7  O13 UNL     1     -34.770  12.560  -4.887  1.00 20.00    -0.298 OA
BRANCH   6   8
HETATM    8  C9  UNL     1     -34.901  14.469  -3.424  1.00 20.00     0.079 C 
BRANCH   8   9
HETATM    9  C12 UNL     1     -33.524  15.111  -3.272  1.00 20.00     0.007 C 
BRANCH   9  10
HETATM   10  C11 UNL     1     -33.605  16.428  -2.503  1.00 20.00    -0.004 C 
HETATM   11  C8  UNL     1     -34.706  16.392  -1.454  1.00 20.00     0.005 C 
ENDBRANCH   9  10
ENDBRANCH   8   9
ENDBRANCH   6   8
ENDBRANCH   4   6
BRANCH   5  12
HETATM   12  C10 UNL     1     -35.151  18.302  -5.612  1.00 20.00     0.000 C 
HETATM   13  C7  UNL     1     -33.696  18.650  -5.546  1.00 20.00     0.005 C 
ENDBRANCH   5  12
TORSDOF 5
ENDMDL
MODEL 3
REMARK VINA RESULT:      -4.3      1.452      2.553
REMARK  5 active torsions:
REMARK  status: ('A' for Active; 'I' for Inactive)
REMARK    1  A    between atoms: C1_1  and  C5_5 
REMARK    2  A    between atoms: C1_1  and  C9_9 
REMARK    3  A    between atoms: C6_6  and  C10_10 
REMARK    4  A    between atoms: C9_9  and  C12_12 
REMARK    5  A    between atoms: C11_11  and  C12_12 
ROOT
HETATM    1  C2  UNL     1     -34.847  15.273  -2.767  1.00 20.00     0.012 C 
HETATM    2  C3  UNL     1     -35.051  16.705  -3.243  1.00 20.00     0.005 C 
HETATM    3  C4  UNL     1     -33.140  15.870  -4.425  1.00 20.00     0.016 C 
HETATM    4  C5  UNL     1     -33.822  14.680  -3.737  1.00 20.00     0.056 C 
HETATM    5  C6  UNL     1     -33.654  17.113  -3.696  1.00 20.00    -0.014 C 
ENDROOT
BRANCH   4   6
HETATM    6  C1  UNL     1     -34.498  13.811  -4.754  1.00 20.00     0.131 C 
HETATM    7  O13 UNL     1     -34.907  12.676  -4.485  1.00 20.00    -0.298 OA
BRANCH   6   8
HETATM    8  C9  UNL     1     -34.660  14.403  -6.146  1.00 20.00     0.079 C 
BRANCH   8   9
HETATM    9  C12 UNL     1     -36.088  14.862  -6.433  1.00 20.00     0.007 C 
BRANCH   9  10
HETATM   10  C11 UNL     1     -36.113  16.280  -7.000  1.00 20.00    -0.004 C 
HETATM   11  C8  UNL     1     -34.781  16.650  -7.634  1.00 20.00     0.005 C 
ENDBRANCH   9  10
ENDBRANCH   8   9
ENDBRANCH   6   8
ENDBRANCH   4   6
BRANCH   5  12
HETATM   12  C10 UNL     1     -33.648  18.361  -4.562  1.00 20.00     0.000 C 
HETATM   13  C7  UNL     1     -35.003  18.990  -4.650  1.00 20.00     0.005 C 
ENDBRANCH   5  12
TORSDOF 5
ENDMDL
MODEL 4
REMARK VINA RESULT:      -4.3      1.991      4.499
REMARK  5 active torsions:
REMARK  status: ('A' for Active; 'I' for Inactive)
REMARK    1  A    between atoms: C1_1  and  C5_5 
REMARK    2  A    between atoms: C1_1  and  C9_9 
REMARK    3  A    between atoms: C6_6  and  C10_10 
REMARK    4  A    between atoms: C9_9  and  C12_12 
REMARK    5  A    between atoms: C11_11  and  C12_12 
ROOT
HETATM    1  C2  UNL     1     -34.412  13.836  -3.523  1.00 20.00     0.012 C 
HETATM    2  C3  UNL     1     -34.385  13.471  -5.002  1.00 20.00     0.005 C 
HETATM    3  C4  UNL     1     -35.545  15.563  -4.845  1.00 20.00     0.016 C 
HETATM    4  C5  UNL     1     -34.888  15.290  -3.487  1.00 20.00     0.056 C 
HETATM    5  C6  UNL     1     -35.601  14.207  -5.553  1.00 20.00    -0.014 C 
ENDROOT
BRANCH   4   6
HETATM    6  C1  UNL     1     -33.731  16.219  -3.274  1.00 20.00     0.131 C 
HETATM    7  O13 UNL     1     -32.903  16.457  -4.160  1.00 20.00    -0.298 OA
BRANCH   6   8
HETATM    8  C9  UNL     1     -33.628  16.864  -1.899  1.00 20.00     0.079 C 
BRANCH   8   9
HETATM    9  C12 UNL     1     -34.826  16.548  -1.006  1.00 20.00     0.007 C 
BRANCH   9  10
HETATM   10  C11 UNL     1     -34.789  17.367   0.283  1.00 20.00    -0.004 C 
HETATM   11  C8  UNL     1     -33.601  18.316   0.306  1.00 20.00     0.005 C 
ENDBRANCH   9  10
ENDBRANCH   8   9
ENDBRANCH   6   8
ENDBRANCH   4   6
BRANCH   5  12
HETATM   12  C10 UNL     1     -35.594  14.322  -7.068  1.00 20.00     0.000 C 
HETATM   13  C7  UNL     1     -34.451  15.152  -7.562  1.00 20.00     0.005 C 
ENDBRANCH   5  12
TORSDOF 5
ENDMDL
MODEL 5
REMARK VINA RESULT:      -4.2      1.699      4.539
REMARK  5 active torsions:
REMARK  status: ('A' for Active; 'I' for Inactive)
REMARK    1  A    between atoms: C1_1  and  C5_5 
REMARK    2  A    between atoms: C1_1  and  C9_9 
REMARK    3  A    between atoms: C6_6  and  C10_10 
REMARK    4  A    between atoms: C9_9  and  C12_12 
REMARK    5  A    between atoms: C11_11  and  C12_12 
ROOT
HETATM    1  C2  UNL     1     -33.245  16.483  -5.141  1.00 20.00     0.012 C 
HETATM    2  C3  UNL     1     -34.157  16.508  -6.360  1.00 20.00     0.005 C 
HETATM    3  C4  UNL     1     -34.435  14.349  -5.357  1.00 20.00     0.016 C 
HETATM    4  C5  UNL     1     -33.658  15.227  -4.369  1.00 20.00     0.056 C 
HETATM    5  C6  UNL     1     -34.284  15.032  -6.718  1.00 20.00    -0.014 C 
ENDROOT
BRANCH   4   6
HETATM    6  C1  UNL     1     -34.526  15.587  -3.201  1.00 20.00     0.131 C 
HETATM    7  O13 UNL     1     -35.687  15.178  -3.090  1.00 20.00    -0.298 OA
BRANCH   6   8
HETATM    8  C9  UNL     1     -33.898  16.488  -2.147  1.00 20.00     0.079 C 
BRANCH   8   9
HETATM    9  C12 UNL     1     -34.715  16.551  -0.859  1.00 20.00     0.007 C 
BRANCH   9  10
HETATM   10  C11 UNL     1     -34.275  17.719   0.022  1.00 20.00    -0.004 C 
HETATM   11  C8  UNL     1     -32.992  18.353  -0.493  1.00 20.00     0.005 C 
ENDBRANCH   9  10
ENDBRANCH   8   9
ENDBRANCH   6   8
ENDBRANCH   4   6
BRANCH   5  12
HETATM   12  C10 UNL     1     -35.437  14.743  -7.664  1.00 20.00     0.000 C 
HETATM   13  C7  UNL     1     -36.760  15.102  -7.062  1.00 20.00     0.005 C 
ENDBRANCH   5  12
TORSDOF 5
ENDMDL
MODEL 6
REMARK VINA RESULT:      -4.1      1.731      3.335
REMARK  5 active torsions:
REMARK  status: ('A' for Active; 'I' for Inactive)
REMARK    1  A    between atoms: C1_1  and  C5_5 
REMARK    2  A    between atoms: C1_1  and  C9_9 
REMARK    3  A    between atoms: C6_6  and  C10_10 
REMARK    4  A    between atoms: C9_9  and  C12_12 
REMARK    5  A    between atoms: C11_11  and  C12_12 
ROOT
HETATM    1  C2  UNL     1     -36.525  16.070  -6.065  1.00 20.00     0.012 C 
HETATM    2  C3  UNL     1     -36.470  15.118  -4.878  1.00 20.00     0.005 C 
HETATM    3  C4  UNL     1     -34.317  15.012  -5.925  1.00 20.00     0.016 C 
HETATM    4  C5  UNL     1     -35.072  16.202  -6.529  1.00 20.00     0.056 C 
HETATM    5  C6  UNL     1     -35.390  14.125  -5.291  1.00 20.00    -0.014 C 
ENDROOT
BRANCH   4   6
HETATM    6  C1  UNL     1     -34.479  17.491  -6.047  1.00 20.00     0.131 C 
HETATM    7  O13 UNL     1     -34.747  18.578  -6.570  1.00 20.00    -0.298 OA
BRANCH   6   8
HETATM    8  C9  UNL     1     -33.523  17.394  -4.867  1.00 20.00     0.079 C 
BRANCH   8   9
HETATM    9  C12 UNL     1     -34.178  17.774  -3.541  1.00 20.00     0.007 C 
BRANCH   9  10
HETATM   10  C11 UNL     1     -33.688  16.880  -2.403  1.00 20.00    -0.004 C 
HETATM   11  C8  UNL     1     -34.846  16.365  -1.562  1.00 20.00     0.005 C 
ENDBRANCH   9  10
ENDBRANCH   8   9
ENDBRANCH   6   8
ENDBRANCH   4   6
BRANCH   5  12
HETATM   12  C10 UNL     1     -34.870  13.290  -4.132  1.00 20.00     0.000 C 
HETATM   13  C7  UNL     1     -33.434  13.584  -3.831  1.00 20.00     0.005 C 
ENDBRANCH   5  12
TORSDOF 5
ENDMDL
MODEL 7
REMARK VINA RESULT:      -4.1      1.951      3.493
REMARK  5 active torsions:
REMARK  status: ('A' for Active; 'I' for Inactive)
REMARK    1  A    between atoms: C1_1  and  C5_5 
REMARK    2  A    between atoms: C1_1  and  C9_9 
REMARK    3  A    between atoms: C6_6  and  C10_10 
REMARK    4  A    between atoms: C9_9  and  C12_12 
REMARK    5  A    between atoms: C11_11  and  C12_12 
ROOT
HETATM    1  C2  UNL     1     -35.045  14.045  -5.992  1.00 20.00     0.012 C 
HETATM    2  C3  UNL     1     -35.761  15.383  -6.129  1.00 20.00     0.005 C 
HETATM    3  C4  UNL     1     -36.539  14.409  -4.081  1.00 20.00     0.016 C 
HETATM    4  C5  UNL     1     -35.332  13.592  -4.559  1.00 20.00     0.056 C 
HETATM    5  C6  UNL     1     -37.031  15.170  -5.314  1.00 20.00    -0.014 C 
ENDROOT
BRANCH   4   6
HETATM    6  C1  UNL     1     -34.149  13.850  -3.676  1.00 20.00     0.131 C 
HETATM    7  O13 UNL     1     -33.142  13.134  -3.695  1.00 20.00    -0.298 OA
BRANCH   6   8
HETATM    8  C9  UNL     1     -34.250  15.052  -2.748  1.00 20.00     0.079 C 
BRANCH   8   9
HETATM    9  C12 UNL     1     -33.491  16.270  -3.272  1.00 20.00     0.007 C 
BRANCH   9  10
HETATM   10  C11 UNL     1     -33.943  17.550  -2.571  1.00 20.00    -0.004 C 
HETATM   11  C8  UNL     1     -33.710  17.475  -1.070  1.00 20.00     0.005 C 
ENDBRANCH   9  10
ENDBRANCH   8   9
ENDBRANCH   6   8
ENDBRANCH   4   6
BRANCH   5  12
HETATM   12  C10 UNL     1     -37.746  16.467  -4.972  1.00 20.00     0.000 C 
HETATM   13  C7  UNL     1     -37.523  16.871  -3.548  1.00 20.00     0.005 C 
ENDBRANCH   5  12
TORSDOF 5
ENDMDL
MODEL 8
REMARK VINA RESULT:      -4.1      2.147      4.678
REMARK  5 active torsions:
REMARK  status: ('A' for Active; 'I' for Inactive)
REMARK    1  A    between atoms: C1_1  and  C5_5 
REMARK    2  A    between atoms: C1_1  and  C9_9 
REMARK    3  A    between atoms: C6_6  and  C10_10 
REMARK    4  A    between atoms: C9_9  and  C12_12 
REMARK    5  A    between atoms: C11_11  and  C12_12 
ROOT
HETATM    1  C2  UNL     1     -35.609  18.132  -5.300  1.00 20.00     0.012 C 
HETATM    2  C3  UNL     1     -35.811  16.797  -6.006  1.00 20.00     0.005 C 
HETATM    3  C4  UNL     1     -33.456  16.996  -5.607  1.00 20.00     0.016 C 
HETATM    4  C5  UNL     1     -34.161  18.096  -4.803  1.00 20.00     0.056 C 
HETATM    5  C6  UNL     1     -34.462  16.560  -6.674  1.00 20.00    -0.014 C 
ENDROOT
BRANCH   4   6
HETATM    6  C1  UNL     1     -34.113  17.781  -3.339  1.00 20.00     0.131 C 
HETATM    7  O13 UNL     1     -34.431  18.606  -2.475  1.00 20.00    -0.298 OA
BRANCH   6   8
HETATM    8  C9  UNL     1     -33.650  16.381  -2.966  1.00 20.00     0.079 C 
BRANCH   8   9
HETATM    9  C12 UNL     1     -34.805  15.454  -2.593  1.00 20.00     0.007 C 
BRANCH   9  10
HETATM   10  C11 UNL     1     -34.866  14.241  -3.519  1.00 20.00    -0.004 C 
HETATM   11  C8  UNL     1     -33.477  13.699  -3.820  1.00 20.00     0.005 C 
ENDBRANCH   9  10
ENDBRANCH   8   9
ENDBRANCH   6   8
ENDBRANCH   4   6
BRANCH   5  12
HETATM   12  C10 UNL     1     -34.265  15.125  -7.132  1.00 20.00     0.000 C 
HETATM   13  C7  UNL     1     -35.569  14.437  -7.396  1.00 20.00     0.005 C 
ENDBRANCH   5  12
TORSDOF 5
ENDMDL
MODEL 9
REMARK VINA RESULT:      -4.1      1.368      3.181
REMARK  5 active torsions:
REMARK  status: ('A' for Active; 'I' for Inactive)
REMARK    1  A    between atoms: C1_1  and  C5_5 
REMARK    2  A    between atoms: C1_1  and  C9_9 
REMARK    3  A    between atoms: C6_6  and  C10_10 
REMARK    4  A    between atoms: C9_9  and  C12_12 
REMARK    5  A    between atoms: C11_11  and  C12_12 
ROOT
HETATM    1  C2  UNL     1     -33.902  17.738  -5.108  1.00 20.00     0.012 C 
HETATM    2  C3  UNL     1     -33.529  17.013  -3.822  1.00 20.00     0.005 C 
HETATM    3  C4  UNL     1     -35.921  16.933  -3.970  1.00 20.00     0.016 C 
HETATM    4  C5  UNL     1     -35.384  17.419  -5.322  1.00 20.00     0.056 C 
HETATM    5  C6  UNL     1     -34.785  17.166  -2.971  1.00 20.00    -0.014 C 
ENDROOT
BRANCH   4   6
HETATM    6  C1  UNL     1     -35.549  16.351  -6.361  1.00 20.00     0.131 C 
HETATM    7  O13 UNL     1     -35.278  16.540  -7.551  1.00 20.00    -0.298 OA
BRANCH   6   8
HETATM    8  C9  UNL     1     -36.071  15.009  -5.870  1.00 20.00     0.079 C 
BRANCH   8   9
HETATM    9  C12 UNL     1     -34.980  13.944  -5.785  1.00 20.00     0.007 C 
BRANCH   9  10
HETATM   10  C11 UNL     1     -34.881  13.360  -4.377  1.00 20.00    -0.004 C 
HETATM   11  C8  UNL     1     -33.468  13.473  -3.826  1.00 20.00     0.005 C 
ENDBRANCH   9  10
ENDBRANCH   8   9
ENDBRANCH   6   8
ENDBRANCH   4   6
BRANCH   5  12
HETATM   12  C10 UNL     1     -34.824  16.216  -1.787  1.00 20.00     0.000 C 
HETATM   13  C7  UNL     1     -34.607  16.929  -0.489  1.00 20.00     0.005 C 
ENDBRANCH   5  12
TORSDOF 5
ENDMDL
