MODEL 1
REMARK VINA RESULT:      -4.5      0.000      0.000
REMARK  2 active torsions:
REMARK  status: ('A' for Active; 'I' for Inactive)
REMARK    1  A    between atoms: C5_5  and  C8_8 
REMARK    2  A    between atoms: C8_8  and  C9_9 
ROOT
HETATM    1  C1  UNL     1     -34.756  13.811  -4.979  1.00 20.00     0.068 C 
HETATM    2  C6  UNL     1     -35.980  15.918  -5.323  1.00 20.00     0.031 C 
HETATM    3  C7  UNL     1     -34.264  15.154  -6.967  1.00 20.00     0.031 C 
HETATM    4  C9  UNL     1     -34.627  15.203  -5.470  1.00 20.00     0.046 C 
HETATM    5  N10 UNL     1     -34.859  12.719  -4.599  1.00 20.00    -0.196 NA
ENDROOT
BRANCH   4   6
HETATM    6  C8  UNL     1     -33.490  15.950  -4.720  1.00 20.00     0.062 C 
BRANCH   6   7
HETATM    7  C5  UNL     1     -33.855  16.579  -3.394  1.00 20.00    -0.050 A 
HETATM    8  C2  UNL     1     -34.234  15.836  -2.239  1.00 20.00     0.014 A 
HETATM    9  C3  UNL     1     -34.516  16.654  -1.167  1.00 20.00     0.050 A 
HETATM   10  S11 UNL     1     -34.324  18.310  -1.554  1.00 20.00    -0.113 SA
HETATM   11  C4  UNL     1     -33.863  17.938  -3.161  1.00 20.00     0.056 A 
ENDBRANCH   6   7
ENDBRANCH   4   6
TORSDOF 2
ENDMDL
MODEL 2
REMARK VINA RESULT:      -4.5      1.096      1.757
REMARK  2 active torsions:
REMARK  status: ('A' for Active; 'I' for Inactive)
REMARK    1  A    between atoms: C5_5  and  C8_8 
REMARK    2  A    between atoms: C8_8  and  C9_9 
ROOT
HETATM    1  C1  UNL     1     -34.506  13.682  -4.542  1.00 20.00     0.068 C 
HETATM    2  C6  UNL     1     -33.958  15.892  -5.475  1.00 20.00     0.031 C 
HETATM    3  C7  UNL     1     -32.694  14.978  -3.526  1.00 20.00     0.031 C 
HETATM    4  C9  UNL     1     -34.082  15.057  -4.191  1.00 20.00     0.046 C 
HETATM    5  N10 UNL     1     -34.832  12.602  -4.820  1.00 20.00    -0.196 NA
ENDROOT
BRANCH   4   6
HETATM    6  C8  UNL     1     -35.070  15.696  -3.175  1.00 20.00     0.062 C 
BRANCH   6   7
HETATM    7  C5  UNL     1     -34.512  16.789  -2.289  1.00 20.00    -0.050 A 
HETATM    8  C2  UNL     1     -34.432  16.698  -0.869  1.00 20.00     0.014 A 
HETATM    9  C3  UNL     1     -33.885  17.831  -0.308  1.00 20.00     0.050 A 
HETATM   10  S11 UNL     1     -33.469  18.997  -1.491  1.00 20.00    -0.113 SA
HETATM   11  C4  UNL     1     -34.023  17.988  -2.759  1.00 20.00     0.056 A 
ENDBRANCH   6   7
ENDBRANCH   4   6
TORSDOF 2
ENDMDL
MODEL 3
REMARK VINA RESULT:      -4.3      1.367      1.750
REMARK  2 active torsions:
REMARK  status: ('A' for Active; 'I' for Inactive)
REMARK    1  A    between atoms: C5_5  and  C8_8 
REMARK    2  A    between atoms: C8_8  and  C9_9 
ROOT
HETATM    1  C1  UNL     1     -36.330  14.461  -3.976  1.00 20.00     0.068 C 
HETATM    2  C6  UNL     1     -34.814  15.479  -5.626  1.00 20.00     0.031 C 
HETATM    3  C7  UNL     1     -34.578  13.078  -4.983  1.00 20.00     0.031 C 
HETATM    4  C9  UNL     1     -34.930  14.485  -4.459  1.00 20.00     0.046 C 
HETATM    5  N10 UNL     1     -37.429  14.439  -3.601  1.00 20.00    -0.196 NA
ENDROOT
BRANCH   4   6
HETATM    6  C8  UNL     1     -33.952  14.829  -3.303  1.00 20.00     0.062 C 
BRANCH   6   7
HETATM    7  C5  UNL     1     -34.154  16.166  -2.623  1.00 20.00    -0.050 A 
HETATM    8  C2  UNL     1     -34.740  16.322  -1.334  1.00 20.00     0.014 A 
HETATM    9  C3  UNL     1     -34.807  17.644  -0.952  1.00 20.00     0.050 A 
HETATM   10  S11 UNL     1     -34.164  18.690  -2.145  1.00 20.00    -0.113 SA
HETATM   11  C4  UNL     1     -33.795  17.375  -3.178  1.00 20.00     0.056 A 
ENDBRANCH   6   7
ENDBRANCH   4   6
TORSDOF 2
ENDMDL
MODEL 4
REMARK VINA RESULT:      -4.3      1.556      2.293
REMARK  2 active torsions:
REMARK  status: ('A' for Active; 'I' for Inactive)
REMARK    1  A    between atoms: C5_5  and  C8_8 
REMARK    2  A    between atoms: C8_8  and  C9_9 
ROOT
HETATM    1  C1  UNL     1     -34.179  15.388  -5.413  1.00 20.00     0.068 C 
HETATM    2  C6  UNL     1     -32.882  14.510  -3.514  1.00 20.00     0.031 C 
HETATM    3  C7  UNL     1     -34.872  13.278  -4.382  1.00 20.00     0.031 C 
HETATM    4  C9  UNL     1     -34.286  14.679  -4.117  1.00 20.00     0.046 C 
HETATM    5  N10 UNL     1     -34.093  15.940  -6.431  1.00 20.00    -0.196 NA
ENDROOT
BRANCH   4   6
HETATM    6  C8  UNL     1     -35.246  15.430  -3.153  1.00 20.00     0.062 C 
BRANCH   6   7
HETATM    7  C5  UNL     1     -34.644  16.562  -2.349  1.00 20.00    -0.050 A 
HETATM    8  C2  UNL     1     -34.534  16.557  -0.928  1.00 20.00     0.014 A 
HETATM    9  C3  UNL     1     -33.949  17.709  -0.451  1.00 20.00     0.050 A 
HETATM   10  S11 UNL     1     -33.536  18.791  -1.712  1.00 20.00    -0.113 SA
HETATM   11  C4  UNL     1     -34.140  17.719  -2.903  1.00 20.00     0.056 A 
ENDBRANCH   6   7
ENDBRANCH   4   6
TORSDOF 2
ENDMDL
MODEL 5
REMARK VINA RESULT:      -4.2     11.619     12.715
REMARK  2 active torsions:
REMARK  status: ('A' for Active; 'I' for Inactive)
REMARK    1  A    between atoms: C5_5  and  C8_8 
REMARK    2  A    between atoms: C8_8  and  C9_9 
ROOT
HETATM    1  C1  UNL     1     -32.085   8.150   1.892  1.00 20.00     0.068 C 
HETATM    2  C6  UNL     1     -31.310   7.753   4.194  1.00 20.00     0.031 C 
HETATM    3  C7  UNL     1     -31.947   5.847   2.713  1.00 20.00     0.031 C 
HETATM    4  C9  UNL     1     -32.282   7.304   3.092  1.00 20.00     0.046 C 
HETATM    5  N10 UNL     1     -31.926   8.812   0.951  1.00 20.00    -0.196 NA
ENDROOT
BRANCH   4   6
HETATM    6  C8  UNL     1     -33.761   7.352   3.566  1.00 20.00     0.062 C 
BRANCH   6   7
HETATM    7  C5  UNL     1     -34.200   6.262   4.518  1.00 20.00    -0.050 A 
HETATM    8  C2  UNL     1     -34.009   6.315   5.929  1.00 20.00     0.014 A 
HETATM    9  C3  UNL     1     -34.500   5.194   6.561  1.00 20.00     0.050 A 
HETATM   10  S11 UNL     1     -35.189   4.083   5.454  1.00 20.00    -0.113 SA
HETATM   11  C4  UNL     1     -34.830   5.102   4.125  1.00 20.00     0.056 A 
ENDBRANCH   6   7
ENDBRANCH   4   6
TORSDOF 2
ENDMDL
MODEL 6
REMARK VINA RESULT:      -4.2      2.362      4.207
REMARK  2 active torsions:
REMARK  status: ('A' for Active; 'I' for Inactive)
REMARK    1  A    between atoms: C5_5  and  C8_8 
REMARK    2  A    between atoms: C8_8  and  C9_9 
ROOT
HETATM    1  C1  UNL     1     -34.386  13.819  -4.031  1.00 20.00     0.068 C 
HETATM    2  C6  UNL     1     -32.187  14.792  -3.506  1.00 20.00     0.031 C 
HETATM    3  C7  UNL     1     -34.288  15.859  -2.680  1.00 20.00     0.031 C 
HETATM    4  C9  UNL     1     -33.653  15.094  -3.859  1.00 20.00     0.046 C 
HETATM    5  N10 UNL     1     -34.961  12.818  -4.161  1.00 20.00    -0.196 NA
ENDROOT
BRANCH   4   6
HETATM    6  C8  UNL     1     -33.774  15.978  -5.131  1.00 20.00     0.062 C 
BRANCH   6   7
HETATM    7  C5  UNL     1     -34.892  15.631  -6.089  1.00 20.00    -0.050 A 
HETATM    8  C2  UNL     1     -34.739  14.765  -7.210  1.00 20.00     0.014 A 
HETATM    9  C3  UNL     1     -35.913  14.619  -7.916  1.00 20.00     0.050 A 
HETATM   10  S11 UNL     1     -37.193  15.524  -7.228  1.00 20.00    -0.113 SA
HETATM   11  C4  UNL     1     -36.178  16.115  -5.982  1.00 20.00     0.056 A 
ENDBRANCH   6   7
ENDBRANCH   4   6
TORSDOF 2
ENDMDL
MODEL 7
REMARK VINA RESULT:      -4.2      1.374      2.055
REMARK  2 active torsions:
REMARK  status: ('A' for Active; 'I' for Inactive)
REMARK    1  A    between atoms: C5_5  and  C8_8 
REMARK    2  A    between atoms: C8_8  and  C9_9 
ROOT
HETATM    1  C1  UNL     1     -36.346  14.458  -3.975  1.00 20.00     0.068 C 
HETATM    2  C6  UNL     1     -34.821  15.499  -5.601  1.00 20.00     0.031 C 
HETATM    3  C7  UNL     1     -34.583  13.091  -4.985  1.00 20.00     0.031 C 
HETATM    4  C9  UNL     1     -34.943  14.491  -4.448  1.00 20.00     0.046 C 
HETATM    5  N10 UNL     1     -37.448  14.429  -3.608  1.00 20.00    -0.196 NA
ENDROOT
BRANCH   4   6
HETATM    6  C8  UNL     1     -33.974  14.824  -3.279  1.00 20.00     0.062 C 
BRANCH   6   7
HETATM    7  C5  UNL     1     -34.171  16.161  -2.601  1.00 20.00    -0.050 A 
HETATM    8  C2  UNL     1     -33.773  17.407  -3.167  1.00 20.00     0.014 A 
HETATM    9  C3  UNL     1     -34.068  18.469  -2.341  1.00 20.00     0.050 A 
HETATM   10  S11 UNL     1     -34.821  17.963  -0.889  1.00 20.00    -0.113 SA
HETATM   11  C4  UNL     1     -34.754  16.319  -1.362  1.00 20.00     0.056 A 
ENDBRANCH   6   7
ENDBRANCH   4   6
TORSDOF 2
ENDMDL
MODEL 8
REMARK VINA RESULT:      -4.1      2.063      2.691
REMARK  2 active torsions:
REMARK  status: ('A' for Active; 'I' for Inactive)
REMARK    1  A    between atoms: C5_5  and  C8_8 
REMARK    2  A    between atoms: C8_8  and  C9_9 
ROOT
HETATM    1  C1  UNL     1     -36.875  15.149  -3.514  1.00 20.00     0.068 C 
HETATM    2  C6  UNL     1     -36.780  17.484  -2.740  1.00 20.00     0.031 C 
HETATM    3  C7  UNL     1     -35.212  16.654  -4.497  1.00 20.00     0.031 C 
HETATM    4  C9  UNL     1     -35.958  16.270  -3.203  1.00 20.00     0.046 C 
HETATM    5  N10 UNL     1     -37.596  14.273  -3.762  1.00 20.00    -0.196 NA
ENDROOT
BRANCH   4   6
HETATM    6  C8  UNL     1     -34.903  15.844  -2.145  1.00 20.00     0.062 C 
BRANCH   6   7
HETATM    7  C5  UNL     1     -34.395  16.931  -1.224  1.00 20.00    -0.050 A 
HETATM    8  C2  UNL     1     -34.858  17.123   0.110  1.00 20.00     0.014 A 
HETATM    9  C3  UNL     1     -34.231  18.183   0.728  1.00 20.00     0.050 A 
HETATM   10  S11 UNL     1     -33.090  18.941  -0.298  1.00 20.00    -0.113 SA
HETATM   11  C4  UNL     1     -33.432  17.852  -1.575  1.00 20.00     0.056 A 
ENDBRANCH   6   7
ENDBRANCH   4   6
TORSDOF 2
ENDMDL
MODEL 9
REMARK VINA RESULT:      -4.0      2.537      4.211
REMARK  2 active torsions:
REMARK  status: ('A' for Active; 'I' for Inactive)
REMARK    1  A    between atoms: C5_5  and  C8_8 
REMARK    2  A    between atoms: C8_8  and  C9_9 
ROOT
HETATM    1  C1  UNL     1     -35.898  16.796  -2.627  1.00 20.00     0.068 C 
HETATM    2  C6  UNL     1     -34.609  16.870  -0.532  1.00 20.00     0.031 C 
HETATM    3  C7  UNL     1     -34.030  18.369  -2.443  1.00 20.00     0.031 C 
HETATM    4  C9  UNL     1     -34.538  16.963  -2.065  1.00 20.00     0.046 C 
HETATM    5  N10 UNL     1     -36.966  16.671  -3.067  1.00 20.00    -0.196 NA
ENDROOT
BRANCH   4   6
HETATM    6  C8  UNL     1     -33.559  15.917  -2.666  1.00 20.00     0.062 C 
BRANCH   6   7
HETATM    7  C5  UNL     1     -34.062  15.130  -3.857  1.00 20.00    -0.050 A 
HETATM    8  C2  UNL     1     -34.514  13.781  -3.785  1.00 20.00     0.014 A 
HETATM    9  C3  UNL     1     -34.915  13.303  -5.013  1.00 20.00     0.050 A 
HETATM   10  S11 UNL     1     -34.747  14.479  -6.246  1.00 20.00    -0.113 SA
HETATM   11  C4  UNL     1     -34.135  15.633  -5.138  1.00 20.00     0.056 A 
ENDBRANCH   6   7
ENDBRANCH   4   6
TORSDOF 2
ENDMDL
