MODEL 1
REMARK VINA RESULT:      -4.8      0.000      0.000
REMARK  3 active torsions:
REMARK  status: ('A' for Active; 'I' for Inactive)
REMARK    1  A    between atoms: C3_3  and  C7_7 
REMARK    2  A    between atoms: C3_3  and  C10_10 
REMARK    3  A    between atoms: C8_8  and  C11_11 
ROOT
HETATM    1  C1  UNL     1     -34.648  15.974  -2.022  1.00 20.00     0.012 C 
HETATM    2  C2  UNL     1     -34.179  15.351  -2.934  1.00 20.00    -0.110 C 
HETATM    3  C10 UNL     1     -33.598  14.592  -4.048  1.00 20.00     0.171 C 
ENDROOT
BRANCH   3   4
HETATM    4  C3  UNL     1     -34.626  13.746  -4.774  1.00 20.00     0.142 C 
HETATM    5  O12 UNL     1     -35.071  12.693  -4.320  1.00 20.00    -0.297 OA
BRANCH   4   6
HETATM    6  C7  UNL     1     -35.089  14.269  -6.121  1.00 20.00     0.057 C 
HETATM    7  C4  UNL     1     -36.424  14.981  -5.929  1.00 20.00     0.013 C 
HETATM    8  C5  UNL     1     -36.072  16.462  -5.865  1.00 20.00     0.005 C 
HETATM    9  C8  UNL     1     -34.932  16.581  -6.871  1.00 20.00    -0.014 C 
HETATM   10  C6  UNL     1     -34.097  15.323  -6.616  1.00 20.00     0.016 C 
BRANCH   9  11
HETATM   11  C11 UNL     1     -34.139  17.869  -6.725  1.00 20.00     0.000 C 
HETATM   12  C9  UNL     1     -33.640  18.064  -5.328  1.00 20.00     0.005 C 
ENDBRANCH   9  11
ENDBRANCH   4   6
ENDBRANCH   3   4
TORSDOF 3
ENDMDL
MODEL 2
REMARK VINA RESULT:      -4.6      1.134      3.290
REMARK  3 active torsions:
REMARK  status: ('A' for Active; 'I' for Inactive)
REMARK    1  A    between atoms: C3_3  and  C7_7 
REMARK    2  A    between atoms: C3_3  and  C10_10 
REMARK    3  A    between atoms: C8_8  and  C11_11 
ROOT
HETATM    1  C1  UNL     1     -34.780  15.128  -7.590  1.00 20.00     0.012 C 
HETATM    2  C2  UNL     1     -35.344  14.891  -6.557  1.00 20.00    -0.110 C 
HETATM    3  C10 UNL     1     -36.040  14.607  -5.297  1.00 20.00     0.171 C 
ENDROOT
BRANCH   3   4
HETATM    4  C3  UNL     1     -35.222  13.735  -4.364  1.00 20.00     0.142 C 
HETATM    5  O12 UNL     1     -35.134  12.515  -4.489  1.00 20.00    -0.297 OA
BRANCH   4   6
HETATM    6  C7  UNL     1     -34.499  14.455  -3.241  1.00 20.00     0.057 C 
HETATM    7  C4  UNL     1     -33.026  14.582  -3.617  1.00 20.00     0.013 C 
HETATM    8  C5  UNL     1     -32.880  16.000  -4.153  1.00 20.00     0.005 C 
HETATM    9  C8  UNL     1     -33.828  16.797  -3.262  1.00 20.00    -0.014 C 
HETATM   10  C6  UNL     1     -35.046  15.879  -3.127  1.00 20.00     0.016 C 
BRANCH   9  11
HETATM   11  C11 UNL     1     -34.166  18.167  -3.826  1.00 20.00     0.000 C 
HETATM   12  C9  UNL     1     -33.584  18.371  -5.189  1.00 20.00     0.005 C 
ENDBRANCH   9  11
ENDBRANCH   4   6
ENDBRANCH   3   4
TORSDOF 3
ENDMDL
MODEL 3
REMARK VINA RESULT:      -4.5      1.787      2.672
REMARK  3 active torsions:
REMARK  status: ('A' for Active; 'I' for Inactive)
REMARK    1  A    between atoms: C3_3  and  C7_7 
REMARK    2  A    between atoms: C3_3  and  C10_10 
REMARK    3  A    between atoms: C8_8  and  C11_11 
ROOT
HETATM    1  C1  UNL     1     -34.605  16.544  -0.941  1.00 20.00     0.012 C 
HETATM    2  C2  UNL     1     -34.166  16.535  -2.058  1.00 20.00    -0.110 C 
HETATM    3  C10 UNL     1     -33.632  16.530  -3.425  1.00 20.00     0.171 C 
ENDROOT
BRANCH   3   4
HETATM    4  C3  UNL     1     -33.257  15.140  -3.899  1.00 20.00     0.142 C 
HETATM    5  O12 UNL     1     -32.270  14.533  -3.488  1.00 20.00    -0.297 OA
BRANCH   4   6
HETATM    6  C7  UNL     1     -34.178  14.517  -4.931  1.00 20.00     0.057 C 
HETATM    7  C4  UNL     1     -35.090  13.518  -4.225  1.00 20.00     0.013 C 
HETATM    8  C5  UNL     1     -36.401  14.267  -4.015  1.00 20.00     0.005 C 
HETATM    9  C8  UNL     1     -36.515  15.108  -5.282  1.00 20.00    -0.014 C 
HETATM   10  C6  UNL     1     -35.085  15.603  -5.512  1.00 20.00     0.016 C 
BRANCH   9  11
HETATM   11  C11 UNL     1     -37.530  16.233  -5.162  1.00 20.00     0.000 C 
HETATM   12  C9  UNL     1     -37.426  16.942  -3.849  1.00 20.00     0.005 C 
ENDBRANCH   9  11
ENDBRANCH   4   6
ENDBRANCH   3   4
TORSDOF 3
ENDMDL
MODEL 4
REMARK VINA RESULT:      -4.5      2.016      3.300
REMARK  3 active torsions:
REMARK  status: ('A' for Active; 'I' for Inactive)
REMARK    1  A    between atoms: C3_3  and  C7_7 
REMARK    2  A    between atoms: C3_3  and  C10_10 
REMARK    3  A    between atoms: C8_8  and  C11_11 
ROOT
HETATM    1  C1  UNL     1     -34.703  17.390   0.181  1.00 20.00     0.012 C 
HETATM    2  C2  UNL     1     -34.671  16.706  -0.805  1.00 20.00    -0.110 C 
HETATM    3  C10 UNL     1     -34.634  15.863  -2.006  1.00 20.00     0.171 C 
ENDROOT
BRANCH   3   4
HETATM    4  C3  UNL     1     -33.844  16.494  -3.136  1.00 20.00     0.142 C 
HETATM    5  O12 UNL     1     -33.678  17.708  -3.244  1.00 20.00    -0.297 OA
BRANCH   4   6
HETATM    6  C7  UNL     1     -33.253  15.535  -4.152  1.00 20.00     0.057 C 
HETATM    7  C4  UNL     1     -33.632  14.112  -3.751  1.00 20.00     0.013 C 
HETATM    8  C5  UNL     1     -34.825  13.763  -4.632  1.00 20.00     0.005 C 
HETATM    9  C8  UNL     1     -34.481  14.446  -5.952  1.00 20.00    -0.014 C 
HETATM   10  C6  UNL     1     -33.896  15.792  -5.516  1.00 20.00     0.016 C 
BRANCH   9  11
HETATM   11  C11 UNL     1     -35.675  14.582  -6.882  1.00 20.00     0.000 C 
HETATM   12  C9  UNL     1     -36.811  15.308  -6.233  1.00 20.00     0.005 C 
ENDBRANCH   9  11
ENDBRANCH   4   6
ENDBRANCH   3   4
TORSDOF 3
ENDMDL
MODEL 5
REMARK VINA RESULT:      -4.5      1.833      3.727
REMARK  3 active torsions:
REMARK  status: ('A' for Active; 'I' for Inactive)
REMARK    1  A    between atoms: C3_3  and  C7_7 
REMARK    2  A    between atoms: C3_3  and  C10_10 
REMARK    3  A    between atoms: C8_8  and  C11_11 
ROOT
HETATM    1  C1  UNL     1     -37.632  14.822  -3.958  1.00 20.00     0.012 C 
HETATM    2  C2  UNL     1     -36.525  14.389  -4.130  1.00 20.00    -0.110 C 
HETATM    3  C10 UNL     1     -35.174  13.854  -4.334  1.00 20.00     0.171 C 
ENDROOT
BRANCH   3   4
HETATM    4  C3  UNL     1     -34.306  14.771  -5.173  1.00 20.00     0.142 C 
HETATM    5  O12 UNL     1     -34.350  14.800  -6.402  1.00 20.00    -0.297 OA
BRANCH   4   6
HETATM    6  C7  UNL     1     -33.355  15.672  -4.408  1.00 20.00     0.057 C 
HETATM    7  C4  UNL     1     -33.789  17.120  -4.614  1.00 20.00     0.013 C 
HETATM    8  C5  UNL     1     -34.580  17.473  -3.361  1.00 20.00     0.005 C 
HETATM    9  C8  UNL     1     -33.823  16.730  -2.265  1.00 20.00    -0.014 C 
HETATM   10  C6  UNL     1     -33.487  15.383  -2.912  1.00 20.00     0.016 C 
BRANCH   9  11
HETATM   11  C11 UNL     1     -34.618  16.596  -0.976  1.00 20.00     0.000 C 
HETATM   12  C9  UNL     1     -34.282  17.677   0.003  1.00 20.00     0.005 C 
ENDBRANCH   9  11
ENDBRANCH   4   6
ENDBRANCH   3   4
TORSDOF 3
ENDMDL
MODEL 6
REMARK VINA RESULT:      -4.4      2.110      4.232
REMARK  3 active torsions:
REMARK  status: ('A' for Active; 'I' for Inactive)
REMARK    1  A    between atoms: C3_3  and  C7_7 
REMARK    2  A    between atoms: C3_3  and  C10_10 
REMARK    3  A    between atoms: C8_8  and  C11_11 
ROOT
HETATM    1  C1  UNL     1     -35.755  17.937  -6.362  1.00 20.00     0.012 C 
HETATM    2  C2  UNL     1     -34.740  17.696  -5.768  1.00 20.00    -0.110 C 
HETATM    3  C10 UNL     1     -33.497  17.399  -5.047  1.00 20.00     0.171 C 
ENDROOT
BRANCH   3   4
HETATM    4  C3  UNL     1     -33.647  17.538  -3.545  1.00 20.00     0.142 C 
HETATM    5  O12 UNL     1     -33.753  18.624  -2.978  1.00 20.00    -0.297 OA
BRANCH   4   6
HETATM    6  C7  UNL     1     -33.658  16.243  -2.754  1.00 20.00     0.057 C 
HETATM    7  C4  UNL     1     -35.085  15.973  -2.288  1.00 20.00     0.013 C 
HETATM    8  C5  UNL     1     -35.638  14.963  -3.286  1.00 20.00     0.005 C 
HETATM    9  C8  UNL     1     -34.426  14.085  -3.582  1.00 20.00    -0.014 C 
HETATM   10  C6  UNL     1     -33.274  15.088  -3.680  1.00 20.00     0.016 C 
BRANCH   9  11
HETATM   11  C11 UNL     1     -34.595  13.237  -4.832  1.00 20.00     0.000 C 
HETATM   12  C9  UNL     1     -35.022  14.056  -6.010  1.00 20.00     0.005 C 
ENDBRANCH   9  11
ENDBRANCH   4   6
ENDBRANCH   3   4
TORSDOF 3
ENDMDL
MODEL 7
REMARK VINA RESULT:      -4.4     11.588     13.635
REMARK  3 active torsions:
REMARK  status: ('A' for Active; 'I' for Inactive)
REMARK    1  A    between atoms: C3_3  and  C7_7 
REMARK    2  A    between atoms: C3_3  and  C10_10 
REMARK    3  A    between atoms: C8_8  and  C11_11 
ROOT
HETATM    1  C1  UNL     1     -32.184   9.152   0.924  1.00 20.00     0.012 C 
HETATM    2  C2  UNL     1     -31.960   8.510   1.912  1.00 20.00    -0.110 C 
HETATM    3  C10 UNL     1     -31.680   7.728   3.123  1.00 20.00     0.171 C 
ENDROOT
BRANCH   3   4
HETATM    4  C3  UNL     1     -32.538   6.482   3.222  1.00 20.00     0.142 C 
HETATM    5  O12 UNL     1     -32.120   5.356   2.958  1.00 20.00    -0.297 OA
BRANCH   4   6
HETATM    6  C7  UNL     1     -33.971   6.693   3.672  1.00 20.00     0.057 C 
HETATM    7  C4  UNL     1     -34.858   5.683   2.951  1.00 20.00     0.013 C 
HETATM    8  C5  UNL     1     -35.074   4.562   3.960  1.00 20.00     0.005 C 
HETATM    9  C8  UNL     1     -35.168   5.314   5.284  1.00 20.00    -0.014 C 
HETATM   10  C6  UNL     1     -34.078   6.383   5.166  1.00 20.00     0.016 C 
BRANCH   9  11
HETATM   11  C11 UNL     1     -34.998   4.413   6.495  1.00 20.00     0.000 C 
HETATM   12  C9  UNL     1     -33.622   3.829   6.570  1.00 20.00     0.005 C 
ENDBRANCH   9  11
ENDBRANCH   4   6
ENDBRANCH   3   4
TORSDOF 3
ENDMDL
MODEL 8
REMARK VINA RESULT:      -4.4      1.580      3.449
REMARK  3 active torsions:
REMARK  status: ('A' for Active; 'I' for Inactive)
REMARK    1  A    between atoms: C3_3  and  C7_7 
REMARK    2  A    between atoms: C3_3  and  C10_10 
REMARK    3  A    between atoms: C8_8  and  C11_11 
ROOT
HETATM    1  C1  UNL     1     -34.437  15.058  -7.195  1.00 20.00     0.012 C 
HETATM    2  C2  UNL     1     -34.712  14.377  -6.246  1.00 20.00    -0.110 C 
HETATM    3  C10 UNL     1     -35.056  13.543  -5.089  1.00 20.00     0.171 C 
ENDROOT
BRANCH   3   4
HETATM    4  C3  UNL     1     -34.140  13.785  -3.904  1.00 20.00     0.142 C 
HETATM    5  O12 UNL     1     -33.084  13.178  -3.737  1.00 20.00    -0.297 OA
BRANCH   4   6
HETATM    6  C7  UNL     1     -34.601  14.834  -2.910  1.00 20.00     0.057 C 
HETATM    7  C4  UNL     1     -33.629  16.009  -2.963  1.00 20.00     0.013 C 
HETATM    8  C5  UNL     1     -34.315  17.044  -3.846  1.00 20.00     0.005 C 
HETATM    9  C8  UNL     1     -35.785  16.889  -3.467  1.00 20.00    -0.014 C 
HETATM   10  C6  UNL     1     -35.964  15.373  -3.347  1.00 20.00     0.016 C 
BRANCH   9  11
HETATM   11  C11 UNL     1     -36.731  17.529  -4.470  1.00 20.00     0.000 C 
HETATM   12  C9  UNL     1     -37.654  16.526  -5.087  1.00 20.00     0.005 C 
ENDBRANCH   9  11
ENDBRANCH   4   6
ENDBRANCH   3   4
TORSDOF 3
ENDMDL
MODEL 9
REMARK VINA RESULT:      -4.3      1.468      3.918
REMARK  3 active torsions:
REMARK  status: ('A' for Active; 'I' for Inactive)
REMARK    1  A    between atoms: C3_3  and  C7_7 
REMARK    2  A    between atoms: C3_3  and  C10_10 
REMARK    3  A    between atoms: C8_8  and  C11_11 
ROOT
HETATM    1  C1  UNL     1     -34.386  17.335  -7.480  1.00 20.00     0.012 C 
HETATM    2  C2  UNL     1     -34.584  16.200  -7.141  1.00 20.00    -0.110 C 
HETATM    3  C10 UNL     1     -34.821  14.811  -6.732  1.00 20.00     0.171 C 
ENDROOT
BRANCH   3   4
HETATM    4  C3  UNL     1     -35.921  14.688  -5.696  1.00 20.00     0.142 C 
HETATM    5  O12 UNL     1     -37.080  15.042  -5.901  1.00 20.00    -0.297 OA
BRANCH   4   6
HETATM    6  C7  UNL     1     -35.513  14.095  -4.360  1.00 20.00     0.057 C 
HETATM    7  C4  UNL     1     -34.033  13.734  -4.423  1.00 20.00     0.013 C 
HETATM    8  C5  UNL     1     -33.319  14.890  -3.734  1.00 20.00     0.005 C 
HETATM    9  C8  UNL     1     -34.282  15.260  -2.610  1.00 20.00    -0.014 C 
HETATM   10  C6  UNL     1     -35.658  15.163  -3.274  1.00 20.00     0.016 C 
BRANCH   9  11
HETATM   11  C11 UNL     1     -34.000  16.626  -2.008  1.00 20.00     0.000 C 
HETATM   12  C9  UNL     1     -34.617  16.778  -0.653  1.00 20.00     0.005 C 
ENDBRANCH   9  11
ENDBRANCH   4   6
ENDBRANCH   3   4
TORSDOF 3
ENDMDL
