MODEL 1
REMARK VINA RESULT:      -5.4      0.000      0.000
REMARK  2 active torsions:
REMARK  status: ('A' for Active; 'I' for Inactive)
REMARK    1  A    between atoms: C1_1  and  C7_7 
REMARK    2  A    between atoms: C6_6  and  C10_10 
ROOT
HETATM    1  C2  UNL     1     -34.304  17.057  -5.057  1.00 20.00     0.002 C 
HETATM    2  C3  UNL     1     -33.783  17.570  -3.718  1.00 20.00     0.005 C 
HETATM    3  C4  UNL     1     -34.097  15.550  -5.204  1.00 20.00     0.020 C 
HETATM    4  C5  UNL     1     -34.187  15.297  -2.686  1.00 20.00     0.025 C 
HETATM    5  C6  UNL     1     -34.399  16.812  -2.534  1.00 20.00    -0.014 C 
HETATM    6  C7  UNL     1     -34.694  14.764  -4.032  1.00 20.00     0.045 C 
HETATM    7  C8  UNL     1     -36.217  14.679  -4.095  1.00 20.00     0.027 C 
ENDROOT
BRANCH   6   8
HETATM    8  C1  UNL     1     -34.176  13.338  -4.195  1.00 20.00     0.181 C 
HETATM    9  O11 UNL     1     -34.944  12.553  -4.817  1.00 20.00    -0.647 OA
HETATM   10  O12 UNL     1     -33.041  13.124  -3.684  1.00 20.00    -0.647 OA
ENDBRANCH   6   8
BRANCH   5  11
HETATM   11  C10 UNL     1     -33.812  17.308  -1.214  1.00 20.00     0.000 C 
HETATM   12  C9  UNL     1     -34.780  17.152  -0.087  1.00 20.00     0.005 C 
ENDBRANCH   5  11
TORSDOF 2
ENDMDL
MODEL 2
REMARK VINA RESULT:      -5.2      1.203      3.196
REMARK  2 active torsions:
REMARK  status: ('A' for Active; 'I' for Inactive)
REMARK    1  A    between atoms: C1_1  and  C7_7 
REMARK    2  A    between atoms: C6_6  and  C10_10 
ROOT
HETATM    1  C2  UNL     1     -34.023  16.607  -2.176  1.00 20.00     0.002 C 
HETATM    2  C3  UNL     1     -34.026  17.599  -3.336  1.00 20.00     0.005 C 
HETATM    3  C4  UNL     1     -34.849  15.362  -2.496  1.00 20.00     0.020 C 
HETATM    4  C5  UNL     1     -34.394  15.700  -4.964  1.00 20.00     0.025 C 
HETATM    5  C6  UNL     1     -33.559  16.951  -4.646  1.00 20.00    -0.014 C 
HETATM    6  C7  UNL     1     -34.414  14.696  -3.805  1.00 20.00     0.045 C 
HETATM    7  C8  UNL     1     -33.099  13.930  -3.668  1.00 20.00     0.027 C 
ENDROOT
BRANCH   6   8
HETATM    8  C1  UNL     1     -35.488  13.655  -4.106  1.00 20.00     0.181 C 
HETATM    9  O11 UNL     1     -35.064  12.561  -4.573  1.00 20.00    -0.647 OA
HETATM   10  O12 UNL     1     -36.669  14.022  -3.850  1.00 20.00    -0.647 OA
ENDBRANCH   6   8
BRANCH   5  11
HETATM   11  C10 UNL     1     -33.632  17.953  -5.797  1.00 20.00     0.000 C 
HETATM   12  C9  UNL     1     -34.412  17.413  -6.950  1.00 20.00     0.005 C 
ENDBRANCH   5  11
TORSDOF 2
ENDMDL
MODEL 3
REMARK VINA RESULT:      -4.8      2.168      2.940
REMARK  2 active torsions:
REMARK  status: ('A' for Active; 'I' for Inactive)
REMARK    1  A    between atoms: C1_1  and  C7_7 
REMARK    2  A    between atoms: C6_6  and  C10_10 
ROOT
HETATM    1  C2  UNL     1     -34.048  13.607  -4.233  1.00 20.00     0.002 C 
HETATM    2  C3  UNL     1     -33.632  14.508  -3.073  1.00 20.00     0.005 C 
HETATM    3  C4  UNL     1     -35.560  13.634  -4.454  1.00 20.00     0.020 C 
HETATM    4  C5  UNL     1     -35.657  15.968  -3.476  1.00 20.00     0.025 C 
HETATM    5  C6  UNL     1     -34.135  15.946  -3.255  1.00 20.00    -0.014 C 
HETATM    6  C7  UNL     1     -36.096  15.058  -4.629  1.00 20.00     0.045 C 
HETATM    7  C8  UNL     1     -35.768  15.646  -6.000  1.00 20.00     0.027 C 
ENDROOT
BRANCH   6   8
HETATM    8  C1  UNL     1     -37.616  14.929  -4.570  1.00 20.00     0.181 C 
HETATM    9  O11 UNL     1     -38.248  15.591  -5.439  1.00 20.00    -0.647 OA
HETATM   10  O12 UNL     1     -38.048  14.174  -3.654  1.00 20.00    -0.647 OA
ENDBRANCH   6   8
BRANCH   5  11
HETATM   11  C10 UNL     1     -33.754  16.806  -2.051  1.00 20.00     0.000 C 
HETATM   12  C9  UNL     1     -34.668  16.571  -0.894  1.00 20.00     0.005 C 
ENDBRANCH   5  11
TORSDOF 2
ENDMDL
MODEL 4
REMARK VINA RESULT:      -4.7      1.833      2.702
REMARK  2 active torsions:
REMARK  status: ('A' for Active; 'I' for Inactive)
REMARK    1  A    between atoms: C1_1  and  C7_7 
REMARK    2  A    between atoms: C6_6  and  C10_10 
ROOT
HETATM    1  C2  UNL     1     -37.020  14.941  -3.614  1.00 20.00     0.002 C 
HETATM    2  C3  UNL     1     -36.188  15.890  -2.755  1.00 20.00     0.005 C 
HETATM    3  C4  UNL     1     -36.539  14.924  -5.064  1.00 20.00     0.020 C 
HETATM    4  C5  UNL     1     -34.211  15.556  -4.295  1.00 20.00     0.025 C 
HETATM    5  C6  UNL     1     -34.689  15.570  -2.834  1.00 20.00    -0.014 C 
HETATM    6  C7  UNL     1     -35.043  14.617  -5.177  1.00 20.00     0.045 C 
HETATM    7  C8  UNL     1     -34.725  13.144  -4.933  1.00 20.00     0.027 C 
ENDROOT
BRANCH   6   8
HETATM    8  C1  UNL     1     -34.680  14.900  -6.632  1.00 20.00     0.181 C 
HETATM    9  O11 UNL     1     -33.851  15.835  -6.810  1.00 20.00    -0.647 OA
HETATM   10  O12 UNL     1     -35.258  14.159  -7.476  1.00 20.00    -0.647 OA
ENDBRANCH   6   8
BRANCH   5  11
HETATM   11  C10 UNL     1     -33.881  16.574  -2.012  1.00 20.00     0.000 C 
HETATM   12  C9  UNL     1     -34.525  16.851  -0.694  1.00 20.00     0.005 C 
ENDBRANCH   5  11
TORSDOF 2
ENDMDL
MODEL 5
REMARK VINA RESULT:      -4.7      1.223      2.781
REMARK  2 active torsions:
REMARK  status: ('A' for Active; 'I' for Inactive)
REMARK    1  A    between atoms: C1_1  and  C7_7 
REMARK    2  A    between atoms: C6_6  and  C10_10 
ROOT
HETATM    1  C2  UNL     1     -34.287  16.866  -2.794  1.00 20.00     0.002 C 
HETATM    2  C3  UNL     1     -35.793  16.868  -2.543  1.00 20.00     0.005 C 
HETATM    3  C4  UNL     1     -33.770  15.462  -3.109  1.00 20.00     0.020 C 
HETATM    4  C5  UNL     1     -36.046  14.833  -4.021  1.00 20.00     0.025 C 
HETATM    5  C6  UNL     1     -36.570  16.244  -3.710  1.00 20.00    -0.014 C 
HETATM    6  C7  UNL     1     -34.533  14.807  -4.264  1.00 20.00     0.045 C 
HETATM    7  C8  UNL     1     -34.145  15.381  -5.626  1.00 20.00     0.027 C 
ENDROOT
BRANCH   6   8
HETATM    8  C1  UNL     1     -34.085  13.348  -4.270  1.00 20.00     0.181 C 
HETATM    9  O11 UNL     1     -34.910  12.532  -4.765  1.00 20.00    -0.647 OA
HETATM   10  O12 UNL     1     -32.941  13.143  -3.776  1.00 20.00    -0.647 OA
ENDBRANCH   6   8
BRANCH   5  11
HETATM   11  C10 UNL     1     -38.066  16.208  -3.401  1.00 20.00     0.000 C 
HETATM   12  C9  UNL     1     -38.680  14.907  -3.802  1.00 20.00     0.005 C 
ENDBRANCH   5  11
TORSDOF 2
ENDMDL
MODEL 6
REMARK VINA RESULT:      -4.7      1.780      3.701
REMARK  2 active torsions:
REMARK  status: ('A' for Active; 'I' for Inactive)
REMARK    1  A    between atoms: C1_1  and  C7_7 
REMARK    2  A    between atoms: C6_6  and  C10_10 
ROOT
HETATM    1  C2  UNL     1     -36.235  16.473  -3.733  1.00 20.00     0.002 C 
HETATM    2  C3  UNL     1     -36.334  16.819  -5.216  1.00 20.00     0.005 C 
HETATM    3  C4  UNL     1     -35.675  15.066  -3.518  1.00 20.00     0.020 C 
HETATM    4  C5  UNL     1     -34.432  15.229  -5.718  1.00 20.00     0.025 C 
HETATM    5  C6  UNL     1     -34.990  16.645  -5.936  1.00 20.00    -0.014 C 
HETATM    6  C7  UNL     1     -34.337  14.857  -4.234  1.00 20.00     0.045 C 
HETATM    7  C8  UNL     1     -33.176  15.553  -3.526  1.00 20.00     0.027 C 
ENDROOT
BRANCH   6   8
HETATM    8  C1  UNL     1     -34.059  13.360  -4.143  1.00 20.00     0.181 C 
HETATM    9  O11 UNL     1     -32.909  13.048  -3.726  1.00 20.00    -0.647 OA
HETATM   10  O12 UNL     1     -35.019  12.620  -4.500  1.00 20.00    -0.647 OA
ENDBRANCH   6   8
BRANCH   5  11
HETATM   11  C10 UNL     1     -35.137  16.942  -7.428  1.00 20.00     0.000 C 
HETATM   12  C9  UNL     1     -34.394  18.175  -7.821  1.00 20.00     0.005 C 
ENDBRANCH   5  11
TORSDOF 2
ENDMDL
MODEL 7
REMARK VINA RESULT:      -4.6      1.248      1.501
REMARK  2 active torsions:
REMARK  status: ('A' for Active; 'I' for Inactive)
REMARK    1  A    between atoms: C1_1  and  C7_7 
REMARK    2  A    between atoms: C6_6  and  C10_10 
ROOT
HETATM    1  C2  UNL     1     -35.069  17.990  -3.829  1.00 20.00     0.002 C 
HETATM    2  C3  UNL     1     -34.837  18.384  -2.372  1.00 20.00     0.005 C 
HETATM    3  C4  UNL     1     -34.368  16.677  -4.176  1.00 20.00     0.020 C 
HETATM    4  C5  UNL     1     -34.540  15.950  -1.756  1.00 20.00     0.025 C 
HETATM    5  C6  UNL     1     -35.249  17.268  -1.403  1.00 20.00    -0.014 C 
HETATM    6  C7  UNL     1     -34.750  15.543  -3.219  1.00 20.00     0.045 C 
HETATM    7  C8  UNL     1     -36.152  14.998  -3.483  1.00 20.00     0.027 C 
ENDROOT
BRANCH   6   8
HETATM    8  C1  UNL     1     -33.781  14.406  -3.532  1.00 20.00     0.181 C 
HETATM    9  O11 UNL     1     -34.303  13.259  -3.609  1.00 20.00    -0.647 OA
HETATM   10  O12 UNL     1     -32.577  14.759  -3.674  1.00 20.00    -0.647 OA
ENDBRANCH   6   8
BRANCH   5  11
HETATM   11  C10 UNL     1     -34.949  17.671   0.040  1.00 20.00     0.000 C 
HETATM   12  C9  UNL     1     -33.589  18.274   0.172  1.00 20.00     0.005 C 
ENDBRANCH   5  11
TORSDOF 2
ENDMDL
MODEL 8
REMARK VINA RESULT:      -4.6      2.374      4.130
REMARK  2 active torsions:
REMARK  status: ('A' for Active; 'I' for Inactive)
REMARK    1  A    between atoms: C1_1  and  C7_7 
REMARK    2  A    between atoms: C6_6  and  C10_10 
ROOT
HETATM    1  C2  UNL     1     -34.168  13.682  -3.612  1.00 20.00     0.002 C 
HETATM    2  C3  UNL     1     -35.564  13.649  -4.230  1.00 20.00     0.005 C 
HETATM    3  C4  UNL     1     -33.503  15.046  -3.793  1.00 20.00     0.020 C 
HETATM    4  C5  UNL     1     -35.784  16.143  -3.873  1.00 20.00     0.025 C 
HETATM    5  C6  UNL     1     -36.457  14.773  -3.687  1.00 20.00    -0.014 C 
HETATM    6  C7  UNL     1     -34.375  16.192  -3.270  1.00 20.00     0.045 C 
HETATM    7  C8  UNL     1     -34.389  16.271  -1.745  1.00 20.00     0.027 C 
ENDROOT
BRANCH   6   8
HETATM    8  C1  UNL     1     -33.701  17.470  -3.761  1.00 20.00     0.181 C 
HETATM    9  O11 UNL     1     -33.796  18.462  -2.986  1.00 20.00    -0.647 OA
HETATM   10  O12 UNL     1     -33.132  17.372  -4.884  1.00 20.00    -0.647 OA
ENDBRANCH   6   8
BRANCH   5  11
HETATM   11  C10 UNL     1     -37.825  14.749  -4.368  1.00 20.00     0.000 C 
HETATM   12  C9  UNL     1     -38.906  15.217  -3.450  1.00 20.00     0.005 C 
ENDBRANCH   5  11
TORSDOF 2
ENDMDL
MODEL 9
REMARK VINA RESULT:      -4.5      1.635      3.389
REMARK  2 active torsions:
REMARK  status: ('A' for Active; 'I' for Inactive)
REMARK    1  A    between atoms: C1_1  and  C7_7 
REMARK    2  A    between atoms: C6_6  and  C10_10 
ROOT
HETATM    1  C2  UNL     1     -35.501  16.720  -2.519  1.00 20.00     0.002 C 
HETATM    2  C3  UNL     1     -36.597  16.930  -3.561  1.00 20.00     0.005 C 
HETATM    3  C4  UNL     1     -34.902  15.317  -2.605  1.00 20.00     0.020 C 
HETATM    4  C5  UNL     1     -35.501  15.216  -5.063  1.00 20.00     0.025 C 
HETATM    5  C6  UNL     1     -36.102  16.629  -4.982  1.00 20.00    -0.014 C 
HETATM    6  C7  UNL     1     -34.407  14.982  -4.015  1.00 20.00     0.045 C 
HETATM    7  C8  UNL     1     -33.098  15.688  -4.363  1.00 20.00     0.027 C 
ENDROOT
BRANCH   6   8
HETATM    8  C1  UNL     1     -34.096  13.488  -3.991  1.00 20.00     0.181 C 
HETATM    9  O11 UNL     1     -35.034  12.735  -4.374  1.00 20.00    -0.647 OA
HETATM   10  O12 UNL     1     -32.935  13.195  -3.588  1.00 20.00    -0.647 OA
ENDBRANCH   6   8
BRANCH   5  11
HETATM   11  C10 UNL     1     -37.237  16.790  -5.992  1.00 20.00     0.000 C 
HETATM   12  C9  UNL     1     -37.826  15.473  -6.374  1.00 20.00     0.005 C 
ENDBRANCH   5  11
TORSDOF 2
ENDMDL
