MODEL 1
REMARK VINA RESULT:      -5.0      0.000      0.000
REMARK  4 active torsions:
REMARK  status: ('A' for Active; 'I' for Inactive)
REMARK    1  A    between atoms: C6_6  and  C10_10 
REMARK    2  A    between atoms: C7_7  and  C11_11 
REMARK    3  A    between atoms: C9_9  and  C11_11 
REMARK    4  A    between atoms: C11_11  and  O12_12 
ROOT
HETATM    1  C1  UNL     1     -35.281  15.206  -7.877  1.00 20.00     0.012 C 
HETATM    2  C2  UNL     1     -34.890  14.780  -6.824  1.00 20.00    -0.115 C 
HETATM    3  C9  UNL     1     -34.407  14.258  -5.535  1.00 20.00     0.125 C 
ENDROOT
BRANCH   3   4
HETATM    4  C11 UNL     1     -35.568  13.847  -4.625  1.00 20.00     0.133 C 
BRANCH   4   5
HETATM    5  C7  UNL     1     -35.675  14.764  -3.418  1.00 20.00     0.015 C 
HETATM    6  C4  UNL     1     -36.447  16.049  -3.713  1.00 20.00     0.007 C 
HETATM    7  C3  UNL     1     -35.966  16.991  -2.621  1.00 20.00     0.005 C 
HETATM    8  C6  UNL     1     -34.461  16.730  -2.584  1.00 20.00    -0.014 C 
HETATM    9  C5  UNL     1     -34.312  15.231  -2.886  1.00 20.00     0.012 C 
BRANCH   8  10
HETATM   10  C10 UNL     1     -33.820  17.146  -1.271  1.00 20.00     0.000 C 
HETATM   11  C8  UNL     1     -34.793  17.105  -0.136  1.00 20.00     0.005 C 
ENDBRANCH   8  10
ENDBRANCH   4   5
BRANCH   4  12
HETATM   12  O12 UNL     1     -35.339  12.513  -4.168  1.00 20.00    -0.394 OA
HETATM   13  H30 UNL     1     -34.914  12.591  -3.301  1.00 20.00     0.210 HD
ENDBRANCH   4  12
ENDBRANCH   3   4
TORSDOF 4
ENDMDL
MODEL 2
REMARK VINA RESULT:      -4.9     10.991     11.942
REMARK  4 active torsions:
REMARK  status: ('A' for Active; 'I' for Inactive)
REMARK    1  A    between atoms: C6_6  and  C10_10 
REMARK    2  A    between atoms: C7_7  and  C11_11 
REMARK    3  A    between atoms: C9_9  and  C11_11 
REMARK    4  A    between atoms: C11_11  and  O12_12 
ROOT
HETATM    1  C1  UNL     1     -32.163   9.121  -0.094  1.00 20.00     0.012 C 
HETATM    2  C2  UNL     1     -32.347   8.872   1.067  1.00 20.00    -0.115 C 
HETATM    3  C9  UNL     1     -32.575   8.570   2.489  1.00 20.00     0.125 C 
ENDROOT
BRANCH   3   4
HETATM    4  C11 UNL     1     -31.680   7.425   2.970  1.00 20.00     0.133 C 
BRANCH   4   5
HETATM    5  C7  UNL     1     -32.504   6.276   3.527  1.00 20.00     0.015 C 
HETATM    6  C4  UNL     1     -33.724   5.948   2.668  1.00 20.00     0.007 C 
HETATM    7  C3  UNL     1     -34.638   5.220   3.641  1.00 20.00     0.005 C 
HETATM    8  C6  UNL     1     -34.521   6.061   4.912  1.00 20.00    -0.014 C 
HETATM    9  C5  UNL     1     -33.066   6.553   4.929  1.00 20.00     0.012 C 
BRANCH   8  10
HETATM   10  C10 UNL     1     -34.914   5.299   6.166  1.00 20.00     0.000 C 
HETATM   11  C8  UNL     1     -35.004   3.826   5.919  1.00 20.00     0.005 C 
ENDBRANCH   8  10
ENDBRANCH   4   5
BRANCH   4  12
HETATM   12  O12 UNL     1     -30.826   7.917   4.003  1.00 20.00    -0.394 OA
HETATM   13  H30 UNL     1     -30.018   8.225   3.567  1.00 20.00     0.210 HD
ENDBRANCH   4  12
ENDBRANCH   3   4
TORSDOF 4
ENDMDL
MODEL 3
REMARK VINA RESULT:      -4.7      1.438      1.885
REMARK  4 active torsions:
REMARK  status: ('A' for Active; 'I' for Inactive)
REMARK    1  A    between atoms: C6_6  and  C10_10 
REMARK    2  A    between atoms: C7_7  and  C11_11 
REMARK    3  A    between atoms: C9_9  and  C11_11 
REMARK    4  A    between atoms: C11_11  and  O12_12 
ROOT
HETATM    1  C1  UNL     1     -35.048  14.497  -6.810  1.00 20.00     0.012 C 
HETATM    2  C2  UNL     1     -35.080  14.037  -5.701  1.00 20.00    -0.115 C 
HETATM    3  C9  UNL     1     -35.121  13.471  -4.342  1.00 20.00     0.125 C 
ENDROOT
BRANCH   3   4
HETATM    4  C11 UNL     1     -34.121  14.165  -3.413  1.00 20.00     0.133 C 
BRANCH   4   5
HETATM    5  C7  UNL     1     -34.526  15.605  -3.144  1.00 20.00     0.015 C 
HETATM    6  C4  UNL     1     -33.536  16.619  -3.715  1.00 20.00     0.007 C 
HETATM    7  C3  UNL     1     -33.816  17.866  -2.891  1.00 20.00     0.005 C 
HETATM    8  C6  UNL     1     -33.956  17.313  -1.474  1.00 20.00    -0.014 C 
HETATM    9  C5  UNL     1     -34.621  15.940  -1.647  1.00 20.00     0.012 C 
BRANCH   8  10
HETATM   10  C10 UNL     1     -34.724  18.242  -0.549  1.00 20.00     0.000 C 
HETATM   11  C8  UNL     1     -35.148  17.552   0.709  1.00 20.00     0.005 C 
ENDBRANCH   8  10
ENDBRANCH   4   5
BRANCH   4  12
HETATM   12  O12 UNL     1     -32.838  14.160  -4.040  1.00 20.00    -0.394 OA
HETATM   13  H30 UNL     1     -32.441  15.023  -3.858  1.00 20.00     0.210 HD
ENDBRANCH   4  12
ENDBRANCH   3   4
TORSDOF 4
ENDMDL
MODEL 4
REMARK VINA RESULT:      -4.7      2.027      4.988
REMARK  4 active torsions:
REMARK  status: ('A' for Active; 'I' for Inactive)
REMARK    1  A    between atoms: C6_6  and  C10_10 
REMARK    2  A    between atoms: C7_7  and  C11_11 
REMARK    3  A    between atoms: C9_9  and  C11_11 
REMARK    4  A    between atoms: C11_11  and  O12_12 
ROOT
HETATM    1  C1  UNL     1     -34.596  16.911  -0.852  1.00 20.00     0.012 C 
HETATM    2  C2  UNL     1     -34.411  16.201  -1.804  1.00 20.00    -0.115 C 
HETATM    3  C9  UNL     1     -34.188  15.329  -2.969  1.00 20.00     0.125 C 
ENDROOT
BRANCH   3   4
HETATM    4  C11 UNL     1     -32.935  15.741  -3.746  1.00 20.00     0.133 C 
BRANCH   4   5
HETATM    5  C7  UNL     1     -33.273  16.113  -5.180  1.00 20.00     0.015 C 
HETATM    6  C4  UNL     1     -33.521  17.610  -5.365  1.00 20.00     0.007 C 
HETATM    7  C3  UNL     1     -34.342  17.661  -6.644  1.00 20.00     0.005 C 
HETATM    8  C6  UNL     1     -35.331  16.511  -6.461  1.00 20.00    -0.014 C 
HETATM    9  C5  UNL     1     -34.546  15.430  -5.702  1.00 20.00     0.012 C 
BRANCH   8  10
HETATM   10  C10 UNL     1     -35.917  16.019  -7.773  1.00 20.00     0.000 C 
HETATM   11  C8  UNL     1     -35.797  14.535  -7.918  1.00 20.00     0.005 C 
ENDBRANCH   8  10
ENDBRANCH   4   5
BRANCH   4  12
HETATM   12  O12 UNL     1     -32.025  14.641  -3.761  1.00 20.00    -0.394 OA
HETATM   13  H30 UNL     1     -31.311  14.884  -4.368  1.00 20.00     0.210 HD
ENDBRANCH   4  12
ENDBRANCH   3   4
TORSDOF 4
ENDMDL
MODEL 5
REMARK VINA RESULT:      -4.6      0.959      1.485
REMARK  4 active torsions:
REMARK  status: ('A' for Active; 'I' for Inactive)
REMARK    1  A    between atoms: C6_6  and  C10_10 
REMARK    2  A    between atoms: C7_7  and  C11_11 
REMARK    3  A    between atoms: C9_9  and  C11_11 
REMARK    4  A    between atoms: C11_11  and  O12_12 
ROOT
HETATM    1  C1  UNL     1     -35.322  15.938  -7.836  1.00 20.00     0.012 C 
HETATM    2  C2  UNL     1     -35.120  14.984  -7.133  1.00 20.00    -0.115 C 
HETATM    3  C9  UNL     1     -34.872  13.815  -6.275  1.00 20.00     0.125 C 
ENDROOT
BRANCH   3   4
HETATM    4  C11 UNL     1     -35.518  13.982  -4.897  1.00 20.00     0.133 C 
BRANCH   4   5
HETATM    5  C7  UNL     1     -34.994  15.220  -4.188  1.00 20.00     0.015 C 
HETATM    6  C4  UNL     1     -33.528  15.096  -3.777  1.00 20.00     0.007 C 
HETATM    7  C3  UNL     1     -33.398  16.127  -2.668  1.00 20.00     0.005 C 
HETATM    8  C6  UNL     1     -34.673  15.913  -1.854  1.00 20.00    -0.014 C 
HETATM    9  C5  UNL     1     -35.746  15.541  -2.888  1.00 20.00     0.012 C 
BRANCH   8  10
HETATM   10  C10 UNL     1     -35.046  17.119  -1.007  1.00 20.00     0.000 C 
HETATM   11  C8  UNL     1     -33.838  17.814  -0.463  1.00 20.00     0.005 C 
ENDBRANCH   8  10
ENDBRANCH   4   5
BRANCH   4  12
HETATM   12  O12 UNL     1     -35.206  12.835  -4.105  1.00 20.00    -0.394 OA
HETATM   13  H30 UNL     1     -34.586  12.304  -4.625  1.00 20.00     0.210 HD
ENDBRANCH   4  12
ENDBRANCH   3   4
TORSDOF 4
ENDMDL
MODEL 6
REMARK VINA RESULT:      -4.6      1.748      5.122
REMARK  4 active torsions:
REMARK  status: ('A' for Active; 'I' for Inactive)
REMARK    1  A    between atoms: C6_6  and  C10_10 
REMARK    2  A    between atoms: C7_7  and  C11_11 
REMARK    3  A    between atoms: C9_9  and  C11_11 
REMARK    4  A    between atoms: C11_11  and  O12_12 
ROOT
HETATM    1  C1  UNL     1     -33.686  18.131   0.056  1.00 20.00     0.012 C 
HETATM    2  C2  UNL     1     -33.763  17.445  -0.927  1.00 20.00    -0.115 C 
HETATM    3  C9  UNL     1     -33.854  16.605  -2.132  1.00 20.00     0.125 C 
ENDROOT
BRANCH   3   4
HETATM    4  C11 UNL     1     -35.195  15.868  -2.204  1.00 20.00     0.133 C 
BRANCH   4   5
HETATM    5  C7  UNL     1     -35.377  15.183  -3.548  1.00 20.00     0.015 C 
HETATM    6  C4  UNL     1     -34.606  13.868  -3.655  1.00 20.00     0.007 C 
HETATM    7  C3  UNL     1     -34.480  13.672  -5.158  1.00 20.00     0.005 C 
HETATM    8  C6  UNL     1     -34.120  15.071  -5.655  1.00 20.00    -0.014 C 
HETATM    9  C5  UNL     1     -34.889  16.029  -4.733  1.00 20.00     0.012 C 
BRANCH   8  10
HETATM   10  C10 UNL     1     -34.430  15.275  -7.128  1.00 20.00     0.000 C 
HETATM   11  C8  UNL     1     -35.563  14.411  -7.585  1.00 20.00     0.005 C 
ENDBRANCH   8  10
ENDBRANCH   4   5
BRANCH   4  12
HETATM   12  O12 UNL     1     -36.246  16.817  -2.027  1.00 20.00    -0.394 OA
HETATM   13  H30 UNL     1     -35.899  17.505  -1.441  1.00 20.00     0.210 HD
ENDBRANCH   4  12
ENDBRANCH   3   4
TORSDOF 4
ENDMDL
MODEL 7
REMARK VINA RESULT:      -4.4      1.867      5.440
REMARK  4 active torsions:
REMARK  status: ('A' for Active; 'I' for Inactive)
REMARK    1  A    between atoms: C6_6  and  C10_10 
REMARK    2  A    between atoms: C7_7  and  C11_11 
REMARK    3  A    between atoms: C9_9  and  C11_11 
REMARK    4  A    between atoms: C11_11  and  O12_12 
ROOT
HETATM    1  C1  UNL     1     -34.448  18.362   1.346  1.00 20.00     0.012 C 
HETATM    2  C2  UNL     1     -34.092  17.982   0.264  1.00 20.00    -0.115 C 
HETATM    3  C9  UNL     1     -33.653  17.518  -1.063  1.00 20.00     0.125 C 
ENDROOT
BRANCH   3   4
HETATM    4  C11 UNL     1     -34.448  16.291  -1.520  1.00 20.00     0.133 C 
BRANCH   4   5
HETATM    5  C7  UNL     1     -33.977  15.803  -2.879  1.00 20.00     0.015 C 
HETATM    6  C4  UNL     1     -33.613  16.943  -3.829  1.00 20.00     0.007 C 
HETATM    7  C3  UNL     1     -33.718  16.291  -5.198  1.00 20.00     0.005 C 
HETATM    8  C6  UNL     1     -35.002  15.470  -5.087  1.00 20.00    -0.014 C 
HETATM    9  C5  UNL     1     -35.034  14.980  -3.631  1.00 20.00     0.012 C 
BRANCH   8  10
HETATM   10  C10 UNL     1     -35.075  14.343  -6.103  1.00 20.00     0.000 C 
HETATM   11  C8  UNL     1     -34.588  14.773  -7.451  1.00 20.00     0.005 C 
ENDBRANCH   8  10
ENDBRANCH   4   5
BRANCH   4  12
HETATM   12  O12 UNL     1     -35.827  16.651  -1.616  1.00 20.00    -0.394 OA
HETATM   13  H30 UNL     1     -36.186  16.162  -2.370  1.00 20.00     0.210 HD
ENDBRANCH   4  12
ENDBRANCH   3   4
TORSDOF 4
ENDMDL
MODEL 8
REMARK VINA RESULT:      -4.4      1.411      4.869
REMARK  4 active torsions:
REMARK  status: ('A' for Active; 'I' for Inactive)
REMARK    1  A    between atoms: C6_6  and  C10_10 
REMARK    2  A    between atoms: C7_7  and  C11_11 
REMARK    3  A    between atoms: C9_9  and  C11_11 
REMARK    4  A    between atoms: C11_11  and  O12_12 
ROOT
HETATM    1  C1  UNL     1     -34.072  16.998  -1.144  1.00 20.00     0.012 C 
HETATM    2  C2  UNL     1     -34.534  16.216  -1.930  1.00 20.00    -0.115 C 
HETATM    3  C9  UNL     1     -35.103  15.258  -2.892  1.00 20.00     0.125 C 
ENDROOT
BRANCH   3   4
HETATM    4  C11 UNL     1     -34.006  14.502  -3.648  1.00 20.00     0.133 C 
BRANCH   4   5
HETATM    5  C7  UNL     1     -34.134  14.700  -5.149  1.00 20.00     0.015 C 
HETATM    6  C4  UNL     1     -33.682  16.085  -5.608  1.00 20.00     0.007 C 
HETATM    7  C3  UNL     1     -34.386  16.244  -6.947  1.00 20.00     0.005 C 
HETATM    8  C6  UNL     1     -35.787  15.707  -6.661  1.00 20.00    -0.014 C 
HETATM    9  C5  UNL     1     -35.576  14.560  -5.660  1.00 20.00     0.012 C 
BRANCH   8  10
HETATM   10  C10 UNL     1     -36.526  15.279  -7.918  1.00 20.00     0.000 C 
HETATM   11  C8  UNL     1     -37.977  15.028  -7.654  1.00 20.00     0.005 C 
ENDBRANCH   8  10
ENDBRANCH   4   5
BRANCH   4  12
HETATM   12  O12 UNL     1     -34.129  13.110  -3.357  1.00 20.00    -0.394 OA
HETATM   13  H30 UNL     1     -34.167  13.034  -2.393  1.00 20.00     0.210 HD
ENDBRANCH   4  12
ENDBRANCH   3   4
TORSDOF 4
ENDMDL
MODEL 9
REMARK VINA RESULT:      -4.2      1.991      2.413
REMARK  4 active torsions:
REMARK  status: ('A' for Active; 'I' for Inactive)
REMARK    1  A    between atoms: C6_6  and  C10_10 
REMARK    2  A    between atoms: C7_7  and  C11_11 
REMARK    3  A    between atoms: C9_9  and  C11_11 
REMARK    4  A    between atoms: C11_11  and  O12_12 
ROOT
HETATM    1  C1  UNL     1     -37.217  15.300  -5.773  1.00 20.00     0.012 C 
HETATM    2  C2  UNL     1     -36.040  15.529  -5.855  1.00 20.00    -0.115 C 
HETATM    3  C9  UNL     1     -34.599  15.810  -5.959  1.00 20.00     0.125 C 
ENDROOT
BRANCH   3   4
HETATM    4  C11 UNL     1     -33.892  15.626  -4.613  1.00 20.00     0.133 C 
BRANCH   4   5
HETATM    5  C7  UNL     1     -34.458  16.564  -3.560  1.00 20.00     0.015 C 
HETATM    6  C4  UNL     1     -33.651  17.853  -3.416  1.00 20.00     0.007 C 
HETATM    7  C3  UNL     1     -34.028  18.334  -2.024  1.00 20.00     0.005 C 
HETATM    8  C6  UNL     1     -33.991  17.049  -1.198  1.00 20.00    -0.014 C 
HETATM    9  C5  UNL     1     -34.485  15.951  -2.151  1.00 20.00     0.012 C 
BRANCH   8  10
HETATM   10  C10 UNL     1     -34.802  17.144   0.083  1.00 20.00     0.000 C 
HETATM   11  C8  UNL     1     -35.858  18.200  -0.002  1.00 20.00     0.005 C 
ENDBRANCH   8  10
ENDBRANCH   4   5
BRANCH   4  12
HETATM   12  O12 UNL     1     -32.504  15.913  -4.785  1.00 20.00    -0.394 OA
HETATM   13  H30 UNL     1     -32.415  16.876  -4.730  1.00 20.00     0.210 HD
ENDBRANCH   4  12
ENDBRANCH   3   4
TORSDOF 4
ENDMDL
