MODEL 1
REMARK VINA RESULT:      -4.4      0.000      0.000
REMARK  3 active torsions:
REMARK  status: ('A' for Active; 'I' for Inactive)
REMARK    1  A    between atoms: C5_5  and  C7_7 
REMARK    2  A    between atoms: C6_6  and  C8_8 
REMARK    3  A    between atoms: C7_7  and  C8_8 
ROOT
HETATM    1  C1  UNL     1     -34.653  13.788  -4.185  1.00 20.00     0.069 C 
HETATM    2  C4  UNL     1     -32.621  15.068  -3.684  1.00 20.00     0.031 C 
HETATM    3  C8  UNL     1     -34.155  15.137  -3.818  1.00 20.00     0.045 C 
HETATM    4  N9  UNL     1     -35.042  12.732  -4.473  1.00 20.00    -0.196 NA
ENDROOT
BRANCH   3   5
HETATM    5  C6  UNL     1     -34.482  16.134  -4.966  1.00 20.00     0.020 C 
HETATM    6  C3  UNL     1     -34.111  15.672  -6.373  1.00 20.00     0.007 C 
ENDBRANCH   3   5
BRANCH   3   7
HETATM    7  C7  UNL     1     -34.813  15.599  -2.489  1.00 20.00     0.024 C 
BRANCH   7   8
HETATM    8  C5  UNL     1     -34.046  16.681  -1.715  1.00 20.00    -0.003 C 
HETATM    9  C2  UNL     1     -34.714  16.982  -0.379  1.00 20.00     0.005 C 
ENDBRANCH   7   8
ENDBRANCH   3   7
TORSDOF 3
ENDMDL
MODEL 2
REMARK VINA RESULT:      -4.2      1.456      1.811
REMARK  3 active torsions:
REMARK  status: ('A' for Active; 'I' for Inactive)
REMARK    1  A    between atoms: C5_5  and  C7_7 
REMARK    2  A    between atoms: C6_6  and  C8_8 
REMARK    3  A    between atoms: C7_7  and  C8_8 
ROOT
HETATM    1  C1  UNL     1     -36.505  14.404  -4.035  1.00 20.00     0.069 C 
HETATM    2  C4  UNL     1     -34.627  13.093  -4.916  1.00 20.00     0.031 C 
HETATM    3  C8  UNL     1     -35.055  14.460  -4.345  1.00 20.00     0.045 C 
HETATM    4  N9  UNL     1     -37.640  14.361  -3.793  1.00 20.00    -0.196 NA
ENDROOT
BRANCH   3   5
HETATM    5  C6  UNL     1     -34.806  15.528  -5.447  1.00 20.00     0.020 C 
HETATM    6  C3  UNL     1     -34.495  14.985  -6.840  1.00 20.00     0.007 C 
ENDBRANCH   3   5
BRANCH   3   7
HETATM    7  C7  UNL     1     -34.253  14.805  -3.059  1.00 20.00     0.024 C 
BRANCH   7   8
HETATM    8  C5  UNL     1     -34.250  16.288  -2.661  1.00 20.00    -0.003 C 
HETATM    9  C2  UNL     1     -34.636  16.467  -1.199  1.00 20.00     0.005 C 
ENDBRANCH   7   8
ENDBRANCH   3   7
TORSDOF 3
ENDMDL
MODEL 3
REMARK VINA RESULT:      -4.1     11.630     12.685
REMARK  3 active torsions:
REMARK  status: ('A' for Active; 'I' for Inactive)
REMARK    1  A    between atoms: C5_5  and  C7_7 
REMARK    2  A    between atoms: C6_6  and  C8_8 
REMARK    3  A    between atoms: C7_7  and  C8_8 
ROOT
HETATM    1  C1  UNL     1     -34.774   4.421   4.745  1.00 20.00     0.069 C 
HETATM    2  C4  UNL     1     -35.930   6.073   3.347  1.00 20.00     0.031 C 
HETATM    3  C8  UNL     1     -34.600   5.715   4.040  1.00 20.00     0.045 C 
HETATM    4  N9  UNL     1     -34.911   3.408   5.297  1.00 20.00    -0.196 NA
ENDROOT
BRANCH   3   5
HETATM    5  C6  UNL     1     -34.298   6.830   5.080  1.00 20.00     0.020 C 
HETATM    6  C3  UNL     1     -34.077   6.357   6.515  1.00 20.00     0.007 C 
ENDBRANCH   3   5
BRANCH   3   7
HETATM    7  C7  UNL     1     -33.445   5.602   3.007  1.00 20.00     0.024 C 
BRANCH   7   8
HETATM    8  C5  UNL     1     -32.206   6.460   3.308  1.00 20.00    -0.003 C 
HETATM    9  C2  UNL     1     -32.154   7.687   2.408  1.00 20.00     0.005 C 
ENDBRANCH   7   8
ENDBRANCH   3   7
TORSDOF 3
ENDMDL
MODEL 4
REMARK VINA RESULT:      -4.0      1.405      2.100
REMARK  3 active torsions:
REMARK  status: ('A' for Active; 'I' for Inactive)
REMARK    1  A    between atoms: C5_5  and  C7_7 
REMARK    2  A    between atoms: C6_6  and  C8_8 
REMARK    3  A    between atoms: C7_7  and  C8_8 
ROOT
HETATM    1  C1  UNL     1     -34.973  13.781  -4.228  1.00 20.00     0.069 C 
HETATM    2  C4  UNL     1     -35.008  16.110  -4.999  1.00 20.00     0.031 C 
HETATM    3  C8  UNL     1     -35.155  15.183  -3.776  1.00 20.00     0.045 C 
HETATM    4  N9  UNL     1     -34.830  12.684  -4.581  1.00 20.00    -0.196 NA
ENDROOT
BRANCH   3   5
HETATM    5  C6  UNL     1     -36.598  15.361  -3.223  1.00 20.00     0.020 C 
HETATM    6  C3  UNL     1     -37.714  14.767  -4.077  1.00 20.00     0.007 C 
ENDBRANCH   3   5
BRANCH   3   7
HETATM    7  C7  UNL     1     -34.105  15.527  -2.684  1.00 20.00     0.024 C 
BRANCH   7   8
HETATM    8  C5  UNL     1     -34.644  16.296  -1.469  1.00 20.00    -0.003 C 
HETATM    9  C2  UNL     1     -33.724  17.450  -1.094  1.00 20.00     0.005 C 
ENDBRANCH   7   8
ENDBRANCH   3   7
TORSDOF 3
ENDMDL
MODEL 5
REMARK VINA RESULT:      -4.0      1.919      3.980
REMARK  3 active torsions:
REMARK  status: ('A' for Active; 'I' for Inactive)
REMARK    1  A    between atoms: C5_5  and  C7_7 
REMARK    2  A    between atoms: C6_6  and  C8_8 
REMARK    3  A    between atoms: C7_7  and  C8_8 
ROOT
HETATM    1  C1  UNL     1     -37.149  14.604  -3.839  1.00 20.00     0.069 C 
HETATM    2  C4  UNL     1     -35.258  15.675  -2.698  1.00 20.00     0.031 C 
HETATM    3  C8  UNL     1     -35.700  14.902  -3.957  1.00 20.00     0.045 C 
HETATM    4  N9  UNL     1     -38.282  14.370  -3.745  1.00 20.00    -0.196 NA
ENDROOT
BRANCH   3   5
HETATM    5  C6  UNL     1     -34.902  13.568  -3.993  1.00 20.00     0.020 C 
HETATM    6  C3  UNL     1     -33.395  13.690  -3.782  1.00 20.00     0.007 C 
ENDBRANCH   3   5
BRANCH   3   7
HETATM    7  C7  UNL     1     -35.435  15.733  -5.244  1.00 20.00     0.024 C 
BRANCH   7   8
HETATM    8  C5  UNL     1     -35.832  15.052  -6.562  1.00 20.00    -0.003 C 
HETATM    9  C2  UNL     1     -34.637  14.918  -7.495  1.00 20.00     0.005 C 
ENDBRANCH   7   8
ENDBRANCH   3   7
TORSDOF 3
ENDMDL
MODEL 6
REMARK VINA RESULT:      -3.9      1.127      3.743
REMARK  3 active torsions:
REMARK  status: ('A' for Active; 'I' for Inactive)
REMARK    1  A    between atoms: C5_5  and  C7_7 
REMARK    2  A    between atoms: C6_6  and  C8_8 
REMARK    3  A    between atoms: C7_7  and  C8_8 
ROOT
HETATM    1  C1  UNL     1     -34.189  14.268  -3.606  1.00 20.00     0.069 C 
HETATM    2  C4  UNL     1     -35.744  16.151  -3.848  1.00 20.00     0.031 C 
HETATM    3  C8  UNL     1     -34.261  15.746  -3.728  1.00 20.00     0.045 C 
HETATM    4  N9  UNL     1     -34.133  13.112  -3.511  1.00 20.00    -0.196 NA
ENDROOT
BRANCH   3   5
HETATM    5  C6  UNL     1     -33.700  16.395  -2.430  1.00 20.00     0.020 C 
HETATM    6  C3  UNL     1     -34.655  16.432  -1.240  1.00 20.00     0.007 C 
ENDBRANCH   3   5
BRANCH   3   7
HETATM    7  C7  UNL     1     -33.451  16.214  -4.968  1.00 20.00     0.024 C 
BRANCH   7   8
HETATM    8  C5  UNL     1     -34.272  16.437  -6.246  1.00 20.00    -0.003 C 
HETATM    9  C2  UNL     1     -34.300  15.183  -7.109  1.00 20.00     0.005 C 
ENDBRANCH   7   8
ENDBRANCH   3   7
TORSDOF 3
ENDMDL
MODEL 7
REMARK VINA RESULT:      -3.9      1.818      2.520
REMARK  3 active torsions:
REMARK  status: ('A' for Active; 'I' for Inactive)
REMARK    1  A    between atoms: C5_5  and  C7_7 
REMARK    2  A    between atoms: C6_6  and  C8_8 
REMARK    3  A    between atoms: C7_7  and  C8_8 
ROOT
HETATM    1  C1  UNL     1     -33.926  16.240  -4.662  1.00 20.00     0.069 C 
HETATM    2  C4  UNL     1     -35.946  15.608  -3.421  1.00 20.00     0.031 C 
HETATM    3  C8  UNL     1     -34.405  15.547  -3.440  1.00 20.00     0.045 C 
HETATM    4  N9  UNL     1     -33.551  16.782  -5.618  1.00 20.00    -0.196 NA
ENDROOT
BRANCH   3   5
HETATM    5  C6  UNL     1     -33.996  14.048  -3.506  1.00 20.00     0.020 C 
HETATM    6  C3  UNL     1     -34.528  13.267  -4.705  1.00 20.00     0.007 C 
ENDBRANCH   3   5
BRANCH   3   7
HETATM    7  C7  UNL     1     -33.803  16.223  -2.178  1.00 20.00     0.024 C 
BRANCH   7   8
HETATM    8  C5  UNL     1     -34.801  16.523  -1.050  1.00 20.00    -0.003 C 
HETATM    9  C2  UNL     1     -34.266  17.597  -0.112  1.00 20.00     0.005 C 
ENDBRANCH   7   8
ENDBRANCH   3   7
TORSDOF 3
ENDMDL
MODEL 8
REMARK VINA RESULT:      -3.8      1.947      3.593
REMARK  3 active torsions:
REMARK  status: ('A' for Active; 'I' for Inactive)
REMARK    1  A    between atoms: C5_5  and  C7_7 
REMARK    2  A    between atoms: C6_6  and  C8_8 
REMARK    3  A    between atoms: C7_7  and  C8_8 
ROOT
HETATM    1  C1  UNL     1     -34.504  16.117  -1.994  1.00 20.00     0.069 C 
HETATM    2  C4  UNL     1     -32.991  14.966  -3.545  1.00 20.00     0.031 C 
HETATM    3  C8  UNL     1     -34.373  15.631  -3.390  1.00 20.00     0.045 C 
HETATM    4  N9  UNL     1     -34.607  16.497  -0.901  1.00 20.00    -0.196 NA
ENDROOT
BRANCH   3   5
HETATM    5  C6  UNL     1     -35.451  14.541  -3.658  1.00 20.00     0.020 C 
HETATM    6  C3  UNL     1     -34.965  13.295  -4.392  1.00 20.00     0.007 C 
ENDBRANCH   3   5
BRANCH   3   7
HETATM    7  C7  UNL     1     -34.538  16.817  -4.380  1.00 20.00     0.024 C 
BRANCH   7   8
HETATM    8  C5  UNL     1     -33.609  16.790  -5.602  1.00 20.00    -0.003 C 
HETATM    9  C2  UNL     1     -34.318  16.214  -6.821  1.00 20.00     0.005 C 
ENDBRANCH   7   8
ENDBRANCH   3   7
TORSDOF 3
ENDMDL
MODEL 9
REMARK VINA RESULT:      -3.7      2.162      3.940
REMARK  3 active torsions:
REMARK  status: ('A' for Active; 'I' for Inactive)
REMARK    1  A    between atoms: C5_5  and  C7_7 
REMARK    2  A    between atoms: C6_6  and  C8_8 
REMARK    3  A    between atoms: C7_7  and  C8_8 
ROOT
HETATM    1  C1  UNL     1     -35.540  17.186  -3.529  1.00 20.00     0.069 C 
HETATM    2  C4  UNL     1     -33.306  16.504  -4.281  1.00 20.00     0.031 C 
HETATM    3  C8  UNL     1     -34.370  16.344  -3.177  1.00 20.00     0.045 C 
HETATM    4  N9  UNL     1     -36.455  17.844  -3.805  1.00 20.00    -0.196 NA
ENDROOT
BRANCH   3   5
HETATM    5  C6  UNL     1     -33.748  16.859  -1.848  1.00 20.00     0.020 C 
HETATM    6  C3  UNL     1     -34.644  16.767  -0.616  1.00 20.00     0.007 C 
ENDBRANCH   3   5
BRANCH   3   7
HETATM    7  C7  UNL     1     -34.809  14.860  -3.035  1.00 20.00     0.024 C 
BRANCH   7   8
HETATM    8  C5  UNL     1     -33.928  13.838  -3.768  1.00 20.00    -0.003 C 
HETATM    9  C2  UNL     1     -34.698  13.148  -4.886  1.00 20.00     0.005 C 
ENDBRANCH   7   8
ENDBRANCH   3   7
TORSDOF 3
ENDMDL
