MODEL 1
REMARK VINA RESULT:      -4.9      0.000      0.000
REMARK  3 active torsions:
REMARK  status: ('A' for Active; 'I' for Inactive)
REMARK    1  A    between atoms: C1_1  and  C7_7 
REMARK    2  A    between atoms: C1_1  and  C8_8 
REMARK    3  A    between atoms: C9_9  and  C11_11 
ROOT
HETATM    1  C4  UNL     1     -33.784  14.398  -3.688  1.00 20.00     0.013 C 
HETATM    2  C5  UNL     1     -33.248  15.824  -3.718  1.00 20.00     0.005 C 
HETATM    3  C6  UNL     1     -35.523  15.793  -2.799  1.00 20.00     0.016 C 
HETATM    4  C8  UNL     1     -35.302  14.569  -3.696  1.00 20.00     0.056 C 
HETATM    5  C9  UNL     1     -34.259  16.644  -2.922  1.00 20.00    -0.014 C 
ENDROOT
BRANCH   4   6
HETATM    6  C1  UNL     1     -35.852  14.788  -5.104  1.00 20.00     0.135 C 
HETATM    7  O12 UNL     1     -36.884  15.429  -5.302  1.00 20.00    -0.297 OA
BRANCH   6   8
HETATM    8  C7  UNL     1     -35.070  14.183  -6.239  1.00 20.00     0.056 A 
HETATM    9  C2  UNL     1     -35.595  14.349  -7.620  1.00 20.00     0.013 A 
HETATM   10  C3  UNL     1     -34.376  15.102  -7.178  1.00 20.00     0.013 A 
ENDBRANCH   6   8
ENDBRANCH   4   6
BRANCH   5  11
HETATM   11  C11 UNL     1     -33.694  16.896  -1.536  1.00 20.00     0.000 C 
HETATM   12  C10 UNL     1     -34.750  16.819  -0.478  1.00 20.00     0.005 C 
ENDBRANCH   5  11
TORSDOF 3
ENDMDL
MODEL 2
REMARK VINA RESULT:      -4.7      1.274      4.843
REMARK  3 active torsions:
REMARK  status: ('A' for Active; 'I' for Inactive)
REMARK    1  A    between atoms: C1_1  and  C7_7 
REMARK    2  A    between atoms: C1_1  and  C8_8 
REMARK    3  A    between atoms: C9_9  and  C11_11 
ROOT
HETATM    1  C4  UNL     1     -33.503  15.136  -3.411  1.00 20.00     0.013 C 
HETATM    2  C5  UNL     1     -34.463  13.993  -3.718  1.00 20.00     0.005 C 
HETATM    3  C6  UNL     1     -35.224  16.056  -4.807  1.00 20.00     0.016 C 
HETATM    4  C8  UNL     1     -34.349  16.394  -3.594  1.00 20.00     0.056 C 
HETATM    5  C9  UNL     1     -35.392  14.536  -4.800  1.00 20.00    -0.014 C 
ENDROOT
BRANCH   4   6
HETATM    6  C1  UNL     1     -35.188  16.713  -2.357  1.00 20.00     0.135 C 
HETATM    7  O12 UNL     1     -36.360  17.074  -2.448  1.00 20.00    -0.297 OA
BRANCH   6   8
HETATM    8  C7  UNL     1     -34.510  16.563  -1.022  1.00 20.00     0.056 A 
HETATM    9  C2  UNL     1     -33.700  17.702  -0.515  1.00 20.00     0.013 A 
HETATM   10  C3  UNL     1     -35.019  17.373   0.115  1.00 20.00     0.013 A 
ENDBRANCH   6   8
ENDBRANCH   4   6
BRANCH   5  11
HETATM   11  C11 UNL     1     -34.949  13.982  -6.142  1.00 20.00     0.000 C 
HETATM   12  C10 UNL     1     -34.561  15.069  -7.095  1.00 20.00     0.005 C 
ENDBRANCH   5  11
TORSDOF 3
ENDMDL
MODEL 3
REMARK VINA RESULT:      -4.6      2.344      4.989
REMARK  3 active torsions:
REMARK  status: ('A' for Active; 'I' for Inactive)
REMARK    1  A    between atoms: C1_1  and  C7_7 
REMARK    2  A    between atoms: C1_1  and  C8_8 
REMARK    3  A    between atoms: C9_9  and  C11_11 
ROOT
HETATM    1  C4  UNL     1     -34.186  16.951  -4.557  1.00 20.00     0.013 C 
HETATM    2  C5  UNL     1     -33.017  15.977  -4.503  1.00 20.00     0.005 C 
HETATM    3  C6  UNL     1     -34.672  15.414  -2.780  1.00 20.00     0.016 C 
HETATM    4  C8  UNL     1     -34.785  16.896  -3.154  1.00 20.00     0.056 C 
HETATM    5  C9  UNL     1     -33.466  14.873  -3.549  1.00 20.00    -0.014 C 
ENDROOT
BRANCH   4   6
HETATM    6  C1  UNL     1     -34.035  17.791  -2.168  1.00 20.00     0.135 C 
HETATM    7  O12 UNL     1     -33.570  18.878  -2.508  1.00 20.00    -0.297 OA
BRANCH   6   8
HETATM    8  C7  UNL     1     -33.893  17.278  -0.760  1.00 20.00     0.056 A 
HETATM    9  C2  UNL     1     -33.765  18.271   0.338  1.00 20.00     0.013 A 
HETATM   10  C3  UNL     1     -35.030  17.483   0.176  1.00 20.00     0.013 A 
ENDBRANCH   6   8
ENDBRANCH   4   6
BRANCH   5  11
HETATM   11  C11 UNL     1     -33.899  13.671  -4.369  1.00 20.00     0.000 C 
HETATM   12  C10 UNL     1     -35.368  13.411  -4.249  1.00 20.00     0.005 C 
ENDBRANCH   5  11
TORSDOF 3
ENDMDL
MODEL 4
REMARK VINA RESULT:      -4.5      1.374      1.906
REMARK  3 active torsions:
REMARK  status: ('A' for Active; 'I' for Inactive)
REMARK    1  A    between atoms: C1_1  and  C7_7 
REMARK    2  A    between atoms: C1_1  and  C8_8 
REMARK    3  A    between atoms: C9_9  and  C11_11 
ROOT
HETATM    1  C4  UNL     1     -33.843  17.280  -4.654  1.00 20.00     0.013 C 
HETATM    2  C5  UNL     1     -34.929  17.273  -3.586  1.00 20.00     0.005 C 
HETATM    3  C6  UNL     1     -33.322  15.464  -3.175  1.00 20.00     0.016 C 
HETATM    4  C8  UNL     1     -33.314  15.848  -4.659  1.00 20.00     0.056 C 
HETATM    5  C9  UNL     1     -34.438  16.287  -2.530  1.00 20.00    -0.014 C 
ENDROOT
BRANCH   4   6
HETATM    6  C1  UNL     1     -34.186  14.911  -5.494  1.00 20.00     0.135 C 
HETATM    7  O12 UNL     1     -34.453  13.770  -5.118  1.00 20.00    -0.297 OA
BRANCH   6   8
HETATM    8  C7  UNL     1     -34.704  15.453  -6.800  1.00 20.00     0.056 A 
HETATM    9  C2  UNL     1     -35.367  14.508  -7.737  1.00 20.00     0.013 A 
HETATM   10  C3  UNL     1     -36.176  15.525  -6.991  1.00 20.00     0.013 A 
ENDBRANCH   6   8
ENDBRANCH   4   6
BRANCH   5  11
HETATM   11  C11 UNL     1     -33.866  17.070  -1.363  1.00 20.00     0.000 C 
HETATM   12  C10 UNL     1     -34.766  17.033  -0.168  1.00 20.00     0.005 C 
ENDBRANCH   5  11
TORSDOF 3
ENDMDL
MODEL 5
REMARK VINA RESULT:      -4.5      1.739      2.443
REMARK  3 active torsions:
REMARK  status: ('A' for Active; 'I' for Inactive)
REMARK    1  A    between atoms: C1_1  and  C7_7 
REMARK    2  A    between atoms: C1_1  and  C8_8 
REMARK    3  A    between atoms: C9_9  and  C11_11 
ROOT
HETATM    1  C4  UNL     1     -35.708  16.695  -2.828  1.00 20.00     0.013 C 
HETATM    2  C5  UNL     1     -34.816  16.126  -1.731  1.00 20.00     0.005 C 
HETATM    3  C6  UNL     1     -33.725  18.046  -2.801  1.00 20.00     0.016 C 
HETATM    4  C8  UNL     1     -34.738  17.414  -3.763  1.00 20.00     0.056 C 
HETATM    5  C9  UNL     1     -33.693  17.146  -1.566  1.00 20.00    -0.014 C 
ENDROOT
BRANCH   4   6
HETATM    6  C1  UNL     1     -34.068  16.459  -4.749  1.00 20.00     0.135 C 
HETATM    7  O12 UNL     1     -32.855  16.486  -4.951  1.00 20.00    -0.297 OA
BRANCH   6   8
HETATM    8  C7  UNL     1     -34.965  15.482  -5.461  1.00 20.00     0.056 A 
HETATM    9  C2  UNL     1     -34.482  14.887  -6.735  1.00 20.00     0.013 A 
HETATM   10  C3  UNL     1     -34.556  14.053  -5.492  1.00 20.00     0.013 A 
ENDBRANCH   6   8
ENDBRANCH   4   6
BRANCH   5  11
HETATM   11  C11 UNL     1     -33.978  17.984  -0.333  1.00 20.00     0.000 C 
HETATM   12  C10 UNL     1     -35.003  17.348   0.552  1.00 20.00     0.005 C 
ENDBRANCH   5  11
TORSDOF 3
ENDMDL
MODEL 6
REMARK VINA RESULT:      -4.2     10.929     12.047
REMARK  3 active torsions:
REMARK  status: ('A' for Active; 'I' for Inactive)
REMARK    1  A    between atoms: C1_1  and  C7_7 
REMARK    2  A    between atoms: C1_1  and  C8_8 
REMARK    3  A    between atoms: C9_9  and  C11_11 
ROOT
HETATM    1  C4  UNL     1     -32.499   5.901   4.813  1.00 20.00     0.013 C 
HETATM    2  C5  UNL     1     -33.891   6.407   5.165  1.00 20.00     0.005 C 
HETATM    3  C6  UNL     1     -33.779   5.817   2.785  1.00 20.00     0.016 C 
HETATM    4  C8  UNL     1     -32.378   6.150   3.311  1.00 20.00     0.056 C 
HETATM    5  C9  UNL     1     -34.745   6.105   3.936  1.00 20.00    -0.014 C 
ENDROOT
BRANCH   4   6
HETATM    6  C1  UNL     1     -31.978   7.590   2.993  1.00 20.00     0.135 C 
HETATM    7  O12 UNL     1     -31.193   8.214   3.705  1.00 20.00    -0.297 OA
BRANCH   6   8
HETATM    8  C7  UNL     1     -32.590   8.206   1.764  1.00 20.00     0.056 A 
HETATM    9  C2  UNL     1     -32.472   9.678   1.585  1.00 20.00     0.013 A 
HETATM   10  C3  UNL     1     -31.676   8.745   0.723  1.00 20.00     0.013 A 
ENDBRANCH   6   8
ENDBRANCH   4   6
BRANCH   5  11
HETATM   11  C11 UNL     1     -35.571   4.863   4.214  1.00 20.00     0.000 C 
HETATM   12  C10 UNL     1     -35.164   4.192   5.488  1.00 20.00     0.005 C 
ENDBRANCH   5  11
TORSDOF 3
ENDMDL
MODEL 7
REMARK VINA RESULT:      -4.2     12.990     13.903
REMARK  3 active torsions:
REMARK  status: ('A' for Active; 'I' for Inactive)
REMARK    1  A    between atoms: C1_1  and  C7_7 
REMARK    2  A    between atoms: C1_1  and  C8_8 
REMARK    3  A    between atoms: C9_9  and  C11_11 
ROOT
HETATM    1  C4  UNL     1     -43.056   4.281  -0.137  1.00 20.00     0.013 C 
HETATM    2  C5  UNL     1     -41.557   4.509   0.004  1.00 20.00     0.005 C 
HETATM    3  C6  UNL     1     -42.321   5.238  -2.211  1.00 20.00     0.016 C 
HETATM    4  C8  UNL     1     -43.280   4.185  -1.645  1.00 20.00     0.056 C 
HETATM    5  C9  UNL     1     -41.167   5.342  -1.214  1.00 20.00    -0.014 C 
ENDROOT
BRANCH   4   6
HETATM    6  C1  UNL     1     -42.977   2.788  -2.187  1.00 20.00     0.135 C 
HETATM    7  O12 UNL     1     -43.417   1.776  -1.644  1.00 20.00    -0.297 OA
BRANCH   6   8
HETATM    8  C7  UNL     1     -42.116   2.713  -3.419  1.00 20.00     0.056 A 
HETATM    9  C2  UNL     1     -41.553   1.390  -3.800  1.00 20.00     0.013 A 
HETATM   10  C3  UNL     1     -42.657   2.004  -4.608  1.00 20.00     0.013 A 
ENDBRANCH   6   8
ENDBRANCH   4   6
BRANCH   5  11
HETATM   11  C11 UNL     1     -41.013   6.789  -0.782  1.00 20.00     0.000 C 
HETATM   12  C10 UNL     1     -42.149   7.639  -1.258  1.00 20.00     0.005 C 
ENDBRANCH   5  11
TORSDOF 3
ENDMDL
MODEL 8
REMARK VINA RESULT:      -4.1      1.692      4.934
REMARK  3 active torsions:
REMARK  status: ('A' for Active; 'I' for Inactive)
REMARK    1  A    between atoms: C1_1  and  C7_7 
REMARK    2  A    between atoms: C1_1  and  C8_8 
REMARK    3  A    between atoms: C9_9  and  C11_11 
ROOT
HETATM    1  C4  UNL     1     -35.633  16.924  -5.132  1.00 20.00     0.013 C 
HETATM    2  C5  UNL     1     -34.513  17.122  -6.146  1.00 20.00     0.005 C 
HETATM    3  C6  UNL     1     -34.641  14.765  -5.473  1.00 20.00     0.016 C 
HETATM    4  C8  UNL     1     -35.233  15.658  -4.376  1.00 20.00     0.056 C 
HETATM    5  C9  UNL     1     -34.074  15.712  -6.532  1.00 20.00    -0.014 C 
ENDROOT
BRANCH   4   6
HETATM    6  C1  UNL     1     -34.224  15.941  -3.265  1.00 20.00     0.135 C 
HETATM    7  O12 UNL     1     -33.146  15.352  -3.207  1.00 20.00    -0.297 OA
BRANCH   6   8
HETATM    8  C7  UNL     1     -34.612  16.978  -2.246  1.00 20.00     0.056 A 
HETATM    9  C2  UNL     1     -34.703  16.562  -0.821  1.00 20.00     0.013 A 
HETATM   10  C3  UNL     1     -33.576  17.435  -1.283  1.00 20.00     0.013 A 
ENDBRANCH   6   8
ENDBRANCH   4   6
BRANCH   5  11
HETATM   11  C11 UNL     1     -34.680  15.368  -7.880  1.00 20.00     0.000 C 
HETATM   12  C10 UNL     1     -35.714  14.291  -7.771  1.00 20.00     0.005 C 
ENDBRANCH   5  11
TORSDOF 3
ENDMDL
MODEL 9
REMARK VINA RESULT:      -4.0      2.101      5.325
REMARK  3 active torsions:
REMARK  status: ('A' for Active; 'I' for Inactive)
REMARK    1  A    between atoms: C1_1  and  C7_7 
REMARK    2  A    between atoms: C1_1  and  C8_8 
REMARK    3  A    between atoms: C9_9  and  C11_11 
ROOT
HETATM    1  C4  UNL     1     -35.703  15.961  -3.094  1.00 20.00     0.013 C 
HETATM    2  C5  UNL     1     -35.402  16.891  -4.262  1.00 20.00     0.005 C 
HETATM    3  C6  UNL     1     -33.347  15.779  -3.509  1.00 20.00     0.016 C 
HETATM    4  C8  UNL     1     -34.368  15.828  -2.366  1.00 20.00     0.056 C 
HETATM    5  C9  UNL     1     -33.966  16.566  -4.665  1.00 20.00    -0.014 C 
ENDROOT
BRANCH   4   6
HETATM    6  C1  UNL     1     -34.105  16.998  -1.418  1.00 20.00     0.135 C 
HETATM    7  O12 UNL     1     -33.318  17.899  -1.707  1.00 20.00    -0.297 OA
BRANCH   6   8
HETATM    8  C7  UNL     1     -34.858  16.996  -0.115  1.00 20.00     0.056 A 
HETATM    9  C2  UNL     1     -34.472  17.991   0.920  1.00 20.00     0.013 A 
HETATM   10  C3  UNL     1     -35.762  18.140   0.172  1.00 20.00     0.013 A 
ENDBRANCH   6   8
ENDBRANCH   4   6
BRANCH   5  11
HETATM   11  C11 UNL     1     -33.997  15.689  -5.903  1.00 20.00     0.000 C 
HETATM   12  C10 UNL     1     -34.749  16.332  -7.026  1.00 20.00     0.005 C 
ENDBRANCH   5  11
TORSDOF 3
ENDMDL
