MODEL 1
REMARK VINA RESULT:      -5.2      0.000      0.000
REMARK  3 active torsions:
REMARK  status: ('A' for Active; 'I' for Inactive)
REMARK    1  A    between atoms: C1_1  and  C7_7 
REMARK    2  A    between atoms: C1_1  and  C9_9 
REMARK    3  A    between atoms: C8_8  and  C9_9 
ROOT
HETATM    1  C1  UNL     1     -32.673   6.392   3.454  1.00 20.00     0.155 C 
HETATM    2  O10 UNL     1     -32.175   5.283   3.271  1.00 20.00    -0.295 OA
ENDROOT
BRANCH   1   3
HETATM    3  C7  UNL     1     -34.028   6.537   4.074  1.00 20.00     0.190 C 
HETATM    4  C3  UNL     1     -34.000   6.355   5.580  1.00 20.00     0.042 C 
HETATM    5  C2  UNL     1     -34.259   4.875   5.735  1.00 20.00     0.029 C 
HETATM    6  C6  UNL     1     -35.210   4.602   4.591  1.00 20.00     0.168 C 
HETATM    7  O11 UNL     1     -34.836   5.490   3.530  1.00 20.00    -0.378 OA
ENDBRANCH   1   3
BRANCH   1   8
HETATM    8  C9  UNL     1     -31.971   7.683   3.074  1.00 20.00     0.085 C 
BRANCH   8   9
HETATM    9  C8  UNL     1     -32.565   8.329   1.835  1.00 20.00    -0.007 A 
HETATM   10  C4  UNL     1     -32.406   9.805   1.601  1.00 20.00     0.005 A 
HETATM   11  C5  UNL     1     -31.668   8.824   0.735  1.00 20.00     0.005 A 
ENDBRANCH   8   9
ENDBRANCH   1   8
TORSDOF 3
ENDMDL
MODEL 2
REMARK VINA RESULT:      -4.7     10.742     12.440
REMARK  3 active torsions:
REMARK  status: ('A' for Active; 'I' for Inactive)
REMARK    1  A    between atoms: C1_1  and  C7_7 
REMARK    2  A    between atoms: C1_1  and  C9_9 
REMARK    3  A    between atoms: C8_8  and  C9_9 
ROOT
HETATM    1  C1  UNL     1     -35.403  13.937  -4.614  1.00 20.00     0.155 C 
HETATM    2  O10 UNL     1     -34.894  12.824  -4.493  1.00 20.00    -0.295 OA
ENDROOT
BRANCH   1   3
HETATM    3  C7  UNL     1     -35.757  14.481  -5.963  1.00 20.00     0.190 C 
HETATM    4  C3  UNL     1     -34.545  14.638  -6.862  1.00 20.00     0.042 C 
HETATM    5  C2  UNL     1     -34.109  16.055  -6.578  1.00 20.00     0.029 C 
HETATM    6  C6  UNL     1     -35.431  16.751  -6.350  1.00 20.00     0.168 C 
HETATM    7  O11 UNL     1     -36.300  15.786  -5.743  1.00 20.00    -0.378 OA
ENDBRANCH   1   3
BRANCH   1   8
HETATM    8  C9  UNL     1     -35.708  14.836  -3.430  1.00 20.00     0.085 C 
BRANCH   8   9
HETATM    9  C8  UNL     1     -34.454  15.303  -2.713  1.00 20.00    -0.007 A 
HETATM   10  C4  UNL     1     -33.968  16.716  -2.880  1.00 20.00     0.005 A 
HETATM   11  C5  UNL     1     -34.553  16.273  -1.568  1.00 20.00     0.005 A 
ENDBRANCH   8   9
ENDBRANCH   1   8
TORSDOF 3
ENDMDL
MODEL 3
REMARK VINA RESULT:      -4.6     11.406     12.025
REMARK  3 active torsions:
REMARK  status: ('A' for Active; 'I' for Inactive)
REMARK    1  A    between atoms: C1_1  and  C7_7 
REMARK    2  A    between atoms: C1_1  and  C9_9 
REMARK    3  A    between atoms: C8_8  and  C9_9 
ROOT
HETATM    1  C1  UNL     1     -33.784  16.167  -4.085  1.00 20.00     0.155 C 
HETATM    2  O10 UNL     1     -32.958  16.669  -4.846  1.00 20.00    -0.295 OA
ENDROOT
BRANCH   1   3
HETATM    3  C7  UNL     1     -35.083  15.633  -4.600  1.00 20.00     0.190 C 
HETATM    4  C3  UNL     1     -35.455  14.303  -3.972  1.00 20.00     0.042 C 
HETATM    5  C2  UNL     1     -34.845  13.308  -4.930  1.00 20.00     0.029 C 
HETATM    6  C6  UNL     1     -35.020  14.006  -6.260  1.00 20.00     0.168 C 
HETATM    7  O11 UNL     1     -34.903  15.410  -6.001  1.00 20.00    -0.378 OA
ENDBRANCH   1   3
BRANCH   1   8
HETATM    8  C9  UNL     1     -33.559  16.050  -2.588  1.00 20.00     0.085 C 
BRANCH   8   9
HETATM    9  C8  UNL     1     -34.264  17.143  -1.805  1.00 20.00    -0.007 A 
HETATM   10  C4  UNL     1     -34.704  16.896  -0.389  1.00 20.00     0.005 A 
HETATM   11  C5  UNL     1     -33.561  17.832  -0.667  1.00 20.00     0.005 A 
ENDBRANCH   8   9
ENDBRANCH   1   8
TORSDOF 3
ENDMDL
MODEL 4
REMARK VINA RESULT:      -4.6     10.704     11.566
REMARK  3 active torsions:
REMARK  status: ('A' for Active; 'I' for Inactive)
REMARK    1  A    between atoms: C1_1  and  C7_7 
REMARK    2  A    between atoms: C1_1  and  C9_9 
REMARK    3  A    between atoms: C8_8  and  C9_9 
ROOT
HETATM    1  C1  UNL     1     -35.773  15.426  -3.039  1.00 20.00     0.155 C 
HETATM    2  O10 UNL     1     -36.902  15.021  -3.313  1.00 20.00    -0.295 OA
ENDROOT
BRANCH   1   3
HETATM    3  C7  UNL     1     -34.558  14.647  -3.434  1.00 20.00     0.190 C 
HETATM    4  C3  UNL     1     -33.798  15.294  -4.576  1.00 20.00     0.042 C 
HETATM    5  C2  UNL     1     -34.418  14.645  -5.790  1.00 20.00     0.029 C 
HETATM    6  C6  UNL     1     -34.705  13.249  -5.287  1.00 20.00     0.168 C 
HETATM    7  O11 UNL     1     -35.024  13.376  -3.895  1.00 20.00    -0.378 OA
ENDBRANCH   1   3
BRANCH   1   8
HETATM    8  C9  UNL     1     -35.522  16.723  -2.292  1.00 20.00     0.085 C 
BRANCH   8   9
HETATM    9  C8  UNL     1     -34.600  16.541  -1.100  1.00 20.00    -0.007 A 
HETATM   10  C4  UNL     1     -33.686  17.656  -0.673  1.00 20.00     0.005 A 
HETATM   11  C5  UNL     1     -34.865  17.282   0.182  1.00 20.00     0.005 A 
ENDBRANCH   8   9
ENDBRANCH   1   8
TORSDOF 3
ENDMDL
MODEL 5
REMARK VINA RESULT:      -4.5     10.964     12.213
REMARK  3 active torsions:
REMARK  status: ('A' for Active; 'I' for Inactive)
REMARK    1  A    between atoms: C1_1  and  C7_7 
REMARK    2  A    between atoms: C1_1  and  C9_9 
REMARK    3  A    between atoms: C8_8  and  C9_9 
ROOT
HETATM    1  C1  UNL     1     -35.760  14.778  -3.890  1.00 20.00     0.155 C 
HETATM    2  O10 UNL     1     -36.702  13.987  -3.846  1.00 20.00    -0.295 OA
ENDROOT
BRANCH   1   3
HETATM    3  C7  UNL     1     -34.610  14.556  -4.821  1.00 20.00     0.190 C 
HETATM    4  C3  UNL     1     -34.102  15.848  -5.434  1.00 20.00     0.042 C 
HETATM    5  C2  UNL     1     -34.910  15.945  -6.706  1.00 20.00     0.029 C 
HETATM    6  C6  UNL     1     -35.043  14.492  -7.105  1.00 20.00     0.168 C 
HETATM    7  O11 UNL     1     -35.102  13.740  -5.886  1.00 20.00    -0.378 OA
ENDBRANCH   1   3
BRANCH   1   8
HETATM    8  C9  UNL     1     -35.687  16.020  -3.020  1.00 20.00     0.085 C 
BRANCH   8   9
HETATM    9  C8  UNL     1     -34.611  15.924  -1.953  1.00 20.00    -0.007 A 
HETATM   10  C4  UNL     1     -33.706  17.093  -1.684  1.00 20.00     0.005 A 
HETATM   11  C5  UNL     1     -34.745  16.700  -0.672  1.00 20.00     0.005 A 
ENDBRANCH   8   9
ENDBRANCH   1   8
TORSDOF 3
ENDMDL
MODEL 6
REMARK VINA RESULT:      -4.4     11.119     12.477
REMARK  3 active torsions:
REMARK  status: ('A' for Active; 'I' for Inactive)
REMARK    1  A    between atoms: C1_1  and  C7_7 
REMARK    2  A    between atoms: C1_1  and  C9_9 
REMARK    3  A    between atoms: C8_8  and  C9_9 
ROOT
HETATM    1  C1  UNL     1     -33.552  15.657  -4.474  1.00 20.00     0.155 C 
HETATM    2  O10 UNL     1     -32.871  16.554  -4.970  1.00 20.00    -0.295 OA
ENDROOT
BRANCH   1   3
HETATM    3  C7  UNL     1     -34.295  14.686  -5.337  1.00 20.00     0.190 C 
HETATM    4  C3  UNL     1     -34.407  15.154  -6.776  1.00 20.00     0.042 C 
HETATM    5  C2  UNL     1     -35.714  15.911  -6.772  1.00 20.00     0.029 C 
HETATM    6  C6  UNL     1     -36.537  15.110  -5.788  1.00 20.00     0.168 C 
HETATM    7  O11 UNL     1     -35.621  14.606  -4.808  1.00 20.00    -0.378 OA
ENDBRANCH   1   3
BRANCH   1   8
HETATM    8  C9  UNL     1     -33.695  15.465  -2.976  1.00 20.00     0.085 C 
BRANCH   8   9
HETATM    9  C8  UNL     1     -34.333  16.660  -2.291  1.00 20.00    -0.007 A 
HETATM   10  C4  UNL     1     -34.721  16.584  -0.841  1.00 20.00     0.005 A 
HETATM   11  C5  UNL     1     -33.563  17.444  -1.264  1.00 20.00     0.005 A 
ENDBRANCH   8   9
ENDBRANCH   1   8
TORSDOF 3
ENDMDL
MODEL 7
REMARK VINA RESULT:      -4.3     10.513     12.586
REMARK  3 active torsions:
REMARK  status: ('A' for Active; 'I' for Inactive)
REMARK    1  A    between atoms: C1_1  and  C7_7 
REMARK    2  A    between atoms: C1_1  and  C9_9 
REMARK    3  A    between atoms: C8_8  and  C9_9 
ROOT
HETATM    1  C1  UNL     1     -33.649  16.149  -3.115  1.00 20.00     0.155 C 
HETATM    2  O10 UNL     1     -34.148  16.267  -1.997  1.00 20.00    -0.295 OA
ENDROOT
BRANCH   1   3
HETATM    3  C7  UNL     1     -33.593  17.307  -4.061  1.00 20.00     0.190 C 
HETATM    4  C3  UNL     1     -34.929  18.012  -4.197  1.00 20.00     0.042 C 
HETATM    5  C2  UNL     1     -35.561  17.291  -5.364  1.00 20.00     0.029 C 
HETATM    6  C6  UNL     1     -34.362  16.988  -6.233  1.00 20.00     0.168 C 
HETATM    7  O11 UNL     1     -33.260  16.767  -5.343  1.00 20.00    -0.378 OA
ENDBRANCH   1   3
BRANCH   1   8
HETATM    8  C9  UNL     1     -33.061  14.844  -3.620  1.00 20.00     0.085 C 
BRANCH   8   9
HETATM    9  C8  UNL     1     -34.077  13.716  -3.643  1.00 20.00    -0.007 A 
HETATM   10  C4  UNL     1     -35.491  13.980  -4.078  1.00 20.00     0.005 A 
HETATM   11  C5  UNL     1     -34.575  13.172  -4.954  1.00 20.00     0.005 A 
ENDBRANCH   8   9
ENDBRANCH   1   8
TORSDOF 3
ENDMDL
MODEL 8
REMARK VINA RESULT:      -4.3     10.811     12.509
REMARK  3 active torsions:
REMARK  status: ('A' for Active; 'I' for Inactive)
REMARK    1  A    between atoms: C1_1  and  C7_7 
REMARK    2  A    between atoms: C1_1  and  C9_9 
REMARK    3  A    between atoms: C8_8  and  C9_9 
ROOT
HETATM    1  C1  UNL     1     -33.876  16.286  -4.785  1.00 20.00     0.155 C 
HETATM    2  O10 UNL     1     -32.649  16.213  -4.844  1.00 20.00    -0.295 OA
ENDROOT
BRANCH   1   3
HETATM    3  C7  UNL     1     -34.632  15.656  -3.658  1.00 20.00     0.190 C 
HETATM    4  C3  UNL     1     -34.189  14.231  -3.385  1.00 20.00     0.042 C 
HETATM    5  C2  UNL     1     -35.124  13.426  -4.256  1.00 20.00     0.029 C 
HETATM    6  C6  UNL     1     -36.398  14.236  -4.181  1.00 20.00     0.168 C 
HETATM    7  O11 UNL     1     -36.002  15.608  -4.066  1.00 20.00    -0.378 OA
ENDBRANCH   1   3
BRANCH   1   8
HETATM    8  C9  UNL     1     -34.709  17.006  -5.829  1.00 20.00     0.085 C 
BRANCH   8   9
HETATM    9  C8  UNL     1     -34.542  16.416  -7.218  1.00 20.00    -0.007 A 
HETATM   10  C4  UNL     1     -34.570  14.926  -7.416  1.00 20.00     0.005 A 
HETATM   11  C5  UNL     1     -35.710  15.771  -7.912  1.00 20.00     0.005 A 
ENDBRANCH   8   9
ENDBRANCH   1   8
TORSDOF 3
ENDMDL
MODEL 9
REMARK VINA RESULT:      -4.3     10.849     12.253
REMARK  3 active torsions:
REMARK  status: ('A' for Active; 'I' for Inactive)
REMARK    1  A    between atoms: C1_1  and  C7_7 
REMARK    2  A    between atoms: C1_1  and  C9_9 
REMARK    3  A    between atoms: C8_8  and  C9_9 
ROOT
HETATM    1  C1  UNL     1     -34.126  16.704  -4.767  1.00 20.00     0.155 C 
HETATM    2  O10 UNL     1     -32.975  16.926  -5.141  1.00 20.00    -0.295 OA
ENDROOT
BRANCH   1   3
HETATM    3  C7  UNL     1     -34.758  17.526  -3.689  1.00 20.00     0.190 C 
HETATM    4  C3  UNL     1     -33.748  18.032  -2.676  1.00 20.00     0.042 C 
HETATM    5  C2  UNL     1     -33.757  16.940  -1.633  1.00 20.00     0.029 C 
HETATM    6  C6  UNL     1     -35.204  16.503  -1.648  1.00 20.00     0.168 C 
HETATM    7  O11 UNL     1     -35.662  16.661  -2.997  1.00 20.00    -0.378 OA
ENDBRANCH   1   3
BRANCH   1   8
HETATM    8  C9  UNL     1     -34.984  15.600  -5.356  1.00 20.00     0.085 C 
BRANCH   8   9
HETATM    9  C8  UNL     1     -34.373  14.223  -5.170  1.00 20.00    -0.007 A 
HETATM   10  C4  UNL     1     -33.761  13.838  -3.852  1.00 20.00     0.005 A 
HETATM   11  C5  UNL     1     -35.051  13.206  -4.294  1.00 20.00     0.005 A 
ENDBRANCH   8   9
ENDBRANCH   1   8
TORSDOF 3
ENDMDL
