MODEL 1
REMARK VINA RESULT:      -4.6      0.000      0.000
REMARK  3 active torsions:
REMARK  status: ('A' for Active; 'I' for Inactive)
REMARK    1  A    between atoms: C1_1  and  C5_5 
REMARK    2  A    between atoms: C1_1  and  C9_9 
REMARK    3  A    between atoms: C6_6  and  C10_10 
ROOT
HETATM    1  C2  UNL     1     -34.791  16.617  -5.016  1.00 20.00     0.012 C 
HETATM    2  C3  UNL     1     -33.414  16.604  -4.362  1.00 20.00     0.005 C 
HETATM    3  C4  UNL     1     -34.943  15.111  -3.156  1.00 20.00     0.016 C 
HETATM    4  C5  UNL     1     -35.413  15.285  -4.604  1.00 20.00     0.056 C 
HETATM    5  C6  UNL     1     -33.606  15.848  -3.052  1.00 20.00    -0.014 C 
ENDROOT
BRANCH   4   6
HETATM    6  C1  UNL     1     -34.957  14.131  -5.495  1.00 20.00     0.130 C 
HETATM    7  O11 UNL     1     -34.860  12.988  -5.052  1.00 20.00    -0.298 OA
BRANCH   6   8
HETATM    8  C9  UNL     1     -34.637  14.485  -6.936  1.00 20.00     0.074 C 
HETATM    9  C7  UNL     1     -35.871  14.517  -7.818  1.00 20.00     0.013 C 
ENDBRANCH   6   8
ENDBRANCH   4   6
BRANCH   5  10
HETATM   10  C10 UNL     1     -33.682  16.854  -1.919  1.00 20.00     0.000 C 
HETATM   11  C8  UNL     1     -34.760  16.514  -0.938  1.00 20.00     0.005 C 
ENDBRANCH   5  10
TORSDOF 3
ENDMDL
MODEL 2
REMARK VINA RESULT:      -4.5      2.104      2.723
REMARK  3 active torsions:
REMARK  status: ('A' for Active; 'I' for Inactive)
REMARK    1  A    between atoms: C1_1  and  C5_5 
REMARK    2  A    between atoms: C1_1  and  C9_9 
REMARK    3  A    between atoms: C6_6  and  C10_10 
ROOT
HETATM    1  C2  UNL     1     -34.583  17.858  -3.296  1.00 20.00     0.012 C 
HETATM    2  C3  UNL     1     -33.710  18.038  -2.059  1.00 20.00     0.005 C 
HETATM    3  C4  UNL     1     -34.879  15.883  -1.969  1.00 20.00     0.016 C 
HETATM    4  C5  UNL     1     -34.743  16.346  -3.423  1.00 20.00     0.056 C 
HETATM    5  C6  UNL     1     -34.108  16.900  -1.125  1.00 20.00    -0.014 C 
ENDROOT
BRANCH   4   6
HETATM    6  C1  UNL     1     -33.552  15.692  -4.121  1.00 20.00     0.130 C 
HETATM    7  O11 UNL     1     -32.816  16.342  -4.861  1.00 20.00    -0.298 OA
BRANCH   6   8
HETATM    8  C9  UNL     1     -33.344  14.214  -3.845  1.00 20.00     0.074 C 
HETATM    9  C7  UNL     1     -34.285  13.332  -4.644  1.00 20.00     0.013 C 
ENDBRANCH   6   8
ENDBRANCH   4   6
BRANCH   5  10
HETATM   10  C10 UNL     1     -35.027  17.453  -0.053  1.00 20.00     0.000 C 
HETATM   11  C8  UNL     1     -34.271  18.175   1.017  1.00 20.00     0.005 C 
ENDBRANCH   5  10
TORSDOF 3
ENDMDL
MODEL 3
REMARK VINA RESULT:      -4.5     11.484     12.796
REMARK  3 active torsions:
REMARK  status: ('A' for Active; 'I' for Inactive)
REMARK    1  A    between atoms: C1_1  and  C5_5 
REMARK    2  A    between atoms: C1_1  and  C9_9 
REMARK    3  A    between atoms: C6_6  and  C10_10 
ROOT
HETATM    1  C2  UNL     1     -33.732   5.489   2.941  1.00 20.00     0.012 C 
HETATM    2  C3  UNL     1     -32.243   5.812   2.995  1.00 20.00     0.005 C 
HETATM    3  C4  UNL     1     -33.565   7.787   3.607  1.00 20.00     0.016 C 
HETATM    4  C5  UNL     1     -34.370   6.512   3.877  1.00 20.00     0.056 C 
HETATM    5  C6  UNL     1     -32.173   7.326   3.169  1.00 20.00    -0.014 C 
ENDROOT
BRANCH   4   6
HETATM    6  C1  UNL     1     -34.290   6.087   5.342  1.00 20.00     0.130 C 
HETATM    7  O11 UNL     1     -33.590   6.702   6.144  1.00 20.00    -0.298 OA
BRANCH   6   8
HETATM    8  C9  UNL     1     -35.117   4.875   5.733  1.00 20.00     0.074 C 
HETATM    9  C7  UNL     1     -34.263   3.671   6.084  1.00 20.00     0.013 C 
ENDBRANCH   6   8
ENDBRANCH   4   6
BRANCH   5  10
HETATM   10  C10 UNL     1     -31.843   7.954   1.828  1.00 20.00     0.000 C 
HETATM   11  C8  UNL     1     -32.451   9.313   1.680  1.00 20.00     0.005 C 
ENDBRANCH   5  10
TORSDOF 3
ENDMDL
MODEL 4
REMARK VINA RESULT:      -4.4     11.233     12.367
REMARK  3 active torsions:
REMARK  status: ('A' for Active; 'I' for Inactive)
REMARK    1  A    between atoms: C1_1  and  C5_5 
REMARK    2  A    between atoms: C1_1  and  C9_9 
REMARK    3  A    between atoms: C6_6  and  C10_10 
ROOT
HETATM    1  C2  UNL     1     -33.146   5.457   2.299  1.00 20.00     0.012 C 
HETATM    2  C3  UNL     1     -34.547   5.954   2.636  1.00 20.00     0.005 C 
HETATM    3  C4  UNL     1     -33.141   5.939   4.647  1.00 20.00     0.016 C 
HETATM    4  C5  UNL     1     -32.265   6.049   3.396  1.00 20.00     0.056 C 
HETATM    5  C6  UNL     1     -34.590   6.009   4.160  1.00 20.00    -0.014 C 
ENDROOT
BRANCH   4   6
HETATM    6  C1  UNL     1     -31.866   7.494   3.104  1.00 20.00     0.130 C 
HETATM    7  O11 UNL     1     -31.431   8.224   3.993  1.00 20.00    -0.298 OA
BRANCH   6   8
HETATM    8  C9  UNL     1     -32.039   7.958   1.669  1.00 20.00     0.074 C 
HETATM    9  C7  UNL     1     -32.424   9.423   1.571  1.00 20.00     0.013 C 
ENDBRANCH   6   8
ENDBRANCH   4   6
BRANCH   5  10
HETATM   10  C10 UNL     1     -35.343   4.794   4.668  1.00 20.00     0.000 C 
HETATM   11  C8  UNL     1     -34.877   4.373   6.026  1.00 20.00     0.005 C 
ENDBRANCH   5  10
TORSDOF 3
ENDMDL
MODEL 5
REMARK VINA RESULT:      -4.4      1.860      4.694
REMARK  3 active torsions:
REMARK  status: ('A' for Active; 'I' for Inactive)
REMARK    1  A    between atoms: C1_1  and  C5_5 
REMARK    2  A    between atoms: C1_1  and  C9_9 
REMARK    3  A    between atoms: C6_6  and  C10_10 
ROOT
HETATM    1  C2  UNL     1     -33.188  16.458  -4.890  1.00 20.00     0.012 C 
HETATM    2  C3  UNL     1     -34.594  16.358  -5.471  1.00 20.00     0.005 C 
HETATM    3  C4  UNL     1     -34.279  14.678  -3.711  1.00 20.00     0.016 C 
HETATM    4  C5  UNL     1     -33.316  15.849  -3.496  1.00 20.00     0.056 C 
HETATM    5  C6  UNL     1     -35.171  15.071  -4.890  1.00 20.00    -0.014 C 
ENDROOT
BRANCH   4   6
HETATM    6  C1  UNL     1     -33.852  16.849  -2.473  1.00 20.00     0.130 C 
HETATM    7  O11 UNL     1     -33.555  18.040  -2.535  1.00 20.00    -0.298 OA
BRANCH   6   8
HETATM    8  C9  UNL     1     -34.758  16.281  -1.396  1.00 20.00     0.074 C 
HETATM    9  C7  UNL     1     -34.761  17.122  -0.132  1.00 20.00     0.013 C 
ENDBRANCH   6   8
ENDBRANCH   4   6
BRANCH   5  10
HETATM   10  C10 UNL     1     -35.100  13.987  -5.949  1.00 20.00     0.000 C 
HETATM   11  C8  UNL     1     -35.267  14.539  -7.330  1.00 20.00     0.005 C 
ENDBRANCH   5  10
TORSDOF 3
ENDMDL
MODEL 6
REMARK VINA RESULT:      -4.4      1.675      2.268
REMARK  3 active torsions:
REMARK  status: ('A' for Active; 'I' for Inactive)
REMARK    1  A    between atoms: C1_1  and  C5_5 
REMARK    2  A    between atoms: C1_1  and  C9_9 
REMARK    3  A    between atoms: C6_6  and  C10_10 
ROOT
HETATM    1  C2  UNL     1     -33.433  14.973  -3.819  1.00 20.00     0.012 C 
HETATM    2  C3  UNL     1     -34.735  14.953  -3.027  1.00 20.00     0.005 C 
HETATM    3  C4  UNL     1     -33.999  17.264  -3.396  1.00 20.00     0.016 C 
HETATM    4  C5  UNL     1     -33.418  16.350  -4.478  1.00 20.00     0.056 C 
HETATM    5  C6  UNL     1     -34.935  16.390  -2.557  1.00 20.00    -0.014 C 
ENDROOT
BRANCH   4   6
HETATM    6  C1  UNL     1     -34.245  16.387  -5.762  1.00 20.00     0.130 C 
HETATM    7  O11 UNL     1     -35.004  17.325  -6.000  1.00 20.00    -0.298 OA
BRANCH   6   8
HETATM    8  C9  UNL     1     -34.071  15.210  -6.704  1.00 20.00     0.074 C 
HETATM    9  C7  UNL     1     -35.377  14.491  -6.989  1.00 20.00     0.013 C 
ENDBRANCH   6   8
ENDBRANCH   4   6
BRANCH   5  10
HETATM   10  C10 UNL     1     -34.528  16.485  -1.099  1.00 20.00     0.000 C 
HETATM   11  C8  UNL     1     -33.630  17.654  -0.843  1.00 20.00     0.005 C 
ENDBRANCH   5  10
TORSDOF 3
ENDMDL
MODEL 7
REMARK VINA RESULT:      -4.4      1.607      4.635
REMARK  3 active torsions:
REMARK  status: ('A' for Active; 'I' for Inactive)
REMARK    1  A    between atoms: C1_1  and  C5_5 
REMARK    2  A    between atoms: C1_1  and  C9_9 
REMARK    3  A    between atoms: C6_6  and  C10_10 
ROOT
HETATM    1  C2  UNL     1     -33.103  15.420  -3.811  1.00 20.00     0.012 C 
HETATM    2  C3  UNL     1     -33.364  16.298  -5.029  1.00 20.00     0.005 C 
HETATM    3  C4  UNL     1     -35.326  14.906  -4.547  1.00 20.00     0.016 C 
HETATM    4  C5  UNL     1     -34.496  15.101  -3.275  1.00 20.00     0.056 C 
HETATM    5  C6  UNL     1     -34.668  15.774  -5.622  1.00 20.00    -0.014 C 
ENDROOT
BRANCH   4   6
HETATM    6  C1  UNL     1     -35.051  16.221  -2.397  1.00 20.00     0.130 C 
HETATM    7  O11 UNL     1     -36.185  16.662  -2.574  1.00 20.00    -0.298 OA
BRANCH   6   8
HETATM    8  C9  UNL     1     -34.124  16.744  -1.314  1.00 20.00     0.074 C 
HETATM    9  C7  UNL     1     -34.866  17.138  -0.050  1.00 20.00     0.013 C 
ENDBRANCH   6   8
ENDBRANCH   4   6
BRANCH   5  10
HETATM   10  C10 UNL     1     -34.342  14.911  -6.825  1.00 20.00     0.000 C 
HETATM   11  C8  UNL     1     -35.572  14.495  -7.568  1.00 20.00     0.005 C 
ENDBRANCH   5  10
TORSDOF 3
ENDMDL
MODEL 8
REMARK VINA RESULT:      -4.3      1.158      1.487
REMARK  3 active torsions:
REMARK  status: ('A' for Active; 'I' for Inactive)
REMARK    1  A    between atoms: C1_1  and  C5_5 
REMARK    2  A    between atoms: C1_1  and  C9_9 
REMARK    3  A    between atoms: C6_6  and  C10_10 
ROOT
HETATM    1  C2  UNL     1     -33.939  16.187  -4.167  1.00 20.00     0.012 C 
HETATM    2  C3  UNL     1     -33.532  15.722  -2.774  1.00 20.00     0.005 C 
HETATM    3  C4  UNL     1     -35.906  16.343  -2.805  1.00 20.00     0.016 C 
HETATM    4  C5  UNL     1     -35.447  15.954  -4.213  1.00 20.00     0.056 C 
HETATM    5  C6  UNL     1     -34.718  16.069  -1.879  1.00 20.00    -0.014 C 
ENDROOT
BRANCH   4   6
HETATM    6  C1  UNL     1     -35.801  14.507  -4.550  1.00 20.00     0.130 C 
HETATM    7  O11 UNL     1     -36.672  13.905  -3.924  1.00 20.00    -0.298 OA
BRANCH   6   8
HETATM    8  C9  UNL     1     -35.018  13.874  -5.686  1.00 20.00     0.074 C 
HETATM    9  C7  UNL     1     -35.439  14.395  -7.048  1.00 20.00     0.013 C 
ENDBRANCH   6   8
ENDBRANCH   4   6
BRANCH   5  10
HETATM   10  C10 UNL     1     -34.390  17.332  -1.107  1.00 20.00     0.000 C 
HETATM   11  C8  UNL     1     -34.908  17.283   0.296  1.00 20.00     0.005 C 
ENDBRANCH   5  10
TORSDOF 3
ENDMDL
MODEL 9
REMARK VINA RESULT:      -4.2      1.707      3.710
REMARK  3 active torsions:
REMARK  status: ('A' for Active; 'I' for Inactive)
REMARK    1  A    between atoms: C1_1  and  C5_5 
REMARK    2  A    between atoms: C1_1  and  C9_9 
REMARK    3  A    between atoms: C6_6  and  C10_10 
ROOT
HETATM    1  C2  UNL     1     -35.549  14.386  -6.977  1.00 20.00     0.012 C 
HETATM    2  C3  UNL     1     -34.263  15.117  -7.341  1.00 20.00     0.005 C 
HETATM    3  C4  UNL     1     -35.305  16.157  -5.378  1.00 20.00     0.016 C 
HETATM    4  C5  UNL     1     -35.748  14.695  -5.495  1.00 20.00     0.056 C 
HETATM    5  C6  UNL     1     -34.265  16.375  -6.479  1.00 20.00    -0.014 C 
ENDROOT
BRANCH   4   6
HETATM    6  C1  UNL     1     -34.925  13.776  -4.595  1.00 20.00     0.130 C 
HETATM    7  O11 UNL     1     -34.846  12.570  -4.822  1.00 20.00    -0.298 OA
BRANCH   6   8
HETATM    8  C9  UNL     1     -34.224  14.439  -3.423  1.00 20.00     0.074 C 
HETATM    9  C7  UNL     1     -32.711  14.376  -3.534  1.00 20.00     0.013 C 
ENDBRANCH   6   8
ENDBRANCH   4   6
BRANCH   5  10
HETATM   10  C10 UNL     1     -34.692  17.551  -7.338  1.00 20.00     0.000 C 
HETATM   11  C8  UNL     1     -35.772  18.357  -6.688  1.00 20.00     0.005 C 
ENDBRANCH   5  10
TORSDOF 3
ENDMDL
