MODEL 1
REMARK VINA RESULT:      -4.7      0.000      0.000
REMARK  1 active torsions:
REMARK  status: ('A' for Active; 'I' for Inactive)
REMARK    1  A    between atoms: C1_1  and  N10_10 
ROOT
HETATM    1  C2  UNL     1     -34.226  16.934  -1.543  1.00 20.00     0.002 C 
HETATM    2  C3  UNL     1     -34.205  16.702  -6.357  1.00 20.00     0.020 C 
HETATM    3  C4  UNL     1     -33.673  17.819  -2.669  1.00 20.00     0.007 C 
HETATM    4  C5  UNL     1     -33.528  17.499  -5.239  1.00 20.00     0.008 C 
HETATM    5  C6  UNL     1     -34.799  15.677  -2.218  1.00 20.00     0.026 C 
HETATM    6  C7  UNL     1     -34.304  15.205  -6.040  1.00 20.00     0.125 C 
HETATM    7  C8  UNL     1     -34.241  17.193  -3.934  1.00 20.00     0.009 C 
HETATM    8  C9  UNL     1     -34.180  15.699  -3.614  1.00 20.00     0.090 C 
HETATM    9  N10 UNL     1     -34.785  14.917  -4.684  1.00 20.00    -0.354 N 
ENDROOT
BRANCH   9  10
HETATM   10  C1  UNL     1     -35.480  13.740  -4.445  1.00 20.00     0.351 C 
HETATM   11  O11 UNL     1     -35.018  12.605  -4.387  1.00 20.00    -0.284 OA
ENDBRANCH   9  10
TORSDOF 1
ENDMDL
MODEL 2
REMARK VINA RESULT:      -4.5      2.243      3.518
REMARK  1 active torsions:
REMARK  status: ('A' for Active; 'I' for Inactive)
REMARK    1  A    between atoms: C1_1  and  N10_10 
ROOT
HETATM    1  C2  UNL     1     -34.015  13.237  -4.561  1.00 20.00     0.002 C 
HETATM    2  C3  UNL     1     -35.131  16.962  -1.714  1.00 20.00     0.020 C 
HETATM    3  C4  UNL     1     -33.212  14.227  -3.705  1.00 20.00     0.007 C 
HETATM    4  C5  UNL     1     -33.893  16.341  -2.367  1.00 20.00     0.008 C 
HETATM    5  C6  UNL     1     -35.482  13.690  -4.490  1.00 20.00     0.026 C 
HETATM    6  C7  UNL     1     -36.339  17.004  -2.657  1.00 20.00     0.125 C 
HETATM    7  C8  UNL     1     -34.279  14.986  -2.931  1.00 20.00     0.009 C 
HETATM    8  C9  UNL     1     -35.396  15.122  -3.967  1.00 20.00     0.090 C 
HETATM    9  N10 UNL     1     -36.573  15.747  -3.377  1.00 20.00    -0.354 N 
ENDROOT
BRANCH   9  10
HETATM   10  C1  UNL     1     -37.864  15.414  -3.760  1.00 20.00     0.351 C 
HETATM   11  O11 UNL     1     -38.491  14.404  -3.456  1.00 20.00    -0.284 OA
ENDBRANCH   9  10
TORSDOF 1
ENDMDL
MODEL 3
REMARK VINA RESULT:      -4.5      2.063      2.461
REMARK  1 active torsions:
REMARK  status: ('A' for Active; 'I' for Inactive)
REMARK    1  A    between atoms: C1_1  and  N10_10 
ROOT
HETATM    1  C2  UNL     1     -34.922  17.525  -1.822  1.00 20.00     0.002 C 
HETATM    2  C3  UNL     1     -33.999  13.668  -4.561  1.00 20.00     0.020 C 
HETATM    3  C4  UNL     1     -33.684  16.660  -2.095  1.00 20.00     0.007 C 
HETATM    4  C5  UNL     1     -33.339  14.465  -3.432  1.00 20.00     0.008 C 
HETATM    5  C6  UNL     1     -36.089  16.864  -2.573  1.00 20.00     0.026 C 
HETATM    6  C7  UNL     1     -35.499  13.454  -4.335  1.00 20.00     0.125 C 
HETATM    7  C8  UNL     1     -34.120  15.751  -3.234  1.00 20.00     0.009 C 
HETATM    8  C9  UNL     1     -35.578  15.458  -2.877  1.00 20.00     0.090 C 
HETATM    9  N10 UNL     1     -36.215  14.666  -3.921  1.00 20.00    -0.354 N 
ENDROOT
BRANCH   9  10
HETATM   10  C1  UNL     1     -37.556  14.811  -4.251  1.00 20.00     0.351 C 
HETATM   11  O11 UNL     1     -38.508  14.209  -3.765  1.00 20.00    -0.284 OA
ENDBRANCH   9  10
TORSDOF 1
ENDMDL
MODEL 4
REMARK VINA RESULT:      -4.4      0.939      3.039
REMARK  1 active torsions:
REMARK  status: ('A' for Active; 'I' for Inactive)
REMARK    1  A    between atoms: C1_1  and  N10_10 
ROOT
HETATM    1  C2  UNL     1     -34.397  17.054  -7.413  1.00 20.00     0.002 C 
HETATM    2  C3  UNL     1     -33.691  16.509  -2.676  1.00 20.00     0.020 C 
HETATM    3  C4  UNL     1     -34.267  18.010  -6.219  1.00 20.00     0.007 C 
HETATM    4  C5  UNL     1     -34.097  17.608  -3.662  1.00 20.00     0.008 C 
HETATM    5  C6  UNL     1     -34.374  15.630  -6.835  1.00 20.00     0.026 C 
HETATM    6  C7  UNL     1     -34.362  15.164  -2.980  1.00 20.00     0.125 C 
HETATM    7  C8  UNL     1     -33.849  17.103  -5.072  1.00 20.00     0.009 C 
HETATM    8  C9  UNL     1     -34.658  15.834  -5.349  1.00 20.00     0.090 C 
HETATM    9  N10 UNL     1     -34.315  14.786  -4.397  1.00 20.00    -0.354 N 
ENDROOT
BRANCH   9  10
HETATM   10  C1  UNL     1     -34.307  13.441  -4.741  1.00 20.00     0.351 C 
HETATM   11  O11 UNL     1     -35.099  12.577  -4.377  1.00 20.00    -0.284 OA
ENDBRANCH   9  10
TORSDOF 1
ENDMDL
MODEL 5
REMARK VINA RESULT:      -4.4      1.870      3.370
REMARK  1 active torsions:
REMARK  status: ('A' for Active; 'I' for Inactive)
REMARK    1  A    between atoms: C1_1  and  N10_10 
ROOT
HETATM    1  C2  UNL     1     -34.770  13.308  -4.807  1.00 20.00     0.002 C 
HETATM    2  C3  UNL     1     -33.570  17.946  -5.338  1.00 20.00     0.020 C 
HETATM    3  C4  UNL     1     -34.696  14.280  -5.993  1.00 20.00     0.007 C 
HETATM    4  C5  UNL     1     -34.238  16.828  -6.144  1.00 20.00     0.008 C 
HETATM    5  C6  UNL     1     -34.459  14.133  -3.548  1.00 20.00     0.026 C 
HETATM    6  C7  UNL     1     -34.032  17.978  -3.877  1.00 20.00     0.125 C 
HETATM    7  C8  UNL     1     -34.034  15.518  -5.407  1.00 20.00     0.009 C 
HETATM    8  C9  UNL     1     -34.641  15.578  -4.004  1.00 20.00     0.090 C 
HETATM    9  N10 UNL     1     -34.047  16.661  -3.231  1.00 20.00    -0.354 N 
ENDROOT
BRANCH   9  10
HETATM   10  C1  UNL     1     -33.846  16.573  -1.860  1.00 20.00     0.351 C 
HETATM   11  O11 UNL     1     -34.701  16.430  -0.993  1.00 20.00    -0.284 OA
ENDBRANCH   9  10
TORSDOF 1
ENDMDL
MODEL 6
REMARK VINA RESULT:      -4.3      1.996      3.753
REMARK  1 active torsions:
REMARK  status: ('A' for Active; 'I' for Inactive)
REMARK    1  A    between atoms: C1_1  and  N10_10 
ROOT
HETATM    1  C2  UNL     1     -35.487  15.134  -7.641  1.00 20.00     0.002 C 
HETATM    2  C3  UNL     1     -34.009  15.277  -3.055  1.00 20.00     0.020 C 
HETATM    3  C4  UNL     1     -34.131  15.311  -6.943  1.00 20.00     0.007 C 
HETATM    4  C5  UNL     1     -33.463  15.586  -4.452  1.00 20.00     0.008 C 
HETATM    5  C6  UNL     1     -36.547  15.096  -6.528  1.00 20.00     0.026 C 
HETATM    6  C7  UNL     1     -35.451  15.761  -2.863  1.00 20.00     0.125 C 
HETATM    7  C8  UNL     1     -34.437  15.037  -5.479  1.00 20.00     0.009 C 
HETATM    8  C9  UNL     1     -35.821  15.667  -5.313  1.00 20.00     0.090 C 
HETATM    9  N10 UNL     1     -36.344  15.419  -3.976  1.00 20.00    -0.354 N 
ENDROOT
BRANCH   9  10
HETATM   10  C1  UNL     1     -37.697  15.231  -3.728  1.00 20.00     0.351 C 
HETATM   11  O11 UNL     1     -38.307  14.167  -3.710  1.00 20.00    -0.284 OA
ENDBRANCH   9  10
TORSDOF 1
ENDMDL
MODEL 7
REMARK VINA RESULT:      -4.2      1.927      2.209
REMARK  1 active torsions:
REMARK  status: ('A' for Active; 'I' for Inactive)
REMARK    1  A    between atoms: C1_1  and  N10_10 
ROOT
HETATM    1  C2  UNL     1     -33.658  15.853  -2.779  1.00 20.00     0.002 C 
HETATM    2  C3  UNL     1     -35.525  15.805  -7.222  1.00 20.00     0.020 C 
HETATM    3  C4  UNL     1     -33.079  15.916  -4.199  1.00 20.00     0.007 C 
HETATM    4  C5  UNL     1     -34.158  15.669  -6.544  1.00 20.00     0.008 C 
HETATM    5  C6  UNL     1     -35.171  15.635  -2.934  1.00 20.00     0.026 C 
HETATM    6  C7  UNL     1     -36.629  15.040  -6.483  1.00 20.00     0.125 C 
HETATM    7  C8  UNL     1     -34.306  16.061  -5.085  1.00 20.00     0.009 C 
HETATM    8  C9  UNL     1     -35.325  15.165  -4.379  1.00 20.00     0.090 C 
HETATM    9  N10 UNL     1     -36.625  15.248  -5.031  1.00 20.00    -0.354 N 
ENDROOT
BRANCH   9  10
HETATM   10  C1  UNL     1     -37.818  15.156  -4.328  1.00 20.00     0.351 C 
HETATM   11  O11 UNL     1     -38.276  14.164  -3.770  1.00 20.00    -0.284 OA
ENDBRANCH   9  10
TORSDOF 1
ENDMDL
MODEL 8
REMARK VINA RESULT:      -4.2      1.787      3.615
REMARK  1 active torsions:
REMARK  status: ('A' for Active; 'I' for Inactive)
REMARK    1  A    between atoms: C1_1  and  N10_10 
ROOT
HETATM    1  C2  UNL     1     -34.086  17.756  -6.561  1.00 20.00     0.002 C 
HETATM    2  C3  UNL     1     -35.063  13.484  -4.554  1.00 20.00     0.020 C 
HETATM    3  C4  UNL     1     -34.446  16.362  -7.097  1.00 20.00     0.007 C 
HETATM    4  C5  UNL     1     -34.749  14.063  -5.936  1.00 20.00     0.008 C 
HETATM    5  C6  UNL     1     -33.944  17.613  -5.038  1.00 20.00     0.026 C 
HETATM    6  C7  UNL     1     -34.180  14.078  -3.450  1.00 20.00     0.125 C 
HETATM    7  C8  UNL     1     -34.812  15.577  -5.847  1.00 20.00     0.009 C 
HETATM    8  C9  UNL     1     -33.807  16.108  -4.823  1.00 20.00     0.090 C 
HETATM    9  N10 UNL     1     -34.063  15.539  -3.506  1.00 20.00    -0.354 N 
ENDROOT
BRANCH   9  10
HETATM   10  C1  UNL     1     -33.846  16.250  -2.334  1.00 20.00     0.351 C 
HETATM   11  O11 UNL     1     -34.546  16.250  -1.327  1.00 20.00    -0.284 OA
ENDBRANCH   9  10
TORSDOF 1
ENDMDL
MODEL 9
REMARK VINA RESULT:      -4.2      2.223      4.387
REMARK  1 active torsions:
REMARK  status: ('A' for Active; 'I' for Inactive)
REMARK    1  A    between atoms: C1_1  and  N10_10 
ROOT
HETATM    1  C2  UNL     1     -35.195  15.787  -7.918  1.00 20.00     0.002 C 
HETATM    2  C3  UNL     1     -34.323  13.936  -3.553  1.00 20.00     0.020 C 
HETATM    3  C4  UNL     1     -35.193  14.372  -7.320  1.00 20.00     0.007 C 
HETATM    4  C5  UNL     1     -34.501  13.453  -4.996  1.00 20.00     0.008 C 
HETATM    5  C6  UNL     1     -34.705  16.730  -6.807  1.00 20.00     0.026 C 
HETATM    6  C7  UNL     1     -33.470  15.205  -3.456  1.00 20.00     0.125 C 
HETATM    7  C8  UNL     1     -35.024  14.610  -5.827  1.00 20.00     0.009 C 
HETATM    8  C9  UNL     1     -34.054  15.792  -5.793  1.00 20.00     0.090 C 
HETATM    9  N10 UNL     1     -33.840  16.244  -4.424  1.00 20.00    -0.354 N 
ENDROOT
BRANCH   9  10
HETATM   10  C1  UNL     1     -33.627  17.578  -4.105  1.00 20.00     0.351 C 
HETATM   11  O11 UNL     1     -33.620  18.081  -2.987  1.00 20.00    -0.284 OA
ENDBRANCH   9  10
TORSDOF 1
ENDMDL
