MODEL 1
REMARK VINA RESULT:      -3.8      0.000      0.000
REMARK  0 active torsions:
REMARK  status: ('A' for Active; 'I' for Inactive)
ROOT
HETATM    1  C1  UNL     1     -34.506  13.715  -4.148  1.00 20.00     0.071 C 
HETATM    2  C2  UNL     1     -34.418  15.655  -2.613  1.00 20.00     0.052 C 
HETATM    3  C3  UNL     1     -34.013  17.100  -2.822  1.00 20.00     0.169 C 
HETATM    4  C4  UNL     1     -33.895  16.005  -4.880  1.00 20.00     0.192 C 
HETATM    5  C5  UNL     1     -33.774  14.940  -3.791  1.00 20.00     0.069 C 
HETATM    6  C6  UNL     1     -32.305  14.602  -3.507  1.00 20.00     0.033 C 
HETATM    7  N7  UNL     1     -35.083  12.747  -4.429  1.00 20.00    -0.196 NA
HETATM    8  O8  UNL     1     -33.847  17.286  -4.233  1.00 20.00    -0.389 OA
ENDROOT
TORSDOF 0
ENDMDL
MODEL 2
REMARK VINA RESULT:      -3.8      1.685      2.109
REMARK  0 active torsions:
REMARK  status: ('A' for Active; 'I' for Inactive)
ROOT
HETATM    1  C1  UNL     1     -36.685  14.429  -4.006  1.00 20.00     0.071 C 
HETATM    2  C2  UNL     1     -34.454  15.018  -3.109  1.00 20.00     0.052 C 
HETATM    3  C3  UNL     1     -33.244  15.674  -3.742  1.00 20.00     0.169 C 
HETATM    4  C4  UNL     1     -34.960  15.628  -5.324  1.00 20.00     0.192 C 
HETATM    5  C5  UNL     1     -35.249  14.524  -4.308  1.00 20.00     0.069 C 
HETATM    6  C6  UNL     1     -34.733  13.167  -4.803  1.00 20.00     0.033 C 
HETATM    7  N7  UNL     1     -37.818  14.353  -3.766  1.00 20.00    -0.196 NA
HETATM    8  O8  UNL     1     -33.655  16.149  -5.030  1.00 20.00    -0.389 OA
ENDROOT
TORSDOF 0
ENDMDL
MODEL 3
REMARK VINA RESULT:      -3.8      2.093      2.967
REMARK  0 active torsions:
REMARK  status: ('A' for Active; 'I' for Inactive)
ROOT
HETATM    1  C1  UNL     1     -37.115  14.509  -3.980  1.00 20.00     0.071 C 
HETATM    2  C2  UNL     1     -34.928  13.365  -4.171  1.00 20.00     0.052 C 
HETATM    3  C3  UNL     1     -33.515  13.817  -3.865  1.00 20.00     0.169 C 
HETATM    4  C4  UNL     1     -34.975  15.535  -3.261  1.00 20.00     0.192 C 
HETATM    5  C5  UNL     1     -35.690  14.676  -4.302  1.00 20.00     0.069 C 
HETATM    6  C6  UNL     1     -35.543  15.271  -5.708  1.00 20.00     0.033 C 
HETATM    7  N7  UNL     1     -38.240  14.377  -3.727  1.00 20.00    -0.196 NA
HETATM    8  O8  UNL     1     -33.617  15.074  -3.187  1.00 20.00    -0.389 OA
ENDROOT
TORSDOF 0
ENDMDL
MODEL 4
REMARK VINA RESULT:      -3.8      1.002      1.652
REMARK  0 active torsions:
REMARK  status: ('A' for Active; 'I' for Inactive)
ROOT
HETATM    1  C1  UNL     1     -34.750  13.919  -4.112  1.00 20.00     0.071 C 
HETATM    2  C2  UNL     1     -35.272  16.233  -4.821  1.00 20.00     0.052 C 
HETATM    3  C3  UNL     1     -34.416  17.477  -4.942  1.00 20.00     0.169 C 
HETATM    4  C4  UNL     1     -33.039  15.703  -4.306  1.00 20.00     0.192 C 
HETATM    5  C5  UNL     1     -34.463  15.344  -3.888  1.00 20.00     0.069 C 
HETATM    6  C6  UNL     1     -34.716  15.699  -2.418  1.00 20.00     0.033 C 
HETATM    7  N7  UNL     1     -34.978  12.795  -4.288  1.00 20.00    -0.196 NA
HETATM    8  O8  UNL     1     -33.056  17.066  -4.759  1.00 20.00    -0.389 OA
ENDROOT
TORSDOF 0
ENDMDL
MODEL 5
REMARK VINA RESULT:      -3.8      2.426      3.309
REMARK  0 active torsions:
REMARK  status: ('A' for Active; 'I' for Inactive)
ROOT
HETATM    1  C1  UNL     1     -34.336  15.949  -2.283  1.00 20.00     0.071 C 
HETATM    2  C2  UNL     1     -35.544  14.448  -3.838  1.00 20.00     0.052 C 
HETATM    3  C3  UNL     1     -35.076  13.309  -4.720  1.00 20.00     0.169 C 
HETATM    4  C4  UNL     1     -33.246  14.080  -3.496  1.00 20.00     0.192 C 
HETATM    5  C5  UNL     1     -34.262  15.219  -3.558  1.00 20.00     0.069 C 
HETATM    6  C6  UNL     1     -33.934  16.193  -4.696  1.00 20.00     0.033 C 
HETATM    7  N7  UNL     1     -34.395  16.527  -1.278  1.00 20.00    -0.196 NA
HETATM    8  O8  UNL     1     -33.715  13.039  -4.366  1.00 20.00    -0.389 OA
ENDROOT
TORSDOF 0
ENDMDL
MODEL 6
REMARK VINA RESULT:      -3.7      1.672      2.201
REMARK  0 active torsions:
REMARK  status: ('A' for Active; 'I' for Inactive)
ROOT
HETATM    1  C1  UNL     1     -34.683  13.841  -4.979  1.00 20.00     0.071 C 
HETATM    2  C2  UNL     1     -33.285  15.883  -4.923  1.00 20.00     0.052 C 
HETATM    3  C3  UNL     1     -33.623  17.351  -5.078  1.00 20.00     0.169 C 
HETATM    4  C4  UNL     1     -35.612  16.133  -5.155  1.00 20.00     0.192 C 
HETATM    5  C5  UNL     1     -34.483  15.183  -5.547  1.00 20.00     0.069 C 
HETATM    6  C6  UNL     1     -34.344  15.086  -7.071  1.00 20.00     0.033 C 
HETATM    7  N7  UNL     1     -34.840  12.781  -4.533  1.00 20.00    -0.196 NA
HETATM    8  O8  UNL     1     -35.052  17.453  -5.070  1.00 20.00    -0.389 OA
ENDROOT
TORSDOF 0
ENDMDL
MODEL 7
REMARK VINA RESULT:      -3.6     12.680     13.387
REMARK  0 active torsions:
REMARK  status: ('A' for Active; 'I' for Inactive)
ROOT
HETATM    1  C1  UNL     1     -33.330   6.069   3.554  1.00 20.00     0.071 C 
HETATM    2  C2  UNL     1     -34.411   5.874   5.772  1.00 20.00     0.052 C 
HETATM    3  C3  UNL     1     -35.174   4.746   6.436  1.00 20.00     0.169 C 
HETATM    4  C4  UNL     1     -34.407   3.988   4.366  1.00 20.00     0.192 C 
HETATM    5  C5  UNL     1     -34.471   5.513   4.296  1.00 20.00     0.069 C 
HETATM    6  C6  UNL     1     -35.784   5.983   3.657  1.00 20.00     0.033 C 
HETATM    7  N7  UNL     1     -32.430   6.510   2.968  1.00 20.00    -0.196 NA
HETATM    8  O8  UNL     1     -35.016   3.590   5.604  1.00 20.00    -0.389 OA
ENDROOT
TORSDOF 0
ENDMDL
MODEL 8
REMARK VINA RESULT:      -3.6      2.180      2.604
REMARK  0 active torsions:
REMARK  status: ('A' for Active; 'I' for Inactive)
ROOT
HETATM    1  C1  UNL     1     -36.692  14.432  -4.126  1.00 20.00     0.071 C 
HETATM    2  C2  UNL     1     -34.869  16.041  -4.590  1.00 20.00     0.052 C 
HETATM    3  C3  UNL     1     -33.821  16.103  -5.682  1.00 20.00     0.169 C 
HETATM    4  C4  UNL     1     -35.215  14.281  -6.112  1.00 20.00     0.192 C 
HETATM    5  C5  UNL     1     -35.316  14.587  -4.619  1.00 20.00     0.069 C 
HETATM    6  C6  UNL     1     -34.370  13.694  -3.806  1.00 20.00     0.033 C 
HETATM    7  N7  UNL     1     -37.778  14.309  -3.735  1.00 20.00    -0.196 NA
HETATM    8  O8  UNL     1     -34.167  15.103  -6.648  1.00 20.00    -0.389 OA
ENDROOT
TORSDOF 0
ENDMDL
MODEL 9
REMARK VINA RESULT:      -3.6      2.407      3.182
REMARK  0 active torsions:
REMARK  status: ('A' for Active; 'I' for Inactive)
ROOT
HETATM    1  C1  UNL     1     -35.371  14.396  -6.723  1.00 20.00     0.071 C 
HETATM    2  C2  UNL     1     -33.951  15.371  -4.945  1.00 20.00     0.052 C 
HETATM    3  C3  UNL     1     -33.348  14.780  -3.687  1.00 20.00     0.169 C 
HETATM    4  C4  UNL     1     -34.452  13.075  -4.836  1.00 20.00     0.192 C 
HETATM    5  C5  UNL     1     -35.070  14.398  -5.283  1.00 20.00     0.069 C 
HETATM    6  C6  UNL     1     -36.344  14.711  -4.488  1.00 20.00     0.033 C 
HETATM    7  N7  UNL     1     -35.608  14.396  -7.859  1.00 20.00    -0.196 NA
HETATM    8  O8  UNL     1     -33.561  13.365  -3.748  1.00 20.00    -0.389 OA
ENDROOT
TORSDOF 0
ENDMDL
