MODEL 1
REMARK VINA RESULT:      -5.0      0.000      0.000
REMARK  3 active torsions:
REMARK  status: ('A' for Active; 'I' for Inactive)
REMARK    1  A    between atoms: C3_3  and  C7_7 
REMARK    2  A    between atoms: C3_3  and  C10_10 
REMARK    3  A    between atoms: C8_8  and  C11_11 
ROOT
HETATM    1  C1  UNL     1     -34.794  17.264   0.273  1.00 20.00     0.012 C 
HETATM    2  C2  UNL     1     -34.683  16.710  -0.786  1.00 20.00    -0.110 C 
HETATM    3  C10 UNL     1     -34.540  16.033  -2.081  1.00 20.00     0.171 C 
ENDROOT
BRANCH   3   4
HETATM    4  C3  UNL     1     -35.824  16.040  -2.886  1.00 20.00     0.142 C 
HETATM    5  O12 UNL     1     -36.653  16.947  -2.823  1.00 20.00    -0.297 OA
BRANCH   4   6
HETATM    6  C7  UNL     1     -36.047  14.846  -3.795  1.00 20.00     0.057 C 
HETATM    7  C4  UNL     1     -34.878  13.873  -3.645  1.00 20.00     0.013 C 
HETATM    8  C5  UNL     1     -34.281  13.722  -5.042  1.00 20.00     0.005 C 
HETATM    9  C8  UNL     1     -34.607  15.046  -5.724  1.00 20.00    -0.014 C 
HETATM   10  C6  UNL     1     -36.031  15.324  -5.245  1.00 20.00     0.016 C 
BRANCH   9  11
HETATM   11  C11 UNL     1     -34.485  14.985  -7.237  1.00 20.00     0.000 C 
HETATM   12  C9  UNL     1     -35.738  14.476  -7.879  1.00 20.00     0.005 C 
ENDBRANCH   9  11
ENDBRANCH   4   6
ENDBRANCH   3   4
TORSDOF 3
ENDMDL
MODEL 2
REMARK VINA RESULT:      -4.9      1.835      5.442
REMARK  3 active torsions:
REMARK  status: ('A' for Active; 'I' for Inactive)
REMARK    1  A    between atoms: C3_3  and  C7_7 
REMARK    2  A    between atoms: C3_3  and  C10_10 
REMARK    3  A    between atoms: C8_8  and  C11_11 
ROOT
HETATM    1  C1  UNL     1     -35.310  14.421  -7.141  1.00 20.00     0.012 C 
HETATM    2  C2  UNL     1     -34.902  14.067  -6.068  1.00 20.00    -0.110 C 
HETATM    3  C10 UNL     1     -34.409  13.629  -4.758  1.00 20.00     0.171 C 
ENDROOT
BRANCH   3   4
HETATM    4  C3  UNL     1     -33.716  14.740  -3.995  1.00 20.00     0.142 C 
HETATM    5  O12 UNL     1     -32.547  14.668  -3.618  1.00 20.00    -0.297 OA
BRANCH   4   6
HETATM    6  C7  UNL     1     -34.550  15.975  -3.712  1.00 20.00     0.057 C 
HETATM    7  C4  UNL     1     -33.640  17.202  -3.681  1.00 20.00     0.013 C 
HETATM    8  C5  UNL     1     -33.827  17.824  -2.299  1.00 20.00     0.005 C 
HETATM    9  C8  UNL     1     -34.211  16.643  -1.415  1.00 20.00    -0.014 C 
HETATM   10  C6  UNL     1     -35.155  15.847  -2.315  1.00 20.00     0.016 C 
BRANCH   9  11
HETATM   11  C11 UNL     1     -34.848  17.062  -0.101  1.00 20.00     0.000 C 
HETATM   12  C9  UNL     1     -34.135  18.221   0.522  1.00 20.00     0.005 C 
ENDBRANCH   9  11
ENDBRANCH   4   6
ENDBRANCH   3   4
TORSDOF 3
ENDMDL
MODEL 3
REMARK VINA RESULT:      -4.8     10.825     12.449
REMARK  3 active torsions:
REMARK  status: ('A' for Active; 'I' for Inactive)
REMARK    1  A    between atoms: C3_3  and  C7_7 
REMARK    2  A    between atoms: C3_3  and  C10_10 
REMARK    3  A    between atoms: C8_8  and  C11_11 
ROOT
HETATM    1  C1  UNL     1     -32.537  10.322   1.439  1.00 20.00     0.012 C 
HETATM    2  C2  UNL     1     -32.286   9.148   1.489  1.00 20.00    -0.110 C 
HETATM    3  C10 UNL     1     -31.981   7.714   1.542  1.00 20.00     0.171 C 
ENDROOT
BRANCH   3   4
HETATM    4  C3  UNL     1     -31.899   7.188   2.961  1.00 20.00     0.142 C 
HETATM    5  O12 UNL     1     -31.341   7.798   3.873  1.00 20.00    -0.297 OA
BRANCH   4   6
HETATM    6  C7  UNL     1     -32.552   5.843   3.212  1.00 20.00     0.057 C 
HETATM    7  C4  UNL     1     -33.941   5.829   2.574  1.00 20.00     0.013 C 
HETATM    8  C5  UNL     1     -34.918   5.537   3.711  1.00 20.00     0.005 C 
HETATM    9  C8  UNL     1     -34.216   6.086   4.947  1.00 20.00    -0.014 C 
HETATM   10  C6  UNL     1     -32.763   5.673   4.715  1.00 20.00     0.016 C 
BRANCH   9  11
HETATM   11  C11 UNL     1     -34.790   5.552   6.248  1.00 20.00     0.000 C 
HETATM   12  C9  UNL     1     -35.158   4.105   6.145  1.00 20.00     0.005 C 
ENDBRANCH   9  11
ENDBRANCH   4   6
ENDBRANCH   3   4
TORSDOF 3
ENDMDL
MODEL 4
REMARK VINA RESULT:      -4.7      2.081      3.196
REMARK  3 active torsions:
REMARK  status: ('A' for Active; 'I' for Inactive)
REMARK    1  A    between atoms: C3_3  and  C7_7 
REMARK    2  A    between atoms: C3_3  and  C10_10 
REMARK    3  A    between atoms: C8_8  and  C11_11 
ROOT
HETATM    1  C1  UNL     1     -34.247  16.595  -1.544  1.00 20.00     0.012 C 
HETATM    2  C2  UNL     1     -33.750  16.162  -2.547  1.00 20.00    -0.110 C 
HETATM    3  C10 UNL     1     -33.141  15.640  -3.777  1.00 20.00     0.171 C 
ENDROOT
BRANCH   3   4
HETATM    4  C3  UNL     1     -33.525  14.200  -4.050  1.00 20.00     0.142 C 
HETATM    5  O12 UNL     1     -32.988  13.244  -3.492  1.00 20.00    -0.297 OA
BRANCH   4   6
HETATM    6  C7  UNL     1     -34.628  13.986  -5.069  1.00 20.00     0.057 C 
HETATM    7  C4  UNL     1     -34.890  15.295  -5.812  1.00 20.00     0.013 C 
HETATM    8  C5  UNL     1     -36.364  15.618  -5.576  1.00 20.00     0.005 C 
HETATM    9  C8  UNL     1     -36.673  14.965  -4.234  1.00 20.00    -0.014 C 
HETATM   10  C6  UNL     1     -35.918  13.639  -4.329  1.00 20.00     0.016 C 
BRANCH   9  11
HETATM   11  C11 UNL     1     -38.160  14.790  -3.982  1.00 20.00     0.000 C 
HETATM   12  C9  UNL     1     -38.973  15.074  -5.206  1.00 20.00     0.005 C 
ENDBRANCH   9  11
ENDBRANCH   4   6
ENDBRANCH   3   4
TORSDOF 3
ENDMDL
MODEL 5
REMARK VINA RESULT:      -4.7      2.182      4.722
REMARK  3 active torsions:
REMARK  status: ('A' for Active; 'I' for Inactive)
REMARK    1  A    between atoms: C3_3  and  C7_7 
REMARK    2  A    between atoms: C3_3  and  C10_10 
REMARK    3  A    between atoms: C8_8  and  C11_11 
ROOT
HETATM    1  C1  UNL     1     -34.439  14.968  -7.240  1.00 20.00     0.012 C 
HETATM    2  C2  UNL     1     -34.762  14.378  -6.245  1.00 20.00    -0.110 C 
HETATM    3  C10 UNL     1     -35.164  13.655  -5.033  1.00 20.00     0.171 C 
ENDROOT
BRANCH   3   4
HETATM    4  C3  UNL     1     -34.193  13.854  -3.888  1.00 20.00     0.142 C 
HETATM    5  O12 UNL     1     -33.159  13.199  -3.761  1.00 20.00    -0.297 OA
BRANCH   4   6
HETATM    6  C7  UNL     1     -34.562  14.925  -2.879  1.00 20.00     0.057 C 
HETATM    7  C4  UNL     1     -35.958  15.460  -3.198  1.00 20.00     0.013 C 
HETATM    8  C5  UNL     1     -35.787  16.960  -3.424  1.00 20.00     0.005 C 
HETATM    9  C8  UNL     1     -34.352  17.095  -3.921  1.00 20.00    -0.014 C 
HETATM   10  C6  UNL     1     -33.600  16.100  -3.037  1.00 20.00     0.016 C 
BRANCH   9  11
HETATM   11  C11 UNL     1     -33.815  18.512  -3.821  1.00 20.00     0.000 C 
HETATM   12  C9  UNL     1     -33.596  18.928  -2.400  1.00 20.00     0.005 C 
ENDBRANCH   9  11
ENDBRANCH   4   6
ENDBRANCH   3   4
TORSDOF 3
ENDMDL
MODEL 6
REMARK VINA RESULT:      -4.6      1.923      2.772
REMARK  3 active torsions:
REMARK  status: ('A' for Active; 'I' for Inactive)
REMARK    1  A    between atoms: C3_3  and  C7_7 
REMARK    2  A    between atoms: C3_3  and  C10_10 
REMARK    3  A    between atoms: C8_8  and  C11_11 
ROOT
HETATM    1  C1  UNL     1     -34.694  16.455  -1.382  1.00 20.00     0.012 C 
HETATM    2  C2  UNL     1     -34.046  16.020  -2.295  1.00 20.00    -0.110 C 
HETATM    3  C10 UNL     1     -33.251  15.496  -3.412  1.00 20.00     0.171 C 
ENDROOT
BRANCH   3   4
HETATM    4  C3  UNL     1     -33.894  14.293  -4.069  1.00 20.00     0.142 C 
HETATM    5  O12 UNL     1     -34.018  13.205  -3.507  1.00 20.00    -0.297 OA
BRANCH   4   6
HETATM    6  C7  UNL     1     -34.391  14.494  -5.489  1.00 20.00     0.057 C 
HETATM    7  C4  UNL     1     -33.980  15.884  -5.974  1.00 20.00     0.013 C 
HETATM    8  C5  UNL     1     -35.279  16.595  -6.346  1.00 20.00     0.005 C 
HETATM    9  C8  UNL     1     -36.324  15.943  -5.448  1.00 20.00    -0.014 C 
HETATM   10  C6  UNL     1     -35.918  14.469  -5.482  1.00 20.00     0.016 C 
BRANCH   9  11
HETATM   11  C11 UNL     1     -37.749  16.182  -5.917  1.00 20.00     0.000 C 
HETATM   12  C9  UNL     1     -38.105  15.320  -7.088  1.00 20.00     0.005 C 
ENDBRANCH   9  11
ENDBRANCH   4   6
ENDBRANCH   3   4
TORSDOF 3
ENDMDL
MODEL 7
REMARK VINA RESULT:      -4.6      2.048      2.560
REMARK  3 active torsions:
REMARK  status: ('A' for Active; 'I' for Inactive)
REMARK    1  A    between atoms: C3_3  and  C7_7 
REMARK    2  A    between atoms: C3_3  and  C10_10 
REMARK    3  A    between atoms: C8_8  and  C11_11 
ROOT
HETATM    1  C1  UNL     1     -34.687  16.608  -1.230  1.00 20.00     0.012 C 
HETATM    2  C2  UNL     1     -34.031  16.206  -2.152  1.00 20.00    -0.110 C 
HETATM    3  C10 UNL     1     -33.225  15.722  -3.278  1.00 20.00     0.171 C 
ENDROOT
BRANCH   3   4
HETATM    4  C3  UNL     1     -33.828  14.502  -3.944  1.00 20.00     0.142 C 
HETATM    5  O12 UNL     1     -33.369  13.368  -3.815  1.00 20.00    -0.297 OA
BRANCH   4   6
HETATM    6  C7  UNL     1     -35.057  14.749  -4.799  1.00 20.00     0.057 C 
HETATM    7  C4  UNL     1     -35.104  13.717  -5.925  1.00 20.00     0.013 C 
HETATM    8  C5  UNL     1     -35.110  14.520  -7.225  1.00 20.00     0.005 C 
HETATM    9  C8  UNL     1     -34.381  15.808  -6.863  1.00 20.00    -0.014 C 
HETATM   10  C6  UNL     1     -34.923  16.116  -5.467  1.00 20.00     0.016 C 
BRANCH   9  11
HETATM   11  C11 UNL     1     -34.619  16.930  -7.858  1.00 20.00     0.000 C 
HETATM   12  C9  UNL     1     -34.352  18.276  -7.260  1.00 20.00     0.005 C 
ENDBRANCH   9  11
ENDBRANCH   4   6
ENDBRANCH   3   4
TORSDOF 3
ENDMDL
MODEL 8
REMARK VINA RESULT:      -4.5      1.362      2.109
REMARK  3 active torsions:
REMARK  status: ('A' for Active; 'I' for Inactive)
REMARK    1  A    between atoms: C3_3  and  C7_7 
REMARK    2  A    between atoms: C3_3  and  C10_10 
REMARK    3  A    between atoms: C8_8  and  C11_11 
ROOT
HETATM    1  C1  UNL     1     -32.658  18.567  -0.166  1.00 20.00     0.012 C 
HETATM    2  C2  UNL     1     -33.573  17.804  -0.318  1.00 20.00    -0.110 C 
HETATM    3  C10 UNL     1     -34.691  16.870  -0.496  1.00 20.00     0.171 C 
ENDROOT
BRANCH   3   4
HETATM    4  C3  UNL     1     -34.997  16.601  -1.955  1.00 20.00     0.142 C 
HETATM    5  O12 UNL     1     -36.114  16.756  -2.447  1.00 20.00    -0.297 OA
BRANCH   4   6
HETATM    6  C7  UNL     1     -33.835  16.118  -2.802  1.00 20.00     0.057 C 
HETATM    7  C4  UNL     1     -33.519  17.167  -3.868  1.00 20.00     0.013 C 
HETATM    8  C5  UNL     1     -33.661  16.451  -5.210  1.00 20.00     0.005 C 
HETATM    9  C8  UNL     1     -34.678  15.351  -4.932  1.00 20.00    -0.014 C 
HETATM   10  C6  UNL     1     -34.263  14.856  -3.547  1.00 20.00     0.016 C 
BRANCH   9  11
HETATM   11  C11 UNL     1     -34.678  14.256  -5.985  1.00 20.00     0.000 C 
HETATM   12  C9  UNL     1     -34.679  14.815  -7.373  1.00 20.00     0.005 C 
ENDBRANCH   9  11
ENDBRANCH   4   6
ENDBRANCH   3   4
TORSDOF 3
ENDMDL
MODEL 9
REMARK VINA RESULT:      -4.5      2.017      2.999
REMARK  3 active torsions:
REMARK  status: ('A' for Active; 'I' for Inactive)
REMARK    1  A    between atoms: C3_3  and  C7_7 
REMARK    2  A    between atoms: C3_3  and  C10_10 
REMARK    3  A    between atoms: C8_8  and  C11_11 
ROOT
HETATM    1  C1  UNL     1     -34.676  18.375   2.069  1.00 20.00     0.012 C 
HETATM    2  C2  UNL     1     -34.760  17.756   1.043  1.00 20.00    -0.110 C 
HETATM    3  C10 UNL     1     -34.865  16.993  -0.206  1.00 20.00     0.171 C 
ENDROOT
BRANCH   3   4
HETATM    4  C3  UNL     1     -34.027  17.585  -1.321  1.00 20.00     0.142 C 
HETATM    5  O12 UNL     1     -33.062  18.321  -1.119  1.00 20.00    -0.297 OA
BRANCH   4   6
HETATM    6  C7  UNL     1     -34.443  17.219  -2.733  1.00 20.00     0.057 C 
HETATM    7  C4  UNL     1     -35.842  16.605  -2.704  1.00 20.00     0.013 C 
HETATM    8  C5  UNL     1     -35.699  15.214  -3.318  1.00 20.00     0.005 C 
HETATM    9  C8  UNL     1     -34.257  14.826  -3.014  1.00 20.00    -0.014 C 
HETATM   10  C6  UNL     1     -33.503  16.134  -3.256  1.00 20.00     0.016 C 
BRANCH   9  11
HETATM   11  C11 UNL     1     -33.753  13.678  -3.871  1.00 20.00     0.000 C 
HETATM   12  C9  UNL     1     -34.709  13.339  -4.972  1.00 20.00     0.005 C 
ENDBRANCH   9  11
ENDBRANCH   4   6
ENDBRANCH   3   4
TORSDOF 3
ENDMDL
