MODEL 1
REMARK VINA RESULT:      -4.7      0.000      0.000
REMARK  1 active torsions:
REMARK  status: ('A' for Active; 'I' for Inactive)
REMARK    1  A    between atoms: C5_5  and  C9_9 
ROOT
HETATM    1  C1  UNL     1     -37.056  14.517  -4.311  1.00 20.00     0.069 C 
HETATM    2  C2  UNL     1     -34.097  14.051  -3.467  1.00 20.00     0.006 C 
HETATM    3  C3  UNL     1     -34.806  13.589  -4.734  1.00 20.00     0.024 C 
HETATM    4  C4  UNL     1     -35.086  16.005  -4.524  1.00 20.00     0.029 C 
HETATM    5  C5  UNL     1     -33.848  15.531  -3.742  1.00 20.00    -0.013 C 
HETATM    6  C6  UNL     1     -35.789  14.730  -5.046  1.00 20.00     0.046 C 
HETATM    7  C7  UNL     1     -36.091  14.815  -6.543  1.00 20.00     0.031 C 
HETATM    8  N10 UNL     1     -38.050  14.351  -3.735  1.00 20.00    -0.196 NA
ENDROOT
BRANCH   5   9
HETATM    9  C9  UNL     1     -33.593  16.334  -2.477  1.00 20.00     0.000 C 
HETATM   10  C8  UNL     1     -34.745  16.258  -1.525  1.00 20.00     0.005 C 
ENDBRANCH   5   9
TORSDOF 1
ENDMDL
MODEL 2
REMARK VINA RESULT:      -4.5      1.581      1.969
REMARK  1 active torsions:
REMARK  status: ('A' for Active; 'I' for Inactive)
REMARK    1  A    between atoms: C5_5  and  C9_9 
ROOT
HETATM    1  C1  UNL     1     -35.052  13.784  -4.776  1.00 20.00     0.069 C 
HETATM    2  C2  UNL     1     -33.333  16.354  -4.426  1.00 20.00     0.006 C 
HETATM    3  C3  UNL     1     -34.256  15.981  -5.579  1.00 20.00     0.024 C 
HETATM    4  C4  UNL     1     -35.523  15.853  -3.495  1.00 20.00     0.029 C 
HETATM    5  C5  UNL     1     -34.312  16.789  -3.339  1.00 20.00    -0.013 C 
HETATM    6  C6  UNL     1     -35.406  15.216  -4.900  1.00 20.00     0.046 C 
HETATM    7  C7  UNL     1     -36.707  15.339  -5.695  1.00 20.00     0.031 C 
HETATM    8  N10 UNL     1     -34.776  12.661  -4.677  1.00 20.00    -0.196 NA
ENDROOT
BRANCH   5   9
HETATM    9  C9  UNL     1     -33.703  16.756  -1.946  1.00 20.00     0.000 C 
HETATM   10  C8  UNL     1     -34.743  16.569  -0.887  1.00 20.00     0.005 C 
ENDBRANCH   5   9
TORSDOF 1
ENDMDL
MODEL 3
REMARK VINA RESULT:      -4.4      1.076      1.160
REMARK  1 active torsions:
REMARK  status: ('A' for Active; 'I' for Inactive)
REMARK    1  A    between atoms: C5_5  and  C9_9 
ROOT
HETATM    1  C1  UNL     1     -36.340  15.129  -5.663  1.00 20.00     0.069 C 
HETATM    2  C2  UNL     1     -34.279  14.081  -3.580  1.00 20.00     0.006 C 
HETATM    3  C3  UNL     1     -34.507  13.606  -5.009  1.00 20.00     0.024 C 
HETATM    4  C4  UNL     1     -34.110  16.016  -5.043  1.00 20.00     0.029 C 
HETATM    5  C5  UNL     1     -33.508  15.383  -3.776  1.00 20.00    -0.013 C 
HETATM    6  C6  UNL     1     -34.883  14.890  -5.770  1.00 20.00     0.046 C 
HETATM    7  C7  UNL     1     -34.502  14.796  -7.248  1.00 20.00     0.031 C 
HETATM    8  N10 UNL     1     -37.482  15.317  -5.579  1.00 20.00    -0.196 NA
ENDROOT
BRANCH   5   9
HETATM    9  C9  UNL     1     -33.568  16.296  -2.562  1.00 20.00     0.000 C 
HETATM   10  C8  UNL     1     -34.834  16.113  -1.786  1.00 20.00     0.005 C 
ENDBRANCH   5   9
TORSDOF 1
ENDMDL
MODEL 4
REMARK VINA RESULT:      -4.4      2.010      2.678
REMARK  1 active torsions:
REMARK  status: ('A' for Active; 'I' for Inactive)
REMARK    1  A    between atoms: C5_5  and  C9_9 
ROOT
HETATM    1  C1  UNL     1     -34.318  15.559  -5.526  1.00 20.00     0.069 C 
HETATM    2  C2  UNL     1     -35.986  16.147  -2.965  1.00 20.00     0.006 C 
HETATM    3  C3  UNL     1     -36.127  14.987  -3.942  1.00 20.00     0.024 C 
HETATM    4  C4  UNL     1     -33.818  15.062  -3.149  1.00 20.00     0.029 C 
HETATM    5  C5  UNL     1     -34.760  15.752  -2.148  1.00 20.00    -0.013 C 
HETATM    6  C6  UNL     1     -34.681  14.694  -4.380  1.00 20.00     0.046 C 
HETATM    7  C7  UNL     1     -34.505  13.231  -4.786  1.00 20.00     0.031 C 
HETATM    8  N10 UNL     1     -34.033  16.236  -6.423  1.00 20.00    -0.196 NA
ENDROOT
BRANCH   5   9
HETATM    9  C9  UNL     1     -34.118  16.931  -1.435  1.00 20.00     0.000 C 
HETATM   10  C8  UNL     1     -34.739  17.182  -0.097  1.00 20.00     0.005 C 
ENDBRANCH   5   9
TORSDOF 1
ENDMDL
MODEL 5
REMARK VINA RESULT:      -4.1      1.857      3.730
REMARK  1 active torsions:
REMARK  status: ('A' for Active; 'I' for Inactive)
REMARK    1  A    between atoms: C5_5  and  C9_9 
ROOT
HETATM    1  C1  UNL     1     -35.192  17.388  -3.427  1.00 20.00     0.069 C 
HETATM    2  C2  UNL     1     -33.191  15.075  -4.001  1.00 20.00     0.006 C 
HETATM    3  C3  UNL     1     -33.184  16.070  -2.848  1.00 20.00     0.024 C 
HETATM    4  C4  UNL     1     -35.362  14.970  -2.911  1.00 20.00     0.029 C 
HETATM    5  C5  UNL     1     -34.294  14.101  -3.597  1.00 20.00    -0.013 C 
HETATM    6  C6  UNL     1     -34.675  16.309  -2.555  1.00 20.00     0.046 C 
HETATM    7  C7  UNL     1     -34.903  16.699  -1.094  1.00 20.00     0.031 C 
HETATM    8  N10 UNL     1     -35.599  18.233  -4.110  1.00 20.00    -0.196 NA
ENDROOT
BRANCH   5   9
HETATM    9  C9  UNL     1     -34.835  13.298  -4.769  1.00 20.00     0.000 C 
HETATM   10  C8  UNL     1     -35.083  14.158  -5.968  1.00 20.00     0.005 C 
ENDBRANCH   5   9
TORSDOF 1
ENDMDL
MODEL 6
REMARK VINA RESULT:      -4.1      1.853      3.798
REMARK  1 active torsions:
REMARK  status: ('A' for Active; 'I' for Inactive)
REMARK    1  A    between atoms: C5_5  and  C9_9 
ROOT
HETATM    1  C1  UNL     1     -34.009  14.066  -3.570  1.00 20.00     0.069 C 
HETATM    2  C2  UNL     1     -36.601  14.922  -5.064  1.00 20.00     0.006 C 
HETATM    3  C3  UNL     1     -36.329  14.917  -3.566  1.00 20.00     0.024 C 
HETATM    4  C4  UNL     1     -34.578  16.213  -4.671  1.00 20.00     0.029 C 
HETATM    5  C5  UNL     1     -35.847  16.160  -5.539  1.00 20.00    -0.013 C 
HETATM    6  C6  UNL     1     -34.839  15.287  -3.459  1.00 20.00     0.046 C 
HETATM    7  C7  UNL     1     -34.528  15.980  -2.132  1.00 20.00     0.031 C 
HETATM    8  N10 UNL     1     -33.357  13.110  -3.657  1.00 20.00    -0.196 NA
ENDROOT
BRANCH   5   9
HETATM    9  C9  UNL     1     -35.553  16.139  -7.031  1.00 20.00     0.000 C 
HETATM   10  C8  UNL     1     -34.614  15.034  -7.400  1.00 20.00     0.005 C 
ENDBRANCH   5   9
TORSDOF 1
ENDMDL
MODEL 7
REMARK VINA RESULT:      -4.1      1.274      3.517
REMARK  1 active torsions:
REMARK  status: ('A' for Active; 'I' for Inactive)
REMARK    1  A    between atoms: C5_5  and  C9_9 
ROOT
HETATM    1  C1  UNL     1     -36.728  14.879  -3.734  1.00 20.00     0.069 C 
HETATM    2  C2  UNL     1     -35.505  16.805  -5.850  1.00 20.00     0.006 C 
HETATM    3  C3  UNL     1     -35.624  17.003  -4.344  1.00 20.00     0.024 C 
HETATM    4  C4  UNL     1     -34.473  14.890  -4.762  1.00 20.00     0.029 C 
HETATM    5  C5  UNL     1     -34.334  15.834  -5.970  1.00 20.00    -0.013 C 
HETATM    6  C6  UNL     1     -35.430  15.590  -3.768  1.00 20.00     0.046 C 
HETATM    7  C7  UNL     1     -34.852  15.636  -2.353  1.00 20.00     0.031 C 
HETATM    8  N10 UNL     1     -37.745  14.320  -3.707  1.00 20.00    -0.196 NA
ENDROOT
BRANCH   5   9
HETATM    9  C9  UNL     1     -34.305  15.103  -7.302  1.00 20.00     0.000 C 
HETATM   10  C8  UNL     1     -35.584  14.376  -7.569  1.00 20.00     0.005 C 
ENDBRANCH   5   9
TORSDOF 1
ENDMDL
MODEL 8
REMARK VINA RESULT:      -4.1     10.600     11.817
REMARK  1 active torsions:
REMARK  status: ('A' for Active; 'I' for Inactive)
REMARK    1  A    between atoms: C5_5  and  C9_9 
ROOT
HETATM    1  C1  UNL     1     -42.588   4.863  -0.091  1.00 20.00     0.069 C 
HETATM    2  C2  UNL     1     -41.669   7.676  -1.052  1.00 20.00     0.006 C 
HETATM    3  C3  UNL     1     -40.816   6.529  -0.527  1.00 20.00     0.024 C 
HETATM    4  C4  UNL     1     -42.170   5.704  -2.384  1.00 20.00     0.029 C 
HETATM    5  C5  UNL     1     -41.994   7.230  -2.475  1.00 20.00    -0.013 C 
HETATM    6  C6  UNL     1     -41.531   5.269  -1.044  1.00 20.00     0.046 C 
HETATM    7  C7  UNL     1     -40.554   4.106  -1.227  1.00 20.00     0.031 C 
HETATM    8  N10 UNL     1     -43.417   4.544   0.656  1.00 20.00    -0.196 NA
ENDROOT
BRANCH   5   9
HETATM    9  C9  UNL     1     -43.205   7.941  -3.058  1.00 20.00     0.000 C 
HETATM   10  C8  UNL     1     -43.013   8.278  -4.503  1.00 20.00     0.005 C 
ENDBRANCH   5   9
TORSDOF 1
ENDMDL
MODEL 9
REMARK VINA RESULT:      -4.1      1.256      1.946
REMARK  1 active torsions:
REMARK  status: ('A' for Active; 'I' for Inactive)
REMARK    1  A    between atoms: C5_5  and  C9_9 
ROOT
HETATM    1  C1  UNL     1     -36.283  14.365  -4.069  1.00 20.00     0.069 C 
HETATM    2  C2  UNL     1     -33.798  15.893  -2.986  1.00 20.00     0.006 C 
HETATM    3  C3  UNL     1     -33.976  14.393  -3.186  1.00 20.00     0.024 C 
HETATM    4  C4  UNL     1     -34.466  15.523  -5.295  1.00 20.00     0.029 C 
HETATM    5  C5  UNL     1     -33.562  16.396  -4.407  1.00 20.00    -0.013 C 
HETATM    6  C6  UNL     1     -34.853  14.289  -4.445  1.00 20.00     0.046 C 
HETATM    7  C7  UNL     1     -34.605  12.978  -5.194  1.00 20.00     0.031 C 
HETATM    8  N10 UNL     1     -37.404  14.424  -3.775  1.00 20.00    -0.196 NA
ENDROOT
BRANCH   5   9
HETATM    9  C9  UNL     1     -33.829  17.885  -4.561  1.00 20.00     0.000 C 
HETATM   10  C8  UNL     1     -35.228  18.245  -4.175  1.00 20.00     0.005 C 
ENDBRANCH   5   9
TORSDOF 1
ENDMDL
