MODEL 1
REMARK VINA RESULT:      -4.8      0.000      0.000
REMARK  2 active torsions:
REMARK  status: ('A' for Active; 'I' for Inactive)
REMARK    1  A    between atoms: C5_5  and  C9_9 
REMARK    2  A    between atoms: C6_6  and  C10_10 
ROOT
HETATM    1  C1  UNL     1     -37.207  14.672  -3.940  1.00 20.00     0.069 C 
HETATM    2  C2  UNL     1     -33.588  15.040  -3.165  1.00 20.00     0.006 C 
HETATM    3  C3  UNL     1     -34.786  14.217  -3.645  1.00 20.00     0.025 C 
HETATM    4  C4  UNL     1     -35.627  16.369  -3.065  1.00 20.00     0.029 C 
HETATM    5  C5  UNL     1     -34.105  16.464  -2.925  1.00 20.00    -0.013 C 
HETATM    6  C6  UNL     1     -35.852  15.235  -4.073  1.00 20.00     0.049 C 
HETATM    7  N11 UNL     1     -38.274  14.230  -3.835  1.00 20.00    -0.196 NA
ENDROOT
BRANCH   6   8
HETATM    8  C10 UNL     1     -35.634  15.699  -5.519  1.00 20.00     0.020 C 
HETATM    9  C8  UNL     1     -35.389  14.548  -6.437  1.00 20.00     0.007 C 
ENDBRANCH   6   8
BRANCH   5  10
HETATM   10  C9  UNL     1     -33.672  17.038  -1.585  1.00 20.00     0.000 C 
HETATM   11  C7  UNL     1     -34.714  16.841  -0.529  1.00 20.00     0.005 C 
ENDBRANCH   5  10
TORSDOF 2
ENDMDL
MODEL 2
REMARK VINA RESULT:      -4.7      1.682      1.933
REMARK  2 active torsions:
REMARK  status: ('A' for Active; 'I' for Inactive)
REMARK    1  A    between atoms: C5_5  and  C9_9 
REMARK    2  A    between atoms: C6_6  and  C10_10 
ROOT
HETATM    1  C1  UNL     1     -34.741  13.681  -4.447  1.00 20.00     0.069 C 
HETATM    2  C2  UNL     1     -33.239  16.535  -2.595  1.00 20.00     0.006 C 
HETATM    3  C3  UNL     1     -33.148  15.384  -3.600  1.00 20.00     0.025 C 
HETATM    4  C4  UNL     1     -35.369  15.361  -2.738  1.00 20.00     0.029 C 
HETATM    5  C5  UNL     1     -34.704  16.607  -2.146  1.00 20.00    -0.013 C 
HETATM    6  C6  UNL     1     -34.591  15.086  -4.031  1.00 20.00     0.049 C 
HETATM    7  N11 UNL     1     -34.860  12.574  -4.775  1.00 20.00    -0.196 NA
ENDROOT
BRANCH   6   8
HETATM    8  C10 UNL     1     -35.035  16.005  -5.176  1.00 20.00     0.020 C 
HETATM    9  C8  UNL     1     -34.135  15.883  -6.361  1.00 20.00     0.007 C 
ENDBRANCH   6   8
BRANCH   5  10
HETATM   10  C9  UNL     1     -34.862  16.697  -0.636  1.00 20.00     0.000 C 
HETATM   11  C7  UNL     1     -34.036  17.800  -0.052  1.00 20.00     0.005 C 
ENDBRANCH   5  10
TORSDOF 2
ENDMDL
MODEL 3
REMARK VINA RESULT:      -4.6      1.801      4.032
REMARK  2 active torsions:
REMARK  status: ('A' for Active; 'I' for Inactive)
REMARK    1  A    between atoms: C5_5  and  C9_9 
REMARK    2  A    between atoms: C6_6  and  C10_10 
ROOT
HETATM    1  C1  UNL     1     -35.829  17.689  -2.870  1.00 20.00     0.069 C 
HETATM    2  C2  UNL     1     -33.140  15.265  -3.720  1.00 20.00     0.006 C 
HETATM    3  C3  UNL     1     -33.640  16.691  -3.473  1.00 20.00     0.025 C 
HETATM    4  C4  UNL     1     -35.522  15.253  -3.208  1.00 20.00     0.029 C 
HETATM    5  C5  UNL     1     -34.317  14.331  -3.412  1.00 20.00    -0.013 C 
HETATM    6  C6  UNL     1     -34.924  16.549  -2.645  1.00 20.00     0.049 C 
HETATM    7  N11 UNL     1     -36.543  18.586  -3.047  1.00 20.00    -0.196 NA
ENDROOT
BRANCH   6   8
HETATM    8  C10 UNL     1     -34.613  16.435  -1.146  1.00 20.00     0.020 C 
HETATM    9  C8  UNL     1     -33.794  17.585  -0.664  1.00 20.00     0.007 C 
ENDBRANCH   6   8
BRANCH   5  10
HETATM   10  C9  UNL     1     -34.551  13.289  -4.495  1.00 20.00     0.000 C 
HETATM   11  C7  UNL     1     -35.000  13.910  -5.780  1.00 20.00     0.005 C 
ENDBRANCH   5  10
TORSDOF 2
ENDMDL
MODEL 4
REMARK VINA RESULT:      -4.6      1.549      2.556
REMARK  2 active torsions:
REMARK  status: ('A' for Active; 'I' for Inactive)
REMARK    1  A    between atoms: C5_5  and  C9_9 
REMARK    2  A    between atoms: C6_6  and  C10_10 
ROOT
HETATM    1  C1  UNL     1     -36.676  14.706  -3.633  1.00 20.00     0.069 C 
HETATM    2  C2  UNL     1     -33.828  16.810  -2.494  1.00 20.00     0.006 C 
HETATM    3  C3  UNL     1     -35.023  15.894  -2.215  1.00 20.00     0.025 C 
HETATM    4  C4  UNL     1     -34.897  16.147  -4.581  1.00 20.00     0.029 C 
HETATM    5  C5  UNL     1     -33.663  16.859  -4.019  1.00 20.00    -0.013 C 
HETATM    6  C6  UNL     1     -35.265  15.110  -3.512  1.00 20.00     0.049 C 
HETATM    7  N11 UNL     1     -37.788  14.387  -3.729  1.00 20.00    -0.196 NA
ENDROOT
BRANCH   6   8
HETATM    8  C10 UNL     1     -34.371  13.864  -3.589  1.00 20.00     0.020 C 
HETATM    9  C8  UNL     1     -34.494  13.178  -4.909  1.00 20.00     0.007 C 
ENDBRANCH   6   8
BRANCH   5  10
HETATM   10  C9  UNL     1     -33.503  18.272  -4.556  1.00 20.00     0.000 C 
HETATM   11  C7  UNL     1     -33.735  18.339  -6.033  1.00 20.00     0.005 C 
ENDBRANCH   5  10
TORSDOF 2
ENDMDL
MODEL 5
REMARK VINA RESULT:      -4.4      2.356      3.276
REMARK  2 active torsions:
REMARK  status: ('A' for Active; 'I' for Inactive)
REMARK    1  A    between atoms: C5_5  and  C9_9 
REMARK    2  A    between atoms: C6_6  and  C10_10 
ROOT
HETATM    1  C1  UNL     1     -33.683  16.543  -4.381  1.00 20.00     0.069 C 
HETATM    2  C2  UNL     1     -35.952  17.694  -1.669  1.00 20.00     0.006 C 
HETATM    3  C3  UNL     1     -35.589  17.545  -3.148  1.00 20.00     0.025 C 
HETATM    4  C4  UNL     1     -33.801  16.575  -1.906  1.00 20.00     0.029 C 
HETATM    5  C5  UNL     1     -34.871  16.947  -0.877  1.00 20.00    -0.013 C 
HETATM    6  C6  UNL     1     -34.575  16.394  -3.219  1.00 20.00     0.049 C 
HETATM    7  N11 UNL     1     -32.980  16.660  -5.297  1.00 20.00    -0.196 NA
ENDROOT
BRANCH   6   8
HETATM    8  C10 UNL     1     -35.278  15.032  -3.289  1.00 20.00     0.020 C 
HETATM    9  C8  UNL     1     -34.308  13.923  -3.529  1.00 20.00     0.007 C 
ENDBRANCH   6   8
BRANCH   5  10
HETATM   10  C9  UNL     1     -34.314  17.758   0.284  1.00 20.00     0.000 C 
HETATM   11  C7  UNL     1     -33.055  18.474  -0.088  1.00 20.00     0.005 C 
ENDBRANCH   5  10
TORSDOF 2
ENDMDL
MODEL 6
REMARK VINA RESULT:      -4.3      2.030      2.607
REMARK  2 active torsions:
REMARK  status: ('A' for Active; 'I' for Inactive)
REMARK    1  A    between atoms: C5_5  and  C9_9 
REMARK    2  A    between atoms: C6_6  and  C10_10 
ROOT
HETATM    1  C1  UNL     1     -34.184  15.805  -5.779  1.00 20.00     0.069 C 
HETATM    2  C2  UNL     1     -35.479  15.959  -2.297  1.00 20.00     0.006 C 
HETATM    3  C3  UNL     1     -35.665  15.692  -3.792  1.00 20.00     0.025 C 
HETATM    4  C4  UNL     1     -33.405  16.391  -3.501  1.00 20.00     0.029 C 
HETATM    5  C5  UNL     1     -33.991  16.272  -2.091  1.00 20.00    -0.013 C 
HETATM    6  C6  UNL     1     -34.258  15.442  -4.354  1.00 20.00     0.049 C 
HETATM    7  N11 UNL     1     -34.124  16.090  -6.903  1.00 20.00    -0.196 NA
ENDROOT
BRANCH   6   8
HETATM    8  C10 UNL     1     -33.837  13.977  -4.179  1.00 20.00     0.020 C 
HETATM    9  C8  UNL     1     -34.784  13.047  -4.861  1.00 20.00     0.007 C 
ENDBRANCH   6   8
BRANCH   5  10
HETATM   10  C9  UNL     1     -33.754  17.517  -1.250  1.00 20.00     0.000 C 
HETATM   11  C7  UNL     1     -34.534  17.485   0.027  1.00 20.00     0.005 C 
ENDBRANCH   5  10
TORSDOF 2
ENDMDL
MODEL 7
REMARK VINA RESULT:      -4.1      1.990      2.830
REMARK  2 active torsions:
REMARK  status: ('A' for Active; 'I' for Inactive)
REMARK    1  A    between atoms: C5_5  and  C9_9 
REMARK    2  A    between atoms: C6_6  and  C10_10 
ROOT
HETATM    1  C1  UNL     1     -34.279  15.681  -5.484  1.00 20.00     0.069 C 
HETATM    2  C2  UNL     1     -35.692  16.529  -2.149  1.00 20.00     0.006 C 
HETATM    3  C3  UNL     1     -35.851  16.209  -3.638  1.00 20.00     0.025 C 
HETATM    4  C4  UNL     1     -33.512  16.181  -3.181  1.00 20.00     0.029 C 
HETATM    5  C5  UNL     1     -34.200  16.373  -1.826  1.00 20.00    -0.013 C 
HETATM    6  C6  UNL     1     -34.564  15.482  -4.052  1.00 20.00     0.049 C 
HETATM    7  N11 UNL     1     -34.054  15.837  -6.611  1.00 20.00    -0.196 NA
ENDROOT
BRANCH   6   8
HETATM    8  C10 UNL     1     -34.650  13.979  -3.755  1.00 20.00     0.020 C 
HETATM    9  C8  UNL     1     -33.298  13.347  -3.716  1.00 20.00     0.007 C 
ENDBRANCH   6   8
BRANCH   5  10
HETATM   10  C9  UNL     1     -33.634  17.545  -1.040  1.00 20.00     0.000 C 
HETATM   11  C7  UNL     1     -33.527  18.780  -1.877  1.00 20.00     0.005 C 
ENDBRANCH   5  10
TORSDOF 2
ENDMDL
MODEL 8
REMARK VINA RESULT:      -4.1      2.259      2.787
REMARK  2 active torsions:
REMARK  status: ('A' for Active; 'I' for Inactive)
REMARK    1  A    between atoms: C5_5  and  C9_9 
REMARK    2  A    between atoms: C6_6  and  C10_10 
ROOT
HETATM    1  C1  UNL     1     -34.704  13.826  -4.959  1.00 20.00     0.069 C 
HETATM    2  C2  UNL     1     -33.580  17.371  -5.034  1.00 20.00     0.006 C 
HETATM    3  C3  UNL     1     -33.302  15.872  -4.897  1.00 20.00     0.025 C 
HETATM    4  C4  UNL     1     -35.655  16.103  -5.196  1.00 20.00     0.029 C 
HETATM    5  C5  UNL     1     -35.072  17.509  -5.365  1.00 20.00    -0.013 C 
HETATM    6  C6  UNL     1     -34.496  15.160  -5.548  1.00 20.00     0.049 C 
HETATM    7  N11 UNL     1     -34.869  12.775  -4.496  1.00 20.00    -0.196 NA
ENDROOT
BRANCH   6   8
HETATM    8  C10 UNL     1     -34.308  15.023  -7.065  1.00 20.00     0.020 C 
HETATM    9  C8  UNL     1     -35.537  14.496  -7.727  1.00 20.00     0.007 C 
ENDBRANCH   6   8
BRANCH   5  10
HETATM   10  C9  UNL     1     -35.780  18.546  -4.507  1.00 20.00     0.000 C 
HETATM   11  C7  UNL     1     -35.316  18.506  -3.085  1.00 20.00     0.005 C 
ENDBRANCH   5  10
TORSDOF 2
ENDMDL
MODEL 9
REMARK VINA RESULT:      -4.1      2.469      4.028
REMARK  2 active torsions:
REMARK  status: ('A' for Active; 'I' for Inactive)
REMARK    1  A    between atoms: C5_5  and  C9_9 
REMARK    2  A    between atoms: C6_6  and  C10_10 
ROOT
HETATM    1  C1  UNL     1     -33.639  14.068  -3.855  1.00 20.00     0.069 C 
HETATM    2  C2  UNL     1     -35.484  16.645  -5.801  1.00 20.00     0.006 C 
HETATM    3  C3  UNL     1     -35.290  15.206  -5.316  1.00 20.00     0.025 C 
HETATM    4  C4  UNL     1     -33.503  16.483  -4.392  1.00 20.00     0.029 C 
HETATM    5  C5  UNL     1     -34.416  17.491  -5.094  1.00 20.00    -0.013 C 
HETATM    6  C6  UNL     1     -34.420  15.301  -4.054  1.00 20.00     0.049 C 
HETATM    7  N11 UNL     1     -33.024  13.097  -3.696  1.00 20.00    -0.196 NA
ENDROOT
BRANCH   6   8
HETATM    8  C10 UNL     1     -35.271  15.571  -2.806  1.00 20.00     0.020 C 
HETATM    9  C8  UNL     1     -34.466  16.195  -1.715  1.00 20.00     0.007 C 
ENDBRANCH   6   8
BRANCH   5  10
HETATM   10  C9  UNL     1     -33.660  18.410  -6.042  1.00 20.00     0.000 C 
HETATM   11  C7  UNL     1     -34.254  18.409  -7.415  1.00 20.00     0.005 C 
ENDBRANCH   5  10
TORSDOF 2
ENDMDL
