MODEL 1
REMARK VINA RESULT:      -5.1      0.000      0.000
REMARK  3 active torsions:
REMARK  status: ('A' for Active; 'I' for Inactive)
REMARK    1  A    between atoms: C6_6  and  C11_11 
REMARK    2  A    between atoms: C7_7  and  C12_12 
REMARK    3  A    between atoms: C12_12  and  C13_13 
ROOT
HETATM    1  C1  UNL     1     -35.214  13.740  -4.534  1.00 20.00     0.069 C 
HETATM    2  C2  UNL     1     -33.290  16.086  -4.607  1.00 20.00     0.002 C 
HETATM    3  C3  UNL     1     -33.363  15.994  -3.082  1.00 20.00     0.005 C 
HETATM    4  C4  UNL     1     -34.656  16.019  -5.299  1.00 20.00     0.024 C 
HETATM    5  C5  UNL     1     -35.880  15.653  -3.099  1.00 20.00     0.029 C 
HETATM    6  C6  UNL     1     -34.705  16.487  -2.546  1.00 20.00    -0.013 C 
HETATM    7  C7  UNL     1     -35.681  15.148  -4.552  1.00 20.00     0.050 C 
HETATM    8  N14 UNL     1     -34.848  12.639  -4.520  1.00 20.00    -0.196 NA
ENDROOT
BRANCH   7   9
HETATM    9  C12 UNL     1     -37.027  15.184  -5.297  1.00 20.00     0.028 C 
BRANCH   9  10
HETATM   10  C13 UNL     1     -38.161  15.776  -4.456  1.00 20.00    -0.021 C 
HETATM   11  C9  UNL     1     -38.716  17.074  -5.045  1.00 20.00     0.009 C 
HETATM   12  C10 UNL     1     -39.284  14.745  -4.325  1.00 20.00     0.009 C 
ENDBRANCH   9  10
ENDBRANCH   7   9
BRANCH   6  13
HETATM   13  C11 UNL     1     -34.720  16.494  -1.018  1.00 20.00     0.000 C 
HETATM   14  C8  UNL     1     -33.912  17.621  -0.465  1.00 20.00     0.005 C 
ENDBRANCH   6  13
TORSDOF 3
ENDMDL
MODEL 2
REMARK VINA RESULT:      -5.1      2.365      4.535
REMARK  3 active torsions:
REMARK  status: ('A' for Active; 'I' for Inactive)
REMARK    1  A    between atoms: C6_6  and  C11_11 
REMARK    2  A    between atoms: C7_7  and  C12_12 
REMARK    3  A    between atoms: C12_12  and  C13_13 
ROOT
HETATM    1  C1  UNL     1     -36.201  17.267  -3.678  1.00 20.00     0.069 C 
HETATM    2  C2  UNL     1     -33.522  17.433  -5.094  1.00 20.00     0.002 C 
HETATM    3  C3  UNL     1     -33.595  15.906  -5.082  1.00 20.00     0.005 C 
HETATM    4  C4  UNL     1     -33.872  18.082  -3.750  1.00 20.00     0.024 C 
HETATM    5  C5  UNL     1     -34.429  15.840  -2.684  1.00 20.00     0.029 C 
HETATM    6  C6  UNL     1     -33.367  15.336  -3.684  1.00 20.00    -0.013 C 
HETATM    7  C7  UNL     1     -34.914  17.290  -2.939  1.00 20.00     0.050 C 
HETATM    8  N14 UNL     1     -37.207  17.248  -4.255  1.00 20.00    -0.196 NA
ENDROOT
BRANCH   7   9
HETATM    9  C12 UNL     1     -35.161  17.994  -1.593  1.00 20.00     0.028 C 
BRANCH   9  10
HETATM   10  C13 UNL     1     -34.270  17.462  -0.467  1.00 20.00    -0.021 C 
HETATM   11  C9  UNL     1     -33.032  18.330  -0.236  1.00 20.00     0.009 C 
HETATM   12  C10 UNL     1     -35.086  17.371   0.823  1.00 20.00     0.009 C 
ENDBRANCH   9  10
ENDBRANCH   7   9
BRANCH   6  13
HETATM   13  C11 UNL     1     -33.333  13.808  -3.711  1.00 20.00     0.000 C 
HETATM   14  C8  UNL     1     -34.482  13.246  -4.480  1.00 20.00     0.005 C 
ENDBRANCH   6  13
TORSDOF 3
ENDMDL
MODEL 3
REMARK VINA RESULT:      -5.1      0.952      1.555
REMARK  3 active torsions:
REMARK  status: ('A' for Active; 'I' for Inactive)
REMARK    1  A    between atoms: C6_6  and  C11_11 
REMARK    2  A    between atoms: C7_7  and  C12_12 
REMARK    3  A    between atoms: C12_12  and  C13_13 
ROOT
HETATM    1  C1  UNL     1     -35.159  13.644  -4.562  1.00 20.00     0.069 C 
HETATM    2  C2  UNL     1     -33.231  15.988  -4.562  1.00 20.00     0.002 C 
HETATM    3  C3  UNL     1     -33.354  15.890  -3.041  1.00 20.00     0.005 C 
HETATM    4  C4  UNL     1     -34.574  15.926  -5.299  1.00 20.00     0.024 C 
HETATM    5  C5  UNL     1     -35.869  15.553  -3.141  1.00 20.00     0.029 C 
HETATM    6  C6  UNL     1     -34.712  16.383  -2.547  1.00 20.00    -0.013 C 
HETATM    7  C7  UNL     1     -35.624  15.053  -4.588  1.00 20.00     0.050 C 
HETATM    8  N14 UNL     1     -34.796  12.543  -4.540  1.00 20.00    -0.196 NA
ENDROOT
BRANCH   7   9
HETATM    9  C12 UNL     1     -36.945  15.094  -5.377  1.00 20.00     0.028 C 
BRANCH   9  10
HETATM   10  C13 UNL     1     -36.857  15.942  -6.649  1.00 20.00    -0.021 C 
HETATM   11  C9  UNL     1     -37.115  15.129  -7.918  1.00 20.00     0.009 C 
HETATM   12  C10 UNL     1     -37.860  17.094  -6.559  1.00 20.00     0.009 C 
ENDBRANCH   9  10
ENDBRANCH   7   9
BRANCH   6  13
HETATM   13  C11 UNL     1     -34.776  16.383  -1.020  1.00 20.00     0.000 C 
HETATM   14  C8  UNL     1     -34.070  17.564  -0.440  1.00 20.00     0.005 C 
ENDBRANCH   6  13
TORSDOF 3
ENDMDL
MODEL 4
REMARK VINA RESULT:      -5.0      1.553      4.602
REMARK  3 active torsions:
REMARK  status: ('A' for Active; 'I' for Inactive)
REMARK    1  A    between atoms: C6_6  and  C11_11 
REMARK    2  A    between atoms: C7_7  and  C12_12 
REMARK    3  A    between atoms: C12_12  and  C13_13 
ROOT
HETATM    1  C1  UNL     1     -33.837  14.139  -3.633  1.00 20.00     0.069 C 
HETATM    2  C2  UNL     1     -36.791  14.615  -4.139  1.00 20.00     0.002 C 
HETATM    3  C3  UNL     1     -36.344  14.889  -5.575  1.00 20.00     0.005 C 
HETATM    4  C4  UNL     1     -35.935  15.314  -3.076  1.00 20.00     0.024 C 
HETATM    5  C5  UNL     1     -34.342  16.261  -4.821  1.00 20.00     0.029 C 
HETATM    6  C6  UNL     1     -35.612  16.225  -5.697  1.00 20.00    -0.013 C 
HETATM    7  C7  UNL     1     -34.460  15.478  -3.487  1.00 20.00     0.050 C 
HETATM    8  N14 UNL     1     -33.349  13.093  -3.748  1.00 20.00    -0.196 NA
ENDROOT
BRANCH   7   9
HETATM    9  C12 UNL     1     -33.699  16.229  -2.381  1.00 20.00     0.028 C 
BRANCH   9  10
HETATM   10  C13 UNL     1     -34.555  17.287  -1.679  1.00 20.00    -0.021 C 
HETATM   11  C9  UNL     1     -34.700  17.027  -0.178  1.00 20.00     0.009 C 
HETATM   12  C10 UNL     1     -33.939  18.668  -1.907  1.00 20.00     0.009 C 
ENDBRANCH   9  10
ENDBRANCH   7   9
BRANCH   6  13
HETATM   13  C11 UNL     1     -35.271  16.535  -7.154  1.00 20.00     0.000 C 
HETATM   14  C8  UNL     1     -34.941  15.295  -7.918  1.00 20.00     0.005 C 
ENDBRANCH   6  13
TORSDOF 3
ENDMDL
MODEL 5
REMARK VINA RESULT:      -5.0      1.861      2.807
REMARK  3 active torsions:
REMARK  status: ('A' for Active; 'I' for Inactive)
REMARK    1  A    between atoms: C6_6  and  C11_11 
REMARK    2  A    between atoms: C7_7  and  C12_12 
REMARK    3  A    between atoms: C12_12  and  C13_13 
ROOT
HETATM    1  C1  UNL     1     -37.243  14.737  -4.388  1.00 20.00     0.069 C 
HETATM    2  C2  UNL     1     -34.525  13.391  -4.486  1.00 20.00     0.002 C 
HETATM    3  C3  UNL     1     -34.236  14.231  -3.242  1.00 20.00     0.005 C 
HETATM    4  C4  UNL     1     -35.183  14.176  -5.626  1.00 20.00     0.024 C 
HETATM    5  C5  UNL     1     -35.321  16.302  -4.235  1.00 20.00     0.029 C 
HETATM    6  C6  UNL     1     -34.055  15.709  -3.582  1.00 20.00    -0.013 C 
HETATM    7  C7  UNL     1     -36.100  15.312  -5.140  1.00 20.00     0.050 C 
HETATM    8  N14 UNL     1     -38.136  14.288  -3.799  1.00 20.00    -0.196 NA
ENDROOT
BRANCH   7   9
HETATM    9  C12 UNL     1     -36.672  16.066  -6.353  1.00 20.00     0.028 C 
BRANCH   9  10
HETATM   10  C13 UNL     1     -35.864  17.316  -6.716  1.00 20.00    -0.021 C 
HETATM   11  C9  UNL     1     -34.945  17.094  -7.918  1.00 20.00     0.009 C 
HETATM   12  C10 UNL     1     -36.824  18.472  -7.004  1.00 20.00     0.009 C 
ENDBRANCH   9  10
ENDBRANCH   7   9
BRANCH   6  13
HETATM   13  C11 UNL     1     -33.656  16.514  -2.346  1.00 20.00     0.000 C 
HETATM   14  C8  UNL     1     -34.675  16.396  -1.261  1.00 20.00     0.005 C 
ENDBRANCH   6  13
TORSDOF 3
ENDMDL
MODEL 6
REMARK VINA RESULT:      -4.9      1.691      4.481
REMARK  3 active torsions:
REMARK  status: ('A' for Active; 'I' for Inactive)
REMARK    1  A    between atoms: C6_6  and  C11_11 
REMARK    2  A    between atoms: C7_7  and  C12_12 
REMARK    3  A    between atoms: C12_12  and  C13_13 
ROOT
HETATM    1  C1  UNL     1     -33.634  16.585  -4.344  1.00 20.00     0.069 C 
HETATM    2  C2  UNL     1     -34.102  13.587  -4.370  1.00 20.00     0.002 C 
HETATM    3  C3  UNL     1     -35.485  13.963  -4.901  1.00 20.00     0.005 C 
HETATM    4  C4  UNL     1     -33.653  14.418  -3.163  1.00 20.00     0.024 C 
HETATM    5  C5  UNL     1     -35.741  15.870  -3.243  1.00 20.00     0.029 C 
HETATM    6  C6  UNL     1     -36.364  14.579  -3.815  1.00 20.00    -0.013 C 
HETATM    7  C7  UNL     1     -34.192  15.860  -3.176  1.00 20.00     0.050 C 
HETATM    8  N14 UNL     1     -33.199  17.153  -5.258  1.00 20.00    -0.196 NA
ENDROOT
BRANCH   7   9
HETATM    9  C12 UNL     1     -33.727  16.594  -1.906  1.00 20.00     0.028 C 
BRANCH   9  10
HETATM   10  C13 UNL     1     -34.830  17.447  -1.271  1.00 20.00    -0.021 C 
HETATM   11  C9  UNL     1     -34.939  17.237   0.241  1.00 20.00     0.009 C 
HETATM   12  C10 UNL     1     -34.563  18.923  -1.571  1.00 20.00     0.009 C 
ENDBRANCH   9  10
ENDBRANCH   7   9
BRANCH   6  13
HETATM   13  C11 UNL     1     -37.777  14.845  -4.333  1.00 20.00     0.000 C 
HETATM   14  C8  UNL     1     -37.756  15.540  -5.654  1.00 20.00     0.005 C 
ENDBRANCH   6  13
TORSDOF 3
ENDMDL
MODEL 7
REMARK VINA RESULT:      -4.8      1.750      4.633
REMARK  3 active torsions:
REMARK  status: ('A' for Active; 'I' for Inactive)
REMARK    1  A    between atoms: C6_6  and  C11_11 
REMARK    2  A    between atoms: C7_7  and  C12_12 
REMARK    3  A    between atoms: C12_12  and  C13_13 
ROOT
HETATM    1  C1  UNL     1     -33.985  17.144  -4.619  1.00 20.00     0.069 C 
HETATM    2  C2  UNL     1     -33.883  14.260  -3.681  1.00 20.00     0.002 C 
HETATM    3  C3  UNL     1     -35.270  14.165  -4.318  1.00 20.00     0.005 C 
HETATM    4  C4  UNL     1     -33.686  15.500  -2.802  1.00 20.00     0.024 C 
HETATM    5  C5  UNL     1     -35.997  16.405  -3.366  1.00 20.00     0.029 C 
HETATM    6  C6  UNL     1     -36.325  14.903  -3.496  1.00 20.00    -0.013 C 
HETATM    7  C7  UNL     1     -34.482  16.726  -3.285  1.00 20.00     0.050 C 
HETATM    8  N14 UNL     1     -33.597  17.470  -5.662  1.00 20.00    -0.196 NA
ENDROOT
BRANCH   7   9
HETATM    9  C12 UNL     1     -34.256  17.899  -2.315  1.00 20.00     0.028 C 
BRANCH   9  10
HETATM   10  C13 UNL     1     -33.736  17.451  -0.945  1.00 20.00    -0.021 C 
HETATM   11  C9  UNL     1     -32.755  18.451  -0.332  1.00 20.00     0.009 C 
HETATM   12  C10 UNL     1     -34.921  17.242   0.001  1.00 20.00     0.009 C 
ENDBRANCH   9  10
ENDBRANCH   7   9
BRANCH   6  13
HETATM   13  C11 UNL     1     -37.721  14.705  -4.086  1.00 20.00     0.000 C 
HETATM   14  C8  UNL     1     -37.885  15.447  -5.371  1.00 20.00     0.005 C 
ENDBRANCH   6  13
TORSDOF 3
ENDMDL
MODEL 8
REMARK VINA RESULT:      -4.8      2.489      3.674
REMARK  3 active torsions:
REMARK  status: ('A' for Active; 'I' for Inactive)
REMARK    1  A    between atoms: C6_6  and  C11_11 
REMARK    2  A    between atoms: C7_7  and  C12_12 
REMARK    3  A    between atoms: C12_12  and  C13_13 
ROOT
HETATM    1  C1  UNL     1     -33.875  17.819  -4.166  1.00 20.00     0.069 C 
HETATM    2  C2  UNL     1     -36.602  17.636  -2.847  1.00 20.00     0.002 C 
HETATM    3  C3  UNL     1     -35.873  18.180  -1.618  1.00 20.00     0.005 C 
HETATM    4  C4  UNL     1     -35.864  16.493  -3.552  1.00 20.00     0.024 C 
HETATM    5  C5  UNL     1     -33.874  16.652  -1.974  1.00 20.00     0.029 C 
HETATM    6  C6  UNL     1     -34.961  17.129  -0.987  1.00 20.00    -0.013 C 
HETATM    7  C7  UNL     1     -34.331  16.599  -3.455  1.00 20.00     0.050 C 
HETATM    8  N14 UNL     1     -33.518  18.773  -4.721  1.00 20.00    -0.196 NA
ENDROOT
BRANCH   7   9
HETATM    9  C12 UNL     1     -33.687  15.386  -4.148  1.00 20.00     0.028 C 
BRANCH   9  10
HETATM   10  C13 UNL     1     -34.648  14.656  -5.091  1.00 20.00    -0.021 C 
HETATM   11  C9  UNL     1     -34.356  14.940  -6.565  1.00 20.00     0.009 C 
HETATM   12  C10 UNL     1     -34.567  13.151  -4.829  1.00 20.00     0.009 C 
ENDBRANCH   9  10
ENDBRANCH   7   9
BRANCH   6  13
HETATM   13  C11 UNL     1     -34.327  17.652   0.302  1.00 20.00     0.000 C 
HETATM   14  C8  UNL     1     -33.090  18.441   0.026  1.00 20.00     0.005 C 
ENDBRANCH   6  13
TORSDOF 3
ENDMDL
MODEL 9
REMARK VINA RESULT:      -4.4      1.834      2.806
REMARK  3 active torsions:
REMARK  status: ('A' for Active; 'I' for Inactive)
REMARK    1  A    between atoms: C6_6  and  C11_11 
REMARK    2  A    between atoms: C7_7  and  C12_12 
REMARK    3  A    between atoms: C12_12  and  C13_13 
ROOT
HETATM    1  C1  UNL     1     -36.908  15.011  -4.094  1.00 20.00     0.069 C 
HETATM    2  C2  UNL     1     -34.027  14.949  -3.141  1.00 20.00     0.002 C 
HETATM    3  C3  UNL     1     -34.536  15.872  -2.033  1.00 20.00     0.005 C 
HETATM    4  C4  UNL     1     -34.504  15.342  -4.544  1.00 20.00     0.024 C 
HETATM    5  C5  UNL     1     -35.930  17.249  -3.649  1.00 20.00     0.029 C 
HETATM    6  C6  UNL     1     -34.842  17.274  -2.555  1.00 20.00    -0.013 C 
HETATM    7  C7  UNL     1     -35.898  15.994  -4.559  1.00 20.00     0.050 C 
HETATM    8  N14 UNL     1     -37.698  14.243  -3.731  1.00 20.00    -0.196 NA
ENDROOT
BRANCH   7   9
HETATM    9  C12 UNL     1     -36.264  16.393  -5.999  1.00 20.00     0.028 C 
BRANCH   9  10
HETATM   10  C13 UNL     1     -35.273  15.859  -7.038  1.00 20.00    -0.021 C 
HETATM   11  C9  UNL     1     -35.877  14.763  -7.918  1.00 20.00     0.009 C 
HETATM   12  C10 UNL     1     -34.785  17.015  -7.912  1.00 20.00     0.009 C 
ENDBRANCH   9  10
ENDBRANCH   7   9
BRANCH   6  13
HETATM   13  C11 UNL     1     -35.241  18.212  -1.417  1.00 20.00     0.000 C 
HETATM   14  C8  UNL     1     -35.119  17.544  -0.087  1.00 20.00     0.005 C 
ENDBRANCH   6  13
TORSDOF 3
ENDMDL
