MODEL 1
REMARK VINA RESULT:      -6.1      0.000      0.000
REMARK  2 active torsions:
REMARK  status: ('A' for Active; 'I' for Inactive)
REMARK    1  A    between atoms: C2_2  and  C3_3 
REMARK    2  A    between atoms: C3_3  and  C4_4 
ROOT
HETATM    1  C3  UNL     1     -34.941   4.939   4.512  1.00 20.00     0.402 C 
HETATM    2  F7  UNL     1     -34.888   3.622   4.170  1.00 20.00    -0.189 F 
HETATM    3  F8  UNL     1     -36.220   5.341   4.296  1.00 20.00    -0.189 F 
ENDROOT
BRANCH   1   4
HETATM    4  C2  UNL     1     -34.622   5.054   5.992  1.00 20.00     0.313 C 
HETATM    5  C1  UNL     1     -34.131   6.412   6.448  1.00 20.00     0.097 C 
HETATM    6  F5  UNL     1     -35.749   4.752   6.694  1.00 20.00    -0.200 F 
HETATM    7  F6  UNL     1     -33.699   4.116   6.330  1.00 20.00    -0.200 F 
ENDBRANCH   1   4
BRANCH   1   8
HETATM    8  C4  UNL     1     -34.028   5.700   3.582  1.00 20.00     0.460 C 
HETATM    9  F9  UNL     1     -34.310   7.020   3.566  1.00 20.00    -0.165 F 
HETATM   10  F10 UNL     1     -34.156   5.243   2.316  1.00 20.00    -0.165 F 
HETATM   11  F11 UNL     1     -32.733   5.557   3.939  1.00 20.00    -0.165 F 
ENDBRANCH   1   8
TORSDOF 2
ENDMDL
MODEL 2
REMARK VINA RESULT:      -5.8      1.100      3.169
REMARK  2 active torsions:
REMARK  status: ('A' for Active; 'I' for Inactive)
REMARK    1  A    between atoms: C2_2  and  C3_3 
REMARK    2  A    between atoms: C3_3  and  C4_4 
ROOT
HETATM    1  C3  UNL     1     -34.723   5.151   4.529  1.00 20.00     0.402 C 
HETATM    2  F7  UNL     1     -35.984   5.534   4.187  1.00 20.00    -0.189 F 
HETATM    3  F8  UNL     1     -34.433   4.063   3.769  1.00 20.00    -0.189 F 
ENDROOT
BRANCH   1   4
HETATM    4  C2  UNL     1     -33.775   6.281   4.170  1.00 20.00     0.313 C 
HETATM    5  C1  UNL     1     -32.697   5.931   3.166  1.00 20.00     0.097 C 
HETATM    6  F5  UNL     1     -34.511   7.308   3.662  1.00 20.00    -0.200 F 
HETATM    7  F6  UNL     1     -33.188   6.755   5.299  1.00 20.00    -0.200 F 
ENDBRANCH   1   4
BRANCH   1   8
HETATM    8  C4  UNL     1     -34.737   4.741   5.981  1.00 20.00     0.460 C 
HETATM    9  F9  UNL     1     -33.570   4.176   6.357  1.00 20.00    -0.165 F 
HETATM   10  F10 UNL     1     -35.715   3.836   6.206  1.00 20.00    -0.165 F 
HETATM   11  F11 UNL     1     -34.965   5.800   6.788  1.00 20.00    -0.165 F 
ENDBRANCH   1   8
TORSDOF 2
ENDMDL
MODEL 3
REMARK VINA RESULT:      -5.8      1.705      3.050
REMARK  2 active torsions:
REMARK  status: ('A' for Active; 'I' for Inactive)
REMARK    1  A    between atoms: C2_2  and  C3_3 
REMARK    2  A    between atoms: C3_3  and  C4_4 
ROOT
HETATM    1  C3  UNL     1     -33.851   6.525   4.102  1.00 20.00     0.402 C 
HETATM    2  F7  UNL     1     -34.546   7.670   3.858  1.00 20.00    -0.189 F 
HETATM    3  F8  UNL     1     -33.656   6.474   5.445  1.00 20.00    -0.189 F 
ENDROOT
BRANCH   1   4
HETATM    4  C2  UNL     1     -34.713   5.351   3.675  1.00 20.00     0.313 C 
HETATM    5  C1  UNL     1     -34.857   4.244   4.698  1.00 20.00     0.097 C 
HETATM    6  F5  UNL     1     -35.956   5.821   3.381  1.00 20.00    -0.200 F 
HETATM    7  F6  UNL     1     -34.222   4.825   2.523  1.00 20.00    -0.200 F 
ENDBRANCH   1   4
BRANCH   1   8
HETATM    8  C4  UNL     1     -32.509   6.639   3.420  1.00 20.00     0.460 C 
HETATM    9  F9  UNL     1     -31.901   5.440   3.302  1.00 20.00    -0.165 F 
HETATM   10  F10 UNL     1     -31.685   7.442   4.129  1.00 20.00    -0.165 F 
HETATM   11  F11 UNL     1     -32.631   7.166   2.183  1.00 20.00    -0.165 F 
ENDBRANCH   1   8
TORSDOF 2
ENDMDL
MODEL 4
REMARK VINA RESULT:      -5.7      0.838      3.265
REMARK  2 active torsions:
REMARK  status: ('A' for Active; 'I' for Inactive)
REMARK    1  A    between atoms: C2_2  and  C3_3 
REMARK    2  A    between atoms: C3_3  and  C4_4 
ROOT
HETATM    1  C3  UNL     1     -34.952   4.943   4.537  1.00 20.00     0.402 C 
HETATM    2  F7  UNL     1     -36.270   5.211   4.320  1.00 20.00    -0.189 F 
HETATM    3  F8  UNL     1     -34.767   3.638   4.209  1.00 20.00    -0.189 F 
ENDROOT
BRANCH   1   4
HETATM    4  C2  UNL     1     -34.135   5.817   3.602  1.00 20.00     0.313 C 
HETATM    5  C1  UNL     1     -32.641   5.810   3.845  1.00 20.00     0.097 C 
HETATM    6  F5  UNL     1     -34.359   5.399   2.325  1.00 20.00    -0.200 F 
HETATM    7  F6  UNL     1     -34.586   7.096   3.668  1.00 20.00    -0.200 F 
ENDBRANCH   1   4
BRANCH   1   8
HETATM    8  C4  UNL     1     -34.676   5.120   6.010  1.00 20.00     0.460 C 
HETATM    9  F9  UNL     1     -33.684   4.311   6.437  1.00 20.00    -0.165 F 
HETATM   10  F10 UNL     1     -35.778   4.825   6.735  1.00 20.00    -0.165 F 
HETATM   11  F11 UNL     1     -34.327   6.393   6.295  1.00 20.00    -0.165 F 
ENDBRANCH   1   8
TORSDOF 2
ENDMDL
MODEL 5
REMARK VINA RESULT:      -5.6      0.734      2.233
REMARK  2 active torsions:
REMARK  status: ('A' for Active; 'I' for Inactive)
REMARK    1  A    between atoms: C2_2  and  C3_3 
REMARK    2  A    between atoms: C3_3  and  C4_4 
ROOT
HETATM    1  C3  UNL     1     -34.040   5.979   4.473  1.00 20.00     0.402 C 
HETATM    2  F7  UNL     1     -34.303   7.280   4.166  1.00 20.00    -0.189 F 
HETATM    3  F8  UNL     1     -32.754   5.750   4.103  1.00 20.00    -0.189 F 
ENDROOT
BRANCH   1   4
HETATM    4  C2  UNL     1     -34.166   5.817   5.977  1.00 20.00     0.313 C 
HETATM    5  C1  UNL     1     -33.719   7.007   6.800  1.00 20.00     0.097 C 
HETATM    6  F5  UNL     1     -35.472   5.566   6.269  1.00 20.00    -0.200 F 
HETATM    7  F6  UNL     1     -33.470   4.720   6.374  1.00 20.00    -0.200 F 
ENDBRANCH   1   4
BRANCH   1   8
HETATM    8  C4  UNL     1     -34.949   5.110   3.640  1.00 20.00     0.460 C 
HETATM    9  F9  UNL     1     -35.122   3.889   4.189  1.00 20.00    -0.165 F 
HETATM   10  F10 UNL     1     -34.427   4.927   2.406  1.00 20.00    -0.165 F 
HETATM   11  F11 UNL     1     -36.167   5.674   3.489  1.00 20.00    -0.165 F 
ENDBRANCH   1   8
TORSDOF 2
ENDMDL
MODEL 6
REMARK VINA RESULT:      -5.5      1.495      3.325
REMARK  2 active torsions:
REMARK  status: ('A' for Active; 'I' for Inactive)
REMARK    1  A    between atoms: C2_2  and  C3_3 
REMARK    2  A    between atoms: C3_3  and  C4_4 
ROOT
HETATM    1  C3  UNL     1     -34.013   6.169   3.756  1.00 20.00     0.402 C 
HETATM    2  F7  UNL     1     -34.799   7.266   3.574  1.00 20.00    -0.189 F 
HETATM    3  F8  UNL     1     -34.329   5.301   2.761  1.00 20.00    -0.189 F 
ENDROOT
BRANCH   1   4
HETATM    4  C2  UNL     1     -32.564   6.599   3.606  1.00 20.00     0.313 C 
HETATM    5  C1  UNL     1     -32.298   7.620   2.521  1.00 20.00     0.097 C 
HETATM    6  F5  UNL     1     -32.152   7.123   4.793  1.00 20.00    -0.200 F 
HETATM    7  F6  UNL     1     -31.789   5.506   3.382  1.00 20.00    -0.200 F 
ENDBRANCH   1   4
BRANCH   1   8
HETATM    8  C4  UNL     1     -34.379   5.546   5.081  1.00 20.00     0.460 C 
HETATM    9  F9  UNL     1     -33.562   4.520   5.399  1.00 20.00    -0.165 F 
HETATM   10  F10 UNL     1     -35.641   5.060   5.041  1.00 20.00    -0.165 F 
HETATM   11  F11 UNL     1     -34.320   6.450   6.082  1.00 20.00    -0.165 F 
ENDBRANCH   1   8
TORSDOF 2
ENDMDL
MODEL 7
REMARK VINA RESULT:      -5.5      1.213      1.775
REMARK  2 active torsions:
REMARK  status: ('A' for Active; 'I' for Inactive)
REMARK    1  A    between atoms: C2_2  and  C3_3 
REMARK    2  A    between atoms: C3_3  and  C4_4 
ROOT
HETATM    1  C3  UNL     1     -34.066   6.141   3.781  1.00 20.00     0.402 C 
HETATM    2  F7  UNL     1     -34.485   5.273   2.818  1.00 20.00    -0.189 F 
HETATM    3  F8  UNL     1     -34.836   7.252   3.656  1.00 20.00    -0.189 F 
ENDROOT
BRANCH   1   4
HETATM    4  C2  UNL     1     -34.322   5.502   5.134  1.00 20.00     0.313 C 
HETATM    5  C1  UNL     1     -34.116   6.407   6.330  1.00 20.00     0.097 C 
HETATM    6  F5  UNL     1     -35.608   5.055   5.156  1.00 20.00    -0.200 F 
HETATM    7  F6  UNL     1     -33.534   4.404   5.272  1.00 20.00    -0.200 F 
ENDBRANCH   1   4
BRANCH   1   8
HETATM    8  C4  UNL     1     -32.632   6.507   3.488  1.00 20.00     0.460 C 
HETATM    9  F9  UNL     1     -32.069   7.193   4.504  1.00 20.00    -0.165 F 
HETATM   10  F10 UNL     1     -32.559   7.286   2.385  1.00 20.00    -0.165 F 
HETATM   11  F11 UNL     1     -31.880   5.407   3.262  1.00 20.00    -0.165 F 
ENDBRANCH   1   8
TORSDOF 2
ENDMDL
MODEL 8
REMARK VINA RESULT:      -5.5      1.154      3.258
REMARK  2 active torsions:
REMARK  status: ('A' for Active; 'I' for Inactive)
REMARK    1  A    between atoms: C2_2  and  C3_3 
REMARK    2  A    between atoms: C3_3  and  C4_4 
ROOT
HETATM    1  C3  UNL     1     -33.997   5.598   4.969  1.00 20.00     0.402 C 
HETATM    2  F7  UNL     1     -32.931   4.836   5.341  1.00 20.00    -0.189 F 
HETATM    3  F8  UNL     1     -34.101   6.589   5.893  1.00 20.00    -0.189 F 
ENDROOT
BRANCH   1   4
HETATM    4  C2  UNL     1     -33.689   6.207   3.613  1.00 20.00     0.313 C 
HETATM    5  C1  UNL     1     -32.231   6.520   3.356  1.00 20.00     0.097 C 
HETATM    6  F5  UNL     1     -34.113   5.340   2.652  1.00 20.00    -0.200 F 
HETATM    7  F6  UNL     1     -34.419   7.341   3.450  1.00 20.00    -0.200 F 
ENDBRANCH   1   4
BRANCH   1   8
HETATM    8  C4  UNL     1     -35.234   4.737   5.038  1.00 20.00     0.460 C 
HETATM    9  F9  UNL     1     -36.239   5.237   4.288  1.00 20.00    -0.165 F 
HETATM   10  F10 UNL     1     -35.681   4.655   6.311  1.00 20.00    -0.165 F 
HETATM   11  F11 UNL     1     -34.982   3.480   4.611  1.00 20.00    -0.165 F 
ENDBRANCH   1   8
TORSDOF 2
ENDMDL
MODEL 9
REMARK VINA RESULT:      -5.4      1.286      3.389
REMARK  2 active torsions:
REMARK  status: ('A' for Active; 'I' for Inactive)
REMARK    1  A    between atoms: C2_2  and  C3_3 
REMARK    2  A    between atoms: C3_3  and  C4_4 
ROOT
HETATM    1  C3  UNL     1     -33.873   6.400   4.547  1.00 20.00     0.402 C 
HETATM    2  F7  UNL     1     -33.064   6.864   5.540  1.00 20.00    -0.189 F 
HETATM    3  F8  UNL     1     -34.724   7.413   4.242  1.00 20.00    -0.189 F 
ENDROOT
BRANCH   1   4
HETATM    4  C2  UNL     1     -33.007   6.091   3.340  1.00 20.00     0.313 C 
HETATM    5  C1  UNL     1     -32.447   7.297   2.615  1.00 20.00     0.097 C 
HETATM    6  F5  UNL     1     -31.963   5.321   3.751  1.00 20.00    -0.200 F 
HETATM    7  F6  UNL     1     -33.713   5.336   2.458  1.00 20.00    -0.200 F 
ENDBRANCH   1   4
BRANCH   1   8
HETATM    8  C4  UNL     1     -34.671   5.243   5.098  1.00 20.00     0.460 C 
HETATM    9  F9  UNL     1     -35.774   4.996   4.361  1.00 20.00    -0.165 F 
HETATM   10  F10 UNL     1     -35.079   5.509   6.359  1.00 20.00    -0.165 F 
HETATM   11  F11 UNL     1     -33.934   4.112   5.135  1.00 20.00    -0.165 F 
ENDBRANCH   1   8
TORSDOF 2
ENDMDL
