MODEL 1
REMARK VINA RESULT:      -4.6      0.000      0.000
REMARK  5 active torsions:
REMARK  status: ('A' for Active; 'I' for Inactive)
REMARK    1  A    between atoms: C6_6  and  C8_8 
REMARK    2  A    between atoms: C7_7  and  C11_11 
REMARK    3  A    between atoms: C8_8  and  C10_10 
REMARK    4  A    between atoms: C9_9  and  C10_10 
REMARK    5  A    between atoms: C9_9  and  C11_11 
ROOT
HETATM    1  C1  UNL     1     -34.792  13.731  -5.148  1.00 20.00     0.069 C 
HETATM    2  C5  UNL     1     -34.613  14.856  -7.328  1.00 20.00     0.031 C 
HETATM    3  C11 UNL     1     -34.804  15.057  -5.812  1.00 20.00     0.045 C 
HETATM    4  N12 UNL     1     -34.792  12.693  -4.629  1.00 20.00    -0.196 NA
ENDROOT
BRANCH   3   5
HETATM    5  C7  UNL     1     -36.211  15.698  -5.602  1.00 20.00     0.020 C 
HETATM    6  C3  UNL     1     -37.094  15.021  -4.556  1.00 20.00     0.007 C 
ENDBRANCH   3   5
BRANCH   3   7
HETATM    7  C9  UNL     1     -33.703  15.984  -5.215  1.00 20.00     0.028 C 
BRANCH   7   8
HETATM    8  C10 UNL     1     -34.104  17.047  -4.155  1.00 20.00    -0.017 C 
HETATM    9  C4  UNL     1     -33.550  18.409  -4.605  1.00 20.00     0.010 C 
BRANCH   8  10
HETATM   10  C8  UNL     1     -33.627  16.687  -2.733  1.00 20.00     0.004 C 
BRANCH  10  11
HETATM   11  C6  UNL     1     -34.736  16.167  -1.813  1.00 20.00    -0.004 C 
HETATM   12  C2  UNL     1     -34.720  16.880  -0.469  1.00 20.00     0.005 C 
ENDBRANCH  10  11
ENDBRANCH   8  10
ENDBRANCH   7   8
ENDBRANCH   3   7
TORSDOF 5
ENDMDL
MODEL 2
REMARK VINA RESULT:      -4.5      1.493      2.301
REMARK  5 active torsions:
REMARK  status: ('A' for Active; 'I' for Inactive)
REMARK    1  A    between atoms: C6_6  and  C8_8 
REMARK    2  A    between atoms: C7_7  and  C11_11 
REMARK    3  A    between atoms: C8_8  and  C10_10 
REMARK    4  A    between atoms: C9_9  and  C10_10 
REMARK    5  A    between atoms: C9_9  and  C11_11 
ROOT
HETATM    1  C1  UNL     1     -36.334  14.408  -4.091  1.00 20.00     0.069 C 
HETATM    2  C5  UNL     1     -34.058  13.547  -3.735  1.00 20.00     0.031 C 
HETATM    3  C11 UNL     1     -34.915  14.585  -4.484  1.00 20.00     0.045 C 
HETATM    4  N12 UNL     1     -37.447  14.264  -3.791  1.00 20.00    -0.196 NA
ENDROOT
BRANCH   3   5
HETATM    5  C7  UNL     1     -34.788  14.279  -6.010  1.00 20.00     0.020 C 
HETATM    6  C3  UNL     1     -34.308  15.440  -6.878  1.00 20.00     0.007 C 
ENDBRANCH   3   5
BRANCH   3   7
HETATM    7  C9  UNL     1     -34.437  16.039  -4.193  1.00 20.00     0.028 C 
BRANCH   7   8
HETATM    8  C10 UNL     1     -34.972  16.770  -2.930  1.00 20.00    -0.017 C 
HETATM    9  C4  UNL     1     -35.184  18.251  -3.285  1.00 20.00     0.010 C 
BRANCH   8  10
HETATM   10  C8  UNL     1     -34.046  16.612  -1.707  1.00 20.00     0.004 C 
BRANCH  10  11
HETATM   11  C6  UNL     1     -34.717  16.934  -0.367  1.00 20.00    -0.004 C 
HETATM   12  C2  UNL     1     -34.035  18.104   0.326  1.00 20.00     0.005 C 
ENDBRANCH  10  11
ENDBRANCH   8  10
ENDBRANCH   7   8
ENDBRANCH   3   7
TORSDOF 5
ENDMDL
MODEL 3
REMARK VINA RESULT:      -4.5      1.999      4.009
REMARK  5 active torsions:
REMARK  status: ('A' for Active; 'I' for Inactive)
REMARK    1  A    between atoms: C6_6  and  C8_8 
REMARK    2  A    between atoms: C7_7  and  C11_11 
REMARK    3  A    between atoms: C8_8  and  C10_10 
REMARK    4  A    between atoms: C9_9  and  C10_10 
REMARK    5  A    between atoms: C9_9  and  C11_11 
ROOT
HETATM    1  C1  UNL     1     -34.547  16.150  -2.030  1.00 20.00     0.069 C 
HETATM    2  C5  UNL     1     -33.093  15.087  -3.705  1.00 20.00     0.031 C 
HETATM    3  C11 UNL     1     -34.491  15.676  -3.434  1.00 20.00     0.045 C 
HETATM    4  N12 UNL     1     -34.595  16.513  -0.928  1.00 20.00    -0.196 NA
ENDROOT
BRANCH   3   5
HETATM    5  C7  UNL     1     -35.524  14.518  -3.602  1.00 20.00     0.020 C 
HETATM    6  C3  UNL     1     -34.982  13.238  -4.234  1.00 20.00     0.007 C 
ENDBRANCH   3   5
BRANCH   3   7
HETATM    7  C9  UNL     1     -34.825  16.833  -4.422  1.00 20.00     0.028 C 
BRANCH   7   8
HETATM    8  C10 UNL     1     -33.884  17.089  -5.632  1.00 20.00    -0.017 C 
HETATM    9  C4  UNL     1     -33.521  18.583  -5.652  1.00 20.00     0.010 C 
BRANCH   8  10
HETATM   10  C8  UNL     1     -34.495  16.641  -6.975  1.00 20.00     0.004 C 
BRANCH  10  11
HETATM   11  C6  UNL     1     -34.380  15.137  -7.244  1.00 20.00    -0.004 C 
HETATM   12  C2  UNL     1     -35.716  14.547  -7.671  1.00 20.00     0.005 C 
ENDBRANCH  10  11
ENDBRANCH   8  10
ENDBRANCH   7   8
ENDBRANCH   3   7
TORSDOF 5
ENDMDL
MODEL 4
REMARK VINA RESULT:      -4.5      1.139      2.442
REMARK  5 active torsions:
REMARK  status: ('A' for Active; 'I' for Inactive)
REMARK    1  A    between atoms: C6_6  and  C8_8 
REMARK    2  A    between atoms: C7_7  and  C11_11 
REMARK    3  A    between atoms: C8_8  and  C10_10 
REMARK    4  A    between atoms: C9_9  and  C10_10 
REMARK    5  A    between atoms: C9_9  and  C11_11 
ROOT
HETATM    1  C1  UNL     1     -34.502  13.836  -4.984  1.00 20.00     0.069 C 
HETATM    2  C5  UNL     1     -33.179  15.907  -4.893  1.00 20.00     0.031 C 
HETATM    3  C11 UNL     1     -34.467  15.251  -5.426  1.00 20.00     0.045 C 
HETATM    4  N12 UNL     1     -34.526  12.725  -4.647  1.00 20.00    -0.196 NA
ENDROOT
BRANCH   3   5
HETATM    5  C7  UNL     1     -34.391  15.276  -6.985  1.00 20.00     0.020 C 
HETATM    6  C3  UNL     1     -35.506  14.527  -7.712  1.00 20.00     0.007 C 
ENDBRANCH   3   5
BRANCH   3   7
HETATM    7  C9  UNL     1     -35.738  16.012  -4.945  1.00 20.00     0.028 C 
BRANCH   7   8
HETATM    8  C10 UNL     1     -36.321  15.697  -3.538  1.00 20.00    -0.017 C 
HETATM    9  C4  UNL     1     -37.851  15.617  -3.658  1.00 20.00     0.010 C 
BRANCH   8  10
HETATM   10  C8  UNL     1     -35.893  16.721  -2.468  1.00 20.00     0.004 C 
BRANCH  10  11
HETATM   11  C6  UNL     1     -34.700  16.274  -1.615  1.00 20.00    -0.004 C 
HETATM   12  C2  UNL     1     -34.626  17.058  -0.313  1.00 20.00     0.005 C 
ENDBRANCH  10  11
ENDBRANCH   8  10
ENDBRANCH   7   8
ENDBRANCH   3   7
TORSDOF 5
ENDMDL
MODEL 5
REMARK VINA RESULT:      -4.4      1.353      2.951
REMARK  5 active torsions:
REMARK  status: ('A' for Active; 'I' for Inactive)
REMARK    1  A    between atoms: C6_6  and  C8_8 
REMARK    2  A    between atoms: C7_7  and  C11_11 
REMARK    3  A    between atoms: C8_8  and  C10_10 
REMARK    4  A    between atoms: C9_9  and  C10_10 
REMARK    5  A    between atoms: C9_9  and  C11_11 
ROOT
HETATM    1  C1  UNL     1     -34.451  13.669  -4.315  1.00 20.00     0.069 C 
HETATM    2  C5  UNL     1     -32.372  14.736  -3.547  1.00 20.00     0.031 C 
HETATM    3  C11 UNL     1     -33.825  14.977  -4.000  1.00 20.00     0.045 C 
HETATM    4  N12 UNL     1     -34.939  12.647  -4.570  1.00 20.00    -0.196 NA
ENDROOT
BRANCH   3   5
HETATM    5  C7  UNL     1     -33.768  15.820  -5.313  1.00 20.00     0.020 C 
HETATM    6  C3  UNL     1     -34.546  15.251  -6.497  1.00 20.00     0.007 C 
ENDBRANCH   3   5
BRANCH   3   7
HETATM    7  C9  UNL     1     -34.645  15.736  -2.915  1.00 20.00     0.028 C 
BRANCH   7   8
HETATM    8  C10 UNL     1     -33.906  16.705  -1.950  1.00 20.00    -0.017 C 
HETATM    9  C4  UNL     1     -34.653  16.707  -0.606  1.00 20.00     0.010 C 
BRANCH   8  10
HETATM   10  C8  UNL     1     -33.769  18.131  -2.520  1.00 20.00     0.004 C 
BRANCH  10  11
HETATM   11  C6  UNL     1     -35.060  18.691  -3.126  1.00 20.00    -0.004 C 
HETATM   12  C2  UNL     1     -34.823  19.236  -4.526  1.00 20.00     0.005 C 
ENDBRANCH  10  11
ENDBRANCH   8  10
ENDBRANCH   7   8
ENDBRANCH   3   7
TORSDOF 5
ENDMDL
MODEL 6
REMARK VINA RESULT:      -4.4      1.835      2.378
REMARK  5 active torsions:
REMARK  status: ('A' for Active; 'I' for Inactive)
REMARK    1  A    between atoms: C6_6  and  C8_8 
REMARK    2  A    between atoms: C7_7  and  C11_11 
REMARK    3  A    between atoms: C8_8  and  C10_10 
REMARK    4  A    between atoms: C9_9  and  C10_10 
REMARK    5  A    between atoms: C9_9  and  C11_11 
ROOT
HETATM    1  C1  UNL     1     -37.434  14.676  -4.141  1.00 20.00     0.069 C 
HETATM    2  C5  UNL     1     -35.628  14.352  -5.779  1.00 20.00     0.031 C 
HETATM    3  C11 UNL     1     -36.083  15.144  -4.539  1.00 20.00     0.045 C 
HETATM    4  N12 UNL     1     -38.494  14.316  -3.834  1.00 20.00    -0.196 NA
ENDROOT
BRANCH   3   5
HETATM    5  C7  UNL     1     -36.190  16.644  -4.958  1.00 20.00     0.020 C 
HETATM    6  C3  UNL     1     -35.646  16.981  -6.345  1.00 20.00     0.007 C 
ENDBRANCH   3   5
BRANCH   3   7
HETATM    7  C9  UNL     1     -35.076  14.992  -3.360  1.00 20.00     0.028 C 
BRANCH   7   8
HETATM    8  C10 UNL     1     -33.783  15.855  -3.355  1.00 20.00    -0.017 C 
HETATM    9  C4  UNL     1     -32.577  14.915  -3.512  1.00 20.00     0.010 C 
BRANCH   8  10
HETATM   10  C8  UNL     1     -33.652  16.733  -2.094  1.00 20.00     0.004 C 
BRANCH  10  11
HETATM   11  C6  UNL     1     -34.726  16.469  -1.033  1.00 20.00    -0.004 C 
HETATM   12  C2  UNL     1     -34.626  17.464   0.114  1.00 20.00     0.005 C 
ENDBRANCH  10  11
ENDBRANCH   8  10
ENDBRANCH   7   8
ENDBRANCH   3   7
TORSDOF 5
ENDMDL
MODEL 7
REMARK VINA RESULT:      -4.4      1.677      3.891
REMARK  5 active torsions:
REMARK  status: ('A' for Active; 'I' for Inactive)
REMARK    1  A    between atoms: C6_6  and  C8_8 
REMARK    2  A    between atoms: C7_7  and  C11_11 
REMARK    3  A    between atoms: C8_8  and  C10_10 
REMARK    4  A    between atoms: C9_9  and  C10_10 
REMARK    5  A    between atoms: C9_9  and  C11_11 
ROOT
HETATM    1  C1  UNL     1     -37.305  15.217  -3.516  1.00 20.00     0.069 C 
HETATM    2  C5  UNL     1     -36.900  17.444  -2.554  1.00 20.00     0.031 C 
HETATM    3  C11 UNL     1     -36.277  16.271  -3.335  1.00 20.00     0.045 C 
HETATM    4  N12 UNL     1     -38.106  14.387  -3.651  1.00 20.00    -0.196 NA
ENDROOT
BRANCH   3   5
HETATM    5  C7  UNL     1     -35.127  15.687  -2.456  1.00 20.00     0.020 C 
HETATM    6  C3  UNL     1     -34.669  16.569  -1.297  1.00 20.00     0.007 C 
ENDBRANCH   3   5
BRANCH   3   7
HETATM    7  C9  UNL     1     -35.712  16.735  -4.710  1.00 20.00     0.028 C 
BRANCH   7   8
HETATM    8  C10 UNL     1     -34.278  16.303  -5.123  1.00 20.00    -0.017 C 
HETATM    9  C4  UNL     1     -33.434  17.571  -5.333  1.00 20.00     0.010 C 
BRANCH   8  10
HETATM   10  C8  UNL     1     -34.258  15.401  -6.373  1.00 20.00     0.004 C 
BRANCH  10  11
HETATM   11  C6  UNL     1     -35.087  14.119  -6.233  1.00 20.00    -0.004 C 
HETATM   12  C2  UNL     1     -34.580  13.255  -5.088  1.00 20.00     0.005 C 
ENDBRANCH  10  11
ENDBRANCH   8  10
ENDBRANCH   7   8
ENDBRANCH   3   7
TORSDOF 5
ENDMDL
MODEL 8
REMARK VINA RESULT:      -4.3      1.332      2.165
REMARK  5 active torsions:
REMARK  status: ('A' for Active; 'I' for Inactive)
REMARK    1  A    between atoms: C6_6  and  C8_8 
REMARK    2  A    between atoms: C7_7  and  C11_11 
REMARK    3  A    between atoms: C8_8  and  C10_10 
REMARK    4  A    between atoms: C9_9  and  C10_10 
REMARK    5  A    between atoms: C9_9  and  C11_11 
ROOT
HETATM    1  C1  UNL     1     -35.374  14.524  -6.566  1.00 20.00     0.069 C 
HETATM    2  C5  UNL     1     -36.524  15.025  -4.450  1.00 20.00     0.031 C 
HETATM    3  C11 UNL     1     -35.162  14.749  -5.116  1.00 20.00     0.045 C 
HETATM    4  N12 UNL     1     -35.541  14.339  -7.700  1.00 20.00    -0.196 NA
ENDROOT
BRANCH   3   5
HETATM    5  C7  UNL     1     -34.600  13.432  -4.494  1.00 20.00     0.020 C 
HETATM    6  C3  UNL     1     -33.265  13.565  -3.763  1.00 20.00     0.007 C 
ENDBRANCH   3   5
BRANCH   3   7
HETATM    7  C9  UNL     1     -34.161  15.919  -4.878  1.00 20.00     0.028 C 
BRANCH   7   8
HETATM    8  C10 UNL     1     -34.527  17.029  -3.854  1.00 20.00    -0.017 C 
HETATM    9  C4  UNL     1     -34.205  18.393  -4.488  1.00 20.00     0.010 C 
BRANCH   8  10
HETATM   10  C8  UNL     1     -33.812  16.856  -2.499  1.00 20.00     0.004 C 
BRANCH  10  11
HETATM   11  C6  UNL     1     -34.693  16.256  -1.398  1.00 20.00    -0.004 C 
HETATM   12  C2  UNL     1     -34.806  17.195  -0.206  1.00 20.00     0.005 C 
ENDBRANCH  10  11
ENDBRANCH   8  10
ENDBRANCH   7   8
ENDBRANCH   3   7
TORSDOF 5
ENDMDL
MODEL 9
REMARK VINA RESULT:      -4.3      1.672      2.927
REMARK  5 active torsions:
REMARK  status: ('A' for Active; 'I' for Inactive)
REMARK    1  A    between atoms: C6_6  and  C8_8 
REMARK    2  A    between atoms: C7_7  and  C11_11 
REMARK    3  A    between atoms: C8_8  and  C10_10 
REMARK    4  A    between atoms: C9_9  and  C10_10 
REMARK    5  A    between atoms: C9_9  and  C11_11 
ROOT
HETATM    1  C1  UNL     1     -33.750  15.807  -5.310  1.00 20.00     0.069 C 
HETATM    2  C5  UNL     1     -34.908  14.621  -7.128  1.00 20.00     0.031 C 
HETATM    3  C11 UNL     1     -34.865  14.876  -5.609  1.00 20.00     0.045 C 
HETATM    4  N12 UNL     1     -32.871  16.528  -5.075  1.00 20.00    -0.196 NA
ENDROOT
BRANCH   3   5
HETATM    5  C7  UNL     1     -34.562  13.510  -4.917  1.00 20.00     0.020 C 
HETATM    6  C3  UNL     1     -33.445  13.532  -3.876  1.00 20.00     0.007 C 
ENDBRANCH   3   5
BRANCH   3   7
HETATM    7  C9  UNL     1     -36.217  15.447  -5.087  1.00 20.00     0.028 C 
BRANCH   7   8
HETATM    8  C10 UNL     1     -36.570  15.297  -3.580  1.00 20.00    -0.017 C 
HETATM    9  C4  UNL     1     -38.096  15.156  -3.455  1.00 20.00     0.010 C 
BRANCH   8  10
HETATM   10  C8  UNL     1     -36.039  16.461  -2.720  1.00 20.00     0.004 C 
BRANCH  10  11
HETATM   11  C6  UNL     1     -34.836  16.095  -1.845  1.00 20.00    -0.004 C 
HETATM   12  C2  UNL     1     -34.800  16.933  -0.575  1.00 20.00     0.005 C 
ENDBRANCH  10  11
ENDBRANCH   8  10
ENDBRANCH   7   8
ENDBRANCH   3   7
TORSDOF 5
ENDMDL
