MODEL 1
REMARK VINA RESULT:      -4.6      0.000      0.000
REMARK  2 active torsions:
REMARK  status: ('A' for Active; 'I' for Inactive)
REMARK    1  A    between atoms: C9_9  and  C10_10 
REMARK    2  A    between atoms: C9_9  and  N11_11 
ROOT
HETATM    1  C1  UNL     1     -34.761  13.293  -4.978  1.00 20.00     0.002 C 
HETATM    2  C2  UNL     1     -33.565  17.960  -4.818  1.00 20.00     0.028 C 
HETATM    3  C3  UNL     1     -34.601  14.405  -6.031  1.00 20.00     0.007 C 
HETATM    4  C4  UNL     1     -34.136  16.952  -5.820  1.00 20.00     0.008 C 
HETATM    5  C5  UNL     1     -34.534  13.955  -3.607  1.00 20.00     0.034 C 
HETATM    6  C6  UNL     1     -34.152  17.806  -3.414  1.00 20.00     0.235 C 
HETATM    7  C7  UNL     1     -33.979  15.555  -5.252  1.00 20.00     0.016 C 
HETATM    8  C8  UNL     1     -34.687  15.436  -3.908  1.00 20.00     0.192 C 
HETATM    9  N11 UNL     1     -34.037  16.366  -2.933  1.00 20.00    -0.065 N 
HETATM   10  H31 UNL     1     -33.034  16.139  -2.891  1.00 20.00     0.280 HD
ENDROOT
BRANCH   9  11
HETATM   11  C9  UNL     1     -34.571  16.222  -1.533  1.00 20.00     0.250 C 
BRANCH  11  12
HETATM   12  C10 UNL     1     -34.100  17.381  -0.674  1.00 20.00     0.142 C 
HETATM   13 CL12 UNL     1     -35.020  17.484   0.847  1.00 20.00    -0.129 Cl
ENDBRANCH  11  12
ENDBRANCH   9  11
TORSDOF 2
ENDMDL
MODEL 2
REMARK VINA RESULT:      -4.6      2.001      3.918
REMARK  2 active torsions:
REMARK  status: ('A' for Active; 'I' for Inactive)
REMARK    1  A    between atoms: C9_9  and  C10_10 
REMARK    2  A    between atoms: C9_9  and  N11_11 
ROOT
HETATM    1  C1  UNL     1     -34.427  17.432  -0.754  1.00 20.00     0.002 C 
HETATM    2  C2  UNL     1     -33.736  17.716  -5.516  1.00 20.00     0.028 C 
HETATM    3  C3  UNL     1     -34.018  18.557  -1.722  1.00 20.00     0.007 C 
HETATM    4  C4  UNL     1     -33.484  18.561  -4.264  1.00 20.00     0.008 C 
HETATM    5  C5  UNL     1     -34.542  16.151  -1.598  1.00 20.00     0.034 C 
HETATM    6  C6  UNL     1     -33.427  16.232  -5.308  1.00 20.00     0.235 C 
HETATM    7  C7  UNL     1     -34.235  17.947  -3.099  1.00 20.00     0.016 C 
HETATM    8  C8  UNL     1     -33.795  16.507  -2.872  1.00 20.00     0.192 C 
HETATM    9  N11 UNL     1     -34.146  15.694  -4.079  1.00 20.00    -0.065 N 
HETATM   10  H31 UNL     1     -35.156  15.794  -4.250  1.00 20.00     0.280 HD
ENDROOT
BRANCH   9  11
HETATM   11  C9  UNL     1     -33.881  14.224  -3.900  1.00 20.00     0.250 C 
BRANCH  11  12
HETATM   12  C10 UNL     1     -35.101  13.420  -4.310  1.00 20.00     0.142 C 
HETATM   13 CL12 UNL     1     -36.605  14.335  -4.047  1.00 20.00    -0.129 Cl
ENDBRANCH  11  12
ENDBRANCH   9  11
TORSDOF 2
ENDMDL
MODEL 3
REMARK VINA RESULT:      -4.5      2.910      5.021
REMARK  2 active torsions:
REMARK  status: ('A' for Active; 'I' for Inactive)
REMARK    1  A    between atoms: C9_9  and  C10_10 
REMARK    2  A    between atoms: C9_9  and  N11_11 
ROOT
HETATM    1  C1  UNL     1     -33.678  18.410  -4.359  1.00 20.00     0.002 C 
HETATM    2  C2  UNL     1     -34.123  13.640  -3.822  1.00 20.00     0.028 C 
HETATM    3  C3  UNL     1     -33.950  17.477  -3.165  1.00 20.00     0.007 C 
HETATM    4  C4  UNL     1     -34.364  14.917  -3.011  1.00 20.00     0.008 C 
HETATM    5  C5  UNL     1     -33.627  17.514  -5.609  1.00 20.00     0.034 C 
HETATM    6  C6  UNL     1     -34.560  13.768  -5.283  1.00 20.00     0.235 C 
HETATM    7  C7  UNL     1     -33.719  16.084  -3.733  1.00 20.00     0.016 C 
HETATM    8  C8  UNL     1     -34.284  16.227  -5.140  1.00 20.00     0.192 C 
HETATM    9  N11 UNL     1     -33.944  15.001  -5.928  1.00 20.00    -0.065 N 
HETATM   10  H31 UNL     1     -32.922  14.878  -5.905  1.00 20.00     0.280 HD
ENDROOT
BRANCH   9  11
HETATM   11  C9  UNL     1     -34.334  15.102  -7.378  1.00 20.00     0.250 C 
BRANCH  11  12
HETATM   12  C10 UNL     1     -35.616  14.330  -7.628  1.00 20.00     0.142 C 
HETATM   13 CL12 UNL     1     -37.054  15.343  -7.352  1.00 20.00    -0.129 Cl
ENDBRANCH  11  12
ENDBRANCH   9  11
TORSDOF 2
ENDMDL
MODEL 4
REMARK VINA RESULT:      -4.5      3.046      3.753
REMARK  2 active torsions:
REMARK  status: ('A' for Active; 'I' for Inactive)
REMARK    1  A    between atoms: C9_9  and  C10_10 
REMARK    2  A    between atoms: C9_9  and  N11_11 
ROOT
HETATM    1  C1  UNL     1     -34.541  13.362  -4.644  1.00 20.00     0.002 C 
HETATM    2  C2  UNL     1     -34.939  17.006  -1.515  1.00 20.00     0.028 C 
HETATM    3  C3  UNL     1     -33.544  14.174  -3.799  1.00 20.00     0.007 C 
HETATM    4  C4  UNL     1     -33.841  16.260  -2.278  1.00 20.00     0.008 C 
HETATM    5  C5  UNL     1     -35.926  13.989  -4.408  1.00 20.00     0.034 C 
HETATM    6  C6  UNL     1     -36.184  17.271  -2.364  1.00 20.00     0.235 C 
HETATM    7  C7  UNL     1     -34.434  15.003  -2.884  1.00 20.00     0.016 C 
HETATM    8  C8  UNL     1     -35.594  15.346  -3.810  1.00 20.00     0.192 C 
HETATM    9  N11 UNL     1     -36.684  15.986  -3.010  1.00 20.00    -0.065 N 
HETATM   10  H31 UNL     1     -36.942  15.343  -2.248  1.00 20.00     0.280 HD
ENDROOT
BRANCH   9  11
HETATM   11  C9  UNL     1     -37.936  16.235  -3.807  1.00 20.00     0.250 C 
BRANCH  11  12
HETATM   12  C10 UNL     1     -39.067  15.368  -3.286  1.00 20.00     0.142 C 
HETATM   13 CL12 UNL     1     -39.755  14.349  -4.573  1.00 20.00    -0.129 Cl
ENDBRANCH  11  12
ENDBRANCH   9  11
TORSDOF 2
ENDMDL
MODEL 5
REMARK VINA RESULT:      -4.4      1.815      2.945
REMARK  2 active torsions:
REMARK  status: ('A' for Active; 'I' for Inactive)
REMARK    1  A    between atoms: C9_9  and  C10_10 
REMARK    2  A    between atoms: C9_9  and  N11_11 
ROOT
HETATM    1  C1  UNL     1     -38.091  16.059  -3.830  1.00 20.00     0.002 C 
HETATM    2  C2  UNL     1     -33.877  13.724  -3.701  1.00 20.00     0.028 C 
HETATM    3  C3  UNL     1     -37.596  14.694  -4.340  1.00 20.00     0.007 C 
HETATM    4  C4  UNL     1     -35.240  13.601  -4.389  1.00 20.00     0.008 C 
HETATM    5  C5  UNL     1     -36.866  16.771  -3.230  1.00 20.00     0.034 C 
HETATM    6  C6  UNL     1     -33.364  15.164  -3.640  1.00 20.00     0.235 C 
HETATM    7  C7  UNL     1     -36.211  14.558  -3.725  1.00 20.00     0.016 C 
HETATM    8  C8  UNL     1     -35.696  15.990  -3.803  1.00 20.00     0.192 C 
HETATM    9  N11 UNL     1     -34.413  16.088  -3.038  1.00 20.00    -0.065 N 
HETATM   10  H31 UNL     1     -34.588  15.765  -2.076  1.00 20.00     0.280 HD
ENDROOT
BRANCH   9  11
HETATM   11  C9  UNL     1     -33.894  17.497  -2.933  1.00 20.00     0.250 C 
BRANCH  11  12
HETATM   12  C10 UNL     1     -33.677  17.865  -1.477  1.00 20.00     0.142 C 
HETATM   13 CL12 UNL     1     -34.605  16.805  -0.389  1.00 20.00    -0.129 Cl
ENDBRANCH  11  12
ENDBRANCH   9  11
TORSDOF 2
ENDMDL
MODEL 6
REMARK VINA RESULT:      -4.4      1.180      2.892
REMARK  2 active torsions:
REMARK  status: ('A' for Active; 'I' for Inactive)
REMARK    1  A    between atoms: C9_9  and  C10_10 
REMARK    2  A    between atoms: C9_9  and  N11_11 
ROOT
HETATM    1  C1  UNL     1     -34.693  16.647  -7.617  1.00 20.00     0.002 C 
HETATM    2  C2  UNL     1     -34.960  13.410  -4.055  1.00 20.00     0.028 C 
HETATM    3  C3  UNL     1     -34.793  15.112  -7.556  1.00 20.00     0.007 C 
HETATM    4  C4  UNL     1     -34.738  13.438  -5.570  1.00 20.00     0.008 C 
HETATM    5  C5  UNL     1     -34.593  17.135  -6.161  1.00 20.00     0.034 C 
HETATM    6  C6  UNL     1     -34.217  14.528  -3.320  1.00 20.00     0.235 C 
HETATM    7  C7  UNL     1     -35.070  14.824  -6.088  1.00 20.00     0.016 C 
HETATM    8  C8  UNL     1     -34.211  15.877  -5.399  1.00 20.00     0.192 C 
HETATM    9  N11 UNL     1     -34.528  15.884  -3.937  1.00 20.00    -0.065 N 
HETATM   10  H31 UNL     1     -35.540  16.042  -3.828  1.00 20.00     0.280 HD
ENDROOT
BRANCH   9  11
HETATM   11  C9  UNL     1     -33.835  16.989  -3.186  1.00 20.00     0.250 C 
BRANCH  11  12
HETATM   12  C10 UNL     1     -34.764  17.566  -2.134  1.00 20.00     0.142 C 
HETATM   13 CL12 UNL     1     -34.633  16.685  -0.592  1.00 20.00    -0.129 Cl
ENDBRANCH  11  12
ENDBRANCH   9  11
TORSDOF 2
ENDMDL
MODEL 7
REMARK VINA RESULT:      -4.3      1.697      2.425
REMARK  2 active torsions:
REMARK  status: ('A' for Active; 'I' for Inactive)
REMARK    1  A    between atoms: C9_9  and  C10_10 
REMARK    2  A    between atoms: C9_9  and  N11_11 
ROOT
HETATM    1  C1  UNL     1     -33.385  13.722  -3.835  1.00 20.00     0.002 C 
HETATM    2  C2  UNL     1     -37.561  16.125  -3.980  1.00 20.00     0.028 C 
HETATM    3  C3  UNL     1     -34.857  13.320  -4.037  1.00 20.00     0.007 C 
HETATM    4  C4  UNL     1     -37.069  14.677  -3.906  1.00 20.00     0.008 C 
HETATM    5  C5  UNL     1     -33.380  15.236  -3.557  1.00 20.00     0.034 C 
HETATM    6  C6  UNL     1     -36.757  17.076  -3.090  1.00 20.00     0.235 C 
HETATM    7  C7  UNL     1     -35.579  14.651  -4.188  1.00 20.00     0.016 C 
HETATM    8  C8  UNL     1     -34.826  15.525  -3.193  1.00 20.00     0.192 C 
HETATM    9  N11 UNL     1     -35.266  16.946  -3.363  1.00 20.00    -0.065 N 
HETATM   10  H31 UNL     1     -35.112  17.214  -4.345  1.00 20.00     0.280 HD
ENDROOT
BRANCH   9  11
HETATM   11  C9  UNL     1     -34.477  17.914  -2.522  1.00 20.00     0.250 C 
BRANCH  11  12
HETATM   12  C10 UNL     1     -35.225  18.217  -1.237  1.00 20.00     0.142 C 
HETATM   13 CL12 UNL     1     -34.831  17.043   0.041  1.00 20.00    -0.129 Cl
ENDBRANCH  11  12
ENDBRANCH   9  11
TORSDOF 2
ENDMDL
MODEL 8
REMARK VINA RESULT:      -4.3      1.442      1.988
REMARK  2 active torsions:
REMARK  status: ('A' for Active; 'I' for Inactive)
REMARK    1  A    between atoms: C9_9  and  C10_10 
REMARK    2  A    between atoms: C9_9  and  N11_11 
ROOT
HETATM    1  C1  UNL     1     -33.438  13.385  -3.838  1.00 20.00     0.002 C 
HETATM    2  C2  UNL     1     -36.264  16.567  -6.102  1.00 20.00     0.028 C 
HETATM    3  C3  UNL     1     -34.613  13.276  -4.827  1.00 20.00     0.007 C 
HETATM    4  C4  UNL     1     -36.204  15.058  -5.848  1.00 20.00     0.008 C 
HETATM    5  C5  UNL     1     -33.269  14.882  -3.525  1.00 20.00     0.034 C 
HETATM    6  C6  UNL     1     -35.892  17.396  -4.872  1.00 20.00     0.235 C 
HETATM    7  C7  UNL     1     -34.843  14.711  -5.277  1.00 20.00     0.016 C 
HETATM    8  C8  UNL     1     -34.585  15.484  -3.990  1.00 20.00     0.192 C 
HETATM    9  N11 UNL     1     -34.555  16.948  -4.298  1.00 20.00    -0.065 N 
HETATM   10  H31 UNL     1     -33.843  17.108  -5.025  1.00 20.00     0.280 HD
ENDROOT
BRANCH   9  11
HETATM   11  C9  UNL     1     -34.165  17.794  -3.116  1.00 20.00     0.250 C 
BRANCH  11  12
HETATM   12  C10 UNL     1     -35.188  17.643  -2.006  1.00 20.00     0.142 C 
HETATM   13 CL12 UNL     1     -34.528  16.730  -0.628  1.00 20.00    -0.129 Cl
ENDBRANCH  11  12
ENDBRANCH   9  11
TORSDOF 2
ENDMDL
MODEL 9
REMARK VINA RESULT:      -4.3      2.716      4.840
REMARK  2 active torsions:
REMARK  status: ('A' for Active; 'I' for Inactive)
REMARK    1  A    between atoms: C9_9  and  C10_10 
REMARK    2  A    between atoms: C9_9  and  N11_11 
ROOT
HETATM    1  C1  UNL     1     -33.721  17.663  -2.902  1.00 20.00     0.002 C 
HETATM    2  C2  UNL     1     -34.303  13.250  -4.753  1.00 20.00     0.028 C 
HETATM    3  C3  UNL     1     -34.034  16.275  -2.312  1.00 20.00     0.007 C 
HETATM    4  C4  UNL     1     -34.519  13.978  -3.423  1.00 20.00     0.008 C 
HETATM    5  C5  UNL     1     -33.678  17.487  -4.430  1.00 20.00     0.034 C 
HETATM    6  C6  UNL     1     -34.717  14.085  -5.966  1.00 20.00     0.235 C 
HETATM    7  C7  UNL     1     -33.834  15.329  -3.487  1.00 20.00     0.016 C 
HETATM    8  C8  UNL     1     -34.376  16.155  -4.646  1.00 20.00     0.192 C 
HETATM    9  N11 UNL     1     -34.059  15.457  -5.931  1.00 20.00    -0.065 N 
HETATM   10  H31 UNL     1     -33.042  15.308  -5.973  1.00 20.00     0.280 HD
ENDROOT
BRANCH   9  11
HETATM   11  C9  UNL     1     -34.428  16.263  -7.148  1.00 20.00     0.250 C 
BRANCH  11  12
HETATM   12  C10 UNL     1     -35.750  15.777  -7.713  1.00 20.00     0.142 C 
HETATM   13 CL12 UNL     1     -37.129  16.628  -6.976  1.00 20.00    -0.129 Cl
ENDBRANCH  11  12
ENDBRANCH   9  11
TORSDOF 2
ENDMDL
