MODEL 1
REMARK VINA RESULT:      -5.0      0.000      0.000
REMARK  3 active torsions:
REMARK  status: ('A' for Active; 'I' for Inactive)
REMARK    1  A    between atoms: C1_1  and  C3_3 
REMARK    2  A    between atoms: C1_1  and  C8_8 
REMARK    3  A    between atoms: C8_8  and  C9_9 
ROOT
HETATM    1  C1  UNL     1     -34.217   5.594   3.379  1.00 20.00     0.131 C 
HETATM    2  O10 UNL     1     -33.903   4.895   2.417  1.00 20.00    -0.298 OA
ENDROOT
BRANCH   1   3
HETATM    3  C3  UNL     1     -35.238   5.118   4.380  1.00 20.00     0.059 A 
HETATM    4  C2  UNL     1     -34.869   3.982   5.269  1.00 20.00     0.017 A 
HETATM    5  C4  UNL     1     -35.017   5.367   5.833  1.00 20.00    -0.007 A 
HETATM    6  C5  UNL     1     -33.826   6.083   6.371  1.00 20.00     0.011 C 
ENDBRANCH   1   3
BRANCH   1   7
HETATM    7  C8  UNL     1     -33.649   6.984   3.613  1.00 20.00     0.082 C 
BRANCH   7   8
HETATM    8  C9  UNL     1     -32.238   7.184   3.037  1.00 20.00    -0.016 C 
HETATM    9  C6  UNL     1     -31.250   7.628   4.118  1.00 20.00     0.010 C 
HETATM   10  C7  UNL     1     -32.274   8.222   1.913  1.00 20.00     0.010 C 
ENDBRANCH   7   8
ENDBRANCH   1   7
TORSDOF 3
ENDMDL
MODEL 2
REMARK VINA RESULT:      -4.9      1.248      2.054
REMARK  3 active torsions:
REMARK  status: ('A' for Active; 'I' for Inactive)
REMARK    1  A    between atoms: C1_1  and  C3_3 
REMARK    2  A    between atoms: C1_1  and  C8_8 
REMARK    3  A    between atoms: C8_8  and  C9_9 
ROOT
HETATM    1  C1  UNL     1     -32.576   6.495   3.247  1.00 20.00     0.131 C 
HETATM    2  O10 UNL     1     -31.915   5.459   3.216  1.00 20.00    -0.298 OA
ENDROOT
BRANCH   1   3
HETATM    3  C3  UNL     1     -34.066   6.456   3.468  1.00 20.00     0.059 A 
HETATM    4  C2  UNL     1     -34.669   5.183   3.949  1.00 20.00     0.017 A 
HETATM    5  C4  UNL     1     -34.604   6.379   4.856  1.00 20.00    -0.007 A 
HETATM    6  C5  UNL     1     -33.740   6.347   6.070  1.00 20.00     0.011 C 
ENDBRANCH   1   3
BRANCH   1   7
HETATM    7  C8  UNL     1     -31.968   7.872   3.028  1.00 20.00     0.082 C 
BRANCH   7   8
HETATM    8  C9  UNL     1     -32.475   8.580   1.762  1.00 20.00    -0.016 C 
HETATM    9  C6  UNL     1     -31.470   8.460   0.614  1.00 20.00     0.010 C 
HETATM   10  C7  UNL     1     -32.745  10.056   2.061  1.00 20.00     0.010 C 
ENDBRANCH   7   8
ENDBRANCH   1   7
TORSDOF 3
ENDMDL
MODEL 3
REMARK VINA RESULT:      -4.9     11.430     12.578
REMARK  3 active torsions:
REMARK  status: ('A' for Active; 'I' for Inactive)
REMARK    1  A    between atoms: C1_1  and  C3_3 
REMARK    2  A    between atoms: C1_1  and  C8_8 
REMARK    3  A    between atoms: C8_8  and  C9_9 
ROOT
HETATM    1  C1  UNL     1     -34.438  14.056  -3.935  1.00 20.00     0.131 C 
HETATM    2  O10 UNL     1     -33.359  13.520  -3.687  1.00 20.00    -0.298 OA
ENDROOT
BRANCH   1   3
HETATM    3  C3  UNL     1     -35.186  13.738  -5.204  1.00 20.00     0.059 A 
HETATM    4  C2  UNL     1     -36.210  14.710  -5.675  1.00 20.00     0.017 A 
HETATM    5  C4  UNL     1     -34.925  14.538  -6.434  1.00 20.00    -0.007 A 
HETATM    6  C5  UNL     1     -33.939  15.654  -6.493  1.00 20.00     0.011 C 
ENDBRANCH   1   3
BRANCH   1   7
HETATM    7  C8  UNL     1     -35.076  15.094  -3.025  1.00 20.00     0.082 C 
BRANCH   7   8
HETATM    8  C9  UNL     1     -34.066  16.045  -2.364  1.00 20.00    -0.016 C 
HETATM    9  C6  UNL     1     -34.577  16.551  -1.012  1.00 20.00     0.010 C 
HETATM   10  C7  UNL     1     -33.784  17.232  -3.287  1.00 20.00     0.010 C 
ENDBRANCH   7   8
ENDBRANCH   1   7
TORSDOF 3
ENDMDL
MODEL 4
REMARK VINA RESULT:      -4.8     11.443     12.879
REMARK  3 active torsions:
REMARK  status: ('A' for Active; 'I' for Inactive)
REMARK    1  A    between atoms: C1_1  and  C3_3 
REMARK    2  A    between atoms: C1_1  and  C8_8 
REMARK    3  A    between atoms: C8_8  and  C9_9 
ROOT
HETATM    1  C1  UNL     1     -34.445  13.679  -4.823  1.00 20.00     0.131 C 
HETATM    2  O10 UNL     1     -35.106  12.666  -4.597  1.00 20.00    -0.298 OA
ENDROOT
BRANCH   1   3
HETATM    3  C3  UNL     1     -33.562  14.279  -3.760  1.00 20.00     0.059 A 
HETATM    4  C2  UNL     1     -33.202  15.718  -3.880  1.00 20.00     0.017 A 
HETATM    5  C4  UNL     1     -34.133  15.260  -2.794  1.00 20.00    -0.007 A 
HETATM    6  C5  UNL     1     -35.561  15.688  -2.807  1.00 20.00     0.011 C 
ENDBRANCH   1   3
BRANCH   1   7
HETATM    7  C8  UNL     1     -34.494  14.421  -6.149  1.00 20.00     0.082 C 
BRANCH   7   8
HETATM    8  C9  UNL     1     -35.880  14.987  -6.493  1.00 20.00    -0.016 C 
HETATM    9  C6  UNL     1     -36.300  14.611  -7.917  1.00 20.00     0.010 C 
HETATM   10  C7  UNL     1     -35.877  16.509  -6.341  1.00 20.00     0.010 C 
ENDBRANCH   7   8
ENDBRANCH   1   7
TORSDOF 3
ENDMDL
MODEL 5
REMARK VINA RESULT:      -4.8     11.479     12.641
REMARK  3 active torsions:
REMARK  status: ('A' for Active; 'I' for Inactive)
REMARK    1  A    between atoms: C1_1  and  C3_3 
REMARK    2  A    between atoms: C1_1  and  C8_8 
REMARK    3  A    between atoms: C8_8  and  C9_9 
ROOT
HETATM    1  C1  UNL     1     -33.503  15.844  -4.106  1.00 20.00     0.131 C 
HETATM    2  O10 UNL     1     -32.725  16.389  -4.888  1.00 20.00    -0.298 OA
ENDROOT
BRANCH   1   3
HETATM    3  C3  UNL     1     -33.611  14.342  -4.044  1.00 20.00     0.059 A 
HETATM    4  C2  UNL     1     -34.929  13.751  -3.682  1.00 20.00     0.017 A 
HETATM    5  C4  UNL     1     -34.398  13.617  -5.082  1.00 20.00    -0.007 A 
HETATM    6  C5  UNL     1     -35.094  14.298  -6.210  1.00 20.00     0.011 C 
ENDBRANCH   1   3
BRANCH   1   7
HETATM    7  C8  UNL     1     -34.431  16.620  -3.186  1.00 20.00     0.082 C 
BRANCH   7   8
HETATM    8  C9  UNL     1     -33.790  17.018  -1.848  1.00 20.00    -0.016 C 
HETATM    9  C6  UNL     1     -34.690  16.650  -0.665  1.00 20.00     0.010 C 
HETATM   10  C7  UNL     1     -33.503  18.521  -1.830  1.00 20.00     0.010 C 
ENDBRANCH   7   8
ENDBRANCH   1   7
TORSDOF 3
ENDMDL
MODEL 6
REMARK VINA RESULT:      -4.8     11.502     12.339
REMARK  3 active torsions:
REMARK  status: ('A' for Active; 'I' for Inactive)
REMARK    1  A    between atoms: C1_1  and  C3_3 
REMARK    2  A    between atoms: C1_1  and  C8_8 
REMARK    3  A    between atoms: C8_8  and  C9_9 
ROOT
HETATM    1  C1  UNL     1     -36.075  14.934  -3.380  1.00 20.00     0.131 C 
HETATM    2  O10 UNL     1     -37.173  14.454  -3.658  1.00 20.00    -0.298 OA
ENDROOT
BRANCH   1   3
HETATM    3  C3  UNL     1     -34.803  14.191  -3.699  1.00 20.00     0.059 A 
HETATM    4  C2  UNL     1     -34.857  13.127  -4.739  1.00 20.00     0.017 A 
HETATM    5  C4  UNL     1     -34.128  14.414  -5.009  1.00 20.00    -0.007 A 
HETATM    6  C5  UNL     1     -34.639  15.355  -6.046  1.00 20.00     0.011 C 
ENDBRANCH   1   3
BRANCH   1   7
HETATM    7  C8  UNL     1     -35.910  16.267  -2.668  1.00 20.00     0.082 C 
BRANCH   7   8
HETATM    8  C9  UNL     1     -34.544  16.443  -1.988  1.00 20.00    -0.016 C 
HETATM    9  C6  UNL     1     -34.698  16.798  -0.507  1.00 20.00     0.010 C 
HETATM   10  C7  UNL     1     -33.741  17.535  -2.700  1.00 20.00     0.010 C 
ENDBRANCH   7   8
ENDBRANCH   1   7
TORSDOF 3
ENDMDL
MODEL 7
REMARK VINA RESULT:      -4.8      1.032      1.961
REMARK  3 active torsions:
REMARK  status: ('A' for Active; 'I' for Inactive)
REMARK    1  A    between atoms: C1_1  and  C3_3 
REMARK    2  A    between atoms: C1_1  and  C8_8 
REMARK    3  A    between atoms: C8_8  and  C9_9 
ROOT
HETATM    1  C1  UNL     1     -33.918   5.974   3.870  1.00 20.00     0.131 C 
HETATM    2  O10 UNL     1     -35.098   5.836   3.550  1.00 20.00    -0.298 OA
ENDROOT
BRANCH   1   3
HETATM    3  C3  UNL     1     -33.494   5.897   5.314  1.00 20.00     0.059 A 
HETATM    4  C2  UNL     1     -34.461   6.350   6.352  1.00 20.00     0.017 A 
HETATM    5  C4  UNL     1     -34.125   4.892   6.215  1.00 20.00    -0.007 A 
HETATM    6  C5  UNL     1     -35.168   3.927   5.765  1.00 20.00     0.011 C 
ENDBRANCH   1   3
BRANCH   1   7
HETATM    7  C8  UNL     1     -32.817   6.271   2.865  1.00 20.00     0.082 C 
BRANCH   7   8
HETATM    8  C9  UNL     1     -32.303   7.718   2.915  1.00 20.00    -0.016 C 
HETATM    9  C6  UNL     1     -31.951   8.235   1.518  1.00 20.00     0.010 C 
HETATM   10  C7  UNL     1     -31.075   7.806   3.823  1.00 20.00     0.010 C 
ENDBRANCH   7   8
ENDBRANCH   1   7
TORSDOF 3
ENDMDL
MODEL 8
REMARK VINA RESULT:      -4.6      1.792      2.450
REMARK  3 active torsions:
REMARK  status: ('A' for Active; 'I' for Inactive)
REMARK    1  A    between atoms: C1_1  and  C3_3 
REMARK    2  A    between atoms: C1_1  and  C8_8 
REMARK    3  A    between atoms: C8_8  and  C9_9 
ROOT
HETATM    1  C1  UNL     1     -33.668   6.437   5.679  1.00 20.00     0.131 C 
HETATM    2  O10 UNL     1     -33.419   7.126   6.668  1.00 20.00    -0.298 OA
ENDROOT
BRANCH   1   3
HETATM    3  C3  UNL     1     -33.966   4.966   5.816  1.00 20.00     0.059 A 
HETATM    4  C2  UNL     1     -35.261   4.569   6.433  1.00 20.00     0.017 A 
HETATM    5  C4  UNL     1     -35.021   4.346   4.966  1.00 20.00    -0.007 A 
HETATM    6  C5  UNL     1     -35.814   5.104   3.958  1.00 20.00     0.011 C 
ENDBRANCH   1   3
BRANCH   1   7
HETATM    7  C8  UNL     1     -33.654   6.988   4.262  1.00 20.00     0.082 C 
BRANCH   7   8
HETATM    8  C9  UNL     1     -32.297   6.846   3.554  1.00 20.00    -0.016 C 
HETATM    9  C6  UNL     1     -32.071   7.978   2.549  1.00 20.00     0.010 C 
HETATM   10  C7  UNL     1     -32.219   5.496   2.838  1.00 20.00     0.010 C 
ENDBRANCH   7   8
ENDBRANCH   1   7
TORSDOF 3
ENDMDL
MODEL 9
REMARK VINA RESULT:      -4.6      9.567     11.016
REMARK  3 active torsions:
REMARK  status: ('A' for Active; 'I' for Inactive)
REMARK    1  A    between atoms: C1_1  and  C3_3 
REMARK    2  A    between atoms: C1_1  and  C8_8 
REMARK    3  A    between atoms: C8_8  and  C9_9 
ROOT
HETATM    1  C1  UNL     1     -42.116   4.936  -2.437  1.00 20.00     0.131 C 
HETATM    2  O10 UNL     1     -42.251   6.102  -2.807  1.00 20.00    -0.298 OA
ENDROOT
BRANCH   1   3
HETATM    3  C3  UNL     1     -41.166   4.583  -1.322  1.00 20.00     0.059 A 
HETATM    4  C2  UNL     1     -40.668   5.684  -0.452  1.00 20.00     0.017 A 
HETATM    5  C4  UNL     1     -41.627   4.663   0.093  1.00 20.00    -0.007 A 
HETATM    6  C5  UNL     1     -43.006   5.071   0.485  1.00 20.00     0.011 C 
ENDBRANCH   1   3
BRANCH   1   7
HETATM    7  C8  UNL     1     -42.848   3.772  -3.086  1.00 20.00     0.082 C 
BRANCH   7   8
HETATM    8  C9  UNL     1     -42.210   2.403  -2.804  1.00 20.00    -0.016 C 
HETATM    9  C6  UNL     1     -41.334   1.944  -3.972  1.00 20.00     0.010 C 
HETATM   10  C7  UNL     1     -43.300   1.363  -2.536  1.00 20.00     0.010 C 
ENDBRANCH   7   8
ENDBRANCH   1   7
TORSDOF 3
ENDMDL
