MODEL 1
REMARK VINA RESULT:      -5.0      0.000      0.000
REMARK  2 active torsions:
REMARK  status: ('A' for Active; 'I' for Inactive)
REMARK    1  A    between atoms: C1_1  and  C3_3 
REMARK    2  A    between atoms: C1_1  and  C7_7 
ROOT
HETATM    1  C2  UNL     1     -33.772   6.380   6.185  1.00 20.00     0.017 A 
HETATM    2  C3  UNL     1     -34.517   6.361   4.874  1.00 20.00     0.059 A 
HETATM    3  C4  UNL     1     -34.855   5.363   5.956  1.00 20.00    -0.007 A 
HETATM    4  C5  UNL     1     -34.508   3.919   5.840  1.00 20.00     0.011 C 
ENDROOT
BRANCH   2   5
HETATM    5  C1  UNL     1     -33.816   5.943   3.654  1.00 20.00     0.131 C 
HETATM    6  O8  UNL     1     -34.388   5.282   2.789  1.00 20.00    -0.298 OA
BRANCH   5   7
HETATM    7  C7  UNL     1     -32.366   6.376   3.536  1.00 20.00     0.074 C 
HETATM    8  C6  UNL     1     -32.187   7.575   2.622  1.00 20.00     0.013 C 
ENDBRANCH   5   7
ENDBRANCH   2   5
TORSDOF 2
ENDMDL
MODEL 2
REMARK VINA RESULT:      -4.8      1.159      1.889
REMARK  2 active torsions:
REMARK  status: ('A' for Active; 'I' for Inactive)
REMARK    1  A    between atoms: C1_1  and  C3_3 
REMARK    2  A    between atoms: C1_1  and  C7_7 
ROOT
HETATM    1  C2  UNL     1     -35.325   4.338   6.156  1.00 20.00     0.017 A 
HETATM    2  C3  UNL     1     -34.383   4.468   4.985  1.00 20.00     0.059 A 
HETATM    3  C4  UNL     1     -34.057   5.133   6.301  1.00 20.00    -0.007 A 
HETATM    4  C5  UNL     1     -34.121   6.611   6.481  1.00 20.00     0.011 C 
ENDROOT
BRANCH   2   5
HETATM    5  C1  UNL     1     -34.790   5.261   3.819  1.00 20.00     0.131 C 
HETATM    6  O8  UNL     1     -35.939   5.685   3.710  1.00 20.00    -0.298 OA
BRANCH   5   7
HETATM    7  C7  UNL     1     -33.715   5.516   2.778  1.00 20.00     0.074 C 
HETATM    8  C6  UNL     1     -32.673   6.515   3.248  1.00 20.00     0.013 C 
ENDBRANCH   5   7
ENDBRANCH   2   5
TORSDOF 2
ENDMDL
MODEL 3
REMARK VINA RESULT:      -4.5      1.476      1.795
REMARK  2 active torsions:
REMARK  status: ('A' for Active; 'I' for Inactive)
REMARK    1  A    between atoms: C1_1  and  C3_3 
REMARK    2  A    between atoms: C1_1  and  C7_7 
ROOT
HETATM    1  C2  UNL     1     -35.850   5.601   3.931  1.00 20.00     0.017 A 
HETATM    2  C3  UNL     1     -34.408   5.371   3.554  1.00 20.00     0.059 A 
HETATM    3  C4  UNL     1     -35.127   4.390   4.448  1.00 20.00    -0.007 A 
HETATM    4  C5  UNL     1     -34.820   4.269   5.902  1.00 20.00     0.011 C 
ENDROOT
BRANCH   2   5
HETATM    5  C1  UNL     1     -33.373   6.262   4.089  1.00 20.00     0.131 C 
HETATM    6  O8  UNL     1     -33.522   6.831   5.170  1.00 20.00    -0.298 OA
BRANCH   5   7
HETATM    7  C7  UNL     1     -32.129   6.430   3.235  1.00 20.00     0.074 C 
HETATM    8  C6  UNL     1     -32.116   7.743   2.474  1.00 20.00     0.013 C 
ENDBRANCH   5   7
ENDBRANCH   2   5
TORSDOF 2
ENDMDL
MODEL 4
REMARK VINA RESULT:      -4.4      1.386      3.235
REMARK  2 active torsions:
REMARK  status: ('A' for Active; 'I' for Inactive)
REMARK    1  A    between atoms: C1_1  and  C3_3 
REMARK    2  A    between atoms: C1_1  and  C7_7 
ROOT
HETATM    1  C2  UNL     1     -34.703   5.433   2.551  1.00 20.00     0.017 A 
HETATM    2  C3  UNL     1     -34.853   5.822   4.000  1.00 20.00     0.059 A 
HETATM    3  C4  UNL     1     -33.624   6.232   3.225  1.00 20.00    -0.007 A 
HETATM    4  C5  UNL     1     -32.288   5.620   3.474  1.00 20.00     0.011 C 
ENDROOT
BRANCH   2   5
HETATM    5  C1  UNL     1     -34.781   4.784   5.035  1.00 20.00     0.131 C 
HETATM    6  O8  UNL     1     -34.937   3.597   4.755  1.00 20.00    -0.298 OA
BRANCH   5   7
HETATM    7  C7  UNL     1     -34.506   5.267   6.448  1.00 20.00     0.074 C 
HETATM    8  C6  UNL     1     -33.989   6.694   6.487  1.00 20.00     0.013 C 
ENDBRANCH   5   7
ENDBRANCH   2   5
TORSDOF 2
ENDMDL
MODEL 5
REMARK VINA RESULT:      -4.1      1.669      3.689
REMARK  2 active torsions:
REMARK  status: ('A' for Active; 'I' for Inactive)
REMARK    1  A    between atoms: C1_1  and  C3_3 
REMARK    2  A    between atoms: C1_1  and  C7_7 
ROOT
HETATM    1  C2  UNL     1     -34.414   5.390   3.165  1.00 20.00     0.017 A 
HETATM    2  C3  UNL     1     -34.449   6.436   4.252  1.00 20.00     0.059 A 
HETATM    3  C4  UNL     1     -33.456   6.547   3.119  1.00 20.00    -0.007 A 
HETATM    4  C5  UNL     1     -31.997   6.314   3.317  1.00 20.00     0.011 C 
ENDROOT
BRANCH   2   5
HETATM    5  C1  UNL     1     -34.011   6.080   5.606  1.00 20.00     0.131 C 
HETATM    6  O8  UNL     1     -33.653   6.945   6.405  1.00 20.00    -0.298 OA
BRANCH   5   7
HETATM    7  C7  UNL     1     -34.032   4.602   5.948  1.00 20.00     0.074 C 
HETATM    8  C6  UNL     1     -35.417   4.110   6.331  1.00 20.00     0.013 C 
ENDBRANCH   5   7
ENDBRANCH   2   5
TORSDOF 2
ENDMDL
MODEL 6
REMARK VINA RESULT:      -4.0      0.773      3.724
REMARK  2 active torsions:
REMARK  status: ('A' for Active; 'I' for Inactive)
REMARK    1  A    between atoms: C1_1  and  C3_3 
REMARK    2  A    between atoms: C1_1  and  C7_7 
ROOT
HETATM    1  C2  UNL     1     -31.490   7.488   3.925  1.00 20.00     0.017 A 
HETATM    2  C3  UNL     1     -32.144   6.319   3.232  1.00 20.00     0.059 A 
HETATM    3  C4  UNL     1     -31.800   7.569   2.457  1.00 20.00    -0.007 A 
HETATM    4  C5  UNL     1     -32.846   8.511   1.966  1.00 20.00     0.011 C 
ENDROOT
BRANCH   2   5
HETATM    5  C1  UNL     1     -33.538   5.985   3.545  1.00 20.00     0.131 C 
HETATM    6  O8  UNL     1     -34.259   5.430   2.718  1.00 20.00    -0.298 OA
BRANCH   5   7
HETATM    7  C7  UNL     1     -34.020   6.364   4.934  1.00 20.00     0.074 C 
HETATM    8  C6  UNL     1     -34.577   5.179   5.702  1.00 20.00     0.013 C 
ENDBRANCH   5   7
ENDBRANCH   2   5
TORSDOF 2
ENDMDL
MODEL 7
REMARK VINA RESULT:      -3.9     11.928     12.746
REMARK  2 active torsions:
REMARK  status: ('A' for Active; 'I' for Inactive)
REMARK    1  A    between atoms: C1_1  and  C3_3 
REMARK    2  A    between atoms: C1_1  and  C7_7 
ROOT
HETATM    1  C2  UNL     1     -35.441  15.946  -3.634  1.00 20.00     0.017 A 
HETATM    2  C3  UNL     1     -35.410  14.439  -3.647  1.00 20.00     0.059 A 
HETATM    3  C4  UNL     1     -34.291  15.217  -2.997  1.00 20.00    -0.007 A 
HETATM    4  C5  UNL     1     -32.930  15.303  -3.598  1.00 20.00     0.011 C 
ENDROOT
BRANCH   2   5
HETATM    5  C1  UNL     1     -35.200  13.734  -4.917  1.00 20.00     0.131 C 
HETATM    6  O8  UNL     1     -34.723  12.601  -4.943  1.00 20.00    -0.298 OA
BRANCH   5   7
HETATM    7  C7  UNL     1     -35.606  14.486  -6.173  1.00 20.00     0.074 C 
HETATM    8  C6  UNL     1     -34.414  14.896  -7.018  1.00 20.00     0.013 C 
ENDBRANCH   5   7
ENDBRANCH   2   5
TORSDOF 2
ENDMDL
MODEL 8
REMARK VINA RESULT:      -3.9     11.911     12.740
REMARK  2 active torsions:
REMARK  status: ('A' for Active; 'I' for Inactive)
REMARK    1  A    between atoms: C1_1  and  C3_3 
REMARK    2  A    between atoms: C1_1  and  C7_7 
ROOT
HETATM    1  C2  UNL     1     -34.502  13.178  -4.725  1.00 20.00     0.017 A 
HETATM    2  C3  UNL     1     -34.676  14.382  -3.834  1.00 20.00     0.059 A 
HETATM    3  C4  UNL     1     -35.129  14.429  -5.273  1.00 20.00    -0.007 A 
HETATM    4  C5  UNL     1     -34.412  15.232  -6.304  1.00 20.00     0.011 C 
ENDROOT
BRANCH   2   5
HETATM    5  C1  UNL     1     -33.493  15.126  -3.390  1.00 20.00     0.131 C 
HETATM    6  O8  UNL     1     -32.360  14.682  -3.569  1.00 20.00    -0.298 OA
BRANCH   5   7
HETATM    7  C7  UNL     1     -33.757  16.456  -2.707  1.00 20.00     0.074 C 
HETATM    8  C6  UNL     1     -34.628  16.316  -1.472  1.00 20.00     0.013 C 
ENDBRANCH   5   7
ENDBRANCH   2   5
TORSDOF 2
ENDMDL
MODEL 9
REMARK VINA RESULT:      -3.9      1.851      2.717
REMARK  2 active torsions:
REMARK  status: ('A' for Active; 'I' for Inactive)
REMARK    1  A    between atoms: C1_1  and  C3_3 
REMARK    2  A    between atoms: C1_1  and  C7_7 
ROOT
HETATM    1  C2  UNL     1     -34.174   5.757   2.986  1.00 20.00     0.017 A 
HETATM    2  C3  UNL     1     -32.699   5.934   3.247  1.00 20.00     0.059 A 
HETATM    3  C4  UNL     1     -33.631   5.554   4.373  1.00 20.00    -0.007 A 
HETATM    4  C5  UNL     1     -33.993   6.506   5.461  1.00 20.00     0.011 C 
ENDROOT
BRANCH   2   5
HETATM    5  C1  UNL     1     -32.113   7.277   3.175  1.00 20.00     0.131 C 
HETATM    6  O8  UNL     1     -31.191   7.608   3.919  1.00 20.00    -0.298 OA
BRANCH   5   7
HETATM    7  C7  UNL     1     -32.710   8.212   2.138  1.00 20.00     0.074 C 
HETATM    8  C6  UNL     1     -31.701   8.640   1.088  1.00 20.00     0.013 C 
ENDBRANCH   5   7
ENDBRANCH   2   5
TORSDOF 2
ENDMDL
