MODEL 1
REMARK VINA RESULT:      -4.5      0.000      0.000
REMARK  4 active torsions:
REMARK  status: ('A' for Active; 'I' for Inactive)
REMARK    1  A    between atoms: C5_5  and  C7_7 
REMARK    2  A    between atoms: C6_6  and  C7_7 
REMARK    3  A    between atoms: C6_6  and  C8_8 
REMARK    4  A    between atoms: C8_8  and  N9_9 
ROOT
HETATM    1  C1  UNL     1     -32.217   8.010   2.161  1.00 20.00     0.158 C 
HETATM    2  N9  UNL     1     -32.147   6.995   2.746  1.00 20.00    -0.271 NA
HETATM    3  S10 UNL     1     -32.282   9.386   1.361  1.00 20.00    -0.055 SA
ENDROOT
BRANCH   2   4
HETATM    4  C8  UNL     1     -33.409   6.535   3.333  1.00 20.00     0.106 C 
HETATM    5  C4  UNL     1     -33.981   5.451   2.426  1.00 20.00     0.034 C 
BRANCH   4   6
HETATM    6  C6  UNL     1     -33.146   5.990   4.745  1.00 20.00     0.031 C 
BRANCH   6   7
HETATM    7  C7  UNL     1     -34.180   6.408   5.815  1.00 20.00    -0.017 C 
HETATM    8  C3  UNL     1     -33.554   7.292   6.900  1.00 20.00     0.010 C 
BRANCH   7   9
HETATM    9  C5  UNL     1     -34.831   5.179   6.487  1.00 20.00    -0.000 C 
HETATM   10  C2  UNL     1     -34.929   3.959   5.582  1.00 20.00     0.005 C 
ENDBRANCH   7   9
ENDBRANCH   6   7
ENDBRANCH   4   6
ENDBRANCH   2   4
TORSDOF 4
ENDMDL
MODEL 2
REMARK VINA RESULT:      -4.4      0.972      1.995
REMARK  4 active torsions:
REMARK  status: ('A' for Active; 'I' for Inactive)
REMARK    1  A    between atoms: C5_5  and  C7_7 
REMARK    2  A    between atoms: C6_6  and  C7_7 
REMARK    3  A    between atoms: C6_6  and  C8_8 
REMARK    4  A    between atoms: C8_8  and  N9_9 
ROOT
HETATM    1  C1  UNL     1     -32.143   8.373   1.999  1.00 20.00     0.158 C 
HETATM    2  N9  UNL     1     -32.084   7.690   2.951  1.00 20.00    -0.271 NA
HETATM    3  S10 UNL     1     -32.202   9.319   0.719  1.00 20.00    -0.055 SA
ENDROOT
BRANCH   2   4
HETATM    4  C8  UNL     1     -32.941   6.501   2.909  1.00 20.00     0.106 C 
HETATM    5  C4  UNL     1     -32.061   5.281   3.162  1.00 20.00     0.034 C 
BRANCH   4   6
HETATM    6  C6  UNL     1     -34.035   6.622   3.979  1.00 20.00     0.031 C 
BRANCH   6   7
HETATM    7  C7  UNL     1     -34.168   5.406   4.925  1.00 20.00    -0.017 C 
HETATM    8  C3  UNL     1     -35.378   4.534   4.569  1.00 20.00     0.010 C 
BRANCH   7   9
HETATM    9  C5  UNL     1     -34.287   5.845   6.401  1.00 20.00    -0.000 C 
HETATM   10  C2  UNL     1     -33.611   7.174   6.707  1.00 20.00     0.005 C 
ENDBRANCH   7   9
ENDBRANCH   6   7
ENDBRANCH   4   6
ENDBRANCH   2   4
TORSDOF 4
ENDMDL
MODEL 3
REMARK VINA RESULT:      -4.2     11.057     12.263
REMARK  4 active torsions:
REMARK  status: ('A' for Active; 'I' for Inactive)
REMARK    1  A    between atoms: C5_5  and  C7_7 
REMARK    2  A    between atoms: C6_6  and  C7_7 
REMARK    3  A    between atoms: C6_6  and  C8_8 
REMARK    4  A    between atoms: C8_8  and  N9_9 
ROOT
HETATM    1  C1  UNL     1     -34.971  13.653  -5.524  1.00 20.00     0.158 C 
HETATM    2  N9  UNL     1     -34.934  13.010  -4.542  1.00 20.00    -0.271 NA
HETATM    3  S10 UNL     1     -35.035  14.500  -6.871  1.00 20.00    -0.055 SA
ENDROOT
BRANCH   2   4
HETATM    4  C8  UNL     1     -34.353  13.693  -3.382  1.00 20.00     0.106 C 
HETATM    5  C4  UNL     1     -32.867  13.901  -3.656  1.00 20.00     0.034 C 
BRANCH   4   6
HETATM    6  C6  UNL     1     -35.067  15.037  -3.171  1.00 20.00     0.031 C 
BRANCH   6   7
HETATM    7  C7  UNL     1     -34.193  16.156  -2.560  1.00 20.00    -0.017 C 
HETATM    8  C3  UNL     1     -34.613  16.490  -1.124  1.00 20.00     0.010 C 
BRANCH   7   9
HETATM    9  C5  UNL     1     -34.249  17.446  -3.408  1.00 20.00    -0.000 C 
HETATM   10  C2  UNL     1     -33.529  17.338  -4.745  1.00 20.00     0.005 C 
ENDBRANCH   7   9
ENDBRANCH   6   7
ENDBRANCH   4   6
ENDBRANCH   2   4
TORSDOF 4
ENDMDL
MODEL 4
REMARK VINA RESULT:      -3.9     11.626     12.558
REMARK  4 active torsions:
REMARK  status: ('A' for Active; 'I' for Inactive)
REMARK    1  A    between atoms: C5_5  and  C7_7 
REMARK    2  A    between atoms: C6_6  and  C7_7 
REMARK    3  A    between atoms: C6_6  and  C8_8 
REMARK    4  A    between atoms: C8_8  and  N9_9 
ROOT
HETATM    1  C1  UNL     1     -34.210  17.870  -4.032  1.00 20.00     0.158 C 
HETATM    2  N9  UNL     1     -34.600  17.760  -2.930  1.00 20.00    -0.271 NA
HETATM    3  S10 UNL     1     -33.693  18.047  -5.528  1.00 20.00    -0.055 SA
ENDROOT
BRANCH   2   4
HETATM    4  C8  UNL     1     -34.275  16.483  -2.287  1.00 20.00     0.106 C 
HETATM    5  C4  UNL     1     -34.593  16.613  -0.801  1.00 20.00     0.034 C 
BRANCH   4   6
HETATM    6  C6  UNL     1     -35.104  15.362  -2.931  1.00 20.00     0.031 C 
BRANCH   6   7
HETATM    7  C7  UNL     1     -34.295  14.128  -3.391  1.00 20.00    -0.017 C 
HETATM    8  C3  UNL     1     -32.825  14.474  -3.658  1.00 20.00     0.010 C 
BRANCH   7   9
HETATM    9  C5  UNL     1     -34.897  13.497  -4.666  1.00 20.00    -0.000 C 
HETATM   10  C2  UNL     1     -34.708  14.338  -5.920  1.00 20.00     0.005 C 
ENDBRANCH   7   9
ENDBRANCH   6   7
ENDBRANCH   4   6
ENDBRANCH   2   4
TORSDOF 4
ENDMDL
MODEL 5
REMARK VINA RESULT:      -3.8      0.962      1.982
REMARK  4 active torsions:
REMARK  status: ('A' for Active; 'I' for Inactive)
REMARK    1  A    between atoms: C5_5  and  C7_7 
REMARK    2  A    between atoms: C6_6  and  C7_7 
REMARK    3  A    between atoms: C6_6  and  C8_8 
REMARK    4  A    between atoms: C8_8  and  N9_9 
ROOT
HETATM    1  C1  UNL     1     -32.415   7.599   2.566  1.00 20.00     0.158 C 
HETATM    2  N9  UNL     1     -32.850   6.825   3.333  1.00 20.00    -0.271 NA
HETATM    3  S10 UNL     1     -31.802   8.657   1.545  1.00 20.00    -0.055 SA
ENDROOT
BRANCH   2   4
HETATM    4  C8  UNL     1     -34.065   6.135   2.889  1.00 20.00     0.106 C 
HETATM    5  C4  UNL     1     -33.645   4.825   2.229  1.00 20.00     0.034 C 
BRANCH   4   6
HETATM    6  C6  UNL     1     -34.975   5.875   4.098  1.00 20.00     0.031 C 
BRANCH   6   7
HETATM    7  C7  UNL     1     -34.281   5.222   5.315  1.00 20.00    -0.017 C 
HETATM    8  C3  UNL     1     -34.835   3.823   5.607  1.00 20.00     0.010 C 
BRANCH   7   9
HETATM    9  C5  UNL     1     -34.426   6.090   6.585  1.00 20.00    -0.000 C 
HETATM   10  C2  UNL     1     -33.398   7.208   6.689  1.00 20.00     0.005 C 
ENDBRANCH   7   9
ENDBRANCH   6   7
ENDBRANCH   4   6
ENDBRANCH   2   4
TORSDOF 4
ENDMDL
MODEL 6
REMARK VINA RESULT:      -3.8     11.769     12.518
REMARK  4 active torsions:
REMARK  status: ('A' for Active; 'I' for Inactive)
REMARK    1  A    between atoms: C5_5  and  C7_7 
REMARK    2  A    between atoms: C6_6  and  C7_7 
REMARK    3  A    between atoms: C6_6  and  C8_8 
REMARK    4  A    between atoms: C8_8  and  N9_9 
ROOT
HETATM    1  C1  UNL     1     -38.504  15.311  -3.543  1.00 20.00     0.158 C 
HETATM    2  N9  UNL     1     -37.975  14.304  -3.828  1.00 20.00    -0.271 NA
HETATM    3  S10 UNL     1     -39.249  16.663  -3.150  1.00 20.00    -0.055 SA
ENDROOT
BRANCH   2   4
HETATM    4  C8  UNL     1     -36.574  14.440  -4.239  1.00 20.00     0.106 C 
HETATM    5  C4  UNL     1     -36.533  15.326  -5.479  1.00 20.00     0.034 C 
BRANCH   4   6
HETATM    6  C6  UNL     1     -35.764  15.061  -3.092  1.00 20.00     0.031 C 
BRANCH   6   7
HETATM    7  C7  UNL     1     -34.345  15.542  -3.474  1.00 20.00    -0.017 C 
HETATM    8  C3  UNL     1     -33.394  14.368  -3.734  1.00 20.00     0.010 C 
BRANCH   7   9
HETATM    9  C5  UNL     1     -33.736  16.443  -2.377  1.00 20.00    -0.000 C 
HETATM   10  C2  UNL     1     -34.574  16.524  -1.108  1.00 20.00     0.005 C 
ENDBRANCH   7   9
ENDBRANCH   6   7
ENDBRANCH   4   6
ENDBRANCH   2   4
TORSDOF 4
ENDMDL
MODEL 7
REMARK VINA RESULT:      -3.8     11.926     12.488
REMARK  4 active torsions:
REMARK  status: ('A' for Active; 'I' for Inactive)
REMARK    1  A    between atoms: C5_5  and  C7_7 
REMARK    2  A    between atoms: C6_6  and  C7_7 
REMARK    3  A    between atoms: C6_6  and  C8_8 
REMARK    4  A    between atoms: C8_8  and  N9_9 
ROOT
HETATM    1  C1  UNL     1     -33.736  16.816  -5.538  1.00 20.00     0.158 C 
HETATM    2  N9  UNL     1     -33.757  15.643  -5.572  1.00 20.00    -0.271 NA
HETATM    3  S10 UNL     1     -33.689  18.408  -5.518  1.00 20.00    -0.055 SA
ENDROOT
BRANCH   2   4
HETATM    4  C8  UNL     1     -34.507  15.010  -4.483  1.00 20.00     0.106 C 
HETATM    5  C4  UNL     1     -34.504  13.504  -4.725  1.00 20.00     0.034 C 
BRANCH   4   6
HETATM    6  C6  UNL     1     -33.844  15.352  -3.141  1.00 20.00     0.031 C 
BRANCH   6   7
HETATM    7  C7  UNL     1     -34.796  15.920  -2.063  1.00 20.00    -0.017 C 
HETATM    8  C3  UNL     1     -36.035  16.575  -2.683  1.00 20.00     0.010 C 
BRANCH   7   9
HETATM    9  C5  UNL     1     -34.083  16.954  -1.164  1.00 20.00    -0.000 C 
HETATM   10  C2  UNL     1     -34.839  17.287   0.115  1.00 20.00     0.005 C 
ENDBRANCH   7   9
ENDBRANCH   6   7
ENDBRANCH   4   6
ENDBRANCH   2   4
TORSDOF 4
ENDMDL
MODEL 8
REMARK VINA RESULT:      -3.7     11.526     12.365
REMARK  4 active torsions:
REMARK  status: ('A' for Active; 'I' for Inactive)
REMARK    1  A    between atoms: C5_5  and  C7_7 
REMARK    2  A    between atoms: C6_6  and  C7_7 
REMARK    3  A    between atoms: C6_6  and  C8_8 
REMARK    4  A    between atoms: C8_8  and  N9_9 
ROOT
HETATM    1  C1  UNL     1     -33.740  14.358  -4.045  1.00 20.00     0.158 C 
HETATM    2  N9  UNL     1     -32.992  15.107  -3.539  1.00 20.00    -0.271 NA
HETATM    3  S10 UNL     1     -34.732  13.322  -4.737  1.00 20.00    -0.055 SA
ENDROOT
BRANCH   2   4
HETATM    4  C8  UNL     1     -33.598  16.352  -3.057  1.00 20.00     0.106 C 
HETATM    5  C4  UNL     1     -34.231  17.057  -4.252  1.00 20.00     0.034 C 
BRANCH   4   6
HETATM    6  C6  UNL     1     -34.652  16.026  -1.989  1.00 20.00     0.031 C 
BRANCH   6   7
HETATM    7  C7  UNL     1     -34.633  16.943  -0.745  1.00 20.00    -0.017 C 
HETATM    8  C3  UNL     1     -35.819  17.916  -0.734  1.00 20.00     0.010 C 
BRANCH   7   9
HETATM    9  C5  UNL     1     -33.322  17.755  -0.658  1.00 20.00    -0.000 C 
HETATM   10  C2  UNL     1     -33.522  19.262  -0.738  1.00 20.00     0.005 C 
ENDBRANCH   7   9
ENDBRANCH   6   7
ENDBRANCH   4   6
ENDBRANCH   2   4
TORSDOF 4
ENDMDL
MODEL 9
REMARK VINA RESULT:      -3.7     11.515     13.456
REMARK  4 active torsions:
REMARK  status: ('A' for Active; 'I' for Inactive)
REMARK    1  A    between atoms: C5_5  and  C7_7 
REMARK    2  A    between atoms: C6_6  and  C7_7 
REMARK    3  A    between atoms: C6_6  and  C8_8 
REMARK    4  A    between atoms: C8_8  and  N9_9 
ROOT
HETATM    1  C1  UNL     1     -38.131  14.922  -3.733  1.00 20.00     0.158 C 
HETATM    2  N9  UNL     1     -37.290  14.148  -3.999  1.00 20.00    -0.271 NA
HETATM    3  S10 UNL     1     -39.294  15.952  -3.380  1.00 20.00    -0.055 SA
ENDROOT
BRANCH   2   4
HETATM    4  C8  UNL     1     -35.921  14.643  -3.826  1.00 20.00     0.106 C 
HETATM    5  C4  UNL     1     -34.970  13.464  -4.001  1.00 20.00     0.034 C 
BRANCH   4   6
HETATM    6  C6  UNL     1     -35.638  15.736  -4.868  1.00 20.00     0.031 C 
BRANCH   6   7
HETATM    7  C7  UNL     1     -34.295  15.596  -5.620  1.00 20.00    -0.017 C 
HETATM    8  C3  UNL     1     -33.321  16.726  -5.266  1.00 20.00     0.010 C 
BRANCH   7   9
HETATM    9  C5  UNL     1     -34.501  15.578  -7.151  1.00 20.00    -0.000 C 
HETATM   10  C2  UNL     1     -35.422  14.468  -7.637  1.00 20.00     0.005 C 
ENDBRANCH   7   9
ENDBRANCH   6   7
ENDBRANCH   4   6
ENDBRANCH   2   4
TORSDOF 4
ENDMDL
