MODEL 1
REMARK VINA RESULT:      -4.2      0.000      0.000
REMARK  2 active torsions:
REMARK  status: ('A' for Active; 'I' for Inactive)
REMARK    1  A    between atoms: C2_2  and  C8_8 
REMARK    2  A    between atoms: C3_3  and  C5_5 
ROOT
HETATM    1  C1  UNL     1     -36.175  17.288  -2.395  1.00 20.00     0.080 A 
HETATM    2  C2  UNL     1     -35.049  16.640  -1.931  1.00 20.00     0.055 A 
HETATM    3  C3  UNL     1     -35.657  15.191  -3.461  1.00 20.00     0.080 A 
HETATM    4  N9  UNL     1     -34.751  15.437  -2.541  1.00 20.00    -0.248 NA
HETATM    5  S10 UNL     1     -36.896  16.363  -3.646  1.00 20.00    -0.084 SA
ENDROOT
BRANCH   3   6
HETATM    6  C5  UNL     1     -35.610  13.919  -4.325  1.00 20.00     0.049 A 
HETATM    7  C4  UNL     1     -34.267  13.264  -4.572  1.00 20.00     0.016 A 
HETATM    8  C6  UNL     1     -34.976  13.946  -5.704  1.00 20.00    -0.007 A 
HETATM    9  C7  UNL     1     -34.410  15.190  -6.300  1.00 20.00     0.011 C 
ENDBRANCH   3   6
BRANCH   2  10
HETATM   10  C8  UNL     1     -34.158  17.122  -0.857  1.00 20.00     0.174 C 
HETATM   11 CL11 UNL     1     -35.042  17.306   0.680  1.00 20.00    -0.124 Cl
ENDBRANCH   2  10
TORSDOF 2
ENDMDL
MODEL 2
REMARK VINA RESULT:      -4.2      1.639      2.020
REMARK  2 active torsions:
REMARK  status: ('A' for Active; 'I' for Inactive)
REMARK    1  A    between atoms: C2_2  and  C8_8 
REMARK    2  A    between atoms: C3_3  and  C5_5 
ROOT
HETATM    1  C1  UNL     1     -33.657  18.066  -3.483  1.00 20.00     0.080 A 
HETATM    2  C2  UNL     1     -33.878  17.483  -2.253  1.00 20.00     0.055 A 
HETATM    3  C3  UNL     1     -33.952  15.675  -3.493  1.00 20.00     0.080 A 
HETATM    4  N9  UNL     1     -34.047  16.112  -2.257  1.00 20.00    -0.248 NA
HETATM    5  S10 UNL     1     -33.659  16.858  -4.701  1.00 20.00    -0.084 SA
ENDROOT
BRANCH   3   6
HETATM    6  C5  UNL     1     -34.096  14.183  -3.839  1.00 20.00     0.049 A 
HETATM    7  C4  UNL     1     -34.481  13.804  -5.252  1.00 20.00     0.016 A 
HETATM    8  C6  UNL     1     -35.460  13.588  -4.137  1.00 20.00    -0.007 A 
HETATM    9  C7  UNL     1     -36.714  14.392  -4.077  1.00 20.00     0.011 C 
ENDBRANCH   3   6
BRANCH   2  10
HETATM   10  C8  UNL     1     -33.945  18.195  -0.961  1.00 20.00     0.174 C 
HETATM   11 CL11 UNL     1     -34.785  17.217   0.270  1.00 20.00    -0.124 Cl
ENDBRANCH   2  10
TORSDOF 2
ENDMDL
MODEL 3
REMARK VINA RESULT:      -4.1      2.196      3.075
REMARK  2 active torsions:
REMARK  status: ('A' for Active; 'I' for Inactive)
REMARK    1  A    between atoms: C2_2  and  C8_8 
REMARK    2  A    between atoms: C3_3  and  C5_5 
ROOT
HETATM    1  C1  UNL     1     -34.297  14.146  -3.422  1.00 20.00     0.080 A 
HETATM    2  C2  UNL     1     -34.044  15.476  -3.684  1.00 20.00     0.055 A 
HETATM    3  C3  UNL     1     -34.431  14.803  -5.736  1.00 20.00     0.080 A 
HETATM    4  N9  UNL     1     -34.120  15.855  -5.011  1.00 20.00    -0.248 NA
HETATM    5  S10 UNL     1     -34.647  13.327  -4.888  1.00 20.00    -0.084 SA
ENDROOT
BRANCH   3   6
HETATM    6  C5  UNL     1     -34.592  14.891  -7.263  1.00 20.00     0.049 A 
HETATM    7  C4  UNL     1     -34.975  16.222  -7.873  1.00 20.00     0.016 A 
HETATM    8  C6  UNL     1     -35.962  15.093  -7.883  1.00 20.00    -0.007 A 
HETATM    9  C7  UNL     1     -37.206  15.181  -7.066  1.00 20.00     0.011 C 
ENDBRANCH   3   6
BRANCH   2  10
HETATM   10  C8  UNL     1     -33.707  16.505  -2.680  1.00 20.00     0.174 C 
HETATM   11 CL11 UNL     1     -34.681  16.304  -1.201  1.00 20.00    -0.124 Cl
ENDBRANCH   2  10
TORSDOF 2
ENDMDL
MODEL 4
REMARK VINA RESULT:      -4.1     13.052     14.288
REMARK  2 active torsions:
REMARK  status: ('A' for Active; 'I' for Inactive)
REMARK    1  A    between atoms: C2_2  and  C8_8 
REMARK    2  A    between atoms: C3_3  and  C5_5 
ROOT
HETATM    1  C1  UNL     1     -43.239   2.472  -2.486  1.00 20.00     0.080 A 
HETATM    2  C2  UNL     1     -41.997   2.451  -3.084  1.00 20.00     0.055 A 
HETATM    3  C3  UNL     1     -41.645   4.073  -1.649  1.00 20.00     0.080 A 
HETATM    4  N9  UNL     1     -41.081   3.368  -2.605  1.00 20.00    -0.248 NA
HETATM    5  S10 UNL     1     -43.274   3.685  -1.273  1.00 20.00    -0.084 SA
ENDROOT
BRANCH   3   6
HETATM    6  C5  UNL     1     -40.885   5.185  -0.906  1.00 20.00     0.049 A 
HETATM    7  C4  UNL     1     -41.671   6.130  -0.022  1.00 20.00     0.016 A 
HETATM    8  C6  UNL     1     -41.070   6.639  -1.298  1.00 20.00    -0.007 A 
HETATM    9  C7  UNL     1     -41.951   7.059  -2.424  1.00 20.00     0.011 C 
ENDBRANCH   3   6
BRANCH   2  10
HETATM   10  C8  UNL     1     -41.578   1.544  -4.171  1.00 20.00     0.174 C 
HETATM   11 CL11 UNL     1     -41.852  -0.161  -3.728  1.00 20.00    -0.124 Cl
ENDBRANCH   2  10
TORSDOF 2
ENDMDL
MODEL 5
REMARK VINA RESULT:      -4.0      2.428      4.716
REMARK  2 active torsions:
REMARK  status: ('A' for Active; 'I' for Inactive)
REMARK    1  A    between atoms: C2_2  and  C8_8 
REMARK    2  A    between atoms: C3_3  and  C5_5 
ROOT
HETATM    1  C1  UNL     1     -35.949  16.434  -4.270  1.00 20.00     0.080 A 
HETATM    2  C2  UNL     1     -34.848  15.623  -4.092  1.00 20.00     0.055 A 
HETATM    3  C3  UNL     1     -34.970  16.464  -2.069  1.00 20.00     0.080 A 
HETATM    4  N9  UNL     1     -34.285  15.639  -2.830  1.00 20.00    -0.248 NA
HETATM    5  S10 UNL     1     -36.304  17.253  -2.806  1.00 20.00    -0.084 SA
ENDROOT
BRANCH   3   6
HETATM    6  C5  UNL     1     -34.596  16.708  -0.598  1.00 20.00     0.049 A 
HETATM    7  C4  UNL     1     -35.224  17.883   0.121  1.00 20.00     0.016 A 
HETATM    8  C6  UNL     1     -33.760  17.912  -0.204  1.00 20.00    -0.007 A 
HETATM    9  C7  UNL     1     -33.236  18.884  -1.205  1.00 20.00     0.011 C 
ENDBRANCH   3   6
BRANCH   2  10
HETATM   10  C8  UNL     1     -34.237  14.758  -5.121  1.00 20.00     0.174 C 
HETATM   11 CL11 UNL     1     -34.697  13.052  -4.883  1.00 20.00    -0.124 Cl
ENDBRANCH   2  10
TORSDOF 2
ENDMDL
MODEL 6
REMARK VINA RESULT:      -4.0      1.764      2.108
REMARK  2 active torsions:
REMARK  status: ('A' for Active; 'I' for Inactive)
REMARK    1  A    between atoms: C2_2  and  C8_8 
REMARK    2  A    between atoms: C3_3  and  C5_5 
ROOT
HETATM    1  C1  UNL     1     -33.835  17.567  -3.295  1.00 20.00     0.080 A 
HETATM    2  C2  UNL     1     -34.368  16.492  -2.616  1.00 20.00     0.055 A 
HETATM    3  C3  UNL     1     -34.286  15.607  -4.622  1.00 20.00     0.080 A 
HETATM    4  N9  UNL     1     -34.627  15.366  -3.375  1.00 20.00    -0.248 NA
HETATM    5  S10 UNL     1     -33.645  17.164  -4.952  1.00 20.00    -0.084 SA
ENDROOT
BRANCH   3   6
HETATM    6  C5  UNL     1     -34.452  14.549  -5.725  1.00 20.00     0.049 A 
HETATM    7  C4  UNL     1     -34.393  14.997  -7.170  1.00 20.00     0.016 A 
HETATM    8  C6  UNL     1     -35.696  14.528  -6.594  1.00 20.00    -0.007 A 
HETATM    9  C7  UNL     1     -36.819  15.490  -6.406  1.00 20.00     0.011 C 
ENDBRANCH   3   6
BRANCH   2  10
HETATM   10  C8  UNL     1     -34.675  16.450  -1.173  1.00 20.00     0.174 C 
HETATM   11 CL11 UNL     1     -33.771  17.704  -0.285  1.00 20.00    -0.124 Cl
ENDBRANCH   2  10
TORSDOF 2
ENDMDL
MODEL 7
REMARK VINA RESULT:      -4.0      3.324      3.764
REMARK  2 active torsions:
REMARK  status: ('A' for Active; 'I' for Inactive)
REMARK    1  A    between atoms: C2_2  and  C8_8 
REMARK    2  A    between atoms: C3_3  and  C5_5 
ROOT
HETATM    1  C1  UNL     1     -37.869  16.551  -3.369  1.00 20.00     0.080 A 
HETATM    2  C2  UNL     1     -38.535  15.379  -3.662  1.00 20.00     0.055 A 
HETATM    3  C3  UNL     1     -36.478  14.627  -3.783  1.00 20.00     0.080 A 
HETATM    4  N9  UNL     1     -37.740  14.275  -3.900  1.00 20.00    -0.248 NA
HETATM    5  S10 UNL     1     -36.177  16.270  -3.389  1.00 20.00    -0.084 SA
ENDROOT
BRANCH   3   6
HETATM    6  C5  UNL     1     -35.334  13.621  -3.990  1.00 20.00     0.049 A 
HETATM    7  C4  UNL     1     -33.919  14.148  -4.099  1.00 20.00     0.016 A 
HETATM    8  C6  UNL     1     -34.586  13.563  -5.309  1.00 20.00    -0.007 A 
HETATM    9  C7  UNL     1     -34.934  14.436  -6.466  1.00 20.00     0.011 C 
ENDBRANCH   3   6
BRANCH   2  10
HETATM   10  C8  UNL     1     -40.001  15.217  -3.738  1.00 20.00     0.174 C 
HETATM   11 CL11 UNL     1     -40.453  14.021  -4.980  1.00 20.00    -0.124 Cl
ENDBRANCH   2  10
TORSDOF 2
ENDMDL
MODEL 8
REMARK VINA RESULT:      -3.9      3.109      4.756
REMARK  2 active torsions:
REMARK  status: ('A' for Active; 'I' for Inactive)
REMARK    1  A    between atoms: C2_2  and  C8_8 
REMARK    2  A    between atoms: C3_3  and  C5_5 
ROOT
HETATM    1  C1  UNL     1     -36.287  15.457  -5.126  1.00 20.00     0.080 A 
HETATM    2  C2  UNL     1     -34.951  15.407  -5.467  1.00 20.00     0.055 A 
HETATM    3  C3  UNL     1     -34.729  15.757  -3.313  1.00 20.00     0.080 A 
HETATM    4  N9  UNL     1     -34.056  15.579  -4.429  1.00 20.00    -0.248 NA
HETATM    5  S10 UNL     1     -36.440  15.729  -3.439  1.00 20.00    -0.084 SA
ENDROOT
BRANCH   3   6
HETATM    6  C5  UNL     1     -34.019  15.979  -1.967  1.00 20.00     0.049 A 
HETATM    7  C4  UNL     1     -34.792  16.639  -0.844  1.00 20.00     0.016 A 
HETATM    8  C6  UNL     1     -33.667  17.381  -1.503  1.00 20.00    -0.007 A 
HETATM    9  C7  UNL     1     -33.950  18.591  -2.325  1.00 20.00     0.011 C 
ENDBRANCH   3   6
BRANCH   2  10
HETATM   10  C8  UNL     1     -34.416  15.188  -6.826  1.00 20.00     0.174 C 
HETATM   11 CL11 UNL     1     -35.618  14.387  -7.870  1.00 20.00    -0.124 Cl
ENDBRANCH   2  10
TORSDOF 2
ENDMDL
MODEL 9
REMARK VINA RESULT:      -3.8      2.789      4.813
REMARK  2 active torsions:
REMARK  status: ('A' for Active; 'I' for Inactive)
REMARK    1  A    between atoms: C2_2  and  C8_8 
REMARK    2  A    between atoms: C3_3  and  C5_5 
ROOT
HETATM    1  C1  UNL     1     -33.596  16.159  -4.793  1.00 20.00     0.080 A 
HETATM    2  C2  UNL     1     -33.697  15.199  -3.808  1.00 20.00     0.055 A 
HETATM    3  C3  UNL     1     -33.884  16.985  -2.548  1.00 20.00     0.080 A 
HETATM    4  N9  UNL     1     -33.863  15.671  -2.520  1.00 20.00    -0.248 NA
HETATM    5  S10 UNL     1     -33.712  17.719  -4.089  1.00 20.00    -0.084 SA
ENDROOT
BRANCH   3   6
HETATM    6  C5  UNL     1     -34.055  17.820  -1.267  1.00 20.00     0.049 A 
HETATM    7  C4  UNL     1     -34.787  17.202  -0.095  1.00 20.00     0.016 A 
HETATM    8  C6  UNL     1     -35.424  18.327  -0.854  1.00 20.00    -0.007 A 
HETATM    9  C7  UNL     1     -36.648  18.081  -1.669  1.00 20.00     0.011 C 
ENDBRANCH   3   6
BRANCH   2  10
HETATM   10  C8  UNL     1     -33.645  13.739  -4.019  1.00 20.00     0.174 C 
HETATM   11 CL11 UNL     1     -34.883  13.212  -5.188  1.00 20.00    -0.124 Cl
ENDBRANCH   2  10
TORSDOF 2
ENDMDL
