MODEL 1
REMARK VINA RESULT:      -4.9      0.000      0.000
REMARK  2 active torsions:
REMARK  status: ('A' for Active; 'I' for Inactive)
REMARK    1  A    between atoms: C3_3  and  C5_5 
REMARK    2  A    between atoms: C5_5  and  C7_7 
ROOT
HETATM    1  C1  UNL     1     -34.537  16.348  -1.224  1.00 20.00     0.029 A 
HETATM    2  C2  UNL     1     -33.755  18.024  -2.635  1.00 20.00     0.065 A 
HETATM    3  C3  UNL     1     -33.982  16.672  -2.497  1.00 20.00     0.018 A 
HETATM    4  C4  UNL     1     -34.713  17.467  -0.439  1.00 20.00    -0.021 A 
HETATM    5  C9  UNL     1     -35.260  17.551   0.933  1.00 20.00     0.056 C 
HETATM    6  S12 UNL     1     -34.212  18.898  -1.235  1.00 20.00    -0.106 SA
ENDROOT
BRANCH   3   7
HETATM    7  C5  UNL     1     -33.673  15.709  -3.558  1.00 20.00     0.164 C 
HETATM    8  O11 UNL     1     -32.987  15.957  -4.544  1.00 20.00    -0.292 OA
BRANCH   7   9
HETATM    9  C7  UNL     1     -34.225  14.357  -3.416  1.00 20.00     0.065 A 
HETATM   10  C6  UNL     1     -34.256  13.441  -4.613  1.00 20.00     0.018 A 
HETATM   11  C8  UNL     1     -35.542  13.984  -4.056  1.00 20.00    -0.006 A 
HETATM   12  C10 UNL     1     -36.344  14.960  -4.848  1.00 20.00     0.011 C 
ENDBRANCH   7   9
ENDBRANCH   3   7
TORSDOF 2
ENDMDL
MODEL 2
REMARK VINA RESULT:      -4.7      1.843      2.074
REMARK  2 active torsions:
REMARK  status: ('A' for Active; 'I' for Inactive)
REMARK    1  A    between atoms: C3_3  and  C5_5 
REMARK    2  A    between atoms: C5_5  and  C7_7 
ROOT
HETATM    1  C1  UNL     1     -34.664  16.196  -1.682  1.00 20.00     0.029 A 
HETATM    2  C2  UNL     1     -34.986  17.080  -3.809  1.00 20.00     0.065 A 
HETATM    3  C3  UNL     1     -35.208  15.998  -2.985  1.00 20.00     0.018 A 
HETATM    4  C4  UNL     1     -34.047  17.422  -1.562  1.00 20.00    -0.021 A 
HETATM    5  C9  UNL     1     -33.370  17.999  -0.380  1.00 20.00     0.056 C 
HETATM    6  S12 UNL     1     -34.125  18.328  -3.013  1.00 20.00    -0.106 SA
ENDROOT
BRANCH   3   7
HETATM    7  C5  UNL     1     -35.924  14.801  -3.433  1.00 20.00     0.164 C 
HETATM    8  O11 UNL     1     -37.144  14.715  -3.528  1.00 20.00    -0.292 OA
BRANCH   7   9
HETATM    9  C7  UNL     1     -35.114  13.633  -3.795  1.00 20.00     0.065 A 
HETATM   10  C6  UNL     1     -33.662  13.821  -4.155  1.00 20.00     0.018 A 
HETATM   11  C8  UNL     1     -34.648  13.420  -5.216  1.00 20.00    -0.006 A 
HETATM   12  C10 UNL     1     -34.989  14.368  -6.313  1.00 20.00     0.011 C 
ENDBRANCH   7   9
ENDBRANCH   3   7
TORSDOF 2
ENDMDL
MODEL 3
REMARK VINA RESULT:      -4.6      2.637      5.072
REMARK  2 active torsions:
REMARK  status: ('A' for Active; 'I' for Inactive)
REMARK    1  A    between atoms: C3_3  and  C5_5 
REMARK    2  A    between atoms: C5_5  and  C7_7 
ROOT
HETATM    1  C1  UNL     1     -34.991  16.036  -4.895  1.00 20.00     0.029 A 
HETATM    2  C2  UNL     1     -34.801  14.279  -3.383  1.00 20.00     0.065 A 
HETATM    3  C3  UNL     1     -35.090  15.617  -3.536  1.00 20.00     0.018 A 
HETATM    4  C4  UNL     1     -34.630  15.000  -5.728  1.00 20.00    -0.021 A 
HETATM    5  C9  UNL     1     -34.427  15.026  -7.193  1.00 20.00     0.056 C 
HETATM    6  S12 UNL     1     -34.413  13.532  -4.874  1.00 20.00    -0.106 SA
ENDROOT
BRANCH   3   7
HETATM    7  C5  UNL     1     -35.452  16.479  -2.407  1.00 20.00     0.164 C 
HETATM    8  O11 UNL     1     -36.424  17.227  -2.387  1.00 20.00    -0.292 OA
BRANCH   7   9
HETATM    9  C7  UNL     1     -34.588  16.428  -1.223  1.00 20.00     0.065 A 
HETATM   10  C6  UNL     1     -34.839  17.383  -0.083  1.00 20.00     0.018 A 
HETATM   11  C8  UNL     1     -33.606  17.538  -0.929  1.00 20.00    -0.006 A 
HETATM   12  C10 UNL     1     -33.459  18.723  -1.820  1.00 20.00     0.011 C 
ENDBRANCH   7   9
ENDBRANCH   3   7
TORSDOF 2
ENDMDL
MODEL 4
REMARK VINA RESULT:      -4.4      1.201      1.691
REMARK  2 active torsions:
REMARK  status: ('A' for Active; 'I' for Inactive)
REMARK    1  A    between atoms: C3_3  and  C5_5 
REMARK    2  A    between atoms: C5_5  and  C7_7 
ROOT
HETATM    1  C1  UNL     1     -34.222  16.554  -1.884  1.00 20.00     0.029 A 
HETATM    2  C2  UNL     1     -35.615  17.702  -3.350  1.00 20.00     0.065 A 
HETATM    3  C3  UNL     1     -34.583  16.796  -3.242  1.00 20.00     0.018 A 
HETATM    4  C4  UNL     1     -34.993  17.284  -1.007  1.00 20.00    -0.021 A 
HETATM    5  C9  UNL     1     -34.933  17.310   0.470  1.00 20.00     0.056 C 
HETATM    6  S12 UNL     1     -36.146  18.256  -1.819  1.00 20.00    -0.106 SA
ENDROOT
BRANCH   3   7
HETATM    7  C5  UNL     1     -33.953  16.176  -4.411  1.00 20.00     0.164 C 
HETATM    8  O11 UNL     1     -32.900  16.552  -4.915  1.00 20.00    -0.292 OA
BRANCH   7   9
HETATM    9  C7  UNL     1     -34.637  15.023  -5.007  1.00 20.00     0.065 A 
HETATM   10  C6  UNL     1     -35.564  14.192  -4.156  1.00 20.00     0.018 A 
HETATM   11  C8  UNL     1     -34.259  13.612  -4.623  1.00 20.00    -0.006 A 
HETATM   12  C10 UNL     1     -33.179  13.320  -3.639  1.00 20.00     0.011 C 
ENDBRANCH   7   9
ENDBRANCH   3   7
TORSDOF 2
ENDMDL
MODEL 5
REMARK VINA RESULT:      -4.4      0.882      1.323
REMARK  2 active torsions:
REMARK  status: ('A' for Active; 'I' for Inactive)
REMARK    1  A    between atoms: C3_3  and  C5_5 
REMARK    2  A    between atoms: C5_5  and  C7_7 
ROOT
HETATM    1  C1  UNL     1     -34.348  16.325  -1.496  1.00 20.00     0.029 A 
HETATM    2  C2  UNL     1     -33.758  18.010  -2.986  1.00 20.00     0.065 A 
HETATM    3  C3  UNL     1     -33.807  16.649  -2.774  1.00 20.00     0.018 A 
HETATM    4  C4  UNL     1     -34.693  17.451  -0.781  1.00 20.00    -0.021 A 
HETATM    5  C9  UNL     1     -35.283  17.536   0.573  1.00 20.00     0.056 C 
HETATM    6  S12 UNL     1     -34.364  18.890  -1.648  1.00 20.00    -0.106 SA
ENDROOT
BRANCH   3   7
HETATM    7  C5  UNL     1     -33.344  15.680  -3.771  1.00 20.00     0.164 C 
HETATM    8  O11 UNL     1     -32.370  14.948  -3.629  1.00 20.00    -0.292 OA
BRANCH   7   9
HETATM    9  C7  UNL     1     -34.112  15.584  -5.017  1.00 20.00     0.065 A 
HETATM   10  C6  UNL     1     -35.610  15.749  -4.978  1.00 20.00     0.018 A 
HETATM   11  C8  UNL     1     -35.016  14.403  -5.285  1.00 20.00    -0.006 A 
HETATM   12  C10 UNL     1     -35.166  13.283  -4.313  1.00 20.00     0.011 C 
ENDBRANCH   7   9
ENDBRANCH   3   7
TORSDOF 2
ENDMDL
MODEL 6
REMARK VINA RESULT:      -4.4      3.022      4.815
REMARK  2 active torsions:
REMARK  status: ('A' for Active; 'I' for Inactive)
REMARK    1  A    between atoms: C3_3  and  C5_5 
REMARK    2  A    between atoms: C5_5  and  C7_7 
ROOT
HETATM    1  C1  UNL     1     -33.915  16.790  -5.746  1.00 20.00     0.029 A 
HETATM    2  C2  UNL     1     -34.582  14.591  -6.102  1.00 20.00     0.065 A 
HETATM    3  C3  UNL     1     -34.012  15.473  -5.210  1.00 20.00     0.018 A 
HETATM    4  C4  UNL     1     -34.415  16.864  -7.027  1.00 20.00    -0.021 A 
HETATM    5  C9  UNL     1     -34.497  18.043  -7.916  1.00 20.00     0.056 C 
HETATM    6  S12 UNL     1     -34.999  15.352  -7.579  1.00 20.00    -0.106 SA
ENDROOT
BRANCH   3   7
HETATM    7  C5  UNL     1     -33.568  15.065  -3.874  1.00 20.00     0.164 C 
HETATM    8  O11 UNL     1     -32.414  14.765  -3.586  1.00 20.00    -0.292 OA
BRANCH   7   9
HETATM    9  C7  UNL     1     -34.583  15.022  -2.816  1.00 20.00     0.065 A 
HETATM   10  C6  UNL     1     -35.749  15.977  -2.869  1.00 20.00     0.018 A 
HETATM   11  C8  UNL     1     -34.700  16.138  -1.805  1.00 20.00    -0.006 A 
HETATM   12  C10 UNL     1     -33.796  17.323  -1.823  1.00 20.00     0.011 C 
ENDBRANCH   7   9
ENDBRANCH   3   7
TORSDOF 2
ENDMDL
MODEL 7
REMARK VINA RESULT:      -4.4      2.089      2.419
REMARK  2 active torsions:
REMARK  status: ('A' for Active; 'I' for Inactive)
REMARK    1  A    between atoms: C3_3  and  C5_5 
REMARK    2  A    between atoms: C5_5  and  C7_7 
ROOT
HETATM    1  C1  UNL     1     -34.823  15.879  -2.134  1.00 20.00     0.029 A 
HETATM    2  C2  UNL     1     -36.421  17.040  -3.360  1.00 20.00     0.065 A 
HETATM    3  C3  UNL     1     -35.844  15.811  -3.125  1.00 20.00     0.018 A 
HETATM    4  C4  UNL     1     -34.659  17.157  -1.648  1.00 20.00    -0.021 A 
HETATM    5  C9  UNL     1     -33.712  17.636  -0.617  1.00 20.00     0.056 C 
HETATM    6  S12 UNL     1     -35.732  18.269  -2.386  1.00 20.00    -0.106 SA
ENDROOT
BRANCH   3   7
HETATM    7  C5  UNL     1     -36.259  14.598  -3.835  1.00 20.00     0.164 C 
HETATM    8  O11 UNL     1     -37.371  14.088  -3.748  1.00 20.00    -0.292 OA
BRANCH   7   9
HETATM    9  C7  UNL     1     -35.269  13.962  -4.711  1.00 20.00     0.065 A 
HETATM   10  C6  UNL     1     -34.205  14.810  -5.363  1.00 20.00     0.018 A 
HETATM   11  C8  UNL     1     -35.289  14.194  -6.204  1.00 20.00    -0.006 A 
HETATM   12  C10 UNL     1     -36.308  15.062  -6.858  1.00 20.00     0.011 C 
ENDBRANCH   7   9
ENDBRANCH   3   7
TORSDOF 2
ENDMDL
MODEL 8
REMARK VINA RESULT:      -4.3      2.755      4.469
REMARK  2 active torsions:
REMARK  status: ('A' for Active; 'I' for Inactive)
REMARK    1  A    between atoms: C3_3  and  C5_5 
REMARK    2  A    between atoms: C5_5  and  C7_7 
ROOT
HETATM    1  C1  UNL     1     -37.448  14.685  -3.821  1.00 20.00     0.029 A 
HETATM    2  C2  UNL     1     -36.652  15.086  -5.969  1.00 20.00     0.065 A 
HETATM    3  C3  UNL     1     -36.350  14.581  -4.723  1.00 20.00     0.018 A 
HETATM    4  C4  UNL     1     -38.548  15.266  -4.413  1.00 20.00    -0.021 A 
HETATM    5  C9  UNL     1     -39.873  15.545  -3.817  1.00 20.00     0.056 C 
HETATM    6  S12 UNL     1     -38.256  15.681  -6.048  1.00 20.00    -0.106 SA
ENDROOT
BRANCH   3   7
HETATM    7  C5  UNL     1     -35.038  14.012  -4.401  1.00 20.00     0.164 C 
HETATM    8  O11 UNL     1     -34.845  12.842  -4.087  1.00 20.00    -0.292 OA
BRANCH   7   9
HETATM    9  C7  UNL     1     -33.883  14.914  -4.468  1.00 20.00     0.065 A 
HETATM   10  C6  UNL     1     -32.693  14.659  -3.578  1.00 20.00     0.018 A 
HETATM   11  C8  UNL     1     -33.566  15.858  -3.332  1.00 20.00    -0.006 A 
HETATM   12  C10 UNL     1     -34.405  15.929  -2.103  1.00 20.00     0.011 C 
ENDBRANCH   7   9
ENDBRANCH   3   7
TORSDOF 2
ENDMDL
MODEL 9
REMARK VINA RESULT:      -4.3      2.693      4.931
REMARK  2 active torsions:
REMARK  status: ('A' for Active; 'I' for Inactive)
REMARK    1  A    between atoms: C3_3  and  C5_5 
REMARK    2  A    between atoms: C5_5  and  C7_7 
ROOT
HETATM    1  C1  UNL     1     -36.582  15.079  -6.154  1.00 20.00     0.029 A 
HETATM    2  C2  UNL     1     -37.370  14.680  -4.003  1.00 20.00     0.065 A 
HETATM    3  C3  UNL     1     -36.293  14.571  -4.854  1.00 20.00     0.018 A 
HETATM    4  C4  UNL     1     -37.870  15.558  -6.246  1.00 20.00    -0.021 A 
HETATM    5  C9  UNL     1     -38.546  16.163  -7.414  1.00 20.00     0.056 C 
HETATM    6  S12 UNL     1     -38.725  15.395  -4.771  1.00 20.00    -0.106 SA
ENDROOT
BRANCH   3   7
HETATM    7  C5  UNL     1     -35.014  13.992  -4.435  1.00 20.00     0.164 C 
HETATM    8  O11 UNL     1     -34.861  12.829  -4.075  1.00 20.00    -0.292 OA
BRANCH   7   9
HETATM    9  C7  UNL     1     -33.841  14.873  -4.456  1.00 20.00     0.065 A 
HETATM   10  C6  UNL     1     -32.688  14.593  -3.525  1.00 20.00     0.018 A 
HETATM   11  C8  UNL     1     -33.548  15.805  -3.303  1.00 20.00    -0.006 A 
HETATM   12  C10 UNL     1     -34.428  15.885  -2.104  1.00 20.00     0.011 C 
ENDBRANCH   7   9
ENDBRANCH   3   7
TORSDOF 2
ENDMDL
