MODEL 1
REMARK VINA RESULT:      -4.1      0.000      0.000
REMARK  2 active torsions:
REMARK  status: ('A' for Active; 'I' for Inactive)
REMARK    1  A    between atoms: C2_2  and  C9_9 
REMARK    2  A    between atoms: C9_9  and  N11_11 
ROOT
HETATM    1  C1  UNL     1     -34.555  17.104  -0.446  1.00 20.00    -0.109 C 
HETATM    2  C2  UNL     1     -34.018  16.817  -1.481  1.00 20.00    -0.077 C 
HETATM    3  C7  UNL     1     -35.208  17.455   0.815  1.00 20.00     0.112 C 
ENDROOT
BRANCH   2   4
HETATM    4  C9  UNL     1     -33.363  16.459  -2.742  1.00 20.00     0.365 C 
BRANCH   4   5
HETATM    5  N11 UNL     1     -34.326  15.903  -3.691  1.00 20.00     0.103 N 
HETATM    6  C4  UNL     1     -33.784  15.926  -5.056  1.00 20.00     0.303 C 
HETATM    7  C3  UNL     1     -34.790  15.346  -6.051  1.00 20.00     0.300 C 
HETATM    8  N10 UNL     1     -35.216  13.993  -5.683  1.00 20.00     0.091 N 
HETATM    9  C6  UNL     1     -35.715  13.930  -4.300  1.00 20.00     0.244 C 
HETATM   10  H27 UNL     1     -35.966  13.700  -6.321  1.00 20.00     0.316 HD
HETATM   11  C5  UNL     1     -34.699  14.533  -3.315  1.00 20.00     0.308 C 
HETATM   12  C8  UNL     1     -37.101  14.571  -4.177  1.00 20.00     0.044 C 
ENDBRANCH   4   5
ENDBRANCH   2   4
TORSDOF 2
ENDMDL
MODEL 2
REMARK VINA RESULT:      -4.1      1.195      1.673
REMARK  2 active torsions:
REMARK  status: ('A' for Active; 'I' for Inactive)
REMARK    1  A    between atoms: C2_2  and  C9_9 
REMARK    2  A    between atoms: C9_9  and  N11_11 
ROOT
HETATM    1  C1  UNL     1     -34.433  17.209  -1.110  1.00 20.00    -0.109 C 
HETATM    2  C2  UNL     1     -34.085  17.205  -2.259  1.00 20.00    -0.077 C 
HETATM    3  C7  UNL     1     -34.858  17.214   0.289  1.00 20.00     0.112 C 
ENDROOT
BRANCH   2   4
HETATM    4  C9  UNL     1     -33.659  17.206  -3.662  1.00 20.00     0.365 C 
BRANCH   4   5
HETATM    5  N11 UNL     1     -33.987  15.938  -4.309  1.00 20.00     0.103 N 
HETATM    6  C4  UNL     1     -33.464  14.807  -3.532  1.00 20.00     0.303 C 
HETATM    7  C3  UNL     1     -33.806  13.477  -4.208  1.00 20.00     0.300 C 
HETATM    8  N10 UNL     1     -35.245  13.329  -4.440  1.00 20.00     0.091 N 
HETATM    9  C6  UNL     1     -35.807  14.475  -5.171  1.00 20.00     0.244 C 
HETATM   10  H27 UNL     1     -35.403  12.474  -4.988  1.00 20.00     0.316 HD
HETATM   11  C5  UNL     1     -35.439  15.804  -4.488  1.00 20.00     0.308 C 
HETATM   12  C8  UNL     1     -35.405  14.445  -6.649  1.00 20.00     0.044 C 
ENDBRANCH   4   5
ENDBRANCH   2   4
TORSDOF 2
ENDMDL
MODEL 3
REMARK VINA RESULT:      -4.1      1.126      1.838
REMARK  2 active torsions:
REMARK  status: ('A' for Active; 'I' for Inactive)
REMARK    1  A    between atoms: C2_2  and  C9_9 
REMARK    2  A    between atoms: C9_9  and  N11_11 
ROOT
HETATM    1  C1  UNL     1     -34.848  17.241   0.192  1.00 20.00    -0.109 C 
HETATM    2  C2  UNL     1     -34.371  17.042  -0.892  1.00 20.00    -0.077 C 
HETATM    3  C7  UNL     1     -35.428  17.483   1.512  1.00 20.00     0.112 C 
ENDROOT
BRANCH   2   4
HETATM    4  C9  UNL     1     -33.795  16.801  -2.218  1.00 20.00     0.365 C 
BRANCH   4   5
HETATM    5  N11 UNL     1     -34.570  15.800  -2.950  1.00 20.00     0.103 N 
HETATM    6  C4  UNL     1     -35.997  16.144  -2.949  1.00 20.00     0.303 C 
HETATM    7  C3  UNL     1     -36.810  15.097  -3.713  1.00 20.00     0.300 C 
HETATM    8  N10 UNL     1     -36.320  14.907  -5.081  1.00 20.00     0.091 N 
HETATM    9  C6  UNL     1     -34.879  14.613  -5.115  1.00 20.00     0.244 C 
HETATM   10  H27 UNL     1     -36.830  14.123  -5.507  1.00 20.00     0.316 HD
HETATM   11  C5  UNL     1     -34.079  15.665  -4.328  1.00 20.00     0.308 C 
HETATM   12  C8  UNL     1     -34.590  13.184  -4.644  1.00 20.00     0.044 C 
ENDBRANCH   4   5
ENDBRANCH   2   4
TORSDOF 2
ENDMDL
MODEL 4
REMARK VINA RESULT:      -4.0      1.513      2.027
REMARK  2 active torsions:
REMARK  status: ('A' for Active; 'I' for Inactive)
REMARK    1  A    between atoms: C2_2  and  C9_9 
REMARK    2  A    between atoms: C9_9  and  N11_11 
ROOT
HETATM    1  C1  UNL     1     -34.471  16.254  -1.607  1.00 20.00    -0.109 C 
HETATM    2  C2  UNL     1     -34.216  15.573  -2.562  1.00 20.00    -0.077 C 
HETATM    3  C7  UNL     1     -34.784  17.082  -0.442  1.00 20.00     0.112 C 
ENDROOT
BRANCH   2   4
HETATM    4  C9  UNL     1     -33.904  14.749  -3.734  1.00 20.00     0.365 C 
BRANCH   4   5
HETATM    5  N11 UNL     1     -34.583  15.255  -4.925  1.00 20.00     0.103 N 
HETATM    6  C4  UNL     1     -33.728  16.206  -5.646  1.00 20.00     0.303 C 
HETATM    7  C3  UNL     1     -34.438  16.738  -6.893  1.00 20.00     0.300 C 
HETATM    8  N10 UNL     1     -34.881  15.659  -7.780  1.00 20.00     0.091 N 
HETATM    9  C6  UNL     1     -35.696  14.662  -7.070  1.00 20.00     0.244 C 
HETATM   10  H27 UNL     1     -35.440  16.067  -8.539  1.00 20.00     0.316 HD
HETATM   11  C5  UNL     1     -34.976  14.151  -5.810  1.00 20.00     0.308 C 
HETATM   12  C8  UNL     1     -37.098  15.201  -6.765  1.00 20.00     0.044 C 
ENDBRANCH   4   5
ENDBRANCH   2   4
TORSDOF 2
ENDMDL
MODEL 5
REMARK VINA RESULT:      -4.0     11.489     12.353
REMARK  2 active torsions:
REMARK  status: ('A' for Active; 'I' for Inactive)
REMARK    1  A    between atoms: C2_2  and  C9_9 
REMARK    2  A    between atoms: C9_9  and  N11_11 
ROOT
HETATM    1  C1  UNL     1     -32.243   8.564   1.876  1.00 20.00    -0.109 C 
HETATM    2  C2  UNL     1     -32.173   7.536   2.492  1.00 20.00    -0.077 C 
HETATM    3  C7  UNL     1     -32.328   9.817   1.125  1.00 20.00     0.112 C 
ENDROOT
BRANCH   2   4
HETATM    4  C9  UNL     1     -32.084   6.278   3.239  1.00 20.00     0.365 C 
BRANCH   4   5
HETATM    5  N11 UNL     1     -33.320   6.020   3.977  1.00 20.00     0.103 N 
HETATM    6  C4  UNL     1     -34.416   5.694   3.056  1.00 20.00     0.303 C 
HETATM    7  C3  UNL     1     -35.711   5.424   3.826  1.00 20.00     0.300 C 
HETATM    8  N10 UNL     1     -35.547   4.374   4.834  1.00 20.00     0.091 N 
HETATM    9  C6  UNL     1     -34.420   4.649   5.739  1.00 20.00     0.244 C 
HETATM   10  H27 UNL     1     -36.411   4.312   5.387  1.00 20.00     0.316 HD
HETATM   11  C5  UNL     1     -33.131   4.935   4.949  1.00 20.00     0.308 C 
HETATM   12  C8  UNL     1     -34.760   5.768   6.729  1.00 20.00     0.044 C 
ENDBRANCH   4   5
ENDBRANCH   2   4
TORSDOF 2
ENDMDL
MODEL 6
REMARK VINA RESULT:      -4.0      1.623      2.615
REMARK  2 active torsions:
REMARK  status: ('A' for Active; 'I' for Inactive)
REMARK    1  A    between atoms: C2_2  and  C9_9 
REMARK    2  A    between atoms: C9_9  and  N11_11 
ROOT
HETATM    1  C1  UNL     1     -34.658  16.517  -1.208  1.00 20.00    -0.109 C 
HETATM    2  C2  UNL     1     -34.787  15.787  -2.152  1.00 20.00    -0.077 C 
HETATM    3  C7  UNL     1     -34.503  17.407  -0.057  1.00 20.00     0.112 C 
ENDROOT
BRANCH   2   4
HETATM    4  C9  UNL     1     -34.939  14.900  -3.309  1.00 20.00     0.365 C 
BRANCH   4   5
HETATM    5  N11 UNL     1     -34.555  15.581  -4.544  1.00 20.00     0.103 N 
HETATM    6  C4  UNL     1     -34.606  14.658  -5.685  1.00 20.00     0.303 C 
HETATM    7  C3  UNL     1     -34.205  15.370  -6.979  1.00 20.00     0.300 C 
HETATM    8  N10 UNL     1     -35.023  16.559  -7.234  1.00 20.00     0.091 N 
HETATM    9  C6  UNL     1     -35.033  17.477  -6.084  1.00 20.00     0.244 C 
HETATM   10  H27 UNL     1     -34.640  17.051  -8.050  1.00 20.00     0.316 HD
HETATM   11  C5  UNL     1     -35.421  16.743  -4.790  1.00 20.00     0.308 C 
HETATM   12  C8  UNL     1     -33.702  18.225  -5.956  1.00 20.00     0.044 C 
ENDBRANCH   4   5
ENDBRANCH   2   4
TORSDOF 2
ENDMDL
MODEL 7
REMARK VINA RESULT:      -3.9      2.046      4.689
REMARK  2 active torsions:
REMARK  status: ('A' for Active; 'I' for Inactive)
REMARK    1  A    between atoms: C2_2  and  C9_9 
REMARK    2  A    between atoms: C9_9  and  N11_11 
ROOT
HETATM    1  C1  UNL     1     -34.648  15.266  -6.780  1.00 20.00    -0.109 C 
HETATM    2  C2  UNL     1     -34.027  15.979  -6.041  1.00 20.00    -0.077 C 
HETATM    3  C7  UNL     1     -35.405  14.397  -7.681  1.00 20.00     0.112 C 
ENDROOT
BRANCH   2   4
HETATM    4  C9  UNL     1     -33.262  16.848  -5.141  1.00 20.00     0.365 C 
BRANCH   4   5
HETATM    5  N11 UNL     1     -34.010  17.117  -3.914  1.00 20.00     0.103 N 
HETATM    6  C4  UNL     1     -35.397  17.489  -4.221  1.00 20.00     0.303 C 
HETATM    7  C3  UNL     1     -36.182  17.771  -2.939  1.00 20.00     0.300 C 
HETATM    8  N10 UNL     1     -36.140  16.643  -2.005  1.00 20.00     0.091 N 
HETATM    9  C6  UNL     1     -34.762  16.214  -1.720  1.00 20.00     0.244 C 
HETATM   10  H27 UNL     1     -36.588  16.928  -1.125  1.00 20.00     0.316 HD
HETATM   11  C5  UNL     1     -33.982  15.951  -3.020  1.00 20.00     0.308 C 
HETATM   12  C8  UNL     1     -34.047  17.208  -0.799  1.00 20.00     0.044 C 
ENDBRANCH   4   5
ENDBRANCH   2   4
TORSDOF 2
ENDMDL
MODEL 8
REMARK VINA RESULT:      -3.9      1.666      4.615
REMARK  2 active torsions:
REMARK  status: ('A' for Active; 'I' for Inactive)
REMARK    1  A    between atoms: C2_2  and  C9_9 
REMARK    2  A    between atoms: C9_9  and  N11_11 
ROOT
HETATM    1  C1  UNL     1     -34.906  14.354  -6.346  1.00 20.00    -0.109 C 
HETATM    2  C2  UNL     1     -34.343  14.302  -5.287  1.00 20.00    -0.077 C 
HETATM    3  C7  UNL     1     -35.593  14.417  -7.636  1.00 20.00     0.112 C 
ENDROOT
BRANCH   2   4
HETATM    4  C9  UNL     1     -33.653  14.232  -3.996  1.00 20.00     0.365 C 
BRANCH   4   5
HETATM    5  N11 UNL     1     -33.827  15.473  -3.243  1.00 20.00     0.103 N 
HETATM    6  C4  UNL     1     -33.536  16.638  -4.087  1.00 20.00     0.303 C 
HETATM    7  C3  UNL     1     -33.717  17.938  -3.300  1.00 20.00     0.300 C 
HETATM    8  N10 UNL     1     -35.053  18.045  -2.707  1.00 20.00     0.091 N 
HETATM    9  C6  UNL     1     -35.392  16.864  -1.898  1.00 20.00     0.244 C 
HETATM   10  H27 UNL     1     -35.080  18.878  -2.107  1.00 20.00     0.316 HD
HETATM   11  C5  UNL     1     -35.188  15.566  -2.698  1.00 20.00     0.308 C 
HETATM   12  C8  UNL     1     -34.629  16.859  -0.570  1.00 20.00     0.044 C 
ENDBRANCH   4   5
ENDBRANCH   2   4
TORSDOF 2
ENDMDL
MODEL 9
REMARK VINA RESULT:      -3.8      1.549      2.182
REMARK  2 active torsions:
REMARK  status: ('A' for Active; 'I' for Inactive)
REMARK    1  A    between atoms: C2_2  and  C9_9 
REMARK    2  A    between atoms: C9_9  and  N11_11 
ROOT
HETATM    1  C1  UNL     1     -34.666  16.264  -1.538  1.00 20.00    -0.109 C 
HETATM    2  C2  UNL     1     -34.595  15.468  -2.433  1.00 20.00    -0.077 C 
HETATM    3  C7  UNL     1     -34.753  17.235  -0.448  1.00 20.00     0.112 C 
ENDROOT
BRANCH   2   4
HETATM    4  C9  UNL     1     -34.504  14.491  -3.523  1.00 20.00     0.365 C 
BRANCH   4   5
HETATM    5  N11 UNL     1     -35.062  15.035  -4.760  1.00 20.00     0.103 N 
HETATM    6  C4  UNL     1     -34.772  14.149  -5.894  1.00 20.00     0.303 C 
HETATM    7  C3  UNL     1     -35.355  14.716  -7.190  1.00 20.00     0.300 C 
HETATM    8  N10 UNL     1     -36.793  14.974  -7.084  1.00 20.00     0.091 N 
HETATM    9  C6  UNL     1     -37.118  15.817  -5.923  1.00 20.00     0.244 C 
HETATM   10  H27 UNL     1     -37.105  15.450  -7.940  1.00 20.00     0.316 HD
HETATM   11  C5  UNL     1     -36.511  15.241  -4.632  1.00 20.00     0.308 C 
HETATM   12  C8  UNL     1     -36.713  17.275  -6.162  1.00 20.00     0.044 C 
ENDBRANCH   4   5
ENDBRANCH   2   4
TORSDOF 2
ENDMDL
