MODEL 1
REMARK VINA RESULT:      -4.0      0.000      0.000
REMARK  1 active torsions:
REMARK  status: ('A' for Active; 'I' for Inactive)
REMARK    1  A    between atoms: C3_3  and  C8_8 
ROOT
HETATM    1  C1  UNL     1     -33.691  17.116  -3.218  1.00 20.00     0.285 C 
HETATM    2  C2  UNL     1     -34.323  16.077  -2.293  1.00 20.00     0.073 C 
HETATM    3  C3  UNL     1     -35.151  16.158  -4.797  1.00 20.00     0.289 C 
HETATM    4  C4  UNL     1     -34.687  16.645  -0.933  1.00 20.00     0.023 C 
HETATM    5  N9  UNL     1     -33.763  16.576  -4.577  1.00 20.00     0.099 N 
HETATM    6  S10 UNL     1     -35.791  15.532  -3.211  1.00 20.00    -0.127 SA
HETATM    7  H27 UNL     1     -33.492  17.281  -5.259  1.00 20.00     0.317 HD
ENDROOT
BRANCH   3   8
HETATM    8  C8  UNL     1     -35.216  15.086  -5.873  1.00 20.00    -0.011 C 
HETATM    9  C5  UNL     1     -34.851  13.715  -5.275  1.00 20.00     0.017 C 
HETATM   10  C6  UNL     1     -34.226  15.417  -7.006  1.00 20.00     0.017 C 
HETATM   11  C7  UNL     1     -36.639  15.014  -6.459  1.00 20.00     0.017 C 
ENDBRANCH   3   8
TORSDOF 1
ENDMDL
MODEL 2
REMARK VINA RESULT:      -4.0      0.006      1.373
REMARK  1 active torsions:
REMARK  status: ('A' for Active; 'I' for Inactive)
REMARK    1  A    between atoms: C3_3  and  C8_8 
ROOT
HETATM    1  C1  UNL     1     -33.693  17.121  -3.215  1.00 20.00     0.285 C 
HETATM    2  C2  UNL     1     -34.324  16.081  -2.290  1.00 20.00     0.073 C 
HETATM    3  C3  UNL     1     -35.154  16.163  -4.794  1.00 20.00     0.289 C 
HETATM    4  C4  UNL     1     -34.688  16.649  -0.930  1.00 20.00     0.023 C 
HETATM    5  N9  UNL     1     -33.766  16.581  -4.574  1.00 20.00     0.099 N 
HETATM    6  S10 UNL     1     -35.792  15.536  -3.208  1.00 20.00    -0.127 SA
HETATM    7  H27 UNL     1     -33.494  17.286  -5.256  1.00 20.00     0.317 HD
ENDROOT
BRANCH   3   8
HETATM    8  C8  UNL     1     -35.219  15.091  -5.870  1.00 20.00    -0.011 C 
HETATM    9  C5  UNL     1     -34.230  15.421  -7.003  1.00 20.00     0.017 C 
HETATM   10  C6  UNL     1     -36.642  15.019  -6.455  1.00 20.00     0.017 C 
HETATM   11  C7  UNL     1     -34.855  13.720  -5.270  1.00 20.00     0.017 C 
ENDBRANCH   3   8
TORSDOF 1
ENDMDL
MODEL 3
REMARK VINA RESULT:      -4.0      0.013      1.374
REMARK  1 active torsions:
REMARK  status: ('A' for Active; 'I' for Inactive)
REMARK    1  A    between atoms: C3_3  and  C8_8 
ROOT
HETATM    1  C1  UNL     1     -33.699  17.132  -3.226  1.00 20.00     0.285 C 
HETATM    2  C2  UNL     1     -34.319  16.087  -2.299  1.00 20.00     0.073 C 
HETATM    3  C3  UNL     1     -35.159  16.166  -4.800  1.00 20.00     0.289 C 
HETATM    4  C4  UNL     1     -34.682  16.650  -0.937  1.00 20.00     0.023 C 
HETATM    5  N9  UNL     1     -33.773  16.593  -4.585  1.00 20.00     0.099 N 
HETATM    6  S10 UNL     1     -35.787  15.533  -3.212  1.00 20.00    -0.127 SA
HETATM    7  H27 UNL     1     -33.509  17.302  -5.268  1.00 20.00     0.317 HD
ENDROOT
BRANCH   3   8
HETATM    8  C8  UNL     1     -35.221  15.096  -5.877  1.00 20.00    -0.011 C 
HETATM    9  C5  UNL     1     -36.642  15.021  -6.466  1.00 20.00     0.017 C 
HETATM   10  C6  UNL     1     -34.856  13.724  -5.278  1.00 20.00     0.017 C 
HETATM   11  C7  UNL     1     -34.227  15.427  -7.007  1.00 20.00     0.017 C 
ENDBRANCH   3   8
TORSDOF 1
ENDMDL
MODEL 4
REMARK VINA RESULT:      -3.9      2.126      4.423
REMARK  1 active torsions:
REMARK  status: ('A' for Active; 'I' for Inactive)
REMARK    1  A    between atoms: C3_3  and  C8_8 
ROOT
HETATM    1  C1  UNL     1     -36.295  14.665  -3.731  1.00 20.00     0.285 C 
HETATM    2  C2  UNL     1     -34.858  14.153  -3.647  1.00 20.00     0.073 C 
HETATM    3  C3  UNL     1     -35.287  16.702  -3.117  1.00 20.00     0.289 C 
HETATM    4  C4  UNL     1     -34.484  13.259  -4.816  1.00 20.00     0.023 C 
HETATM    5  N9  UNL     1     -36.398  15.797  -2.808  1.00 20.00     0.099 N 
HETATM    6  S10 UNL     1     -33.869  15.675  -3.617  1.00 20.00    -0.127 SA
HETATM    7  H27 UNL     1     -37.289  16.276  -2.924  1.00 20.00     0.317 HD
ENDROOT
BRANCH   3   8
HETATM    8  C8  UNL     1     -34.944  17.552  -1.904  1.00 20.00    -0.011 C 
HETATM    9  C5  UNL     1     -34.610  16.648  -0.704  1.00 20.00     0.017 C 
HETATM   10  C6  UNL     1     -36.140  18.451  -1.536  1.00 20.00     0.017 C 
HETATM   11  C7  UNL     1     -33.726  18.444  -2.213  1.00 20.00     0.017 C 
ENDBRANCH   3   8
TORSDOF 1
ENDMDL
MODEL 5
REMARK VINA RESULT:      -3.9      1.762      4.103
REMARK  1 active torsions:
REMARK  status: ('A' for Active; 'I' for Inactive)
REMARK    1  A    between atoms: C3_3  and  C8_8 
ROOT
HETATM    1  C1  UNL     1     -35.401  14.501  -7.304  1.00 20.00     0.285 C 
HETATM    2  C2  UNL     1     -36.466  15.467  -6.787  1.00 20.00     0.073 C 
HETATM    3  C3  UNL     1     -34.830  14.381  -5.023  1.00 20.00     0.289 C 
HETATM    4  C4  UNL     1     -37.831  15.223  -7.405  1.00 20.00     0.023 C 
HETATM    5  N9  UNL     1     -34.277  14.565  -6.368  1.00 20.00     0.099 N 
HETATM    6  S10 UNL     1     -36.473  15.167  -4.996  1.00 20.00    -0.127 SA
HETATM    7  H27 UNL     1     -33.595  13.838  -6.575  1.00 20.00     0.317 HD
ENDROOT
BRANCH   3   8
HETATM    8  C8  UNL     1     -33.911  15.002  -3.984  1.00 20.00    -0.011 C 
HETATM    9  C5  UNL     1     -33.219  16.247  -4.568  1.00 20.00     0.017 C 
HETATM   10  C6  UNL     1     -32.834  13.985  -3.559  1.00 20.00     0.017 C 
HETATM   11  C7  UNL     1     -34.724  15.417  -2.743  1.00 20.00     0.017 C 
ENDBRANCH   3   8
TORSDOF 1
ENDMDL
MODEL 6
REMARK VINA RESULT:      -3.8      1.906      2.341
REMARK  1 active torsions:
REMARK  status: ('A' for Active; 'I' for Inactive)
REMARK    1  A    between atoms: C3_3  and  C8_8 
ROOT
HETATM    1  C1  UNL     1     -34.505  16.874  -1.082  1.00 20.00     0.285 C 
HETATM    2  C2  UNL     1     -34.319  17.990  -2.108  1.00 20.00     0.073 C 
HETATM    3  C3  UNL     1     -34.413  15.507  -2.996  1.00 20.00     0.289 C 
HETATM    4  C4  UNL     1     -33.299  19.027  -1.671  1.00 20.00     0.023 C 
HETATM    5  N9  UNL     1     -35.174  15.769  -1.771  1.00 20.00     0.099 N 
HETATM    6  S10 UNL     1     -33.784  17.106  -3.600  1.00 20.00    -0.127 SA
HETATM    7  H27 UNL     1     -35.197  14.939  -1.182  1.00 20.00     0.317 HD
ENDROOT
BRANCH   3   8
HETATM    8  C8  UNL     1     -35.299  14.841  -4.036  1.00 20.00    -0.011 C 
HETATM    9  C5  UNL     1     -34.918  13.356  -4.181  1.00 20.00     0.017 C 
HETATM   10  C6  UNL     1     -35.124  15.537  -5.400  1.00 20.00     0.017 C 
HETATM   11  C7  UNL     1     -36.776  14.939  -3.611  1.00 20.00     0.017 C 
ENDBRANCH   3   8
TORSDOF 1
ENDMDL
MODEL 7
REMARK VINA RESULT:      -3.7      1.432      4.330
REMARK  1 active torsions:
REMARK  status: ('A' for Active; 'I' for Inactive)
REMARK    1  A    between atoms: C3_3  and  C8_8 
ROOT
HETATM    1  C1  UNL     1     -33.359  14.831  -3.912  1.00 20.00     0.285 C 
HETATM    2  C2  UNL     1     -34.640  15.064  -4.712  1.00 20.00     0.073 C 
HETATM    3  C3  UNL     1     -34.595  15.875  -2.202  1.00 20.00     0.289 C 
HETATM    4  C4  UNL     1     -35.049  13.853  -5.532  1.00 20.00     0.023 C 
HETATM    5  N9  UNL     1     -33.300  15.877  -2.890  1.00 20.00     0.099 N 
HETATM    6  S10 UNL     1     -35.868  15.461  -3.436  1.00 20.00    -0.127 SA
HETATM    7  H27 UNL     1     -32.547  15.694  -2.230  1.00 20.00     0.317 HD
ENDROOT
BRANCH   3   8
HETATM    8  C8  UNL     1     -34.863  17.235  -1.576  1.00 20.00    -0.011 C 
HETATM    9  C5  UNL     1     -34.835  17.124  -0.041  1.00 20.00     0.017 C 
HETATM   10  C6  UNL     1     -36.246  17.752  -2.015  1.00 20.00     0.017 C 
HETATM   11  C7  UNL     1     -33.788  18.242  -2.026  1.00 20.00     0.017 C 
ENDBRANCH   3   8
TORSDOF 1
ENDMDL
MODEL 8
REMARK VINA RESULT:      -3.7      1.421      4.323
REMARK  1 active torsions:
REMARK  status: ('A' for Active; 'I' for Inactive)
REMARK    1  A    between atoms: C3_3  and  C8_8 
ROOT
HETATM    1  C1  UNL     1     -33.354  14.862  -3.944  1.00 20.00     0.285 C 
HETATM    2  C2  UNL     1     -34.654  15.081  -4.716  1.00 20.00     0.073 C 
HETATM    3  C3  UNL     1     -34.569  15.878  -2.202  1.00 20.00     0.289 C 
HETATM    4  C4  UNL     1     -35.063  13.869  -5.534  1.00 20.00     0.023 C 
HETATM    5  N9  UNL     1     -33.289  15.903  -2.917  1.00 20.00     0.099 N 
HETATM    6  S10 UNL     1     -35.861  15.453  -3.413  1.00 20.00    -0.127 SA
HETATM    7  H27 UNL     1     -32.520  15.726  -2.273  1.00 20.00     0.317 HD
ENDROOT
BRANCH   3   8
HETATM    8  C8  UNL     1     -34.844  17.230  -1.563  1.00 20.00    -0.011 C 
HETATM    9  C5  UNL     1     -36.229  17.746  -1.994  1.00 20.00     0.017 C 
HETATM   10  C6  UNL     1     -33.773  18.247  -2.001  1.00 20.00     0.017 C 
HETATM   11  C7  UNL     1     -34.813  17.102  -0.028  1.00 20.00     0.017 C 
ENDBRANCH   3   8
TORSDOF 1
ENDMDL
MODEL 9
REMARK VINA RESULT:      -3.7     13.596     14.597
REMARK  1 active torsions:
REMARK  status: ('A' for Active; 'I' for Inactive)
REMARK    1  A    between atoms: C3_3  and  C8_8 
ROOT
HETATM    1  C1  UNL     1     -40.892   4.617  -0.917  1.00 20.00     0.285 C 
HETATM    2  C2  UNL     1     -42.212   4.461  -0.162  1.00 20.00     0.073 C 
HETATM    3  C3  UNL     1     -42.131   3.663  -2.676  1.00 20.00     0.289 C 
HETATM    4  C4  UNL     1     -42.572   5.690   0.652  1.00 20.00     0.023 C 
HETATM    5  N9  UNL     1     -40.864   3.575  -1.945  1.00 20.00     0.099 N 
HETATM    6  S10 UNL     1     -43.417   4.148  -1.482  1.00 20.00    -0.127 SA
HETATM    7  H27 UNL     1     -40.078   3.715  -2.577  1.00 20.00     0.317 HD
ENDROOT
BRANCH   3   8
HETATM    8  C8  UNL     1     -42.462   2.326  -3.321  1.00 20.00    -0.011 C 
HETATM    9  C5  UNL     1     -43.167   1.409  -2.304  1.00 20.00     0.017 C 
HETATM   10  C6  UNL     1     -41.170   1.640  -3.802  1.00 20.00     0.017 C 
HETATM   11  C7  UNL     1     -43.393   2.542  -4.530  1.00 20.00     0.017 C 
ENDBRANCH   3   8
TORSDOF 1
ENDMDL
