MODEL 1
REMARK VINA RESULT:      -4.3      0.000      0.000
REMARK  3 active torsions:
REMARK  status: ('A' for Active; 'I' for Inactive)
REMARK    1  A    between atoms: C4_4  and  C6_6 
REMARK    2  A    between atoms: C4_4  and  O7_7 
REMARK    3  A    between atoms: C5_5  and  C6_6 
ROOT
HETATM    1  C6  UNL     1     -33.583   5.588   4.120  1.00 20.00     0.109 C 
HETATM    2 CL8  UNL     1     -34.486   5.297   2.593  1.00 20.00    -0.122 Cl
ENDROOT
BRANCH   1   3
HETATM    3  C4  UNL     1     -32.711   6.834   3.957  1.00 20.00     0.187 C 
BRANCH   3   4
HETATM    4  O7  UNL     1     -32.142   6.851   2.652  1.00 20.00    -0.394 OA
HETATM    5  C3  UNL     1     -32.092   8.168   2.123  1.00 20.00     0.201 C 
ENDBRANCH   3   4
ENDBRANCH   1   3
BRANCH   1   6
HETATM    6  C5  UNL     1     -34.531   5.676   5.339  1.00 20.00    -0.002 C 
HETATM    7  C1  UNL     1     -34.006   6.555   6.479  1.00 20.00     0.011 C 
HETATM    8  C2  UNL     1     -34.896   4.288   5.879  1.00 20.00     0.011 C 
ENDBRANCH   1   6
TORSDOF 3
ENDMDL
MODEL 2
REMARK VINA RESULT:      -4.0      1.805      2.060
REMARK  3 active torsions:
REMARK  status: ('A' for Active; 'I' for Inactive)
REMARK    1  A    between atoms: C4_4  and  C6_6 
REMARK    2  A    between atoms: C4_4  and  O7_7 
REMARK    3  A    between atoms: C5_5  and  C6_6 
ROOT
HETATM    1  C6  UNL     1     -33.771   6.551   4.787  1.00 20.00     0.109 C 
HETATM    2 CL8  UNL     1     -33.464   6.901   6.523  1.00 20.00    -0.122 Cl
ENDROOT
BRANCH   1   3
HETATM    3  C4  UNL     1     -32.443   6.568   4.029  1.00 20.00     0.187 C 
BRANCH   3   4
HETATM    4  O7  UNL     1     -32.682   6.845   2.653  1.00 20.00    -0.394 OA
HETATM    5  C3  UNL     1     -32.077   8.066   2.254  1.00 20.00     0.201 C 
ENDBRANCH   3   4
ENDBRANCH   1   3
BRANCH   1   6
HETATM    6  C5  UNL     1     -34.551   5.228   4.598  1.00 20.00    -0.002 C 
HETATM    7  C1  UNL     1     -35.818   5.364   3.747  1.00 20.00     0.011 C 
HETATM    8  C2  UNL     1     -34.895   4.572   5.940  1.00 20.00     0.011 C 
ENDBRANCH   1   6
TORSDOF 3
ENDMDL
MODEL 3
REMARK VINA RESULT:      -3.5     11.681     12.432
REMARK  3 active torsions:
REMARK  status: ('A' for Active; 'I' for Inactive)
REMARK    1  A    between atoms: C4_4  and  C6_6 
REMARK    2  A    between atoms: C4_4  and  O7_7 
REMARK    3  A    between atoms: C5_5  and  C6_6 
ROOT
HETATM    1  C6  UNL     1     -33.854  15.686  -3.793  1.00 20.00     0.109 C 
HETATM    2 CL8  UNL     1     -33.281  16.518  -5.279  1.00 20.00    -0.122 Cl
ENDROOT
BRANCH   1   3
HETATM    3  C4  UNL     1     -33.123  14.349  -3.653  1.00 20.00     0.187 C 
BRANCH   3   4
HETATM    4  O7  UNL     1     -34.069  13.310  -3.422  1.00 20.00    -0.394 OA
HETATM    5  C3  UNL     1     -35.115  13.335  -4.381  1.00 20.00     0.201 C 
ENDBRANCH   3   4
ENDBRANCH   1   3
BRANCH   1   6
HETATM    6  C5  UNL     1     -33.707  16.582  -2.540  1.00 20.00    -0.002 C 
HETATM    7  C1  UNL     1     -34.712  16.272  -1.427  1.00 20.00     0.011 C 
HETATM    8  C2  UNL     1     -33.768  18.072  -2.896  1.00 20.00     0.011 C 
ENDBRANCH   1   6
TORSDOF 3
ENDMDL
MODEL 4
REMARK VINA RESULT:      -3.5     11.869     12.438
REMARK  3 active torsions:
REMARK  status: ('A' for Active; 'I' for Inactive)
REMARK    1  A    between atoms: C4_4  and  C6_6 
REMARK    2  A    between atoms: C4_4  and  O7_7 
REMARK    3  A    between atoms: C5_5  and  C6_6 
ROOT
HETATM    1  C6  UNL     1     -34.510  15.509  -3.425  1.00 20.00     0.109 C 
HETATM    2 CL8  UNL     1     -34.682  16.055  -1.722  1.00 20.00    -0.122 Cl
ENDROOT
BRANCH   1   3
HETATM    3  C4  UNL     1     -33.024  15.362  -3.757  1.00 20.00     0.187 C 
BRANCH   3   4
HETATM    4  O7  UNL     1     -32.685  16.237  -4.828  1.00 20.00    -0.394 OA
HETATM    5  C3  UNL     1     -33.633  17.285  -4.964  1.00 20.00     0.201 C 
ENDBRANCH   3   4
ENDBRANCH   1   3
BRANCH   1   6
HETATM    6  C5  UNL     1     -35.315  14.217  -3.698  1.00 20.00    -0.002 C 
HETATM    7  C1  UNL     1     -34.684  13.294  -4.746  1.00 20.00     0.011 C 
HETATM    8  C2  UNL     1     -36.768  14.521  -4.081  1.00 20.00     0.011 C 
ENDBRANCH   1   6
TORSDOF 3
ENDMDL
MODEL 5
REMARK VINA RESULT:      -3.4     11.669     12.252
REMARK  3 active torsions:
REMARK  status: ('A' for Active; 'I' for Inactive)
REMARK    1  A    between atoms: C4_4  and  C6_6 
REMARK    2  A    between atoms: C4_4  and  O7_7 
REMARK    3  A    between atoms: C5_5  and  C6_6 
ROOT
HETATM    1  C6  UNL     1     -35.412  14.875  -3.903  1.00 20.00     0.109 C 
HETATM    2 CL8  UNL     1     -35.376  13.172  -4.475  1.00 20.00    -0.122 Cl
ENDROOT
BRANCH   1   3
HETATM    3  C4  UNL     1     -36.811  15.197  -3.373  1.00 20.00     0.187 C 
BRANCH   3   4
HETATM    4  O7  UNL     1     -37.713  14.160  -3.746  1.00 20.00    -0.394 OA
HETATM    5  C3  UNL     1     -38.947  14.686  -4.211  1.00 20.00     0.201 C 
ENDBRANCH   3   4
ENDBRANCH   1   3
BRANCH   1   6
HETATM    6  C5  UNL     1     -34.300  15.156  -2.864  1.00 20.00    -0.002 C 
HETATM    7  C1  UNL     1     -34.650  16.251  -1.851  1.00 20.00     0.011 C 
HETATM    8  C2  UNL     1     -32.961  15.479  -3.537  1.00 20.00     0.011 C 
ENDBRANCH   1   6
TORSDOF 3
ENDMDL
MODEL 6
REMARK VINA RESULT:      -3.4     11.946     12.726
REMARK  3 active torsions:
REMARK  status: ('A' for Active; 'I' for Inactive)
REMARK    1  A    between atoms: C4_4  and  C6_6 
REMARK    2  A    between atoms: C4_4  and  O7_7 
REMARK    3  A    between atoms: C5_5  and  C6_6 
ROOT
HETATM    1  C6  UNL     1     -33.500  15.317  -3.523  1.00 20.00     0.109 C 
HETATM    2 CL8  UNL     1     -33.177  13.560  -3.717  1.00 20.00    -0.122 Cl
ENDROOT
BRANCH   1   3
HETATM    3  C4  UNL     1     -33.826  15.921  -4.890  1.00 20.00     0.187 C 
BRANCH   3   4
HETATM    4  O7  UNL     1     -32.941  17.004  -5.157  1.00 20.00    -0.394 OA
HETATM    5  C3  UNL     1     -33.601  18.256  -5.045  1.00 20.00     0.201 C 
ENDBRANCH   3   4
ENDBRANCH   1   3
BRANCH   1   6
HETATM    6  C5  UNL     1     -34.604  15.585  -2.472  1.00 20.00    -0.002 C 
HETATM    7  C1  UNL     1     -35.983  15.877  -3.072  1.00 20.00     0.011 C 
HETATM    8  C2  UNL     1     -34.209  16.708  -1.506  1.00 20.00     0.011 C 
ENDBRANCH   1   6
TORSDOF 3
ENDMDL
MODEL 7
REMARK VINA RESULT:      -3.3      1.648      3.864
REMARK  3 active torsions:
REMARK  status: ('A' for Active; 'I' for Inactive)
REMARK    1  A    between atoms: C4_4  and  C6_6 
REMARK    2  A    between atoms: C4_4  and  O7_7 
REMARK    3  A    between atoms: C5_5  and  C6_6 
ROOT
HETATM    1  C6  UNL     1     -33.562   6.626   3.430  1.00 20.00     0.109 C 
HETATM    2 CL8  UNL     1     -34.082   5.233   2.421  1.00 20.00    -0.122 Cl
ENDROOT
BRANCH   1   3
HETATM    3  C4  UNL     1     -33.685   6.248   4.908  1.00 20.00     0.187 C 
BRANCH   3   4
HETATM    4  O7  UNL     1     -34.890   5.520   5.116  1.00 20.00    -0.394 OA
HETATM    5  C3  UNL     1     -34.689   4.417   5.987  1.00 20.00     0.201 C 
ENDBRANCH   3   4
ENDBRANCH   1   3
BRANCH   1   6
HETATM    6  C5  UNL     1     -32.141   7.109   3.052  1.00 20.00    -0.002 C 
HETATM    7  C1  UNL     1     -31.334   7.662   4.231  1.00 20.00     0.011 C 
HETATM    8  C2  UNL     1     -32.174   8.138   1.916  1.00 20.00     0.011 C 
ENDBRANCH   1   6
TORSDOF 3
ENDMDL
MODEL 8
REMARK VINA RESULT:      -3.3     11.858     12.504
REMARK  3 active torsions:
REMARK  status: ('A' for Active; 'I' for Inactive)
REMARK    1  A    between atoms: C4_4  and  C6_6 
REMARK    2  A    between atoms: C4_4  and  O7_7 
REMARK    3  A    between atoms: C5_5  and  C6_6 
ROOT
HETATM    1  C6  UNL     1     -35.780  15.101  -3.409  1.00 20.00     0.109 C 
HETATM    2 CL8  UNL     1     -35.472  16.852  -3.671  1.00 20.00    -0.122 Cl
ENDROOT
BRANCH   1   3
HETATM    3  C4  UNL     1     -36.866  14.631  -4.379  1.00 20.00     0.187 C 
BRANCH   3   4
HETATM    4  O7  UNL     1     -38.009  14.203  -3.646  1.00 20.00    -0.394 OA
HETATM    5  C3  UNL     1     -38.970  15.241  -3.527  1.00 20.00     0.201 C 
ENDBRANCH   3   4
ENDBRANCH   1   3
BRANCH   1   6
HETATM    6  C5  UNL     1     -34.481  14.267  -3.515  1.00 20.00    -0.002 C 
HETATM    7  C1  UNL     1     -33.204  15.107  -3.611  1.00 20.00     0.011 C 
HETATM    8  C2  UNL     1     -34.537  13.271  -4.679  1.00 20.00     0.011 C 
ENDBRANCH   1   6
TORSDOF 3
ENDMDL
MODEL 9
REMARK VINA RESULT:      -3.3     11.922     13.016
REMARK  3 active torsions:
REMARK  status: ('A' for Active; 'I' for Inactive)
REMARK    1  A    between atoms: C4_4  and  C6_6 
REMARK    2  A    between atoms: C4_4  and  O7_7 
REMARK    3  A    between atoms: C5_5  and  C6_6 
ROOT
HETATM    1  C6  UNL     1     -34.833  13.913  -4.721  1.00 20.00     0.109 C 
HETATM    2 CL8  UNL     1     -33.346  13.556  -3.778  1.00 20.00    -0.122 Cl
ENDROOT
BRANCH   1   3
HETATM    3  C4  UNL     1     -35.833  14.645  -3.823  1.00 20.00     0.187 C 
BRANCH   3   4
HETATM    4  O7  UNL     1     -37.085  13.967  -3.852  1.00 20.00    -0.394 OA
HETATM    5  C3  UNL     1     -38.150  14.855  -4.158  1.00 20.00     0.201 C 
ENDBRANCH   3   4
ENDBRANCH   1   3
BRANCH   1   6
HETATM    6  C5  UNL     1     -34.516  14.691  -6.021  1.00 20.00    -0.002 C 
HETATM    7  C1  UNL     1     -34.376  16.204  -5.827  1.00 20.00     0.011 C 
HETATM    8  C2  UNL     1     -35.541  14.400  -7.123  1.00 20.00     0.011 C 
ENDBRANCH   1   6
TORSDOF 3
ENDMDL
