MODEL 1
REMARK VINA RESULT:      -5.4      0.000      0.000
REMARK  2 active torsions:
REMARK  status: ('A' for Active; 'I' for Inactive)
REMARK    1  A    between atoms: C3_3  and  C5_5 
REMARK    2  A    between atoms: C3_3  and  C8_8 
ROOT
HETATM    1  C1  UNL     1     -32.231   7.147   3.070  1.00 20.00     0.012 C 
HETATM    2  C2  UNL     1     -32.974   6.204   3.074  1.00 20.00    -0.110 C 
HETATM    3  C8  UNL     1     -33.877   5.047   3.074  1.00 20.00     0.171 C 
ENDROOT
BRANCH   3   4
HETATM    4  C3  UNL     1     -35.171   5.321   3.814  1.00 20.00     0.142 C 
HETATM    5  O9  UNL     1     -36.052   6.063   3.378  1.00 20.00    -0.297 OA
BRANCH   4   6
HETATM    6  C5  UNL     1     -35.331   4.644   5.106  1.00 20.00     0.060 A 
HETATM    7  C4  UNL     1     -34.127   4.030   5.773  1.00 20.00     0.017 A 
HETATM    8  C6  UNL     1     -34.773   5.247   6.373  1.00 20.00    -0.007 A 
HETATM    9  C7  UNL     1     -34.048   6.549   6.379  1.00 20.00     0.011 C 
ENDBRANCH   4   6
ENDBRANCH   3   4
TORSDOF 2
ENDMDL
MODEL 2
REMARK VINA RESULT:      -4.9      1.652      2.481
REMARK  2 active torsions:
REMARK  status: ('A' for Active; 'I' for Inactive)
REMARK    1  A    between atoms: C3_3  and  C5_5 
REMARK    2  A    between atoms: C3_3  and  C8_8 
ROOT
HETATM    1  C1  UNL     1     -32.160   8.534   1.800  1.00 20.00     0.012 C 
HETATM    2  C2  UNL     1     -32.178   7.609   2.566  1.00 20.00    -0.110 C 
HETATM    3  C8  UNL     1     -32.195   6.475   3.498  1.00 20.00     0.171 C 
ENDROOT
BRANCH   3   4
HETATM    4  C3  UNL     1     -33.303   6.584   4.525  1.00 20.00     0.142 C 
HETATM    5  O9  UNL     1     -33.110   6.930   5.690  1.00 20.00    -0.297 OA
BRANCH   4   6
HETATM    6  C5  UNL     1     -34.653   6.249   4.055  1.00 20.00     0.060 A 
HETATM    7  C4  UNL     1     -34.846   5.064   3.145  1.00 20.00     0.017 A 
HETATM    8  C6  UNL     1     -35.366   5.016   4.554  1.00 20.00    -0.007 A 
HETATM    9  C7  UNL     1     -34.748   4.089   5.544  1.00 20.00     0.011 C 
ENDBRANCH   4   6
ENDBRANCH   3   4
TORSDOF 2
ENDMDL
MODEL 3
REMARK VINA RESULT:      -4.7      1.888      2.694
REMARK  2 active torsions:
REMARK  status: ('A' for Active; 'I' for Inactive)
REMARK    1  A    between atoms: C3_3  and  C5_5 
REMARK    2  A    between atoms: C3_3  and  C8_8 
ROOT
HETATM    1  C1  UNL     1     -32.099   8.954   0.985  1.00 20.00     0.012 C 
HETATM    2  C2  UNL     1     -32.020   8.367   2.030  1.00 20.00    -0.110 C 
HETATM    3  C8  UNL     1     -31.918   7.655   3.309  1.00 20.00     0.171 C 
ENDROOT
BRANCH   3   4
HETATM    4  C3  UNL     1     -32.610   6.308   3.280  1.00 20.00     0.142 C 
HETATM    5  O9  UNL     1     -32.013   5.247   3.100  1.00 20.00    -0.297 OA
BRANCH   4   6
HETATM    6  C5  UNL     1     -34.064   6.326   3.484  1.00 20.00     0.060 A 
HETATM    7  C4  UNL     1     -34.760   5.080   3.966  1.00 20.00     0.017 A 
HETATM    8  C6  UNL     1     -34.655   6.274   4.872  1.00 20.00    -0.007 A 
HETATM    9  C7  UNL     1     -33.804   6.209   6.094  1.00 20.00     0.011 C 
ENDBRANCH   4   6
ENDBRANCH   3   4
TORSDOF 2
ENDMDL
MODEL 4
REMARK VINA RESULT:      -4.3     11.945     12.886
REMARK  2 active torsions:
REMARK  status: ('A' for Active; 'I' for Inactive)
REMARK    1  A    between atoms: C3_3  and  C5_5 
REMARK    2  A    between atoms: C3_3  and  C8_8 
ROOT
HETATM    1  C1  UNL     1     -34.615  16.619  -0.687  1.00 20.00     0.012 C 
HETATM    2  C2  UNL     1     -34.389  16.458  -1.856  1.00 20.00    -0.110 C 
HETATM    3  C8  UNL     1     -34.117  16.267  -3.285  1.00 20.00     0.171 C 
ENDROOT
BRANCH   3   4
HETATM    4  C3  UNL     1     -33.452  14.936  -3.577  1.00 20.00     0.142 C 
HETATM    5  O9  UNL     1     -32.232  14.782  -3.586  1.00 20.00    -0.297 OA
BRANCH   4   6
HETATM    6  C5  UNL     1     -34.355  13.813  -3.855  1.00 20.00     0.060 A 
HETATM    7  C4  UNL     1     -35.813  14.084  -4.123  1.00 20.00     0.017 A 
HETATM    8  C6  UNL     1     -34.926  13.600  -5.236  1.00 20.00    -0.007 A 
HETATM    9  C7  UNL     1     -34.602  14.502  -6.377  1.00 20.00     0.011 C 
ENDBRANCH   4   6
ENDBRANCH   3   4
TORSDOF 2
ENDMDL
MODEL 5
REMARK VINA RESULT:      -4.3      1.577      3.262
REMARK  2 active torsions:
REMARK  status: ('A' for Active; 'I' for Inactive)
REMARK    1  A    between atoms: C3_3  and  C5_5 
REMARK    2  A    between atoms: C3_3  and  C8_8 
ROOT
HETATM    1  C1  UNL     1     -33.236   7.420   6.766  1.00 20.00     0.012 C 
HETATM    2  C2  UNL     1     -34.040   6.535   6.650  1.00 20.00    -0.110 C 
HETATM    3  C8  UNL     1     -35.026   5.458   6.513  1.00 20.00     0.171 C 
ENDROOT
BRANCH   3   4
HETATM    4  C3  UNL     1     -34.587   4.390   5.531  1.00 20.00     0.142 C 
HETATM    5  O9  UNL     1     -33.816   3.478   5.828  1.00 20.00    -0.297 OA
BRANCH   4   6
HETATM    6  C5  UNL     1     -35.139   4.496   4.175  1.00 20.00     0.060 A 
HETATM    7  C4  UNL     1     -35.703   5.812   3.706  1.00 20.00     0.017 A 
HETATM    8  C6  UNL     1     -34.427   5.291   3.107  1.00 20.00    -0.007 A 
HETATM    9  C7  UNL     1     -33.139   5.994   3.368  1.00 20.00     0.011 C 
ENDBRANCH   4   6
ENDBRANCH   3   4
TORSDOF 2
ENDMDL
MODEL 6
REMARK VINA RESULT:      -4.3     12.124     13.073
REMARK  2 active torsions:
REMARK  status: ('A' for Active; 'I' for Inactive)
REMARK    1  A    between atoms: C3_3  and  C5_5 
REMARK    2  A    between atoms: C3_3  and  C8_8 
ROOT
HETATM    1  C1  UNL     1     -37.119  15.451  -6.254  1.00 20.00     0.012 C 
HETATM    2  C2  UNL     1     -36.037  14.936  -6.166  1.00 20.00    -0.110 C 
HETATM    3  C8  UNL     1     -34.715  14.308  -6.066  1.00 20.00     0.171 C 
ENDROOT
BRANCH   3   4
HETATM    4  C3  UNL     1     -34.479  13.662  -4.716  1.00 20.00     0.142 C 
HETATM    5  O9  UNL     1     -35.072  12.650  -4.341  1.00 20.00    -0.297 OA
BRANCH   4   6
HETATM    6  C5  UNL     1     -33.486  14.314  -3.854  1.00 20.00     0.060 A 
HETATM    7  C4  UNL     1     -33.139  15.762  -4.090  1.00 20.00     0.017 A 
HETATM    8  C6  UNL     1     -33.899  15.368  -2.855  1.00 20.00    -0.007 A 
HETATM    9  C7  UNL     1     -35.318  15.790  -2.687  1.00 20.00     0.011 C 
ENDBRANCH   4   6
ENDBRANCH   3   4
TORSDOF 2
ENDMDL
MODEL 7
REMARK VINA RESULT:      -4.2     11.949     13.319
REMARK  2 active torsions:
REMARK  status: ('A' for Active; 'I' for Inactive)
REMARK    1  A    between atoms: C3_3  and  C5_5 
REMARK    2  A    between atoms: C3_3  and  C8_8 
ROOT
HETATM    1  C1  UNL     1     -34.569  16.117  -2.329  1.00 20.00     0.012 C 
HETATM    2  C2  UNL     1     -34.079  15.213  -2.949  1.00 20.00    -0.110 C 
HETATM    3  C8  UNL     1     -33.475  14.108  -3.703  1.00 20.00     0.171 C 
ENDROOT
BRANCH   3   4
HETATM    4  C3  UNL     1     -34.335  13.663  -4.869  1.00 20.00     0.142 C 
HETATM    5  O9  UNL     1     -34.889  12.565  -4.916  1.00 20.00    -0.297 OA
BRANCH   4   6
HETATM    6  C5  UNL     1     -34.479  14.625  -5.968  1.00 20.00     0.060 A 
HETATM    7  C4  UNL     1     -35.382  14.294  -7.128  1.00 20.00     0.017 A 
HETATM    8  C6  UNL     1     -35.768  15.385  -6.170  1.00 20.00    -0.007 A 
HETATM    9  C7  UNL     1     -36.944  15.206  -5.271  1.00 20.00     0.011 C 
ENDBRANCH   4   6
ENDBRANCH   3   4
TORSDOF 2
ENDMDL
MODEL 8
REMARK VINA RESULT:      -4.1     12.227     13.509
REMARK  2 active torsions:
REMARK  status: ('A' for Active; 'I' for Inactive)
REMARK    1  A    between atoms: C3_3  and  C5_5 
REMARK    2  A    between atoms: C3_3  and  C8_8 
ROOT
HETATM    1  C1  UNL     1     -34.703  16.068  -2.032  1.00 20.00     0.012 C 
HETATM    2  C2  UNL     1     -35.197  15.316  -2.828  1.00 20.00    -0.110 C 
HETATM    3  C8  UNL     1     -35.807  14.399  -3.797  1.00 20.00     0.171 C 
ENDROOT
BRANCH   3   4
HETATM    4  C3  UNL     1     -34.783  13.743  -4.701  1.00 20.00     0.142 C 
HETATM    5  O9  UNL     1     -33.851  13.060  -4.279  1.00 20.00    -0.297 OA
BRANCH   4   6
HETATM    6  C5  UNL     1     -34.959  13.966  -6.141  1.00 20.00     0.060 A 
HETATM    7  C4  UNL     1     -35.915  15.032  -6.614  1.00 20.00     0.017 A 
HETATM    8  C6  UNL     1     -34.436  15.218  -6.803  1.00 20.00    -0.007 A 
HETATM    9  C7  UNL     1     -33.715  16.276  -6.040  1.00 20.00     0.011 C 
ENDBRANCH   4   6
ENDBRANCH   3   4
TORSDOF 2
ENDMDL
MODEL 9
REMARK VINA RESULT:      -4.0     11.966     13.109
REMARK  2 active torsions:
REMARK  status: ('A' for Active; 'I' for Inactive)
REMARK    1  A    between atoms: C3_3  and  C5_5 
REMARK    2  A    between atoms: C3_3  and  C8_8 
ROOT
HETATM    1  C1  UNL     1     -34.972  14.733  -7.329  1.00 20.00     0.012 C 
HETATM    2  C2  UNL     1     -34.984  14.069  -6.328  1.00 20.00    -0.110 C 
HETATM    3  C8  UNL     1     -35.003  13.253  -5.109  1.00 20.00     0.171 C 
ENDROOT
BRANCH   3   4
HETATM    4  C3  UNL     1     -34.235  13.892  -3.970  1.00 20.00     0.142 C 
HETATM    5  O9  UNL     1     -33.139  13.484  -3.585  1.00 20.00    -0.297 OA
BRANCH   4   6
HETATM    6  C5  UNL     1     -34.873  15.048  -3.331  1.00 20.00     0.060 A 
HETATM    7  C4  UNL     1     -34.103  15.852  -2.315  1.00 20.00     0.017 A 
HETATM    8  C6  UNL     1     -34.431  16.455  -3.651  1.00 20.00    -0.007 A 
HETATM    9  C7  UNL     1     -33.341  16.741  -4.627  1.00 20.00     0.011 C 
ENDBRANCH   4   6
ENDBRANCH   3   4
TORSDOF 2
ENDMDL
