MODEL 1
REMARK VINA RESULT:      -4.0      0.000      0.000
REMARK  2 active torsions:
REMARK  status: ('A' for Active; 'I' for Inactive)
REMARK    1  A    between atoms: C2_2  and  C9_9 
REMARK    2  A    between atoms: C9_9  and  N11_11 
ROOT
HETATM    1  C3  UNL     1     -33.704  18.591  -2.990  1.00 20.00     0.300 C 
HETATM    2  C4  UNL     1     -34.526  17.390  -3.460  1.00 20.00     0.302 C 
HETATM    3  C5  UNL     1     -34.576  16.545  -1.200  1.00 20.00     0.307 C 
HETATM    4  C6  UNL     1     -33.743  17.750  -0.730  1.00 20.00     0.244 C 
HETATM    5  C8  UNL     1     -34.093  18.118   0.711  1.00 20.00     0.044 C 
HETATM    6  N10 UNL     1     -33.985  18.913  -1.592  1.00 20.00     0.091 N 
HETATM    7  N11 UNL     1     -34.281  16.224  -2.602  1.00 20.00     0.096 N 
HETATM    8  H29 UNL     1     -33.396  19.691  -1.296  1.00 20.00     0.316 HD
ENDROOT
BRANCH   7   9
HETATM    9  C9  UNL     1     -35.069  15.076  -3.048  1.00 20.00     0.305 C 
BRANCH   9  10
HETATM   10  C2  UNL     1     -34.183  14.098  -3.765  1.00 20.00    -0.065 C 
HETATM   11  C1  UNL     1     -32.861  14.053  -3.539  1.00 20.00     0.015 C 
HETATM   12  C7  UNL     1     -34.836  13.197  -4.775  1.00 20.00     0.044 C 
ENDBRANCH   9  10
ENDBRANCH   7   9
TORSDOF 2
ENDMDL
MODEL 2
REMARK VINA RESULT:      -4.0      1.526      4.546
REMARK  2 active torsions:
REMARK  status: ('A' for Active; 'I' for Inactive)
REMARK    1  A    between atoms: C2_2  and  C9_9 
REMARK    2  A    between atoms: C9_9  and  N11_11 
ROOT
HETATM    1  C3  UNL     1     -32.955  15.126  -3.865  1.00 20.00     0.300 C 
HETATM    2  C4  UNL     1     -34.016  15.376  -2.793  1.00 20.00     0.302 C 
HETATM    3  C5  UNL     1     -34.508  17.521  -3.784  1.00 20.00     0.307 C 
HETATM    4  C6  UNL     1     -33.435  17.271  -4.858  1.00 20.00     0.244 C 
HETATM    5  C8  UNL     1     -33.814  17.962  -6.167  1.00 20.00     0.044 C 
HETATM    6  N10 UNL     1     -33.275  15.834  -5.104  1.00 20.00     0.091 N 
HETATM    7  N11 UNL     1     -34.173  16.814  -2.540  1.00 20.00     0.096 N 
HETATM    8  H29 UNL     1     -32.533  15.681  -5.786  1.00 20.00     0.316 HD
ENDROOT
BRANCH   7   9
HETATM    9  C9  UNL     1     -35.190  17.053  -1.518  1.00 20.00     0.305 C 
BRANCH   9  10
HETATM   10  C2  UNL     1     -34.538  17.543  -0.256  1.00 20.00    -0.065 C 
HETATM   11  C1  UNL     1     -35.163  17.473   0.929  1.00 20.00     0.015 C 
HETATM   12  C7  UNL     1     -33.170  18.150  -0.385  1.00 20.00     0.044 C 
ENDBRANCH   9  10
ENDBRANCH   7   9
TORSDOF 2
ENDMDL
MODEL 3
REMARK VINA RESULT:      -4.0      1.806      4.516
REMARK  2 active torsions:
REMARK  status: ('A' for Active; 'I' for Inactive)
REMARK    1  A    between atoms: C2_2  and  C9_9 
REMARK    2  A    between atoms: C9_9  and  N11_11 
ROOT
HETATM    1  C3  UNL     1     -33.966  16.536  -5.968  1.00 20.00     0.300 C 
HETATM    2  C4  UNL     1     -33.463  17.106  -4.641  1.00 20.00     0.302 C 
HETATM    3  C5  UNL     1     -34.195  15.105  -3.508  1.00 20.00     0.307 C 
HETATM    4  C6  UNL     1     -34.706  14.536  -4.842  1.00 20.00     0.244 C 
HETATM    5  C8  UNL     1     -34.603  13.011  -4.852  1.00 20.00     0.044 C 
HETATM    6  N10 UNL     1     -33.931  15.074  -5.965  1.00 20.00     0.091 N 
HETATM    7  N11 UNL     1     -34.243  16.573  -3.517  1.00 20.00     0.096 N 
HETATM    8  H29 UNL     1     -34.306  14.722  -6.845  1.00 20.00     0.316 HD
ENDROOT
BRANCH   7   9
HETATM    9  C9  UNL     1     -33.761  17.115  -2.248  1.00 20.00     0.305 C 
BRANCH   9  10
HETATM   10  C2  UNL     1     -34.920  17.353  -1.323  1.00 20.00    -0.065 C 
HETATM   11  C1  UNL     1     -34.826  17.115  -0.005  1.00 20.00     0.015 C 
HETATM   12  C7  UNL     1     -36.202  17.831  -1.943  1.00 20.00     0.044 C 
ENDBRANCH   9  10
ENDBRANCH   7   9
TORSDOF 2
ENDMDL
MODEL 4
REMARK VINA RESULT:      -4.0      1.790      4.705
REMARK  2 active torsions:
REMARK  status: ('A' for Active; 'I' for Inactive)
REMARK    1  A    between atoms: C2_2  and  C9_9 
REMARK    2  A    between atoms: C9_9  and  N11_11 
ROOT
HETATM    1  C3  UNL     1     -33.667  14.136  -4.110  1.00 20.00     0.300 C 
HETATM    2  C4  UNL     1     -34.562  14.743  -3.029  1.00 20.00     0.302 C 
HETATM    3  C5  UNL     1     -34.845  16.723  -4.380  1.00 20.00     0.307 C 
HETATM    4  C6  UNL     1     -33.939  16.114  -5.463  1.00 20.00     0.244 C 
HETATM    5  C8  UNL     1     -34.352  16.607  -6.850  1.00 20.00     0.044 C 
HETATM    6  N10 UNL     1     -34.012  14.649  -5.435  1.00 20.00     0.091 N 
HETATM    7  N11 UNL     1     -34.485  16.209  -3.052  1.00 20.00     0.096 N 
HETATM    8  H29 UNL     1     -33.376  14.257  -6.130  1.00 20.00     0.316 HD
ENDROOT
BRANCH   7   9
HETATM    9  C9  UNL     1     -35.343  16.790  -2.020  1.00 20.00     0.305 C 
BRANCH   9  10
HETATM   10  C2  UNL     1     -34.500  17.323  -0.898  1.00 20.00    -0.065 C 
HETATM   11  C1  UNL     1     -33.251  17.766  -1.107  1.00 20.00     0.015 C 
HETATM   12  C7  UNL     1     -35.102  17.303   0.479  1.00 20.00     0.044 C 
ENDBRANCH   9  10
ENDBRANCH   7   9
TORSDOF 2
ENDMDL
MODEL 5
REMARK VINA RESULT:      -3.9      1.423      4.709
REMARK  2 active torsions:
REMARK  status: ('A' for Active; 'I' for Inactive)
REMARK    1  A    between atoms: C2_2  and  C9_9 
REMARK    2  A    between atoms: C9_9  and  N11_11 
ROOT
HETATM    1  C3  UNL     1     -36.694  15.354  -3.417  1.00 20.00     0.300 C 
HETATM    2  C4  UNL     1     -36.000  16.679  -3.094  1.00 20.00     0.302 C 
HETATM    3  C5  UNL     1     -33.867  15.550  -3.066  1.00 20.00     0.307 C 
HETATM    4  C6  UNL     1     -34.567  14.217  -3.384  1.00 20.00     0.244 C 
HETATM    5  C8  UNL     1     -33.648  13.307  -4.197  1.00 20.00     0.044 C 
HETATM    6  N10 UNL     1     -35.802  14.450  -4.141  1.00 20.00     0.091 N 
HETATM    7  N11 UNL     1     -34.768  16.448  -2.331  1.00 20.00     0.096 N 
HETATM    8  H29 UNL     1     -36.277  13.563  -4.309  1.00 20.00     0.316 HD
ENDROOT
BRANCH   7   9
HETATM    9  C9  UNL     1     -34.102  17.713  -2.025  1.00 20.00     0.305 C 
BRANCH   9  10
HETATM   10  C2  UNL     1     -33.914  17.844  -0.541  1.00 20.00    -0.065 C 
HETATM   11  C1  UNL     1     -34.828  17.380   0.326  1.00 20.00     0.015 C 
HETATM   12  C7  UNL     1     -32.676  18.552  -0.068  1.00 20.00     0.044 C 
ENDBRANCH   9  10
ENDBRANCH   7   9
TORSDOF 2
ENDMDL
MODEL 6
REMARK VINA RESULT:      -3.8      1.350      1.693
REMARK  2 active torsions:
REMARK  status: ('A' for Active; 'I' for Inactive)
REMARK    1  A    between atoms: C2_2  and  C9_9 
REMARK    2  A    between atoms: C9_9  and  N11_11 
ROOT
HETATM    1  C3  UNL     1     -33.862  18.437  -3.555  1.00 20.00     0.300 C 
HETATM    2  C4  UNL     1     -34.827  17.627  -4.423  1.00 20.00     0.302 C 
HETATM    3  C5  UNL     1     -35.263  16.156  -2.560  1.00 20.00     0.307 C 
HETATM    4  C6  UNL     1     -34.288  16.967  -1.690  1.00 20.00     0.244 C 
HETATM    5  C8  UNL     1     -34.720  16.935  -0.225  1.00 20.00     0.044 C 
HETATM    6  N10 UNL     1     -34.230  18.362  -2.141  1.00 20.00     0.091 N 
HETATM    7  N11 UNL     1     -34.881  16.230  -3.977  1.00 20.00     0.096 N 
HETATM    8  H29 UNL     1     -33.550  18.878  -1.584  1.00 20.00     0.316 HD
ENDROOT
BRANCH   7   9
HETATM    9  C9  UNL     1     -35.805  15.456  -4.804  1.00 20.00     0.305 C 
BRANCH   9  10
HETATM   10  C2  UNL     1     -35.057  14.370  -5.523  1.00 20.00    -0.065 C 
HETATM   11  C1  UNL     1     -34.654  13.258  -4.890  1.00 20.00     0.015 C 
HETATM   12  C7  UNL     1     -34.745  14.601  -6.975  1.00 20.00     0.044 C 
ENDBRANCH   9  10
ENDBRANCH   7   9
TORSDOF 2
ENDMDL
MODEL 7
REMARK VINA RESULT:      -3.8     12.649     14.705
REMARK  2 active torsions:
REMARK  status: ('A' for Active; 'I' for Inactive)
REMARK    1  A    between atoms: C2_2  and  C9_9 
REMARK    2  A    between atoms: C9_9  and  N11_11 
ROOT
HETATM    1  C3  UNL     1     -42.678   6.304  -3.119  1.00 20.00     0.300 C 
HETATM    2  C4  UNL     1     -43.348   4.932  -3.031  1.00 20.00     0.302 C 
HETATM    3  C5  UNL     1     -41.863   4.326  -1.228  1.00 20.00     0.307 C 
HETATM    4  C6  UNL     1     -41.186   5.703  -1.321  1.00 20.00     0.244 C 
HETATM    5  C8  UNL     1     -40.672   6.145   0.048  1.00 20.00     0.044 C 
HETATM    6  N10 UNL     1     -42.126   6.709  -1.826  1.00 20.00     0.091 N 
HETATM    7  N11 UNL     1     -42.405   3.923  -2.532  1.00 20.00     0.096 N 
HETATM    8  H29 UNL     1     -41.654   7.607  -1.923  1.00 20.00     0.316 HD
ENDROOT
BRANCH   7   9
HETATM    9  C9  UNL     1     -43.046   2.612  -2.445  1.00 20.00     0.305 C 
BRANCH   9  10
HETATM   10  C2  UNL     1     -42.265   1.609  -3.244  1.00 20.00    -0.065 C 
HETATM   11  C1  UNL     1     -41.198   1.971  -3.974  1.00 20.00     0.015 C 
HETATM   12  C7  UNL     1     -42.752   0.188  -3.222  1.00 20.00     0.044 C 
ENDBRANCH   9  10
ENDBRANCH   7   9
TORSDOF 2
ENDMDL
MODEL 8
REMARK VINA RESULT:      -3.7      2.298      2.890
REMARK  2 active torsions:
REMARK  status: ('A' for Active; 'I' for Inactive)
REMARK    1  A    between atoms: C2_2  and  C9_9 
REMARK    2  A    between atoms: C9_9  and  N11_11 
ROOT
HETATM    1  C3  UNL     1     -37.171  17.123  -3.362  1.00 20.00     0.300 C 
HETATM    2  C4  UNL     1     -36.724  15.969  -4.260  1.00 20.00     0.302 C 
HETATM    3  C5  UNL     1     -34.701  15.747  -2.963  1.00 20.00     0.307 C 
HETATM    4  C6  UNL     1     -35.148  16.912  -2.064  1.00 20.00     0.244 C 
HETATM    5  C8  UNL     1     -34.613  16.734  -0.644  1.00 20.00     0.044 C 
HETATM    6  N10 UNL     1     -36.612  16.995  -2.016  1.00 20.00     0.091 N 
HETATM    7  N11 UNL     1     -35.259  15.888  -4.315  1.00 20.00     0.096 N 
HETATM    8  H29 UNL     1     -36.895  17.796  -1.452  1.00 20.00     0.316 HD
ENDROOT
BRANCH   7   9
HETATM    9  C9  UNL     1     -34.831  14.783  -5.171  1.00 20.00     0.305 C 
BRANCH   9  10
HETATM   10  C2  UNL     1     -34.794  15.233  -6.603  1.00 20.00    -0.065 C 
HETATM   11  C1  UNL     1     -34.180  16.371  -6.965  1.00 20.00     0.015 C 
HETATM   12  C7  UNL     1     -35.508  14.375  -7.608  1.00 20.00     0.044 C 
ENDBRANCH   9  10
ENDBRANCH   7   9
TORSDOF 2
ENDMDL
MODEL 9
REMARK VINA RESULT:      -3.7     10.418     11.668
REMARK  2 active torsions:
REMARK  status: ('A' for Active; 'I' for Inactive)
REMARK    1  A    between atoms: C2_2  and  C9_9 
REMARK    2  A    between atoms: C9_9  and  N11_11 
ROOT
HETATM    1  C3  UNL     1     -34.651   5.175   2.975  1.00 20.00     0.300 C 
HETATM    2  C4  UNL     1     -33.329   5.786   2.509  1.00 20.00     0.302 C 
HETATM    3  C5  UNL     1     -33.051   6.822   4.671  1.00 20.00     0.307 C 
HETATM    4  C6  UNL     1     -34.384   6.213   5.136  1.00 20.00     0.244 C 
HETATM    5  C8  UNL     1     -34.354   5.933   6.638  1.00 20.00     0.044 C 
HETATM    6  N10 UNL     1     -34.657   4.961   4.422  1.00 20.00     0.091 N 
HETATM    7  N11 UNL     1     -33.058   7.043   3.219  1.00 20.00     0.096 N 
HETATM    8  H29 UNL     1     -35.562   4.589   4.708  1.00 20.00     0.316 HD
ENDROOT
BRANCH   7   9
HETATM    9  C9  UNL     1     -31.792   7.626   2.777  1.00 20.00     0.305 C 
BRANCH   9  10
HETATM   10  C2  UNL     1     -32.045   8.616   1.677  1.00 20.00    -0.065 C 
HETATM   11  C1  UNL     1     -31.623   8.395   0.422  1.00 20.00     0.015 C 
HETATM   12  C7  UNL     1     -32.758   9.885   2.050  1.00 20.00     0.044 C 
ENDBRANCH   9  10
ENDBRANCH   7   9
TORSDOF 2
ENDMDL
