MODEL 1
REMARK VINA RESULT:      -4.9      0.000      0.000
REMARK  3 active torsions:
REMARK  status: ('A' for Active; 'I' for Inactive)
REMARK    1  A    between atoms: C1_1  and  C3_3 
REMARK    2  A    between atoms: C1_1  and  C7_7 
REMARK    3  A    between atoms: C7_7  and  C8_8 
ROOT
HETATM    1  C1  UNL     1     -35.180   5.361   3.873  1.00 20.00     0.131 C 
HETATM    2  O9  UNL     1     -36.149   5.911   3.354  1.00 20.00    -0.298 OA
ENDROOT
BRANCH   1   3
HETATM    3  C3  UNL     1     -35.307   4.645   5.194  1.00 20.00     0.059 A 
HETATM    4  C2  UNL     1     -34.074   4.075   5.803  1.00 20.00     0.017 A 
HETATM    5  C4  UNL     1     -34.745   5.265   6.425  1.00 20.00    -0.007 A 
HETATM    6  C5  UNL     1     -34.057   6.588   6.440  1.00 20.00     0.011 C 
ENDBRANCH   1   3
BRANCH   1   7
HETATM    7  C7  UNL     1     -33.800   5.354   3.241  1.00 20.00     0.078 C 
BRANCH   7   8
HETATM    8  C8  UNL     1     -33.286   6.759   2.942  1.00 20.00     0.003 C 
HETATM    9  C6  UNL     1     -31.864   6.952   3.442  1.00 20.00     0.005 C 
ENDBRANCH   7   8
ENDBRANCH   1   7
TORSDOF 3
ENDMDL
MODEL 2
REMARK VINA RESULT:      -4.5      1.130      1.930
REMARK  3 active torsions:
REMARK  status: ('A' for Active; 'I' for Inactive)
REMARK    1  A    between atoms: C1_1  and  C3_3 
REMARK    2  A    between atoms: C1_1  and  C7_7 
REMARK    3  A    between atoms: C7_7  and  C8_8 
ROOT
HETATM    1  C1  UNL     1     -33.764   6.063   3.942  1.00 20.00     0.131 C 
HETATM    2  O9  UNL     1     -34.933   6.030   3.564  1.00 20.00    -0.298 OA
ENDROOT
BRANCH   1   3
HETATM    3  C3  UNL     1     -33.420   6.010   5.409  1.00 20.00     0.059 A 
HETATM    4  C2  UNL     1     -34.444   6.474   6.385  1.00 20.00     0.017 A 
HETATM    5  C4  UNL     1     -34.096   5.016   6.288  1.00 20.00    -0.007 A 
HETATM    6  C5  UNL     1     -35.107   4.038   5.797  1.00 20.00     0.011 C 
ENDBRANCH   1   3
BRANCH   1   7
HETATM    7  C7  UNL     1     -32.589   6.157   2.985  1.00 20.00     0.078 C 
BRANCH   7   8
HETATM    8  C8  UNL     1     -31.843   7.482   3.102  1.00 20.00     0.003 C 
HETATM    9  C6  UNL     1     -32.089   8.371   1.894  1.00 20.00     0.005 C 
ENDBRANCH   7   8
ENDBRANCH   1   7
TORSDOF 3
ENDMDL
MODEL 3
REMARK VINA RESULT:      -4.4      1.731      2.498
REMARK  3 active torsions:
REMARK  status: ('A' for Active; 'I' for Inactive)
REMARK    1  A    between atoms: C1_1  and  C3_3 
REMARK    2  A    between atoms: C1_1  and  C7_7 
REMARK    3  A    between atoms: C7_7  and  C8_8 
ROOT
HETATM    1  C1  UNL     1     -33.363   6.524   4.579  1.00 20.00     0.131 C 
HETATM    2  O9  UNL     1     -33.123   6.901   5.724  1.00 20.00    -0.298 OA
ENDROOT
BRANCH   1   3
HETATM    3  C3  UNL     1     -34.769   6.190   4.149  1.00 20.00     0.059 A 
HETATM    4  C2  UNL     1     -34.962   5.041   3.222  1.00 20.00     0.017 A 
HETATM    5  C4  UNL     1     -35.415   4.945   4.650  1.00 20.00    -0.007 A 
HETATM    6  C5  UNL     1     -34.751   3.991   5.582  1.00 20.00     0.011 C 
ENDBRANCH   1   3
BRANCH   1   7
HETATM    7  C7  UNL     1     -32.287   6.369   3.520  1.00 20.00     0.078 C 
BRANCH   7   8
HETATM    8  C8  UNL     1     -31.589   7.687   3.196  1.00 20.00     0.003 C 
HETATM    9  C6  UNL     1     -32.088   8.276   1.887  1.00 20.00     0.005 C 
ENDBRANCH   7   8
ENDBRANCH   1   7
TORSDOF 3
ENDMDL
MODEL 4
REMARK VINA RESULT:      -4.1     12.154     13.151
REMARK  3 active torsions:
REMARK  status: ('A' for Active; 'I' for Inactive)
REMARK    1  A    between atoms: C1_1  and  C3_3 
REMARK    2  A    between atoms: C1_1  and  C7_7 
REMARK    3  A    between atoms: C7_7  and  C8_8 
ROOT
HETATM    1  C1  UNL     1     -34.470  13.687  -4.748  1.00 20.00     0.131 C 
HETATM    2  O9  UNL     1     -35.053  12.666  -4.390  1.00 20.00    -0.298 OA
ENDROOT
BRANCH   1   3
HETATM    3  C3  UNL     1     -33.465  14.364  -3.851  1.00 20.00     0.059 A 
HETATM    4  C2  UNL     1     -33.163  15.800  -4.097  1.00 20.00     0.017 A 
HETATM    5  C4  UNL     1     -33.924  15.387  -2.870  1.00 20.00    -0.007 A 
HETATM    6  C5  UNL     1     -35.351  15.787  -2.707  1.00 20.00     0.011 C 
ENDBRANCH   1   3
BRANCH   1   7
HETATM    7  C7  UNL     1     -34.706  14.341  -6.098  1.00 20.00     0.078 C 
BRANCH   7   8
HETATM    8  C8  UNL     1     -36.128  14.870  -6.251  1.00 20.00     0.003 C 
HETATM    9  C6  UNL     1     -36.154  16.388  -6.334  1.00 20.00     0.005 C 
ENDBRANCH   7   8
ENDBRANCH   1   7
TORSDOF 3
ENDMDL
MODEL 5
REMARK VINA RESULT:      -4.1     11.969     12.893
REMARK  3 active torsions:
REMARK  status: ('A' for Active; 'I' for Inactive)
REMARK    1  A    between atoms: C1_1  and  C3_3 
REMARK    2  A    between atoms: C1_1  and  C7_7 
REMARK    3  A    between atoms: C7_7  and  C8_8 
ROOT
HETATM    1  C1  UNL     1     -33.543  14.914  -3.532  1.00 20.00     0.131 C 
HETATM    2  O9  UNL     1     -32.315  14.855  -3.566  1.00 20.00    -0.298 OA
ENDROOT
BRANCH   1   3
HETATM    3  C3  UNL     1     -34.388  13.727  -3.917  1.00 20.00     0.059 A 
HETATM    4  C2  UNL     1     -35.833  13.957  -4.195  1.00 20.00     0.017 A 
HETATM    5  C4  UNL     1     -34.894  13.603  -5.313  1.00 20.00    -0.007 A 
HETATM    6  C5  UNL     1     -34.600  14.597  -6.384  1.00 20.00     0.011 C 
ENDBRANCH   1   3
BRANCH   1   7
HETATM    7  C7  UNL     1     -34.297  16.161  -3.108  1.00 20.00     0.078 C 
BRANCH   7   8
HETATM    8  C8  UNL     1     -34.527  16.222  -1.601  1.00 20.00     0.003 C 
HETATM    9  C6  UNL     1     -33.801  17.400  -0.973  1.00 20.00     0.005 C 
ENDBRANCH   7   8
ENDBRANCH   1   7
TORSDOF 3
ENDMDL
MODEL 6
REMARK VINA RESULT:      -4.1     11.787     13.310
REMARK  3 active torsions:
REMARK  status: ('A' for Active; 'I' for Inactive)
REMARK    1  A    between atoms: C1_1  and  C3_3 
REMARK    2  A    between atoms: C1_1  and  C7_7 
REMARK    3  A    between atoms: C7_7  and  C8_8 
ROOT
HETATM    1  C1  UNL     1     -34.380  13.576  -4.832  1.00 20.00     0.131 C 
HETATM    2  O9  UNL     1     -34.881  12.463  -4.977  1.00 20.00    -0.298 OA
ENDROOT
BRANCH   1   3
HETATM    3  C3  UNL     1     -34.512  14.633  -5.899  1.00 20.00     0.059 A 
HETATM    4  C2  UNL     1     -35.416  14.357  -7.049  1.00 20.00     0.017 A 
HETATM    5  C4  UNL     1     -35.786  15.394  -6.028  1.00 20.00    -0.007 A 
HETATM    6  C5  UNL     1     -36.965  15.181  -5.141  1.00 20.00     0.011 C 
ENDBRANCH   1   3
BRANCH   1   7
HETATM    7  C7  UNL     1     -33.602  13.975  -3.591  1.00 20.00     0.078 C 
BRANCH   7   8
HETATM    8  C8  UNL     1     -33.164  15.436  -3.619  1.00 20.00     0.003 C 
HETATM    9  C6  UNL     1     -33.838  16.242  -2.521  1.00 20.00     0.005 C 
ENDBRANCH   7   8
ENDBRANCH   1   7
TORSDOF 3
ENDMDL
MODEL 7
REMARK VINA RESULT:      -4.1     12.087     13.088
REMARK  3 active torsions:
REMARK  status: ('A' for Active; 'I' for Inactive)
REMARK    1  A    between atoms: C1_1  and  C3_3 
REMARK    2  A    between atoms: C1_1  and  C7_7 
REMARK    3  A    between atoms: C7_7  and  C8_8 
ROOT
HETATM    1  C1  UNL     1     -34.243  14.311  -3.904  1.00 20.00     0.131 C 
HETATM    2  O9  UNL     1     -34.119  13.190  -3.415  1.00 20.00    -0.298 OA
ENDROOT
BRANCH   1   3
HETATM    3  C3  UNL     1     -33.271  15.415  -3.575  1.00 20.00     0.059 A 
HETATM    4  C2  UNL     1     -33.674  16.816  -3.878  1.00 20.00     0.017 A 
HETATM    5  C4  UNL     1     -33.570  16.349  -2.454  1.00 20.00    -0.007 A 
HETATM    6  C5  UNL     1     -34.793  16.254  -1.608  1.00 20.00     0.011 C 
ENDBRANCH   1   3
BRANCH   1   7
HETATM    7  C7  UNL     1     -35.361  14.671  -4.865  1.00 20.00     0.078 C 
BRANCH   7   8
HETATM    8  C8  UNL     1     -35.133  14.112  -6.266  1.00 20.00     0.003 C 
HETATM    9  C6  UNL     1     -34.387  15.100  -7.148  1.00 20.00     0.005 C 
ENDBRANCH   7   8
ENDBRANCH   1   7
TORSDOF 3
ENDMDL
MODEL 8
REMARK VINA RESULT:      -3.9     11.973     12.811
REMARK  3 active torsions:
REMARK  status: ('A' for Active; 'I' for Inactive)
REMARK    1  A    between atoms: C1_1  and  C3_3 
REMARK    2  A    between atoms: C1_1  and  C7_7 
REMARK    3  A    between atoms: C7_7  and  C8_8 
ROOT
HETATM    1  C1  UNL     1     -35.925  15.095  -3.236  1.00 20.00     0.131 C 
HETATM    2  O9  UNL     1     -37.067  14.687  -3.436  1.00 20.00    -0.298 OA
ENDROOT
BRANCH   1   3
HETATM    3  C3  UNL     1     -34.725  14.264  -3.616  1.00 20.00     0.059 A 
HETATM    4  C2  UNL     1     -34.916  13.173  -4.611  1.00 20.00     0.017 A 
HETATM    5  C4  UNL     1     -34.135  14.403  -4.976  1.00 20.00    -0.007 A 
HETATM    6  C5  UNL     1     -34.659  15.341  -6.009  1.00 20.00     0.011 C 
ENDBRANCH   1   3
BRANCH   1   7
HETATM    7  C7  UNL     1     -35.630  16.443  -2.603  1.00 20.00     0.078 C 
BRANCH   7   8
HETATM    8  C8  UNL     1     -34.408  16.406  -1.690  1.00 20.00     0.003 C 
HETATM    9  C6  UNL     1     -34.721  16.973  -0.316  1.00 20.00     0.005 C 
ENDBRANCH   7   8
ENDBRANCH   1   7
TORSDOF 3
ENDMDL
MODEL 9
REMARK VINA RESULT:      -3.8      1.156      3.754
REMARK  3 active torsions:
REMARK  status: ('A' for Active; 'I' for Inactive)
REMARK    1  A    between atoms: C1_1  and  C3_3 
REMARK    2  A    between atoms: C1_1  and  C7_7 
REMARK    3  A    between atoms: C7_7  and  C8_8 
ROOT
HETATM    1  C1  UNL     1     -33.858   6.302   4.343  1.00 20.00     0.131 C 
HETATM    2  O9  UNL     1     -34.838   6.391   3.605  1.00 20.00    -0.298 OA
ENDROOT
BRANCH   1   3
HETATM    3  C3  UNL     1     -32.478   6.078   3.779  1.00 20.00     0.059 A 
HETATM    4  C2  UNL     1     -32.353   5.821   2.318  1.00 20.00     0.017 A 
HETATM    5  C4  UNL     1     -31.863   7.115   2.904  1.00 20.00    -0.007 A 
HETATM    6  C5  UNL     1     -32.536   8.396   2.550  1.00 20.00     0.011 C 
ENDBRANCH   1   3
BRANCH   1   7
HETATM    7  C7  UNL     1     -33.952   6.410   5.854  1.00 20.00     0.078 C 
BRANCH   7   8
HETATM    8  C8  UNL     1     -34.864   5.349   6.462  1.00 20.00     0.003 C 
HETATM    9  C6  UNL     1     -34.729   4.018   5.741  1.00 20.00     0.005 C 
ENDBRANCH   7   8
ENDBRANCH   1   7
TORSDOF 3
ENDMDL
