MODEL 1
REMARK VINA RESULT:      -4.4      0.000      0.000
REMARK  2 active torsions:
REMARK  status: ('A' for Active; 'I' for Inactive)
REMARK    1  A    between atoms: C2_2  and  C9_9 
REMARK    2  A    between atoms: C9_9  and  N11_11 
ROOT
HETATM    1  C3  UNL     1     -34.070  13.521  -4.517  1.00 20.00     0.300 C 
HETATM    2  C4  UNL     1     -33.523  14.495  -3.472  1.00 20.00     0.303 C 
HETATM    3  C5  UNL     1     -35.745  15.354  -3.106  1.00 20.00     0.308 C 
HETATM    4  C6  UNL     1     -36.319  14.377  -4.148  1.00 20.00     0.244 C 
HETATM    5  C7  UNL     1     -36.551  15.044  -5.508  1.00 20.00     0.044 C 
HETATM    6  N10 UNL     1     -35.474  13.180  -4.274  1.00 20.00     0.091 N 
HETATM    7  N11 UNL     1     -34.350  15.707  -3.404  1.00 20.00     0.100 N 
HETATM    8  H29 UNL     1     -35.816  12.614  -5.060  1.00 20.00     0.316 HD
ENDROOT
BRANCH   7   9
HETATM    9  C9  UNL     1     -33.825  16.636  -2.405  1.00 20.00     0.241 C 
HETATM   10  C8  UNL     1     -33.843  18.065  -2.935  1.00 20.00     0.047 C 
BRANCH   9  11
HETATM   11  C2  UNL     1     -34.657  16.502  -1.162  1.00 20.00    -0.002 C 
HETATM   12  C1  UNL     1     -34.536  17.299  -0.095  1.00 20.00     0.009 C 
ENDBRANCH   9  11
ENDBRANCH   7   9
TORSDOF 2
ENDMDL
MODEL 2
REMARK VINA RESULT:      -4.3      1.353      1.940
REMARK  2 active torsions:
REMARK  status: ('A' for Active; 'I' for Inactive)
REMARK    1  A    between atoms: C2_2  and  C9_9 
REMARK    2  A    between atoms: C9_9  and  N11_11 
ROOT
HETATM    1  C3  UNL     1     -34.906  16.048  -5.640  1.00 20.00     0.300 C 
HETATM    2  C4  UNL     1     -34.382  16.866  -4.459  1.00 20.00     0.303 C 
HETATM    3  C5  UNL     1     -33.444  14.871  -3.488  1.00 20.00     0.308 C 
HETATM    4  C6  UNL     1     -33.955  14.028  -4.669  1.00 20.00     0.244 C 
HETATM    5  C7  UNL     1     -35.253  13.284  -4.339  1.00 20.00     0.044 C 
HETATM    6  N10 UNL     1     -34.101  14.848  -5.882  1.00 20.00     0.091 N 
HETATM    7  N11 UNL     1     -34.298  16.042  -3.247  1.00 20.00     0.100 N 
HETATM    8  H29 UNL     1     -34.558  14.286  -6.609  1.00 20.00     0.316 HD
ENDROOT
BRANCH   7   9
HETATM    9  C9  UNL     1     -33.798  16.827  -2.120  1.00 20.00     0.241 C 
HETATM   10  C8  UNL     1     -33.744  18.308  -2.474  1.00 20.00     0.047 C 
BRANCH   9  11
HETATM   11  C2  UNL     1     -34.698  16.577  -0.944  1.00 20.00    -0.002 C 
HETATM   12  C1  UNL     1     -34.708  17.332   0.161  1.00 20.00     0.009 C 
ENDBRANCH   9  11
ENDBRANCH   7   9
TORSDOF 2
ENDMDL
MODEL 3
REMARK VINA RESULT:      -4.1      1.010      1.912
REMARK  2 active torsions:
REMARK  status: ('A' for Active; 'I' for Inactive)
REMARK    1  A    between atoms: C2_2  and  C9_9 
REMARK    2  A    between atoms: C9_9  and  N11_11 
ROOT
HETATM    1  C3  UNL     1     -36.773  14.968  -3.955  1.00 20.00     0.300 C 
HETATM    2  C4  UNL     1     -36.043  15.957  -3.045  1.00 20.00     0.303 C 
HETATM    3  C5  UNL     1     -34.009  15.603  -4.287  1.00 20.00     0.308 C 
HETATM    4  C6  UNL     1     -34.724  14.611  -5.221  1.00 20.00     0.244 C 
HETATM    5  C7  UNL     1     -34.456  13.151  -4.839  1.00 20.00     0.044 C 
HETATM    6  N10 UNL     1     -36.167  14.890  -5.287  1.00 20.00     0.091 N 
HETATM    7  N11 UNL     1     -34.616  15.624  -2.949  1.00 20.00     0.100 N 
HETATM    8  H29 UNL     1     -36.627  14.140  -5.815  1.00 20.00     0.316 HD
ENDROOT
BRANCH   7   9
HETATM    9  C9  UNL     1     -33.921  16.569  -2.078  1.00 20.00     0.241 C 
HETATM   10  C8  UNL     1     -33.825  17.941  -2.736  1.00 20.00     0.047 C 
BRANCH   9  11
HETATM   11  C2  UNL     1     -34.666  16.637  -0.776  1.00 20.00    -0.002 C 
HETATM   12  C1  UNL     1     -34.465  17.581   0.150  1.00 20.00     0.009 C 
ENDBRANCH   9  11
ENDBRANCH   7   9
TORSDOF 2
ENDMDL
MODEL 4
REMARK VINA RESULT:      -4.1      1.500      4.393
REMARK  2 active torsions:
REMARK  status: ('A' for Active; 'I' for Inactive)
REMARK    1  A    between atoms: C2_2  and  C9_9 
REMARK    2  A    between atoms: C9_9  and  N11_11 
ROOT
HETATM    1  C3  UNL     1     -33.768  17.931  -3.652  1.00 20.00     0.300 C 
HETATM    2  C4  UNL     1     -33.774  16.738  -4.611  1.00 20.00     0.303 C 
HETATM    3  C5  UNL     1     -35.426  15.642  -3.242  1.00 20.00     0.308 C 
HETATM    4  C6  UNL     1     -35.443  16.834  -2.268  1.00 20.00     0.244 C 
HETATM    5  C7  UNL     1     -34.595  16.578  -1.018  1.00 20.00     0.044 C 
HETATM    6  N10 UNL     1     -35.042  18.077  -2.944  1.00 20.00     0.091 N 
HETATM    7  N11 UNL     1     -34.121  15.500  -3.903  1.00 20.00     0.100 N 
HETATM    8  H29 UNL     1     -34.945  18.819  -2.242  1.00 20.00     0.316 HD
ENDROOT
BRANCH   7   9
HETATM    9  C9  UNL     1     -34.125  14.363  -4.821  1.00 20.00     0.241 C 
HETATM   10  C8  UNL     1     -35.121  13.303  -4.364  1.00 20.00     0.047 C 
BRANCH   9  11
HETATM   11  C2  UNL     1     -34.459  14.873  -6.193  1.00 20.00    -0.002 C 
HETATM   12  C1  UNL     1     -35.392  14.330  -6.984  1.00 20.00     0.009 C 
ENDBRANCH   9  11
ENDBRANCH   7   9
TORSDOF 2
ENDMDL
MODEL 5
REMARK VINA RESULT:      -4.1      1.764      4.099
REMARK  2 active torsions:
REMARK  status: ('A' for Active; 'I' for Inactive)
REMARK    1  A    between atoms: C2_2  and  C9_9 
REMARK    2  A    between atoms: C9_9  and  N11_11 
ROOT
HETATM    1  C3  UNL     1     -33.716  13.539  -3.999  1.00 20.00     0.300 C 
HETATM    2  C4  UNL     1     -34.529  13.818  -5.265  1.00 20.00     0.303 C 
HETATM    3  C5  UNL     1     -33.993  16.161  -5.097  1.00 20.00     0.308 C 
HETATM    4  C6  UNL     1     -33.163  15.904  -3.827  1.00 20.00     0.244 C 
HETATM    5  C7  UNL     1     -33.935  16.240  -2.547  1.00 20.00     0.044 C 
HETATM    6  N10 UNL     1     -32.651  14.525  -3.798  1.00 20.00     0.091 N 
HETATM    7  N11 UNL     1     -35.077  15.180  -5.246  1.00 20.00     0.100 N 
HETATM    8  H29 UNL     1     -32.212  14.353  -2.886  1.00 20.00     0.316 HD
ENDROOT
BRANCH   7   9
HETATM    9  C9  UNL     1     -35.853  15.444  -6.455  1.00 20.00     0.241 C 
HETATM   10  C8  UNL     1     -35.470  14.474  -7.566  1.00 20.00     0.047 C 
BRANCH   9  11
HETATM   11  C2  UNL     1     -37.310  15.330  -6.107  1.00 20.00    -0.002 C 
HETATM   12  C1  UNL     1     -37.807  15.586  -4.891  1.00 20.00     0.009 C 
ENDBRANCH   9  11
ENDBRANCH   7   9
TORSDOF 2
ENDMDL
MODEL 6
REMARK VINA RESULT:      -4.0      2.095      2.994
REMARK  2 active torsions:
REMARK  status: ('A' for Active; 'I' for Inactive)
REMARK    1  A    between atoms: C2_2  and  C9_9 
REMARK    2  A    between atoms: C9_9  and  N11_11 
ROOT
HETATM    1  C3  UNL     1     -34.608  17.009  -6.525  1.00 20.00     0.300 C 
HETATM    2  C4  UNL     1     -34.132  16.460  -5.178  1.00 20.00     0.303 C 
HETATM    3  C5  UNL     1     -34.857  14.253  -5.818  1.00 20.00     0.308 C 
HETATM    4  C6  UNL     1     -35.336  14.781  -7.182  1.00 20.00     0.244 C 
HETATM    5  C7  UNL     1     -36.849  15.021  -7.218  1.00 20.00     0.044 C 
HETATM    6  N10 UNL     1     -34.592  15.987  -7.575  1.00 20.00     0.091 N 
HETATM    7  N11 UNL     1     -34.926  15.291  -4.780  1.00 20.00     0.100 N 
HETATM    8  H29 UNL     1     -35.019  16.379  -8.422  1.00 20.00     0.316 HD
ENDROOT
BRANCH   7   9
HETATM    9  C9  UNL     1     -34.471  14.769  -3.493  1.00 20.00     0.241 C 
HETATM   10  C8  UNL     1     -33.341  13.764  -3.686  1.00 20.00     0.047 C 
BRANCH   9  11
HETATM   11  C2  UNL     1     -34.032  15.931  -2.649  1.00 20.00    -0.002 C 
HETATM   12  C1  UNL     1     -34.619  16.280  -1.499  1.00 20.00     0.009 C 
ENDBRANCH   9  11
ENDBRANCH   7   9
TORSDOF 2
ENDMDL
MODEL 7
REMARK VINA RESULT:      -4.0      1.554      4.312
REMARK  2 active torsions:
REMARK  status: ('A' for Active; 'I' for Inactive)
REMARK    1  A    between atoms: C2_2  and  C9_9 
REMARK    2  A    between atoms: C9_9  and  N11_11 
ROOT
HETATM    1  C3  UNL     1     -33.421  13.623  -3.706  1.00 20.00     0.300 C 
HETATM    2  C4  UNL     1     -34.569  13.644  -4.717  1.00 20.00     0.303 C 
HETATM    3  C5  UNL     1     -34.493  16.052  -4.755  1.00 20.00     0.308 C 
HETATM    4  C6  UNL     1     -33.333  16.055  -3.745  1.00 20.00     0.244 C 
HETATM    5  C7  UNL     1     -33.804  16.337  -2.314  1.00 20.00     0.044 C 
HETATM    6  N10 UNL     1     -32.562  14.804  -3.819  1.00 20.00     0.091 N 
HETATM    7  N11 UNL     1     -35.358  14.875  -4.586  1.00 20.00     0.100 N 
HETATM    8  H29 UNL     1     -31.879  14.789  -3.052  1.00 20.00     0.316 HD
ENDROOT
BRANCH   7   9
HETATM    9  C9  UNL     1     -36.454  14.894  -5.552  1.00 20.00     0.241 C 
HETATM   10  C8  UNL     1     -37.563  15.833  -5.094  1.00 20.00     0.047 C 
BRANCH   9  11
HETATM   11  C2  UNL     1     -35.895  15.313  -6.882  1.00 20.00    -0.002 C 
HETATM   12  C1  UNL     1     -35.730  14.481  -7.916  1.00 20.00     0.009 C 
ENDBRANCH   9  11
ENDBRANCH   7   9
TORSDOF 2
ENDMDL
MODEL 8
REMARK VINA RESULT:      -4.0      1.929      4.435
REMARK  2 active torsions:
REMARK  status: ('A' for Active; 'I' for Inactive)
REMARK    1  A    between atoms: C2_2  and  C9_9 
REMARK    2  A    between atoms: C9_9  and  N11_11 
ROOT
HETATM    1  C3  UNL     1     -36.325  18.427  -1.667  1.00 20.00     0.300 C 
HETATM    2  C4  UNL     1     -36.095  17.489  -2.854  1.00 20.00     0.303 C 
HETATM    3  C5  UNL     1     -34.564  16.183  -1.529  1.00 20.00     0.308 C 
HETATM    4  C6  UNL     1     -34.786  17.108  -0.319  1.00 20.00     0.244 C 
HETATM    5  C7  UNL     1     -33.663  18.138  -0.156  1.00 20.00     0.044 C 
HETATM    6  N10 UNL     1     -36.104  17.757  -0.383  1.00 20.00     0.091 N 
HETATM    7  N11 UNL     1     -34.752  16.896  -2.800  1.00 20.00     0.100 N 
HETATM    8  H29 UNL     1     -36.166  18.455   0.367  1.00 20.00     0.316 HD
ENDROOT
BRANCH   7   9
HETATM    9  C9  UNL     1     -34.534  16.002  -3.934  1.00 20.00     0.241 C 
HETATM   10  C8  UNL     1     -33.295  16.416  -4.719  1.00 20.00     0.047 C 
BRANCH   9  11
HETATM   11  C2  UNL     1     -34.405  14.603  -3.405  1.00 20.00    -0.002 C 
HETATM   12  C1  UNL     1     -34.475  13.507  -4.171  1.00 20.00     0.009 C 
ENDBRANCH   9  11
ENDBRANCH   7   9
TORSDOF 2
ENDMDL
MODEL 9
REMARK VINA RESULT:      -3.9      1.777      4.492
REMARK  2 active torsions:
REMARK  status: ('A' for Active; 'I' for Inactive)
REMARK    1  A    between atoms: C2_2  and  C9_9 
REMARK    2  A    between atoms: C9_9  and  N11_11 
ROOT
HETATM    1  C3  UNL     1     -36.128  17.550  -3.276  1.00 20.00     0.300 C 
HETATM    2  C4  UNL     1     -35.762  16.540  -4.365  1.00 20.00     0.303 C 
HETATM    3  C5  UNL     1     -34.470  15.281  -2.768  1.00 20.00     0.308 C 
HETATM    4  C6  UNL     1     -34.832  16.279  -1.654  1.00 20.00     0.244 C 
HETATM    5  C7  UNL     1     -33.713  17.293  -1.392  1.00 20.00     0.044 C 
HETATM    6  N10 UNL     1     -36.108  16.952  -1.939  1.00 20.00     0.091 N 
HETATM    7  N11 UNL     1     -34.459  15.923  -4.090  1.00 20.00     0.100 N 
HETATM    8  H29 UNL     1     -36.254  17.694  -1.244  1.00 20.00     0.316 HD
ENDROOT
BRANCH   7   9
HETATM    9  C9  UNL     1     -34.111  14.960  -5.132  1.00 20.00     0.241 C 
HETATM   10  C8  UNL     1     -34.807  13.626  -4.889  1.00 20.00     0.047 C 
BRANCH   9  11
HETATM   11  C2  UNL     1     -34.500  15.548  -6.458  1.00 20.00    -0.002 C 
HETATM   12  C1  UNL     1     -34.771  14.818  -7.546  1.00 20.00     0.009 C 
ENDBRANCH   9  11
ENDBRANCH   7   9
TORSDOF 2
ENDMDL
