MODEL 1
REMARK VINA RESULT:      -4.8      0.000      0.000
REMARK  3 active torsions:
REMARK  status: ('A' for Active; 'I' for Inactive)
REMARK    1  A    between atoms: C1_1  and  C3_3 
REMARK    2  A    between atoms: C1_1  and  C8_8 
REMARK    3  A    between atoms: C8_8  and  C9_9 
ROOT
HETATM    1  C1  UNL     1     -33.535   5.940   3.095  1.00 20.00     0.131 C 
HETATM    2  O10 UNL     1     -33.991   5.230   2.200  1.00 20.00    -0.298 OA
ENDROOT
BRANCH   1   3
HETATM    3  C3  UNL     1     -32.085   6.348   3.096  1.00 20.00     0.059 A 
HETATM    4  C2  UNL     1     -31.685   7.517   3.926  1.00 20.00     0.017 A 
HETATM    5  C4  UNL     1     -31.673   7.614   2.428  1.00 20.00    -0.007 A 
HETATM    6  C5  UNL     1     -32.627   8.524   1.732  1.00 20.00     0.011 C 
ENDBRANCH   1   3
BRANCH   1   7
HETATM    7  C8  UNL     1     -34.365   6.418   4.276  1.00 20.00     0.082 C 
BRANCH   7   8
HETATM    8  C9  UNL     1     -34.047   5.694   5.592  1.00 20.00    -0.016 C 
HETATM    9  C6  UNL     1     -35.072   4.598   5.889  1.00 20.00     0.010 C 
HETATM   10  C7  UNL     1     -34.015   6.696   6.747  1.00 20.00     0.010 C 
ENDBRANCH   7   8
ENDBRANCH   1   7
TORSDOF 3
ENDMDL
MODEL 2
REMARK VINA RESULT:      -4.8      0.747      4.046
REMARK  3 active torsions:
REMARK  status: ('A' for Active; 'I' for Inactive)
REMARK    1  A    between atoms: C1_1  and  C3_3 
REMARK    2  A    between atoms: C1_1  and  C8_8 
REMARK    3  A    between atoms: C8_8  and  C9_9 
ROOT
HETATM    1  C1  UNL     1     -33.908   5.769   3.487  1.00 20.00     0.131 C 
HETATM    2  O10 UNL     1     -34.578   5.111   2.693  1.00 20.00    -0.298 OA
ENDROOT
BRANCH   1   3
HETATM    3  C3  UNL     1     -34.520   6.315   4.751  1.00 20.00     0.059 A 
HETATM    4  C2  UNL     1     -33.708   6.274   5.998  1.00 20.00     0.017 A 
HETATM    5  C4  UNL     1     -34.908   5.383   5.846  1.00 20.00    -0.007 A 
HETATM    6  C5  UNL     1     -34.733   3.904   5.767  1.00 20.00     0.011 C 
ENDBRANCH   1   3
BRANCH   1   7
HETATM    7  C8  UNL     1     -32.448   6.120   3.244  1.00 20.00     0.082 C 
BRANCH   7   8
HETATM    8  C9  UNL     1     -32.170   7.631   3.212  1.00 20.00    -0.016 C 
HETATM    9  C6  UNL     1     -31.941   8.126   1.782  1.00 20.00     0.010 C 
HETATM   10  C7  UNL     1     -30.949   7.957   4.073  1.00 20.00     0.010 C 
ENDBRANCH   7   8
ENDBRANCH   1   7
TORSDOF 3
ENDMDL
MODEL 3
REMARK VINA RESULT:      -4.8      0.959      4.004
REMARK  3 active torsions:
REMARK  status: ('A' for Active; 'I' for Inactive)
REMARK    1  A    between atoms: C1_1  and  C3_3 
REMARK    2  A    between atoms: C1_1  and  C8_8 
REMARK    3  A    between atoms: C8_8  and  C9_9 
ROOT
HETATM    1  C1  UNL     1     -34.227   5.585   3.737  1.00 20.00     0.131 C 
HETATM    2  O10 UNL     1     -35.329   6.005   3.387  1.00 20.00    -0.298 OA
ENDROOT
BRANCH   1   3
HETATM    3  C3  UNL     1     -34.084   4.705   4.952  1.00 20.00     0.059 A 
HETATM    4  C2  UNL     1     -35.240   4.603   5.883  1.00 20.00     0.017 A 
HETATM    5  C4  UNL     1     -33.991   5.323   6.304  1.00 20.00    -0.007 A 
HETATM    6  C5  UNL     1     -34.022   6.795   6.539  1.00 20.00     0.011 C 
ENDBRANCH   1   3
BRANCH   1   7
HETATM    7  C8  UNL     1     -32.936   5.946   3.017  1.00 20.00     0.082 C 
BRANCH   7   8
HETATM    8  C9  UNL     1     -32.543   7.425   3.153  1.00 20.00    -0.016 C 
HETATM    9  C6  UNL     1     -32.181   8.033   1.797  1.00 20.00     0.010 C 
HETATM   10  C7  UNL     1     -31.363   7.566   4.114  1.00 20.00     0.010 C 
ENDBRANCH   7   8
ENDBRANCH   1   7
TORSDOF 3
ENDMDL
MODEL 4
REMARK VINA RESULT:      -4.3     11.176     11.935
REMARK  3 active torsions:
REMARK  status: ('A' for Active; 'I' for Inactive)
REMARK    1  A    between atoms: C1_1  and  C3_3 
REMARK    2  A    between atoms: C1_1  and  C8_8 
REMARK    3  A    between atoms: C8_8  and  C9_9 
ROOT
HETATM    1  C1  UNL     1     -33.605  15.568  -3.646  1.00 20.00     0.131 C 
HETATM    2  O10 UNL     1     -33.141  15.913  -4.732  1.00 20.00    -0.298 OA
ENDROOT
BRANCH   1   3
HETATM    3  C3  UNL     1     -34.245  14.215  -3.472  1.00 20.00     0.059 A 
HETATM    4  C2  UNL     1     -34.242  13.284  -4.632  1.00 20.00     0.017 A 
HETATM    5  C4  UNL     1     -35.526  13.909  -4.167  1.00 20.00    -0.007 A 
HETATM    6  C5  UNL     1     -36.240  14.883  -5.041  1.00 20.00     0.011 C 
ENDBRANCH   1   3
BRANCH   1   7
HETATM    7  C8  UNL     1     -33.616  16.476  -2.425  1.00 20.00     0.082 C 
BRANCH   7   8
HETATM    8  C9  UNL     1     -34.953  16.483  -1.669  1.00 20.00    -0.016 C 
HETATM    9  C6  UNL     1     -35.981  17.380  -2.362  1.00 20.00     0.010 C 
HETATM   10  C7  UNL     1     -34.739  16.959  -0.232  1.00 20.00     0.010 C 
ENDBRANCH   7   8
ENDBRANCH   1   7
TORSDOF 3
ENDMDL
MODEL 5
REMARK VINA RESULT:      -4.2     11.130     12.319
REMARK  3 active torsions:
REMARK  status: ('A' for Active; 'I' for Inactive)
REMARK    1  A    between atoms: C1_1  and  C3_3 
REMARK    2  A    between atoms: C1_1  and  C8_8 
REMARK    3  A    between atoms: C8_8  and  C9_9 
ROOT
HETATM    1  C1  UNL     1     -35.428  16.559  -2.094  1.00 20.00     0.131 C 
HETATM    2  O10 UNL     1     -36.281  17.425  -2.286  1.00 20.00    -0.298 OA
ENDROOT
BRANCH   1   3
HETATM    3  C3  UNL     1     -34.547  16.600  -0.872  1.00 20.00     0.059 A 
HETATM    4  C2  UNL     1     -34.809  17.651   0.148  1.00 20.00     0.017 A 
HETATM    5  C4  UNL     1     -33.572  17.713  -0.701  1.00 20.00    -0.007 A 
HETATM    6  C5  UNL     1     -33.401  18.815  -1.691  1.00 20.00     0.011 C 
ENDBRANCH   1   3
BRANCH   1   7
HETATM    7  C8  UNL     1     -35.163  15.426  -3.073  1.00 20.00     0.082 C 
BRANCH   7   8
HETATM    8  C9  UNL     1     -33.674  15.206  -3.379  1.00 20.00    -0.016 C 
HETATM    9  C6  UNL     1     -33.181  16.157  -4.471  1.00 20.00     0.010 C 
HETATM   10  C7  UNL     1     -33.437  13.758  -3.810  1.00 20.00     0.010 C 
ENDBRANCH   7   8
ENDBRANCH   1   7
TORSDOF 3
ENDMDL
MODEL 6
REMARK VINA RESULT:      -4.2     11.498     12.674
REMARK  3 active torsions:
REMARK  status: ('A' for Active; 'I' for Inactive)
REMARK    1  A    between atoms: C1_1  and  C3_3 
REMARK    2  A    between atoms: C1_1  and  C8_8 
REMARK    3  A    between atoms: C8_8  and  C9_9 
ROOT
HETATM    1  C1  UNL     1     -33.258  15.638  -3.827  1.00 20.00     0.131 C 
HETATM    2  O10 UNL     1     -32.387  14.801  -3.598  1.00 20.00    -0.298 OA
ENDROOT
BRANCH   1   3
HETATM    3  C3  UNL     1     -33.293  16.380  -5.139  1.00 20.00     0.059 A 
HETATM    4  C2  UNL     1     -34.579  16.999  -5.560  1.00 20.00     0.017 A 
HETATM    5  C4  UNL     1     -34.039  15.805  -6.292  1.00 20.00    -0.007 A 
HETATM    6  C5  UNL     1     -34.766  14.504  -6.235  1.00 20.00     0.011 C 
ENDBRANCH   1   3
BRANCH   1   7
HETATM    7  C8  UNL     1     -34.323  16.024  -2.812  1.00 20.00     0.082 C 
BRANCH   7   8
HETATM    8  C9  UNL     1     -33.800  16.902  -1.666  1.00 20.00    -0.016 C 
HETATM    9  C6  UNL     1     -34.718  16.832  -0.445  1.00 20.00     0.010 C 
HETATM   10  C7  UNL     1     -33.673  18.352  -2.134  1.00 20.00     0.010 C 
ENDBRANCH   7   8
ENDBRANCH   1   7
TORSDOF 3
ENDMDL
MODEL 7
REMARK VINA RESULT:      -4.1     10.940     11.932
REMARK  3 active torsions:
REMARK  status: ('A' for Active; 'I' for Inactive)
REMARK    1  A    between atoms: C1_1  and  C3_3 
REMARK    2  A    between atoms: C1_1  and  C8_8 
REMARK    3  A    between atoms: C8_8  and  C9_9 
ROOT
HETATM    1  C1  UNL     1     -35.098  15.371  -3.065  1.00 20.00     0.131 C 
HETATM    2  O10 UNL     1     -36.253  15.781  -3.169  1.00 20.00    -0.298 OA
ENDROOT
BRANCH   1   3
HETATM    3  C3  UNL     1     -34.732  13.971  -3.487  1.00 20.00     0.059 A 
HETATM    4  C2  UNL     1     -33.319  13.699  -3.868  1.00 20.00     0.017 A 
HETATM    5  C4  UNL     1     -34.399  13.692  -4.912  1.00 20.00    -0.007 A 
HETATM    6  C5  UNL     1     -34.411  14.734  -5.978  1.00 20.00     0.011 C 
ENDBRANCH   1   3
BRANCH   1   7
HETATM    7  C8  UNL     1     -33.973  16.206  -2.472  1.00 20.00     0.082 C 
BRANCH   7   8
HETATM    8  C9  UNL     1     -34.460  17.404  -1.645  1.00 20.00    -0.016 C 
HETATM    9  C6  UNL     1     -33.439  18.543  -1.657  1.00 20.00     0.010 C 
HETATM   10  C7  UNL     1     -34.732  16.970  -0.204  1.00 20.00     0.010 C 
ENDBRANCH   7   8
ENDBRANCH   1   7
TORSDOF 3
ENDMDL
MODEL 8
REMARK VINA RESULT:      -4.1     11.169     12.485
REMARK  3 active torsions:
REMARK  status: ('A' for Active; 'I' for Inactive)
REMARK    1  A    between atoms: C1_1  and  C3_3 
REMARK    2  A    between atoms: C1_1  and  C8_8 
REMARK    3  A    between atoms: C8_8  and  C9_9 
ROOT
HETATM    1  C1  UNL     1     -35.095  13.810  -4.966  1.00 20.00     0.131 C 
HETATM    2  O10 UNL     1     -35.143  12.641  -4.586  1.00 20.00    -0.298 OA
ENDROOT
BRANCH   1   3
HETATM    3  C3  UNL     1     -34.800  14.145  -6.405  1.00 20.00     0.059 A 
HETATM    4  C2  UNL     1     -34.667  15.580  -6.778  1.00 20.00     0.017 A 
HETATM    5  C4  UNL     1     -35.852  14.783  -7.245  1.00 20.00    -0.007 A 
HETATM    6  C5  UNL     1     -37.217  15.113  -6.743  1.00 20.00     0.011 C 
ENDBRANCH   1   3
BRANCH   1   7
HETATM    7  C8  UNL     1     -35.279  14.993  -4.027  1.00 20.00     0.082 C 
BRANCH   7   8
HETATM    8  C9  UNL     1     -34.216  15.079  -2.922  1.00 20.00    -0.016 C 
HETATM    9  C6  UNL     1     -34.520  16.214  -1.942  1.00 20.00     0.010 C 
HETATM   10  C7  UNL     1     -32.833  15.289  -3.541  1.00 20.00     0.010 C 
ENDBRANCH   7   8
ENDBRANCH   1   7
TORSDOF 3
ENDMDL
MODEL 9
REMARK VINA RESULT:      -4.1      1.668      2.593
REMARK  3 active torsions:
REMARK  status: ('A' for Active; 'I' for Inactive)
REMARK    1  A    between atoms: C1_1  and  C3_3 
REMARK    2  A    between atoms: C1_1  and  C8_8 
REMARK    3  A    between atoms: C8_8  and  C9_9 
ROOT
HETATM    1  C1  UNL     1     -32.021   7.317   2.922  1.00 20.00     0.131 C 
HETATM    2  O10 UNL     1     -31.284   7.939   3.686  1.00 20.00    -0.298 OA
ENDROOT
BRANCH   1   3
HETATM    3  C3  UNL     1     -32.229   7.776   1.502  1.00 20.00     0.059 A 
HETATM    4  C2  UNL     1     -31.228   8.707   0.912  1.00 20.00     0.017 A 
HETATM    5  C4  UNL     1     -32.614   9.189   1.232  1.00 20.00    -0.007 A 
HETATM    6  C5  UNL     1     -32.821  10.204   2.304  1.00 20.00     0.011 C 
ENDBRANCH   1   3
BRANCH   1   7
HETATM    7  C8  UNL     1     -32.805   6.085   3.348  1.00 20.00     0.082 C 
BRANCH   7   8
HETATM    8  C9  UNL     1     -34.093   6.406   4.120  1.00 20.00    -0.016 C 
HETATM    9  C6  UNL     1     -33.863   6.372   5.632  1.00 20.00     0.010 C 
HETATM   10  C7  UNL     1     -35.191   5.411   3.742  1.00 20.00     0.010 C 
ENDBRANCH   7   8
ENDBRANCH   1   7
TORSDOF 3
ENDMDL
