MODEL 1
REMARK VINA RESULT:      -5.4      0.000      0.000
REMARK  3 active torsions:
REMARK  status: ('A' for Active; 'I' for Inactive)
REMARK    1  A    between atoms: C3_3  and  C5_5 
REMARK    2  A    between atoms: C3_3  and  C9_9 
REMARK    3  A    between atoms: C8_8  and  C9_9 
ROOT
HETATM    1  C1  UNL     1     -33.677   7.158   6.734  1.00 20.00     0.012 C 
HETATM    2  C2  UNL     1     -34.236   6.134   6.448  1.00 20.00    -0.117 C 
HETATM    3  C8  UNL     1     -34.921   4.880   6.104  1.00 20.00     0.100 C 
ENDROOT
BRANCH   3   4
HETATM    4  C9  UNL     1     -34.532   4.382   4.714  1.00 20.00     0.090 C 
BRANCH   4   5
HETATM    5  C3  UNL     1     -34.799   5.387   3.604  1.00 20.00     0.132 C 
HETATM    6  O10 UNL     1     -35.911   5.867   3.387  1.00 20.00    -0.298 OA
BRANCH   5   7
HETATM    7  C5  UNL     1     -33.605   5.794   2.778  1.00 20.00     0.059 A 
HETATM    8  C4  UNL     1     -32.252   5.558   3.345  1.00 20.00     0.017 A 
HETATM    9  C6  UNL     1     -32.795   6.959   3.253  1.00 20.00    -0.007 A 
HETATM   10  C7  UNL     1     -32.243   7.914   2.252  1.00 20.00     0.011 C 
ENDBRANCH   5   7
ENDBRANCH   4   5
ENDBRANCH   3   4
TORSDOF 3
ENDMDL
MODEL 2
REMARK VINA RESULT:      -5.2      0.761      3.788
REMARK  3 active torsions:
REMARK  status: ('A' for Active; 'I' for Inactive)
REMARK    1  A    between atoms: C3_3  and  C5_5 
REMARK    2  A    between atoms: C3_3  and  C9_9 
REMARK    3  A    between atoms: C8_8  and  C9_9 
ROOT
HETATM    1  C1  UNL     1     -32.148   8.908   1.512  1.00 20.00     0.012 C 
HETATM    2  C2  UNL     1     -32.181   7.931   2.210  1.00 20.00    -0.117 C 
HETATM    3  C8  UNL     1     -32.216   6.736   3.066  1.00 20.00     0.100 C 
ENDROOT
BRANCH   3   4
HETATM    4  C9  UNL     1     -33.375   5.810   2.703  1.00 20.00     0.090 C 
BRANCH   4   5
HETATM    5  C3  UNL     1     -34.375   5.609   3.832  1.00 20.00     0.132 C 
HETATM    6  O10 UNL     1     -35.577   5.430   3.639  1.00 20.00    -0.298 OA
BRANCH   5   7
HETATM    7  C5  UNL     1     -33.808   5.617   5.229  1.00 20.00     0.059 A 
HETATM    8  C4  UNL     1     -34.706   5.233   6.349  1.00 20.00     0.017 A 
HETATM    9  C6  UNL     1     -34.297   6.671   6.172  1.00 20.00    -0.007 A 
HETATM   10  C7  UNL     1     -33.334   7.299   7.119  1.00 20.00     0.011 C 
ENDBRANCH   5   7
ENDBRANCH   4   5
ENDBRANCH   3   4
TORSDOF 3
ENDMDL
MODEL 3
REMARK VINA RESULT:      -5.0      1.232      4.315
REMARK  3 active torsions:
REMARK  status: ('A' for Active; 'I' for Inactive)
REMARK    1  A    between atoms: C3_3  and  C5_5 
REMARK    2  A    between atoms: C3_3  and  C9_9 
REMARK    3  A    between atoms: C8_8  and  C9_9 
ROOT
HETATM    1  C1  UNL     1     -32.535   9.828   1.488  1.00 20.00     0.012 C 
HETATM    2  C2  UNL     1     -32.199   8.733   1.847  1.00 20.00    -0.117 C 
HETATM    3  C8  UNL     1     -31.786   7.391   2.283  1.00 20.00     0.100 C 
ENDROOT
BRANCH   3   4
HETATM    4  C9  UNL     1     -32.407   7.011   3.625  1.00 20.00     0.090 C 
BRANCH   4   5
HETATM    5  C3  UNL     1     -33.610   6.088   3.505  1.00 20.00     0.132 C 
HETATM    6  O10 UNL     1     -33.852   5.429   2.494  1.00 20.00    -0.298 OA
BRANCH   5   7
HETATM    7  C5  UNL     1     -34.501   5.999   4.718  1.00 20.00     0.059 A 
HETATM    8  C4  UNL     1     -33.937   6.415   6.029  1.00 20.00     0.017 A 
HETATM    9  C6  UNL     1     -34.178   4.957   5.743  1.00 20.00    -0.007 A 
HETATM   10  C7  UNL     1     -35.293   4.235   6.418  1.00 20.00     0.011 C 
ENDBRANCH   5   7
ENDBRANCH   4   5
ENDBRANCH   3   4
TORSDOF 3
ENDMDL
MODEL 4
REMARK VINA RESULT:      -4.8      1.203      2.083
REMARK  3 active torsions:
REMARK  status: ('A' for Active; 'I' for Inactive)
REMARK    1  A    between atoms: C3_3  and  C5_5 
REMARK    2  A    between atoms: C3_3  and  C9_9 
REMARK    3  A    between atoms: C8_8  and  C9_9 
ROOT
HETATM    1  C1  UNL     1     -35.167   3.942   5.999  1.00 20.00     0.012 C 
HETATM    2  C2  UNL     1     -34.610   5.001   5.896  1.00 20.00    -0.117 C 
HETATM    3  C8  UNL     1     -33.928   6.297   5.776  1.00 20.00     0.100 C 
ENDROOT
BRANCH   3   4
HETATM    4  C9  UNL     1     -34.174   6.946   4.415  1.00 20.00     0.090 C 
BRANCH   4   5
HETATM    5  C3  UNL     1     -33.595   6.161   3.248  1.00 20.00     0.132 C 
HETATM    6  O10 UNL     1     -34.119   5.142   2.800  1.00 20.00    -0.298 OA
BRANCH   5   7
HETATM    7  C5  UNL     1     -32.333   6.715   2.638  1.00 20.00     0.059 A 
HETATM    8  C4  UNL     1     -31.517   7.651   3.454  1.00 20.00     0.017 A 
HETATM    9  C6  UNL     1     -32.311   8.169   2.285  1.00 20.00    -0.007 A 
HETATM   10  C7  UNL     1     -31.618   8.603   1.039  1.00 20.00     0.011 C 
ENDBRANCH   5   7
ENDBRANCH   4   5
ENDBRANCH   3   4
TORSDOF 3
ENDMDL
MODEL 5
REMARK VINA RESULT:      -4.7      1.720      2.286
REMARK  3 active torsions:
REMARK  status: ('A' for Active; 'I' for Inactive)
REMARK    1  A    between atoms: C3_3  and  C5_5 
REMARK    2  A    between atoms: C3_3  and  C9_9 
REMARK    3  A    between atoms: C8_8  and  C9_9 
ROOT
HETATM    1  C1  UNL     1     -34.901   4.073   6.320  1.00 20.00     0.012 C 
HETATM    2  C2  UNL     1     -35.187   4.583   5.271  1.00 20.00    -0.117 C 
HETATM    3  C8  UNL     1     -35.541   5.206   3.987  1.00 20.00     0.100 C 
ENDROOT
BRANCH   3   4
HETATM    4  C9  UNL     1     -34.314   5.437   3.108  1.00 20.00     0.090 C 
BRANCH   4   5
HETATM    5  C3  UNL     1     -33.305   6.405   3.706  1.00 20.00     0.132 C 
HETATM    6  O10 UNL     1     -33.345   6.777   4.878  1.00 20.00    -0.298 OA
BRANCH   5   7
HETATM    7  C5  UNL     1     -32.215   6.882   2.779  1.00 20.00     0.059 A 
HETATM    8  C4  UNL     1     -31.208   7.834   3.317  1.00 20.00     0.017 A 
HETATM    9  C6  UNL     1     -32.250   8.313   2.342  1.00 20.00    -0.007 A 
HETATM   10  C7  UNL     1     -31.869   8.653   0.943  1.00 20.00     0.011 C 
ENDBRANCH   5   7
ENDBRANCH   4   5
ENDBRANCH   3   4
TORSDOF 3
ENDMDL
MODEL 6
REMARK VINA RESULT:      -4.5     11.367     12.752
REMARK  3 active torsions:
REMARK  status: ('A' for Active; 'I' for Inactive)
REMARK    1  A    between atoms: C3_3  and  C5_5 
REMARK    2  A    between atoms: C3_3  and  C9_9 
REMARK    3  A    between atoms: C8_8  and  C9_9 
ROOT
HETATM    1  C1  UNL     1     -34.661  16.599  -0.865  1.00 20.00     0.012 C 
HETATM    2  C2  UNL     1     -34.313  16.194  -1.941  1.00 20.00    -0.117 C 
HETATM    3  C8  UNL     1     -33.888  15.703  -3.260  1.00 20.00     0.100 C 
ENDROOT
BRANCH   3   4
HETATM    4  C9  UNL     1     -34.004  14.184  -3.367  1.00 20.00     0.090 C 
BRANCH   4   5
HETATM    5  C3  UNL     1     -34.651  13.708  -4.658  1.00 20.00     0.132 C 
HETATM    6  O10 UNL     1     -34.748  12.519  -4.961  1.00 20.00    -0.298 OA
BRANCH   5   7
HETATM    7  C5  UNL     1     -35.201  14.784  -5.560  1.00 20.00     0.059 A 
HETATM    8  C4  UNL     1     -35.585  14.405  -6.945  1.00 20.00     0.017 A 
HETATM    9  C6  UNL     1     -34.350  15.233  -6.706  1.00 20.00    -0.007 A 
HETATM   10  C7  UNL     1     -34.332  16.676  -7.074  1.00 20.00     0.011 C 
ENDBRANCH   5   7
ENDBRANCH   4   5
ENDBRANCH   3   4
TORSDOF 3
ENDMDL
MODEL 7
REMARK VINA RESULT:      -4.4     11.562     12.843
REMARK  3 active torsions:
REMARK  status: ('A' for Active; 'I' for Inactive)
REMARK    1  A    between atoms: C3_3  and  C5_5 
REMARK    2  A    between atoms: C3_3  and  C9_9 
REMARK    3  A    between atoms: C8_8  and  C9_9 
ROOT
HETATM    1  C1  UNL     1     -35.010  14.606  -7.021  1.00 20.00     0.012 C 
HETATM    2  C2  UNL     1     -34.933  13.994  -5.990  1.00 20.00    -0.117 C 
HETATM    3  C8  UNL     1     -34.842  13.244  -4.729  1.00 20.00     0.100 C 
ENDROOT
BRANCH   3   4
HETATM    4  C9  UNL     1     -33.588  13.608  -3.939  1.00 20.00     0.090 C 
BRANCH   4   5
HETATM    5  C3  UNL     1     -33.478  15.089  -3.610  1.00 20.00     0.132 C 
HETATM    6  O10 UNL     1     -32.612  15.820  -4.088  1.00 20.00    -0.298 OA
BRANCH   5   7
HETATM    7  C5  UNL     1     -34.519  15.636  -2.665  1.00 20.00     0.059 A 
HETATM    8  C4  UNL     1     -35.115  16.962  -2.976  1.00 20.00     0.017 A 
HETATM    9  C6  UNL     1     -34.147  16.822  -1.831  1.00 20.00    -0.007 A 
HETATM   10  C7  UNL     1     -34.632  16.900  -0.425  1.00 20.00     0.011 C 
ENDBRANCH   5   7
ENDBRANCH   4   5
ENDBRANCH   3   4
TORSDOF 3
ENDMDL
MODEL 8
REMARK VINA RESULT:      -4.4     11.445     12.730
REMARK  3 active torsions:
REMARK  status: ('A' for Active; 'I' for Inactive)
REMARK    1  A    between atoms: C3_3  and  C5_5 
REMARK    2  A    between atoms: C3_3  and  C9_9 
REMARK    3  A    between atoms: C8_8  and  C9_9 
ROOT
HETATM    1  C1  UNL     1     -34.647  15.289  -7.012  1.00 20.00     0.012 C 
HETATM    2  C2  UNL     1     -34.685  14.377  -6.232  1.00 20.00    -0.117 C 
HETATM    3  C8  UNL     1     -34.732  13.257  -5.281  1.00 20.00     0.100 C 
ENDROOT
BRANCH   3   4
HETATM    4  C9  UNL     1     -34.762  13.740  -3.833  1.00 20.00     0.090 C 
BRANCH   4   5
HETATM    5  C3  UNL     1     -35.967  14.605  -3.499  1.00 20.00     0.132 C 
HETATM    6  O10 UNL     1     -37.127  14.246  -3.699  1.00 20.00    -0.298 OA
BRANCH   5   7
HETATM    7  C5  UNL     1     -35.668  15.946  -2.877  1.00 20.00     0.059 A 
HETATM    8  C4  UNL     1     -34.395  16.618  -3.246  1.00 20.00     0.017 A 
HETATM    9  C6  UNL     1     -34.558  16.016  -1.876  1.00 20.00    -0.007 A 
HETATM   10  C7  UNL     1     -34.711  16.895  -0.684  1.00 20.00     0.011 C 
ENDBRANCH   5   7
ENDBRANCH   4   5
ENDBRANCH   3   4
TORSDOF 3
ENDMDL
MODEL 9
REMARK VINA RESULT:      -4.3     11.650     12.616
REMARK  3 active torsions:
REMARK  status: ('A' for Active; 'I' for Inactive)
REMARK    1  A    between atoms: C3_3  and  C5_5 
REMARK    2  A    between atoms: C3_3  and  C9_9 
REMARK    3  A    between atoms: C8_8  and  C9_9 
ROOT
HETATM    1  C1  UNL     1     -34.785  17.034  -0.245  1.00 20.00     0.012 C 
HETATM    2  C2  UNL     1     -34.381  16.595  -1.287  1.00 20.00    -0.117 C 
HETATM    3  C8  UNL     1     -33.884  16.062  -2.564  1.00 20.00     0.100 C 
ENDROOT
BRANCH   3   4
HETATM    4  C9  UNL     1     -34.804  14.981  -3.127  1.00 20.00     0.090 C 
BRANCH   4   5
HETATM    5  C3  UNL     1     -34.130  14.068  -4.139  1.00 20.00     0.132 C 
HETATM    6  O10 UNL     1     -33.303  13.213  -3.825  1.00 20.00    -0.298 OA
BRANCH   5   7
HETATM    7  C5  UNL     1     -34.549  14.249  -5.576  1.00 20.00     0.059 A 
HETATM    8  C4  UNL     1     -34.138  15.496  -6.271  1.00 20.00     0.017 A 
HETATM    9  C6  UNL     1     -35.576  15.295  -5.875  1.00 20.00    -0.007 A 
HETATM   10  C7  UNL     1     -36.610  15.022  -6.913  1.00 20.00     0.011 C 
ENDBRANCH   5   7
ENDBRANCH   4   5
ENDBRANCH   3   4
TORSDOF 3
ENDMDL
