MODEL 1
REMARK VINA RESULT:      -4.1      0.000      0.000
REMARK  2 active torsions:
REMARK  status: ('A' for Active; 'I' for Inactive)
REMARK    1  A    between atoms: C1_1  and  C3_3 
REMARK    2  A    between atoms: C1_1  and  C9_9 
ROOT
HETATM    1  C1  UNL     1     -34.495  14.096  -5.307  1.00 20.00     0.139 C 
HETATM    2  O10 UNL     1     -34.921  12.939  -5.270  1.00 20.00    -0.297 OA
ENDROOT
BRANCH   1   3
HETATM    3  C3  UNL     1     -34.612  14.896  -6.583  1.00 20.00     0.060 A 
HETATM    4  C2  UNL     1     -35.477  14.357  -7.666  1.00 20.00     0.017 A 
HETATM    5  C4  UNL     1     -35.892  15.583  -6.903  1.00 20.00    -0.007 A 
HETATM    6  C5  UNL     1     -37.093  15.540  -6.020  1.00 20.00     0.011 C 
ENDBRANCH   1   3
BRANCH   1   7
HETATM    7  C9  UNL     1     -33.862  14.770  -4.073  1.00 20.00     0.010 C 
HETATM    8  C6  UNL     1     -32.841  13.809  -3.452  1.00 20.00     0.022 C 
HETATM    9  C7  UNL     1     -34.937  15.138  -3.042  1.00 20.00     0.022 C 
HETATM   10  C8  UNL     1     -33.141  16.058  -4.507  1.00 20.00     0.022 C 
ENDBRANCH   1   7
TORSDOF 2
ENDMDL
MODEL 2
REMARK VINA RESULT:      -3.9      1.836      2.457
REMARK  2 active torsions:
REMARK  status: ('A' for Active; 'I' for Inactive)
REMARK    1  A    between atoms: C1_1  and  C3_3 
REMARK    2  A    between atoms: C1_1  and  C9_9 
ROOT
HETATM    1  C1  UNL     1     -34.116  16.227  -4.522  1.00 20.00     0.139 C 
HETATM    2  O10 UNL     1     -32.907  16.457  -4.588  1.00 20.00    -0.297 OA
ENDROOT
BRANCH   1   3
HETATM    3  C3  UNL     1     -35.046  16.802  -5.565  1.00 20.00     0.060 A 
HETATM    4  C2  UNL     1     -34.439  17.400  -6.784  1.00 20.00     0.017 A 
HETATM    5  C4  UNL     1     -35.201  16.108  -6.871  1.00 20.00    -0.007 A 
HETATM    6  C5  UNL     1     -34.489  14.846  -7.224  1.00 20.00     0.011 C 
ENDBRANCH   1   3
BRANCH   1   7
HETATM    7  C9  UNL     1     -34.717  15.341  -3.412  1.00 20.00     0.010 C 
HETATM    8  C6  UNL     1     -34.100  13.941  -3.507  1.00 20.00     0.022 C 
HETATM    9  C7  UNL     1     -36.243  15.257  -3.548  1.00 20.00     0.022 C 
HETATM   10  C8  UNL     1     -34.381  15.946  -2.037  1.00 20.00     0.022 C 
ENDBRANCH   1   7
TORSDOF 2
ENDMDL
MODEL 3
REMARK VINA RESULT:      -3.8      1.961      3.371
REMARK  2 active torsions:
REMARK  status: ('A' for Active; 'I' for Inactive)
REMARK    1  A    between atoms: C1_1  and  C3_3 
REMARK    2  A    between atoms: C1_1  and  C9_9 
ROOT
HETATM    1  C1  UNL     1     -35.537  15.459  -3.091  1.00 20.00     0.139 C 
HETATM    2  O10 UNL     1     -36.736  15.242  -3.276  1.00 20.00    -0.297 OA
ENDROOT
BRANCH   1   3
HETATM    3  C3  UNL     1     -34.515  14.433  -3.522  1.00 20.00     0.060 A 
HETATM    4  C2  UNL     1     -34.999  13.236  -4.259  1.00 20.00     0.017 A 
HETATM    5  C4  UNL     1     -34.189  14.286  -4.966  1.00 20.00    -0.007 A 
HETATM    6  C5  UNL     1     -34.813  15.111  -6.040  1.00 20.00     0.011 C 
ENDBRANCH   1   3
BRANCH   1   7
HETATM    7  C9  UNL     1     -35.037  16.769  -2.449  1.00 20.00     0.010 C 
HETATM    8  C6  UNL     1     -36.173  17.799  -2.474  1.00 20.00     0.022 C 
HETATM    9  C7  UNL     1     -33.814  17.311  -3.201  1.00 20.00     0.022 C 
HETATM   10  C8  UNL     1     -34.633  16.502  -0.988  1.00 20.00     0.022 C 
ENDBRANCH   1   7
TORSDOF 2
ENDMDL
MODEL 4
REMARK VINA RESULT:      -3.8      2.323      4.223
REMARK  2 active torsions:
REMARK  status: ('A' for Active; 'I' for Inactive)
REMARK    1  A    between atoms: C1_1  and  C3_3 
REMARK    2  A    between atoms: C1_1  and  C9_9 
ROOT
HETATM    1  C1  UNL     1     -33.966  16.097  -3.475  1.00 20.00     0.139 C 
HETATM    2  O10 UNL     1     -33.543  17.092  -4.066  1.00 20.00    -0.297 OA
ENDROOT
BRANCH   1   3
HETATM    3  C3  UNL     1     -34.083  16.115  -1.968  1.00 20.00     0.060 A 
HETATM    4  C2  UNL     1     -33.700  17.362  -1.255  1.00 20.00     0.017 A 
HETATM    5  C4  UNL     1     -35.140  16.941  -1.326  1.00 20.00    -0.007 A 
HETATM    6  C5  UNL     1     -36.121  17.765  -2.089  1.00 20.00     0.011 C 
ENDBRANCH   1   3
BRANCH   1   7
HETATM    7  C9  UNL     1     -34.408  14.828  -4.231  1.00 20.00     0.010 C 
HETATM    8  C6  UNL     1     -33.501  13.663  -3.816  1.00 20.00     0.022 C 
HETATM    9  C7  UNL     1     -34.332  15.043  -5.747  1.00 20.00     0.022 C 
HETATM   10  C8  UNL     1     -35.862  14.489  -3.856  1.00 20.00     0.022 C 
ENDBRANCH   1   7
TORSDOF 2
ENDMDL
MODEL 5
REMARK VINA RESULT:      -3.8      2.382      4.287
REMARK  2 active torsions:
REMARK  status: ('A' for Active; 'I' for Inactive)
REMARK    1  A    between atoms: C1_1  and  C3_3 
REMARK    2  A    between atoms: C1_1  and  C9_9 
ROOT
HETATM    1  C1  UNL     1     -33.999  16.190  -3.437  1.00 20.00     0.139 C 
HETATM    2  O10 UNL     1     -33.652  17.208  -4.040  1.00 20.00    -0.297 OA
ENDROOT
BRANCH   1   3
HETATM    3  C3  UNL     1     -34.037  16.191  -1.926  1.00 20.00     0.060 A 
HETATM    4  C2  UNL     1     -33.649  17.442  -1.221  1.00 20.00     0.017 A 
HETATM    5  C4  UNL     1     -35.080  16.983  -1.220  1.00 20.00    -0.007 A 
HETATM    6  C5  UNL     1     -36.121  17.788  -1.923  1.00 20.00     0.011 C 
ENDBRANCH   1   3
BRANCH   1   7
HETATM    7  C9  UNL     1     -34.425  14.909  -4.181  1.00 20.00     0.010 C 
HETATM    8  C6  UNL     1     -35.878  14.583  -3.815  1.00 20.00     0.022 C 
HETATM    9  C7  UNL     1     -33.510  13.735  -3.811  1.00 20.00     0.022 C 
HETATM   10  C8  UNL     1     -34.331  15.143  -5.699  1.00 20.00     0.022 C 
ENDBRANCH   1   7
TORSDOF 2
ENDMDL
MODEL 6
REMARK VINA RESULT:      -3.8      2.186      4.100
REMARK  2 active torsions:
REMARK  status: ('A' for Active; 'I' for Inactive)
REMARK    1  A    between atoms: C1_1  and  C3_3 
REMARK    2  A    between atoms: C1_1  and  C9_9 
ROOT
HETATM    1  C1  UNL     1     -34.207  15.349  -3.212  1.00 20.00     0.139 C 
HETATM    2  O10 UNL     1     -32.983  15.409  -3.348  1.00 20.00    -0.297 OA
ENDROOT
BRANCH   1   3
HETATM    3  C3  UNL     1     -34.855  15.967  -1.995  1.00 20.00     0.060 A 
HETATM    4  C2  UNL     1     -34.046  16.910  -1.178  1.00 20.00     0.017 A 
HETATM    5  C4  UNL     1     -35.196  17.415  -2.003  1.00 20.00    -0.007 A 
HETATM    6  C5  UNL     1     -34.941  18.317  -3.164  1.00 20.00     0.011 C 
ENDBRANCH   1   3
BRANCH   1   7
HETATM    7  C9  UNL     1     -35.111  14.679  -4.265  1.00 20.00     0.010 C 
HETATM    8  C6  UNL     1     -34.987  15.448  -5.586  1.00 20.00     0.022 C 
HETATM    9  C7  UNL     1     -36.572  14.663  -3.797  1.00 20.00     0.022 C 
HETATM   10  C8  UNL     1     -34.651  13.227  -4.485  1.00 20.00     0.022 C 
ENDBRANCH   1   7
TORSDOF 2
ENDMDL
MODEL 7
REMARK VINA RESULT:      -3.8      1.547      1.806
REMARK  2 active torsions:
REMARK  status: ('A' for Active; 'I' for Inactive)
REMARK    1  A    between atoms: C1_1  and  C3_3 
REMARK    2  A    between atoms: C1_1  and  C9_9 
ROOT
HETATM    1  C1  UNL     1     -35.095  15.420  -4.672  1.00 20.00     0.139 C 
HETATM    2  O10 UNL     1     -36.300  15.674  -4.609  1.00 20.00    -0.297 OA
ENDROOT
BRANCH   1   3
HETATM    3  C3  UNL     1     -34.559  14.618  -5.835  1.00 20.00     0.060 A 
HETATM    4  C2  UNL     1     -35.474  14.349  -6.976  1.00 20.00     0.017 A 
HETATM    5  C4  UNL     1     -34.315  15.291  -7.139  1.00 20.00    -0.007 A 
HETATM    6  C5  UNL     1     -34.562  16.743  -7.376  1.00 20.00     0.011 C 
ENDBRANCH   1   3
BRANCH   1   7
HETATM    7  C9  UNL     1     -34.100  15.920  -3.605  1.00 20.00     0.010 C 
HETATM    8  C6  UNL     1     -32.841  15.047  -3.654  1.00 20.00     0.022 C 
HETATM    9  C7  UNL     1     -34.729  15.864  -2.206  1.00 20.00     0.022 C 
HETATM   10  C8  UNL     1     -33.713  17.377  -3.909  1.00 20.00     0.022 C 
ENDBRANCH   1   7
TORSDOF 2
ENDMDL
MODEL 8
REMARK VINA RESULT:      -3.8      1.963      2.852
REMARK  2 active torsions:
REMARK  status: ('A' for Active; 'I' for Inactive)
REMARK    1  A    between atoms: C1_1  and  C3_3 
REMARK    2  A    between atoms: C1_1  and  C9_9 
ROOT
HETATM    1  C1  UNL     1     -34.002  16.336  -4.686  1.00 20.00     0.139 C 
HETATM    2  O10 UNL     1     -32.788  16.314  -4.898  1.00 20.00    -0.297 OA
ENDROOT
BRANCH   1   3
HETATM    3  C3  UNL     1     -34.951  15.748  -5.704  1.00 20.00     0.060 A 
HETATM    4  C2  UNL     1     -34.370  14.957  -6.821  1.00 20.00     0.017 A 
HETATM    5  C4  UNL     1     -35.164  14.276  -5.743  1.00 20.00    -0.007 A 
HETATM    6  C5  UNL     1     -34.493  13.322  -4.814  1.00 20.00     0.011 C 
ENDBRANCH   1   3
BRANCH   1   7
HETATM    7  C9  UNL     1     -34.591  16.930  -3.390  1.00 20.00     0.010 C 
HETATM    8  C6  UNL     1     -33.866  18.243  -3.072  1.00 20.00     0.022 C 
HETATM    9  C7  UNL     1     -34.439  15.945  -2.223  1.00 20.00     0.022 C 
HETATM   10  C8  UNL     1     -36.089  17.219  -3.594  1.00 20.00     0.022 C 
ENDBRANCH   1   7
TORSDOF 2
ENDMDL
MODEL 9
REMARK VINA RESULT:      -3.8      1.557      3.745
REMARK  2 active torsions:
REMARK  status: ('A' for Active; 'I' for Inactive)
REMARK    1  A    between atoms: C1_1  and  C3_3 
REMARK    2  A    between atoms: C1_1  and  C9_9 
ROOT
HETATM    1  C1  UNL     1     -34.064  15.546  -5.606  1.00 20.00     0.139 C 
HETATM    2  O10 UNL     1     -33.141  16.306  -5.306  1.00 20.00    -0.297 OA
ENDROOT
BRANCH   1   3
HETATM    3  C3  UNL     1     -34.244  14.252  -4.846  1.00 20.00     0.060 A 
HETATM    4  C2  UNL     1     -33.279  13.944  -3.758  1.00 20.00     0.017 A 
HETATM    5  C4  UNL     1     -34.704  14.292  -3.431  1.00 20.00    -0.007 A 
HETATM    6  C5  UNL     1     -35.013  15.554  -2.700  1.00 20.00     0.011 C 
ENDBRANCH   1   3
BRANCH   1   7
HETATM    7  C9  UNL     1     -35.067  15.884  -6.727  1.00 20.00     0.010 C 
HETATM    8  C6  UNL     1     -34.579  17.136  -7.466  1.00 20.00     0.022 C 
HETATM    9  C7  UNL     1     -36.468  16.123  -6.150  1.00 20.00     0.022 C 
HETATM   10  C8  UNL     1     -35.139  14.711  -7.720  1.00 20.00     0.022 C 
ENDBRANCH   1   7
TORSDOF 2
ENDMDL
