MODEL 1
REMARK VINA RESULT:      -5.0      0.000      0.000
REMARK  3 active torsions:
REMARK  status: ('A' for Active; 'I' for Inactive)
REMARK    1  A    between atoms: C1_1  and  C9_9 
REMARK    2  A    between atoms: C10_10  and  C11_11 
REMARK    3  A    between atoms: C11_11  and  N12_12 
ROOT
HETATM    1  C5  UNL     1     -33.428  14.150  -3.843  1.00 20.00     0.039 C 
HETATM    2  C6  UNL     1     -35.924  13.804  -4.080  1.00 20.00     0.039 C 
HETATM    3  C7  UNL     1     -33.687  15.548  -3.294  1.00 20.00     0.235 C 
HETATM    4  C8  UNL     1     -36.157  15.205  -3.528  1.00 20.00     0.235 C 
HETATM    5  C9  UNL     1     -34.556  13.650  -4.746  1.00 20.00     0.050 C 
HETATM    6  N12 UNL     1     -35.027  15.576  -2.599  1.00 20.00    -0.071 N 
HETATM    7  H33 UNL     1     -34.999  14.868  -1.852  1.00 20.00     0.279 HD
ENDROOT
BRANCH   6   8
HETATM    8  C11 UNL     1     -35.274  16.895  -1.923  1.00 20.00     0.239 C 
BRANCH   8   9
HETATM    9  C10 UNL     1     -34.461  16.964  -0.647  1.00 20.00     0.011 C 
HETATM   10  C3  UNL     1     -35.166  17.572   0.593  1.00 20.00     0.006 C 
HETATM   11  C2  UNL     1     -33.807  18.201   0.965  1.00 20.00     0.001 C 
HETATM   12  C4  UNL     1     -33.443  18.128  -0.533  1.00 20.00     0.006 C 
ENDBRANCH   8   9
ENDBRANCH   6   8
BRANCH   5  13
HETATM   13  C1  UNL     1     -34.527  14.350  -6.076  1.00 20.00     0.235 C 
HETATM   14  O13 UNL     1     -35.367  14.171  -6.952  1.00 20.00    -0.306 OA
ENDBRANCH   5  13
TORSDOF 3
ENDMDL
MODEL 2
REMARK VINA RESULT:      -4.8      1.227      1.756
REMARK  3 active torsions:
REMARK  status: ('A' for Active; 'I' for Inactive)
REMARK    1  A    between atoms: C1_1  and  C9_9 
REMARK    2  A    between atoms: C10_10  and  C11_11 
REMARK    3  A    between atoms: C11_11  and  N12_12 
ROOT
HETATM    1  C5  UNL     1     -34.778  16.133  -5.461  1.00 20.00     0.039 C 
HETATM    2  C6  UNL     1     -33.351  14.865  -3.801  1.00 20.00     0.039 C 
HETATM    3  C7  UNL     1     -35.641  16.641  -4.312  1.00 20.00     0.235 C 
HETATM    4  C8  UNL     1     -34.228  15.386  -2.669  1.00 20.00     0.235 C 
HETATM    5  C9  UNL     1     -34.084  14.809  -5.141  1.00 20.00     0.050 C 
HETATM    6  N12 UNL     1     -34.808  16.725  -3.056  1.00 20.00    -0.071 N 
HETATM    7  H33 UNL     1     -34.019  17.355  -3.253  1.00 20.00     0.279 HD
ENDROOT
BRANCH   6   8
HETATM    8  C11 UNL     1     -35.575  17.346  -1.922  1.00 20.00     0.239 C 
BRANCH   8   9
HETATM    9  C10 UNL     1     -34.779  17.202  -0.642  1.00 20.00     0.011 C 
HETATM   10  C3  UNL     1     -35.431  17.763   0.648  1.00 20.00     0.006 C 
HETATM   11  C2  UNL     1     -34.017  18.199   1.085  1.00 20.00     0.001 C 
HETATM   12  C4  UNL     1     -33.641  18.230  -0.412  1.00 20.00     0.006 C 
ENDBRANCH   8   9
ENDBRANCH   6   8
BRANCH   5  13
HETATM   13  C1  UNL     1     -35.066  13.671  -5.166  1.00 20.00     0.235 C 
HETATM   14  O13 UNL     1     -34.807  12.545  -4.755  1.00 20.00    -0.306 OA
ENDBRANCH   5  13
TORSDOF 3
ENDMDL
MODEL 3
REMARK VINA RESULT:      -4.8      1.506      2.282
REMARK  3 active torsions:
REMARK  status: ('A' for Active; 'I' for Inactive)
REMARK    1  A    between atoms: C1_1  and  C9_9 
REMARK    2  A    between atoms: C10_10  and  C11_11 
REMARK    3  A    between atoms: C11_11  and  N12_12 
ROOT
HETATM    1  C5  UNL     1     -36.292  15.090  -5.200  1.00 20.00     0.039 C 
HETATM    2  C6  UNL     1     -33.965  15.762  -5.935  1.00 20.00     0.039 C 
HETATM    3  C7  UNL     1     -36.140  15.964  -3.962  1.00 20.00     0.235 C 
HETATM    4  C8  UNL     1     -33.837  16.630  -4.689  1.00 20.00     0.235 C 
HETATM    5  C9  UNL     1     -34.950  14.607  -5.754  1.00 20.00     0.050 C 
HETATM    6  N12 UNL     1     -35.204  17.109  -4.266  1.00 20.00    -0.071 N 
HETATM    7  H33 UNL     1     -35.605  17.630  -5.058  1.00 20.00     0.279 HD
ENDROOT
BRANCH   6   8
HETATM    8  C11 UNL     1     -35.122  18.078  -3.120  1.00 20.00     0.239 C 
BRANCH   8   9
HETATM    9  C10 UNL     1     -35.341  17.333  -1.819  1.00 20.00     0.011 C 
HETATM   10  C3  UNL     1     -35.824  18.175  -0.610  1.00 20.00     0.006 C 
HETATM   11  C2  UNL     1     -34.932  17.280   0.276  1.00 20.00     0.001 C 
HETATM   12  C4  UNL     1     -34.076  17.012  -0.981  1.00 20.00     0.006 C 
ENDBRANCH   8   9
ENDBRANCH   6   8
BRANCH   5  13
HETATM   13  C1  UNL     1     -34.364  13.537  -4.876  1.00 20.00     0.235 C 
HETATM   14  O13 UNL     1     -35.022  12.618  -4.399  1.00 20.00    -0.306 OA
ENDBRANCH   5  13
TORSDOF 3
ENDMDL
MODEL 4
REMARK VINA RESULT:      -4.6     11.171     11.950
REMARK  3 active torsions:
REMARK  status: ('A' for Active; 'I' for Inactive)
REMARK    1  A    between atoms: C1_1  and  C9_9 
REMARK    2  A    between atoms: C10_10  and  C11_11 
REMARK    3  A    between atoms: C11_11  and  N12_12 
ROOT
HETATM    1  C5  UNL     1     -34.088   6.482   5.823  1.00 20.00     0.039 C 
HETATM    2  C6  UNL     1     -35.494   5.533   3.945  1.00 20.00     0.039 C 
HETATM    3  C7  UNL     1     -32.868   6.447   4.910  1.00 20.00     0.235 C 
HETATM    4  C8  UNL     1     -34.260   5.507   3.052  1.00 20.00     0.235 C 
HETATM    5  C9  UNL     1     -35.151   5.453   5.433  1.00 20.00     0.050 C 
HETATM    6  N12 UNL     1     -33.309   6.600   3.475  1.00 20.00    -0.071 N 
HETATM    7  H33 UNL     1     -33.817   7.493   3.404  1.00 20.00     0.279 HD
ENDROOT
BRANCH   6   8
HETATM    8  C11 UNL     1     -32.135   6.705   2.542  1.00 20.00     0.239 C 
BRANCH   8   9
HETATM    9  C10 UNL     1     -31.847   8.166   2.263  1.00 20.00     0.011 C 
HETATM   10  C3  UNL     1     -33.065   9.127   2.270  1.00 20.00     0.006 C 
HETATM   11  C2  UNL     1     -32.382   9.882   1.110  1.00 20.00     0.001 C 
HETATM   12  C4  UNL     1     -31.650   8.564   0.778  1.00 20.00     0.006 C 
ENDBRANCH   8   9
ENDBRANCH   6   8
BRANCH   5  13
HETATM   13  C1  UNL     1     -34.714   4.065   5.807  1.00 20.00     0.235 C 
HETATM   14  O13 UNL     1     -34.880   3.086   5.086  1.00 20.00    -0.306 OA
ENDBRANCH   5  13
TORSDOF 3
ENDMDL
MODEL 5
REMARK VINA RESULT:      -4.5      2.096      3.255
REMARK  3 active torsions:
REMARK  status: ('A' for Active; 'I' for Inactive)
REMARK    1  A    between atoms: C1_1  and  C9_9 
REMARK    2  A    between atoms: C10_10  and  C11_11 
REMARK    3  A    between atoms: C11_11  and  N12_12 
ROOT
HETATM    1  C5  UNL     1     -34.471  17.075  -7.300  1.00 20.00     0.039 C 
HETATM    2  C6  UNL     1     -34.781  14.565  -7.219  1.00 20.00     0.039 C 
HETATM    3  C7  UNL     1     -34.120  17.066  -5.817  1.00 20.00     0.235 C 
HETATM    4  C8  UNL     1     -34.426  14.582  -5.738  1.00 20.00     0.235 C 
HETATM    5  C9  UNL     1     -35.356  15.896  -7.707  1.00 20.00     0.050 C 
HETATM    6  N12 UNL     1     -33.499  15.739  -5.455  1.00 20.00    -0.071 N 
HETATM    7  H33 UNL     1     -32.668  15.618  -6.048  1.00 20.00     0.279 HD
ENDROOT
BRANCH   6   8
HETATM    8  C11 UNL     1     -33.012  15.724  -4.033  1.00 20.00     0.239 C 
BRANCH   8   9
HETATM    9  C10 UNL     1     -34.022  16.429  -3.151  1.00 20.00     0.011 C 
HETATM   10  C3  UNL     1     -33.477  17.070  -1.848  1.00 20.00     0.006 C 
HETATM   11  C2  UNL     1     -34.796  16.639  -1.172  1.00 20.00     0.001 C 
HETATM   12  C4  UNL     1     -34.897  15.529  -2.240  1.00 20.00     0.006 C 
ENDBRANCH   8   9
ENDBRANCH   6   8
BRANCH   5  13
HETATM   13  C1  UNL     1     -36.762  16.085  -7.210  1.00 20.00     0.235 C 
HETATM   14  O13 UNL     1     -37.643  15.241  -7.338  1.00 20.00    -0.306 OA
ENDBRANCH   5  13
TORSDOF 3
ENDMDL
MODEL 6
REMARK VINA RESULT:      -4.4      2.627      5.634
REMARK  3 active torsions:
REMARK  status: ('A' for Active; 'I' for Inactive)
REMARK    1  A    between atoms: C1_1  and  C9_9 
REMARK    2  A    between atoms: C10_10  and  C11_11 
REMARK    3  A    between atoms: C11_11  and  N12_12 
ROOT
HETATM    1  C5  UNL     1     -34.733  16.992  -0.131  1.00 20.00     0.039 C 
HETATM    2  C6  UNL     1     -33.651  19.073  -1.079  1.00 20.00     0.039 C 
HETATM    3  C7  UNL     1     -34.764  16.386  -1.529  1.00 20.00     0.235 C 
HETATM    4  C8  UNL     1     -33.693  18.447  -2.467  1.00 20.00     0.235 C 
HETATM    5  C9  UNL     1     -34.729  18.521  -0.146  1.00 20.00     0.050 C 
HETATM    6  N12 UNL     1     -33.623  16.944  -2.345  1.00 20.00    -0.071 N 
HETATM    7  H33 UNL     1     -32.752  16.718  -1.847  1.00 20.00     0.279 HD
ENDROOT
BRANCH   6   8
HETATM    8  C11 UNL     1     -33.528  16.281  -3.690  1.00 20.00     0.239 C 
BRANCH   8   9
HETATM    9  C10 UNL     1     -34.349  15.009  -3.680  1.00 20.00     0.011 C 
HETATM   10  C3  UNL     1     -33.572  13.680  -3.868  1.00 20.00     0.006 C 
HETATM   11  C2  UNL     1     -34.778  13.176  -4.688  1.00 20.00     0.001 C 
HETATM   12  C4  UNL     1     -35.099  14.655  -4.990  1.00 20.00     0.006 C 
ENDBRANCH   8   9
ENDBRANCH   6   8
BRANCH   5  13
HETATM   13  C1  UNL     1     -36.084  19.055  -0.519  1.00 20.00     0.235 C 
HETATM   14  O13 UNL     1     -37.134  18.610  -0.068  1.00 20.00    -0.306 OA
ENDBRANCH   5  13
TORSDOF 3
ENDMDL
MODEL 7
REMARK VINA RESULT:      -4.4      2.905      4.463
REMARK  3 active torsions:
REMARK  status: ('A' for Active; 'I' for Inactive)
REMARK    1  A    between atoms: C1_1  and  C9_9 
REMARK    2  A    between atoms: C10_10  and  C11_11 
REMARK    3  A    between atoms: C11_11  and  N12_12 
ROOT
HETATM    1  C5  UNL     1     -32.920  14.743  -3.678  1.00 20.00     0.039 C 
HETATM    2  C6  UNL     1     -35.034  15.455  -2.483  1.00 20.00     0.039 C 
HETATM    3  C7  UNL     1     -33.012  15.987  -4.553  1.00 20.00     0.235 C 
HETATM    4  C8  UNL     1     -35.104  16.691  -3.369  1.00 20.00     0.235 C 
HETATM    5  C9  UNL     1     -34.280  14.297  -3.137  1.00 20.00     0.050 C 
HETATM    6  N12 UNL     1     -33.710  17.088  -3.792  1.00 20.00    -0.071 N 
HETATM    7  H33 UNL     1     -33.167  17.259  -2.935  1.00 20.00     0.279 HD
ENDROOT
BRANCH   6   8
HETATM    8  C11 UNL     1     -33.710  18.380  -4.560  1.00 20.00     0.239 C 
BRANCH   8   9
HETATM    9  C10 UNL     1     -33.830  18.082  -6.040  1.00 20.00     0.011 C 
HETATM   10  C3  UNL     1     -33.455  19.231  -7.012  1.00 20.00     0.006 C 
HETATM   11  C2  UNL     1     -34.606  18.742  -7.916  1.00 20.00     0.001 C 
HETATM   12  C4  UNL     1     -35.255  18.148  -6.648  1.00 20.00     0.006 C 
ENDBRANCH   8   9
ENDBRANCH   6   8
BRANCH   5  13
HETATM   13  C1  UNL     1     -35.106  13.666  -4.223  1.00 20.00     0.235 C 
HETATM   14  O13 UNL     1     -34.813  12.606  -4.766  1.00 20.00    -0.306 OA
ENDBRANCH   5  13
TORSDOF 3
ENDMDL
MODEL 8
REMARK VINA RESULT:      -4.4      1.576      1.883
REMARK  3 active torsions:
REMARK  status: ('A' for Active; 'I' for Inactive)
REMARK    1  A    between atoms: C1_1  and  C9_9 
REMARK    2  A    between atoms: C10_10  and  C11_11 
REMARK    3  A    between atoms: C11_11  and  N12_12 
ROOT
HETATM    1  C5  UNL     1     -33.387  16.283  -5.138  1.00 20.00     0.039 C 
HETATM    2  C6  UNL     1     -34.213  14.739  -3.310  1.00 20.00     0.039 C 
HETATM    3  C7  UNL     1     -33.744  17.482  -4.269  1.00 20.00     0.235 C 
HETATM    4  C8  UNL     1     -34.561  15.954  -2.460  1.00 20.00     0.235 C 
HETATM    5  C9  UNL     1     -34.220  15.043  -4.809  1.00 20.00     0.050 C 
HETATM    6  N12 UNL     1     -33.641  17.098  -2.813  1.00 20.00    -0.071 N 
HETATM    7  H33 UNL     1     -32.677  16.777  -2.648  1.00 20.00     0.279 HD
ENDROOT
BRANCH   6   8
HETATM    8  C11 UNL     1     -33.854  18.281  -1.910  1.00 20.00     0.239 C 
BRANCH   8   9
HETATM    9  C10 UNL     1     -33.276  17.977  -0.544  1.00 20.00     0.011 C 
HETATM   10  C3  UNL     1     -34.175  18.302   0.678  1.00 20.00     0.006 C 
HETATM   11  C2  UNL     1     -32.890  18.730   1.417  1.00 20.00     0.001 C 
HETATM   12  C4  UNL     1     -32.271  19.008   0.031  1.00 20.00     0.006 C 
ENDBRANCH   8   9
ENDBRANCH   6   8
BRANCH   5  13
HETATM   13  C1  UNL     1     -35.626  15.192  -5.317  1.00 20.00     0.235 C 
HETATM   14  O13 UNL     1     -36.579  14.570  -4.861  1.00 20.00    -0.306 OA
ENDBRANCH   5  13
TORSDOF 3
ENDMDL
MODEL 9
REMARK VINA RESULT:      -4.3     11.931     14.495
REMARK  3 active torsions:
REMARK  status: ('A' for Active; 'I' for Inactive)
REMARK    1  A    between atoms: C1_1  and  C9_9 
REMARK    2  A    between atoms: C10_10  and  C11_11 
REMARK    3  A    between atoms: C11_11  and  N12_12 
ROOT
HETATM    1  C5  UNL     1     -41.064   5.803  -0.963  1.00 20.00     0.039 C 
HETATM    2  C6  UNL     1     -42.109   7.153  -2.831  1.00 20.00     0.039 C 
HETATM    3  C7  UNL     1     -41.963   4.628  -1.326  1.00 20.00     0.235 C 
HETATM    4  C8  UNL     1     -42.997   5.964  -3.175  1.00 20.00     0.235 C 
HETATM    5  C9  UNL     1     -41.657   7.152  -1.370  1.00 20.00     0.050 C 
HETATM    6  N12 UNL     1     -42.294   4.683  -2.798  1.00 20.00    -0.071 N 
HETATM    7  H33 UNL     1     -41.404   4.659  -3.313  1.00 20.00     0.279 HD
ENDROOT
BRANCH   6   8
HETATM    8  C11 UNL     1     -43.071   3.473  -3.237  1.00 20.00     0.239 C 
BRANCH   8   9
HETATM    9  C10 UNL     1     -42.229   2.233  -3.020  1.00 20.00     0.011 C 
HETATM   10  C3  UNL     1     -41.244   1.855  -4.157  1.00 20.00     0.006 C 
HETATM   11  C2  UNL     1     -41.571   0.378  -3.849  1.00 20.00     0.001 C 
HETATM   12  C4  UNL     1     -42.920   0.870  -3.282  1.00 20.00     0.006 C 
ENDBRANCH   8   9
ENDBRANCH   6   8
BRANCH   5  13
HETATM   13  C1  UNL     1     -42.791   7.534  -0.460  1.00 20.00     0.235 C 
HETATM   14  O13 UNL     1     -43.403   8.593  -0.551  1.00 20.00    -0.306 OA
ENDBRANCH   5  13
TORSDOF 3
ENDMDL
