MODEL 1
REMARK VINA RESULT:      -4.2      0.000      0.000
REMARK  2 active torsions:
REMARK  status: ('A' for Active; 'I' for Inactive)
REMARK    1  A    between atoms: C2_2  and  C8_8 
REMARK    2  A    between atoms: C3_3  and  C5_5 
ROOT
HETATM    1  C1  UNL     1     -34.775  13.614  -5.496  1.00 20.00     0.080 A 
HETATM    2  C2  UNL     1     -34.523  14.859  -6.032  1.00 20.00     0.055 A 
HETATM    3  C3  UNL     1     -34.104  15.315  -3.928  1.00 20.00     0.080 A 
HETATM    4  N9  UNL     1     -34.139  15.836  -5.135  1.00 20.00    -0.248 NA
HETATM    5  S10 UNL     1     -34.522  13.655  -3.800  1.00 20.00    -0.084 SA
ENDROOT
BRANCH   3   6
HETATM    6  C5  UNL     1     -33.717  16.133  -2.718  1.00 20.00     0.049 A 
HETATM    7  C4  UNL     1     -33.870  17.639  -2.735  1.00 20.00     0.016 A 
HETATM    8  C6  UNL     1     -34.788  16.810  -1.888  1.00 20.00    -0.007 A 
HETATM    9  C7  UNL     1     -34.673  16.842  -0.404  1.00 20.00     0.011 C 
ENDBRANCH   3   6
BRANCH   2  10
HETATM   10  C8  UNL     1     -34.631  15.220  -7.459  1.00 20.00     0.174 C 
HETATM   11 CL11 UNL     1     -34.545  16.988  -7.683  1.00 20.00    -0.124 Cl
ENDBRANCH   2  10
TORSDOF 2
ENDMDL
MODEL 2
REMARK VINA RESULT:      -4.1      2.437      2.836
REMARK  2 active torsions:
REMARK  status: ('A' for Active; 'I' for Inactive)
REMARK    1  A    between atoms: C2_2  and  C8_8 
REMARK    2  A    between atoms: C3_3  and  C5_5 
ROOT
HETATM    1  C1  UNL     1     -33.817  16.746  -5.640  1.00 20.00     0.080 A 
HETATM    2  C2  UNL     1     -34.310  15.649  -4.964  1.00 20.00     0.055 A 
HETATM    3  C3  UNL     1     -34.355  17.099  -3.319  1.00 20.00     0.080 A 
HETATM    4  N9  UNL     1     -34.618  15.850  -3.633  1.00 20.00    -0.248 NA
HETATM    5  S10 UNL     1     -33.733  18.088  -4.577  1.00 20.00    -0.084 SA
ENDROOT
BRANCH   3   6
HETATM    6  C5  UNL     1     -34.586  17.636  -1.925  1.00 20.00     0.049 A 
HETATM    7  C4  UNL     1     -34.672  16.689  -0.748  1.00 20.00     0.016 A 
HETATM    8  C6  UNL     1     -33.474  17.578  -0.899  1.00 20.00    -0.007 A 
HETATM    9  C7  UNL     1     -33.263  18.717   0.038  1.00 20.00     0.011 C 
ENDBRANCH   3   6
BRANCH   2  10
HETATM   10  C8  UNL     1     -34.528  14.308  -5.541  1.00 20.00     0.174 C 
HETATM   11 CL11 UNL     1     -35.134  13.170  -4.309  1.00 20.00    -0.124 Cl
ENDBRANCH   2  10
TORSDOF 2
ENDMDL
MODEL 3
REMARK VINA RESULT:      -4.0      2.803      5.108
REMARK  2 active torsions:
REMARK  status: ('A' for Active; 'I' for Inactive)
REMARK    1  A    between atoms: C2_2  and  C8_8 
REMARK    2  A    between atoms: C3_3  and  C5_5 
ROOT
HETATM    1  C1  UNL     1     -33.911  17.871  -2.941  1.00 20.00     0.080 A 
HETATM    2  C2  UNL     1     -34.306  16.718  -2.296  1.00 20.00     0.055 A 
HETATM    3  C3  UNL     1     -34.132  15.915  -4.329  1.00 20.00     0.080 A 
HETATM    4  N9  UNL     1     -34.434  15.595  -3.090  1.00 20.00    -0.248 NA
HETATM    5  S10 UNL     1     -33.686  17.548  -4.610  1.00 20.00    -0.084 SA
ENDROOT
BRANCH   3   6
HETATM    6  C5  UNL     1     -34.176  14.899  -5.447  1.00 20.00     0.049 A 
HETATM    7  C4  UNL     1     -34.926  13.597  -5.265  1.00 20.00     0.016 A 
HETATM    8  C6  UNL     1     -35.472  14.645  -6.188  1.00 20.00    -0.007 A 
HETATM    9  C7  UNL     1     -35.459  14.426  -7.661  1.00 20.00     0.011 C 
ENDBRANCH   3   6
BRANCH   2  10
HETATM   10  C8  UNL     1     -34.597  16.594  -0.854  1.00 20.00     0.174 C 
HETATM   11 CL11 UNL     1     -33.855  17.928   0.069  1.00 20.00    -0.124 Cl
ENDBRANCH   2  10
TORSDOF 2
ENDMDL
MODEL 4
REMARK VINA RESULT:      -4.0      1.749      1.855
REMARK  2 active torsions:
REMARK  status: ('A' for Active; 'I' for Inactive)
REMARK    1  A    between atoms: C2_2  and  C8_8 
REMARK    2  A    between atoms: C3_3  and  C5_5 
ROOT
HETATM    1  C1  UNL     1     -36.185  15.665  -4.903  1.00 20.00     0.080 A 
HETATM    2  C2  UNL     1     -34.885  16.095  -5.069  1.00 20.00     0.055 A 
HETATM    3  C3  UNL     1     -34.970  16.142  -2.878  1.00 20.00     0.080 A 
HETATM    4  N9  UNL     1     -34.188  16.370  -3.909  1.00 20.00    -0.248 NA
HETATM    5  S10 UNL     1     -36.559  15.596  -3.231  1.00 20.00    -0.084 SA
ENDROOT
BRANCH   3   6
HETATM    6  C5  UNL     1     -34.498  16.350  -1.457  1.00 20.00     0.049 A 
HETATM    7  C4  UNL     1     -33.520  17.459  -1.134  1.00 20.00     0.016 A 
HETATM    8  C6  UNL     1     -34.945  17.572  -0.683  1.00 20.00    -0.007 A 
HETATM    9  C7  UNL     1     -35.286  17.456   0.762  1.00 20.00     0.011 C 
ENDBRANCH   3   6
BRANCH   2  10
HETATM   10  C8  UNL     1     -34.198  16.281  -6.362  1.00 20.00     0.174 C 
HETATM   11 CL11 UNL     1     -34.464  14.885  -7.438  1.00 20.00    -0.124 Cl
ENDBRANCH   2  10
TORSDOF 2
ENDMDL
MODEL 5
REMARK VINA RESULT:      -4.0      2.417      2.754
REMARK  2 active torsions:
REMARK  status: ('A' for Active; 'I' for Inactive)
REMARK    1  A    between atoms: C2_2  and  C8_8 
REMARK    2  A    between atoms: C3_3  and  C5_5 
ROOT
HETATM    1  C1  UNL     1     -34.089  16.897  -5.225  1.00 20.00     0.080 A 
HETATM    2  C2  UNL     1     -34.245  15.642  -4.675  1.00 20.00     0.055 A 
HETATM    3  C3  UNL     1     -33.889  16.770  -2.828  1.00 20.00     0.080 A 
HETATM    4  N9  UNL     1     -34.131  15.567  -3.301  1.00 20.00    -0.248 NA
HETATM    5  S10 UNL     1     -33.787  18.038  -3.981  1.00 20.00    -0.084 SA
ENDROOT
BRANCH   3   6
HETATM    6  C5  UNL     1     -33.711  17.024  -1.349  1.00 20.00     0.049 A 
HETATM    7  C4  UNL     1     -33.405  18.419  -0.846  1.00 20.00     0.016 A 
HETATM    8  C6  UNL     1     -34.753  17.816  -0.587  1.00 20.00    -0.007 A 
HETATM    9  C7  UNL     1     -35.138  17.407   0.793  1.00 20.00     0.011 C 
ENDBRANCH   3   6
BRANCH   2  10
HETATM   10  C8  UNL     1     -34.519  14.401  -5.425  1.00 20.00     0.174 C 
HETATM   11 CL11 UNL     1     -35.136  13.121  -4.346  1.00 20.00    -0.124 Cl
ENDBRANCH   2  10
TORSDOF 2
ENDMDL
MODEL 6
REMARK VINA RESULT:      -3.9      3.257      5.202
REMARK  2 active torsions:
REMARK  status: ('A' for Active; 'I' for Inactive)
REMARK    1  A    between atoms: C2_2  and  C8_8 
REMARK    2  A    between atoms: C3_3  and  C5_5 
ROOT
HETATM    1  C1  UNL     1     -35.696  17.978  -1.292  1.00 20.00     0.080 A 
HETATM    2  C2  UNL     1     -34.417  17.667  -0.882  1.00 20.00     0.055 A 
HETATM    3  C3  UNL     1     -34.474  16.468  -2.718  1.00 20.00     0.080 A 
HETATM    4  N9  UNL     1     -33.715  16.802  -1.697  1.00 20.00    -0.248 NA
HETATM    5  S10 UNL     1     -36.044  17.160  -2.759  1.00 20.00    -0.084 SA
ENDROOT
BRANCH   3   6
HETATM    6  C5  UNL     1     -33.991  15.527  -3.797  1.00 20.00     0.049 A 
HETATM    7  C4  UNL     1     -32.801  14.626  -3.546  1.00 20.00     0.016 A 
HETATM    8  C6  UNL     1     -34.175  14.033  -3.634  1.00 20.00    -0.007 A 
HETATM    9  C7  UNL     1     -34.556  13.196  -4.806  1.00 20.00     0.011 C 
ENDBRANCH   3   6
BRANCH   2  10
HETATM   10  C8  UNL     1     -33.755  18.177   0.335  1.00 20.00     0.174 C 
HETATM   11 CL11 UNL     1     -32.172  18.902  -0.050  1.00 20.00    -0.124 Cl
ENDBRANCH   2  10
TORSDOF 2
ENDMDL
MODEL 7
REMARK VINA RESULT:      -3.8      2.687      3.260
REMARK  2 active torsions:
REMARK  status: ('A' for Active; 'I' for Inactive)
REMARK    1  A    between atoms: C2_2  and  C8_8 
REMARK    2  A    between atoms: C3_3  and  C5_5 
ROOT
HETATM    1  C1  UNL     1     -35.908  15.545  -3.157  1.00 20.00     0.080 A 
HETATM    2  C2  UNL     1     -34.607  15.090  -3.115  1.00 20.00     0.055 A 
HETATM    3  C3  UNL     1     -34.283  17.093  -2.281  1.00 20.00     0.080 A 
HETATM    4  N9  UNL     1     -33.674  15.976  -2.613  1.00 20.00    -0.248 NA
HETATM    5  S10 UNL     1     -35.979  17.145  -2.546  1.00 20.00    -0.084 SA
ENDROOT
BRANCH   3   6
HETATM    6  C5  UNL     1     -33.533  18.268  -1.698  1.00 20.00     0.049 A 
HETATM    7  C4  UNL     1     -34.247  19.263  -0.809  1.00 20.00     0.016 A 
HETATM    8  C6  UNL     1     -33.246  18.319  -0.212  1.00 20.00    -0.007 A 
HETATM    9  C7  UNL     1     -31.934  18.829   0.277  1.00 20.00     0.011 C 
ENDBRANCH   3   6
BRANCH   2  10
HETATM   10  C8  UNL     1     -34.145  13.758  -3.554  1.00 20.00     0.174 C 
HETATM   11 CL11 UNL     1     -34.891  13.299  -5.107  1.00 20.00    -0.124 Cl
ENDBRANCH   2  10
TORSDOF 2
ENDMDL
MODEL 8
REMARK VINA RESULT:      -3.8     12.557     14.200
REMARK  2 active torsions:
REMARK  status: ('A' for Active; 'I' for Inactive)
REMARK    1  A    between atoms: C2_2  and  C8_8 
REMARK    2  A    between atoms: C3_3  and  C5_5 
ROOT
HETATM    1  C1  UNL     1     -41.132   6.168  -1.319  1.00 20.00     0.080 A 
HETATM    2  C2  UNL     1     -42.142   6.447  -2.215  1.00 20.00     0.055 A 
HETATM    3  C3  UNL     1     -42.185   4.257  -2.340  1.00 20.00     0.080 A 
HETATM    4  N9  UNL     1     -42.747   5.353  -2.802  1.00 20.00    -0.248 NA
HETATM    5  S10 UNL     1     -40.923   4.471  -1.196  1.00 20.00    -0.084 SA
ENDROOT
BRANCH   3   6
HETATM    6  C5  UNL     1     -42.626   2.884  -2.790  1.00 20.00     0.049 A 
HETATM    7  C4  UNL     1     -43.264   2.696  -4.150  1.00 20.00     0.016 A 
HETATM    8  C6  UNL     1     -41.879   2.177  -3.901  1.00 20.00    -0.007 A 
HETATM    9  C7  UNL     1     -41.633   0.710  -3.818  1.00 20.00     0.011 C 
ENDBRANCH   3   6
BRANCH   2  10
HETATM   10  C8  UNL     1     -42.616   7.794  -2.588  1.00 20.00     0.174 C 
HETATM   11 CL11 UNL     1     -42.292   8.137  -4.308  1.00 20.00    -0.124 Cl
ENDBRANCH   2  10
TORSDOF 2
ENDMDL
MODEL 9
REMARK VINA RESULT:      -3.8      4.257      6.199
REMARK  2 active torsions:
REMARK  status: ('A' for Active; 'I' for Inactive)
REMARK    1  A    between atoms: C2_2  and  C8_8 
REMARK    2  A    between atoms: C3_3  and  C5_5 
ROOT
HETATM    1  C1  UNL     1     -34.203  19.001   0.079  1.00 20.00     0.080 A 
HETATM    2  C2  UNL     1     -34.783  17.814   0.475  1.00 20.00     0.055 A 
HETATM    3  C3  UNL     1     -33.953  17.152  -1.444  1.00 20.00     0.080 A 
HETATM    4  N9  UNL     1     -34.641  16.753  -0.397  1.00 20.00    -0.248 NA
HETATM    5  S10 UNL     1     -33.445  18.792  -1.445  1.00 20.00    -0.084 SA
ENDROOT
BRANCH   3   6
HETATM    6  C5  UNL     1     -33.626  16.218  -2.586  1.00 20.00     0.049 A 
HETATM    7  C4  UNL     1     -34.633  15.180  -3.034  1.00 20.00     0.016 A 
HETATM    8  C6  UNL     1     -34.345  16.362  -3.911  1.00 20.00    -0.007 A 
HETATM    9  C7  UNL     1     -33.599  16.184  -5.188  1.00 20.00     0.011 C 
ENDBRANCH   3   6
BRANCH   2  10
HETATM   10  C8  UNL     1     -35.527  17.596   1.731  1.00 20.00     0.174 C 
HETATM   11 CL11 UNL     1     -34.516  17.972   3.151  1.00 20.00    -0.124 Cl
ENDBRANCH   2  10
TORSDOF 2
ENDMDL
