MODEL 1
REMARK VINA RESULT:      -5.4      0.000      0.000
REMARK  4 active torsions:
REMARK  status: ('A' for Active; 'I' for Inactive)
REMARK    1  A    between atoms: C2_2  and  C8_8 
REMARK    2  A    between atoms: C5_5  and  C9_9 
REMARK    3  A    between atoms: C8_8  and  C9_9 
REMARK    4  A    between atoms: C9_9  and  O10_10 
ROOT
HETATM    1  C1  UNL     1     -32.151   8.760   1.591  1.00 20.00    -0.111 C 
HETATM    2  C2  UNL     1     -32.155   7.850   2.376  1.00 20.00    -0.104 C 
HETATM    3  C6  UNL     1     -32.146   9.867   0.636  1.00 20.00     0.112 C 
ENDROOT
BRANCH   2   4
HETATM    4  C8  UNL     1     -32.159   6.736   3.338  1.00 20.00     0.126 C 
BRANCH   4   5
HETATM    5  C9  UNL     1     -33.584   6.282   3.659  1.00 20.00     0.133 C 
BRANCH   5   6
HETATM    6  C5  UNL     1     -33.651   5.603   5.021  1.00 20.00     0.019 A 
HETATM    7  C3  UNL     1     -34.080   6.384   6.236  1.00 20.00     0.012 A 
HETATM    8  C4  UNL     1     -34.987   5.327   5.662  1.00 20.00    -0.012 A 
HETATM    9  C7  UNL     1     -35.212   4.054   6.401  1.00 20.00     0.010 C 
ENDBRANCH   5   6
BRANCH   5  10
HETATM   10  O10 UNL     1     -34.005   5.350   2.665  1.00 20.00    -0.394 OA
HETATM   11  H24 UNL     1     -34.520   4.671   3.126  1.00 20.00     0.210 HD
ENDBRANCH   5  10
ENDBRANCH   4   5
ENDBRANCH   2   4
TORSDOF 4
ENDMDL
MODEL 2
REMARK VINA RESULT:      -5.0     10.839     12.438
REMARK  4 active torsions:
REMARK  status: ('A' for Active; 'I' for Inactive)
REMARK    1  A    between atoms: C2_2  and  C8_8 
REMARK    2  A    between atoms: C5_5  and  C9_9 
REMARK    3  A    between atoms: C8_8  and  C9_9 
REMARK    4  A    between atoms: C9_9  and  O10_10 
ROOT
HETATM    1  C1  UNL     1     -34.435  15.757  -2.319  1.00 20.00    -0.111 C 
HETATM    2  C2  UNL     1     -33.977  14.908  -3.034  1.00 20.00    -0.104 C 
HETATM    3  C6  UNL     1     -34.993  16.789  -1.447  1.00 20.00     0.112 C 
ENDROOT
BRANCH   2   4
HETATM    4  C8  UNL     1     -33.414  13.868  -3.911  1.00 20.00     0.126 C 
BRANCH   4   5
HETATM    5  C9  UNL     1     -34.467  13.327  -4.881  1.00 20.00     0.133 C 
BRANCH   5   6
HETATM    6  C5  UNL     1     -35.119  14.456  -5.670  1.00 20.00     0.019 A 
HETATM    7  C3  UNL     1     -34.291  15.309  -6.595  1.00 20.00     0.012 A 
HETATM    8  C4  UNL     1     -35.289  14.334  -7.162  1.00 20.00    -0.012 A 
HETATM    9  C7  UNL     1     -36.532  14.831  -7.815  1.00 20.00     0.010 C 
ENDBRANCH   5   6
BRANCH   5  10
HETATM   10  O10 UNL     1     -35.478  12.653  -4.133  1.00 20.00    -0.394 OA
HETATM   11  H24 UNL     1     -35.934  13.332  -3.613  1.00 20.00     0.210 HD
ENDBRANCH   5  10
ENDBRANCH   4   5
ENDBRANCH   2   4
TORSDOF 4
ENDMDL
MODEL 3
REMARK VINA RESULT:      -4.7     11.270     12.274
REMARK  4 active torsions:
REMARK  status: ('A' for Active; 'I' for Inactive)
REMARK    1  A    between atoms: C2_2  and  C8_8 
REMARK    2  A    between atoms: C5_5  and  C9_9 
REMARK    3  A    between atoms: C8_8  and  C9_9 
REMARK    4  A    between atoms: C9_9  and  O10_10 
ROOT
HETATM    1  C1  UNL     1     -34.964  14.350  -6.394  1.00 20.00    -0.111 C 
HETATM    2  C2  UNL     1     -34.451  14.189  -5.320  1.00 20.00    -0.104 C 
HETATM    3  C6  UNL     1     -35.591  14.546  -7.700  1.00 20.00     0.112 C 
ENDROOT
BRANCH   2   4
HETATM    4  C8  UNL     1     -33.821  13.994  -4.004  1.00 20.00     0.126 C 
BRANCH   4   5
HETATM    5  C9  UNL     1     -33.000  15.217  -3.592  1.00 20.00     0.133 C 
BRANCH   5   6
HETATM    6  C5  UNL     1     -33.897  16.328  -3.061  1.00 20.00     0.019 A 
HETATM    7  C3  UNL     1     -35.015  16.006  -2.105  1.00 20.00     0.012 A 
HETATM    8  C4  UNL     1     -33.800  16.753  -1.618  1.00 20.00    -0.012 A 
HETATM    9  C7  UNL     1     -33.904  18.193  -1.255  1.00 20.00     0.010 C 
ENDBRANCH   5   6
BRANCH   5  10
HETATM   10  O10 UNL     1     -32.298  15.706  -4.734  1.00 20.00    -0.394 OA
HETATM   11  H24 UNL     1     -31.381  15.842  -4.455  1.00 20.00     0.210 HD
ENDBRANCH   5  10
ENDBRANCH   4   5
ENDBRANCH   2   4
TORSDOF 4
ENDMDL
MODEL 4
REMARK VINA RESULT:      -4.6     10.925     11.737
REMARK  4 active torsions:
REMARK  status: ('A' for Active; 'I' for Inactive)
REMARK    1  A    between atoms: C2_2  and  C8_8 
REMARK    2  A    between atoms: C5_5  and  C9_9 
REMARK    3  A    between atoms: C8_8  and  C9_9 
REMARK    4  A    between atoms: C9_9  and  O10_10 
ROOT
HETATM    1  C1  UNL     1     -35.061  17.467   0.869  1.00 20.00    -0.111 C 
HETATM    2  C2  UNL     1     -34.665  17.151  -0.220  1.00 20.00    -0.104 C 
HETATM    3  C6  UNL     1     -35.545  17.850   2.194  1.00 20.00     0.112 C 
ENDROOT
BRANCH   2   4
HETATM    4  C8  UNL     1     -34.177  16.763  -1.553  1.00 20.00     0.126 C 
BRANCH   4   5
HETATM    5  C9  UNL     1     -35.094  15.724  -2.201  1.00 20.00     0.133 C 
BRANCH   5   6
HETATM    6  C5  UNL     1     -34.524  15.240  -3.529  1.00 20.00     0.019 A 
HETATM    7  C3  UNL     1     -33.104  14.744  -3.608  1.00 20.00     0.012 A 
HETATM    8  C4  UNL     1     -34.248  13.773  -3.743  1.00 20.00    -0.012 A 
HETATM    9  C7  UNL     1     -34.542  13.142  -5.059  1.00 20.00     0.010 C 
ENDBRANCH   5   6
BRANCH   5  10
HETATM   10  O10 UNL     1     -36.367  16.320  -2.443  1.00 20.00    -0.394 OA
HETATM   11  H24 UNL     1     -37.001  15.592  -2.523  1.00 20.00     0.210 HD
ENDBRANCH   5  10
ENDBRANCH   4   5
ENDBRANCH   2   4
TORSDOF 4
ENDMDL
MODEL 5
REMARK VINA RESULT:      -4.4     11.430     13.348
REMARK  4 active torsions:
REMARK  status: ('A' for Active; 'I' for Inactive)
REMARK    1  A    between atoms: C2_2  and  C8_8 
REMARK    2  A    between atoms: C5_5  and  C9_9 
REMARK    3  A    between atoms: C8_8  and  C9_9 
REMARK    4  A    between atoms: C9_9  and  O10_10 
ROOT
HETATM    1  C1  UNL     1     -34.611  16.602  -1.015  1.00 20.00    -0.111 C 
HETATM    2  C2  UNL     1     -34.445  15.955  -2.013  1.00 20.00    -0.104 C 
HETATM    3  C6  UNL     1     -34.815  17.388   0.201  1.00 20.00     0.112 C 
ENDROOT
BRANCH   2   4
HETATM    4  C8  UNL     1     -34.239  15.163  -3.237  1.00 20.00     0.126 C 
BRANCH   4   5
HETATM    5  C9  UNL     1     -33.527  15.980  -4.317  1.00 20.00     0.133 C 
BRANCH   5   6
HETATM    6  C5  UNL     1     -34.243  15.863  -5.656  1.00 20.00     0.019 A 
HETATM    7  C3  UNL     1     -35.724  16.123  -5.749  1.00 20.00     0.012 A 
HETATM    8  C4  UNL     1     -34.750  17.100  -6.353  1.00 20.00    -0.012 A 
HETATM    9  C7  UNL     1     -34.635  17.224  -7.833  1.00 20.00     0.010 C 
ENDBRANCH   5   6
BRANCH   5  10
HETATM   10  O10 UNL     1     -32.198  15.485  -4.467  1.00 20.00    -0.394 OA
HETATM   11  H24 UNL     1     -32.149  14.669  -3.949  1.00 20.00     0.210 HD
ENDBRANCH   5  10
ENDBRANCH   4   5
ENDBRANCH   2   4
TORSDOF 4
ENDMDL
MODEL 6
REMARK VINA RESULT:      -4.4      0.945      1.619
REMARK  4 active torsions:
REMARK  status: ('A' for Active; 'I' for Inactive)
REMARK    1  A    between atoms: C2_2  and  C8_8 
REMARK    2  A    between atoms: C5_5  and  C9_9 
REMARK    3  A    between atoms: C8_8  and  C9_9 
REMARK    4  A    between atoms: C9_9  and  O10_10 
ROOT
HETATM    1  C1  UNL     1     -32.300   8.344   1.978  1.00 20.00    -0.111 C 
HETATM    2  C2  UNL     1     -32.478   7.351   2.631  1.00 20.00    -0.104 C 
HETATM    3  C6  UNL     1     -32.084   9.550   1.182  1.00 20.00     0.112 C 
ENDROOT
BRANCH   2   4
HETATM    4  C8  UNL     1     -32.697   6.136   3.433  1.00 20.00     0.126 C 
BRANCH   4   5
HETATM    5  C9  UNL     1     -34.185   5.912   3.709  1.00 20.00     0.133 C 
BRANCH   5   6
HETATM    6  C5  UNL     1     -34.562   6.390   5.106  1.00 20.00     0.019 A 
HETATM    7  C3  UNL     1     -34.641   5.408   6.246  1.00 20.00     0.012 A 
HETATM    8  C4  UNL     1     -33.525   6.419   6.200  1.00 20.00    -0.012 A 
HETATM    9  C7  UNL     1     -33.497   7.547   7.172  1.00 20.00     0.010 C 
ENDBRANCH   5   6
BRANCH   5  10
HETATM   10  O10 UNL     1     -34.465   4.517   3.615  1.00 20.00    -0.394 OA
HETATM   11  H24 UNL     1     -33.765   4.062   4.106  1.00 20.00     0.210 HD
ENDBRANCH   5  10
ENDBRANCH   4   5
ENDBRANCH   2   4
TORSDOF 4
ENDMDL
MODEL 7
REMARK VINA RESULT:      -4.4     11.421     12.521
REMARK  4 active torsions:
REMARK  status: ('A' for Active; 'I' for Inactive)
REMARK    1  A    between atoms: C2_2  and  C8_8 
REMARK    2  A    between atoms: C5_5  and  C9_9 
REMARK    3  A    between atoms: C8_8  and  C9_9 
REMARK    4  A    between atoms: C9_9  and  O10_10 
ROOT
HETATM    1  C1  UNL     1     -34.763  17.014  -0.233  1.00 20.00    -0.111 C 
HETATM    2  C2  UNL     1     -34.389  16.595  -1.295  1.00 20.00    -0.104 C 
HETATM    3  C6  UNL     1     -35.216  17.524   1.060  1.00 20.00     0.112 C 
ENDROOT
BRANCH   2   4
HETATM    4  C8  UNL     1     -33.932  16.083  -2.597  1.00 20.00     0.126 C 
BRANCH   4   5
HETATM    5  C9  UNL     1     -35.019  15.253  -3.282  1.00 20.00     0.133 C 
BRANCH   5   6
HETATM    6  C5  UNL     1     -35.112  15.585  -4.766  1.00 20.00     0.019 A 
HETATM    7  C3  UNL     1     -33.863  15.872  -5.557  1.00 20.00     0.012 A 
HETATM    8  C4  UNL     1     -34.627  14.595  -5.793  1.00 20.00    -0.012 A 
HETATM    9  C7  UNL     1     -35.385  14.402  -7.060  1.00 20.00     0.010 C 
ENDBRANCH   5   6
BRANCH   5  10
HETATM   10  O10 UNL     1     -36.275  15.545  -2.671  1.00 20.00    -0.394 OA
HETATM   11  H24 UNL     1     -36.238  15.174  -1.777  1.00 20.00     0.210 HD
ENDBRANCH   5  10
ENDBRANCH   4   5
ENDBRANCH   2   4
TORSDOF 4
ENDMDL
MODEL 8
REMARK VINA RESULT:      -4.3     11.345     12.683
REMARK  4 active torsions:
REMARK  status: ('A' for Active; 'I' for Inactive)
REMARK    1  A    between atoms: C2_2  and  C8_8 
REMARK    2  A    between atoms: C5_5  and  C9_9 
REMARK    3  A    between atoms: C8_8  and  C9_9 
REMARK    4  A    between atoms: C9_9  and  O10_10 
ROOT
HETATM    1  C1  UNL     1     -33.665  17.375  -1.139  1.00 20.00    -0.111 C 
HETATM    2  C2  UNL     1     -34.008  16.491  -1.875  1.00 20.00    -0.104 C 
HETATM    3  C6  UNL     1     -33.249  18.453  -0.243  1.00 20.00     0.112 C 
ENDROOT
BRANCH   2   4
HETATM    4  C8  UNL     1     -34.428  15.405  -2.776  1.00 20.00     0.126 C 
BRANCH   4   5
HETATM    5  C9  UNL     1     -33.598  15.395  -4.061  1.00 20.00     0.133 C 
BRANCH   5   6
HETATM    6  C5  UNL     1     -34.330  14.670  -5.183  1.00 20.00     0.019 A 
HETATM    7  C3  UNL     1     -35.814  14.855  -5.362  1.00 20.00     0.012 A 
HETATM    8  C4  UNL     1     -34.856  15.444  -6.365  1.00 20.00    -0.012 A 
HETATM    9  C7  UNL     1     -34.762  14.869  -7.736  1.00 20.00     0.010 C 
ENDBRANCH   5   6
BRANCH   5  10
HETATM   10  O10 UNL     1     -32.368  14.718  -3.809  1.00 20.00    -0.394 OA
HETATM   11  H24 UNL     1     -32.148  14.885  -2.881  1.00 20.00     0.210 HD
ENDBRANCH   5  10
ENDBRANCH   4   5
ENDBRANCH   2   4
TORSDOF 4
ENDMDL
MODEL 9
REMARK VINA RESULT:      -4.3     11.390     12.803
REMARK  4 active torsions:
REMARK  status: ('A' for Active; 'I' for Inactive)
REMARK    1  A    between atoms: C2_2  and  C8_8 
REMARK    2  A    between atoms: C5_5  and  C9_9 
REMARK    3  A    between atoms: C8_8  and  C9_9 
REMARK    4  A    between atoms: C9_9  and  O10_10 
ROOT
HETATM    1  C1  UNL     1     -34.289  16.558  -1.549  1.00 20.00    -0.111 C 
HETATM    2  C2  UNL     1     -33.760  16.163  -2.552  1.00 20.00    -0.104 C 
HETATM    3  C6  UNL     1     -34.935  17.039  -0.328  1.00 20.00     0.112 C 
ENDROOT
BRANCH   2   4
HETATM    4  C8  UNL     1     -33.111  15.678  -3.781  1.00 20.00     0.126 C 
BRANCH   4   5
HETATM    5  C9  UNL     1     -33.945  14.589  -4.458  1.00 20.00     0.133 C 
BRANCH   5   6
HETATM    6  C5  UNL     1     -34.806  15.170  -5.573  1.00 20.00     0.019 A 
HETATM    7  C3  UNL     1     -34.213  16.140  -6.561  1.00 20.00     0.012 A 
HETATM    8  C4  UNL     1     -34.579  14.747  -7.002  1.00 20.00    -0.012 A 
HETATM    9  C7  UNL     1     -35.739  14.531  -7.910  1.00 20.00     0.010 C 
ENDBRANCH   5   6
BRANCH   5  10
HETATM   10  O10 UNL     1     -34.802  13.993  -3.486  1.00 20.00    -0.394 OA
HETATM   11  H24 UNL     1     -35.311  14.716  -3.089  1.00 20.00     0.210 HD
ENDBRANCH   5  10
ENDBRANCH   4   5
ENDBRANCH   2   4
TORSDOF 4
ENDMDL
