MODEL 1
REMARK VINA RESULT:      -5.5      0.000      0.000
REMARK  3 active torsions:
REMARK  status: ('A' for Active; 'I' for Inactive)
REMARK    1  A    between atoms: C3_3  and  C5_5 
REMARK    2  A    between atoms: C3_3  and  C9_9 
REMARK    3  A    between atoms: C8_8  and  C9_9 
ROOT
HETATM    1  C1  UNL     1     -32.084   8.327   1.801  1.00 20.00     0.012 C 
HETATM    2  C2  UNL     1     -32.322   7.485   2.623  1.00 20.00    -0.117 C 
HETATM    3  C8  UNL     1     -32.611   6.455   3.632  1.00 20.00     0.100 C 
ENDROOT
BRANCH   3   4
HETATM    4  C9  UNL     1     -33.562   5.387   3.099  1.00 20.00     0.090 C 
BRANCH   4   5
HETATM    5  C3  UNL     1     -34.972   5.481   3.667  1.00 20.00     0.132 C 
HETATM    6  O10 UNL     1     -35.837   6.214   3.192  1.00 20.00    -0.298 OA
BRANCH   5   7
HETATM    7  C5  UNL     1     -35.267   4.600   4.853  1.00 20.00     0.059 A 
HETATM    8  C4  UNL     1     -34.120   3.960   5.553  1.00 20.00     0.017 A 
HETATM    9  C6  UNL     1     -34.897   5.057   6.221  1.00 20.00    -0.007 A 
HETATM   10  C7  UNL     1     -34.247   6.369   6.502  1.00 20.00     0.011 C 
ENDBRANCH   5   7
ENDBRANCH   4   5
ENDBRANCH   3   4
TORSDOF 3
ENDMDL
MODEL 2
REMARK VINA RESULT:      -5.4      0.913      1.624
REMARK  3 active torsions:
REMARK  status: ('A' for Active; 'I' for Inactive)
REMARK    1  A    between atoms: C3_3  and  C5_5 
REMARK    2  A    between atoms: C3_3  and  C9_9 
REMARK    3  A    between atoms: C8_8  and  C9_9 
ROOT
HETATM    1  C1  UNL     1     -32.137   9.145   1.141  1.00 20.00     0.012 C 
HETATM    2  C2  UNL     1     -32.055   8.308   1.998  1.00 20.00    -0.117 C 
HETATM    3  C8  UNL     1     -31.950   7.284   3.048  1.00 20.00     0.100 C 
ENDROOT
BRANCH   3   4
HETATM    4  C9  UNL     1     -32.894   6.111   2.796  1.00 20.00     0.090 C 
BRANCH   4   5
HETATM    5  C3  UNL     1     -33.963   5.941   3.867  1.00 20.00     0.132 C 
HETATM    6  O10 UNL     1     -35.154   5.784   3.604  1.00 20.00    -0.298 OA
BRANCH   5   7
HETATM    7  C5  UNL     1     -33.478   5.954   5.293  1.00 20.00     0.059 A 
HETATM    8  C4  UNL     1     -34.384   6.510   6.336  1.00 20.00     0.017 A 
HETATM    9  C6  UNL     1     -34.098   5.037   6.290  1.00 20.00    -0.007 A 
HETATM   10  C7  UNL     1     -35.187   4.075   5.957  1.00 20.00     0.011 C 
ENDBRANCH   5   7
ENDBRANCH   4   5
ENDBRANCH   3   4
TORSDOF 3
ENDMDL
MODEL 3
REMARK VINA RESULT:      -5.2      1.570      2.145
REMARK  3 active torsions:
REMARK  status: ('A' for Active; 'I' for Inactive)
REMARK    1  A    between atoms: C3_3  and  C5_5 
REMARK    2  A    between atoms: C3_3  and  C9_9 
REMARK    3  A    between atoms: C8_8  and  C9_9 
ROOT
HETATM    1  C1  UNL     1     -32.267   8.961   1.062  1.00 20.00     0.012 C 
HETATM    2  C2  UNL     1     -31.929   8.372   2.052  1.00 20.00    -0.117 C 
HETATM    3  C8  UNL     1     -31.511   7.652   3.264  1.00 20.00     0.100 C 
ENDROOT
BRANCH   3   4
HETATM    4  C9  UNL     1     -32.334   6.386   3.487  1.00 20.00     0.090 C 
BRANCH   4   5
HETATM    5  C3  UNL     1     -33.390   6.523   4.575  1.00 20.00     0.132 C 
HETATM    6  O10 UNL     1     -33.133   6.909   5.713  1.00 20.00    -0.298 OA
BRANCH   5   7
HETATM    7  C5  UNL     1     -34.801   6.176   4.175  1.00 20.00     0.059 A 
HETATM    8  C4  UNL     1     -35.005   5.026   3.251  1.00 20.00     0.017 A 
HETATM    9  C6  UNL     1     -35.426   4.926   4.689  1.00 20.00    -0.007 A 
HETATM   10  C7  UNL     1     -34.733   3.977   5.606  1.00 20.00     0.011 C 
ENDBRANCH   5   7
ENDBRANCH   4   5
ENDBRANCH   3   4
TORSDOF 3
ENDMDL
MODEL 4
REMARK VINA RESULT:      -5.0     11.402     12.778
REMARK  3 active torsions:
REMARK  status: ('A' for Active; 'I' for Inactive)
REMARK    1  A    between atoms: C3_3  and  C5_5 
REMARK    2  A    between atoms: C3_3  and  C9_9 
REMARK    3  A    between atoms: C8_8  and  C9_9 
ROOT
HETATM    1  C1  UNL     1     -34.769  16.335  -1.503  1.00 20.00     0.012 C 
HETATM    2  C2  UNL     1     -34.063  15.933  -2.387  1.00 20.00    -0.117 C 
HETATM    3  C8  UNL     1     -33.197  15.444  -3.470  1.00 20.00     0.100 C 
ENDROOT
BRANCH   3   4
HETATM    4  C9  UNL     1     -33.354  13.941  -3.690  1.00 20.00     0.090 C 
BRANCH   4   5
HETATM    5  C3  UNL     1     -34.320  13.581  -4.810  1.00 20.00     0.132 C 
HETATM    6  O10 UNL     1     -34.947  12.525  -4.839  1.00 20.00    -0.298 OA
BRANCH   5   7
HETATM    7  C5  UNL     1     -34.491  14.614  -5.893  1.00 20.00     0.059 A 
HETATM    8  C4  UNL     1     -35.485  14.345  -6.968  1.00 20.00     0.017 A 
HETATM    9  C6  UNL     1     -35.743  15.420  -5.952  1.00 20.00    -0.007 A 
HETATM   10  C7  UNL     1     -36.861  15.273  -4.978  1.00 20.00     0.011 C 
ENDBRANCH   5   7
ENDBRANCH   4   5
ENDBRANCH   3   4
TORSDOF 3
ENDMDL
MODEL 5
REMARK VINA RESULT:      -4.9     11.538     12.740
REMARK  3 active torsions:
REMARK  status: ('A' for Active; 'I' for Inactive)
REMARK    1  A    between atoms: C3_3  and  C5_5 
REMARK    2  A    between atoms: C3_3  and  C9_9 
REMARK    3  A    between atoms: C8_8  and  C9_9 
ROOT
HETATM    1  C1  UNL     1     -34.771  17.044  -0.251  1.00 20.00     0.012 C 
HETATM    2  C2  UNL     1     -34.396  16.563  -1.285  1.00 20.00    -0.117 C 
HETATM    3  C8  UNL     1     -33.935  15.977  -2.552  1.00 20.00     0.100 C 
ENDROOT
BRANCH   3   4
HETATM    4  C9  UNL     1     -34.852  14.853  -3.028  1.00 20.00     0.090 C 
BRANCH   4   5
HETATM    5  C3  UNL     1     -34.193  13.897  -4.012  1.00 20.00     0.132 C 
HETATM    6  O10 UNL     1     -33.156  13.287  -3.760  1.00 20.00    -0.298 OA
BRANCH   5   7
HETATM    7  C5  UNL     1     -34.900  13.713  -5.329  1.00 20.00     0.059 A 
HETATM    8  C4  UNL     1     -36.009  14.648  -5.666  1.00 20.00     0.017 A 
HETATM    9  C6  UNL     1     -34.709  14.716  -6.414  1.00 20.00    -0.007 A 
HETATM   10  C7  UNL     1     -33.832  15.915  -6.280  1.00 20.00     0.011 C 
ENDBRANCH   5   7
ENDBRANCH   4   5
ENDBRANCH   3   4
TORSDOF 3
ENDMDL
MODEL 6
REMARK VINA RESULT:      -4.8     11.542     12.468
REMARK  3 active torsions:
REMARK  status: ('A' for Active; 'I' for Inactive)
REMARK    1  A    between atoms: C3_3  and  C5_5 
REMARK    2  A    between atoms: C3_3  and  C9_9 
REMARK    3  A    between atoms: C8_8  and  C9_9 
ROOT
HETATM    1  C1  UNL     1     -34.938  17.329   0.406  1.00 20.00     0.012 C 
HETATM    2  C2  UNL     1     -34.457  17.067  -0.662  1.00 20.00    -0.117 C 
HETATM    3  C8  UNL     1     -33.866  16.748  -1.971  1.00 20.00     0.100 C 
ENDROOT
BRANCH   3   4
HETATM    4  C9  UNL     1     -34.545  15.547  -2.625  1.00 20.00     0.090 C 
BRANCH   4   5
HETATM    5  C3  UNL     1     -33.607  14.699  -3.473  1.00 20.00     0.132 C 
HETATM    6  O10 UNL     1     -32.406  14.934  -3.582  1.00 20.00    -0.298 OA
BRANCH   5   7
HETATM    7  C5  UNL     1     -34.233  13.518  -4.170  1.00 20.00     0.059 A 
HETATM    8  C4  UNL     1     -35.693  13.566  -4.456  1.00 20.00     0.017 A 
HETATM    9  C6  UNL     1     -34.699  13.657  -5.578  1.00 20.00    -0.007 A 
HETATM   10  C7  UNL     1     -34.575  14.917  -6.365  1.00 20.00     0.011 C 
ENDBRANCH   5   7
ENDBRANCH   4   5
ENDBRANCH   3   4
TORSDOF 3
ENDMDL
MODEL 7
REMARK VINA RESULT:      -4.6     11.528     12.833
REMARK  3 active torsions:
REMARK  status: ('A' for Active; 'I' for Inactive)
REMARK    1  A    between atoms: C3_3  and  C5_5 
REMARK    2  A    between atoms: C3_3  and  C9_9 
REMARK    3  A    between atoms: C8_8  and  C9_9 
ROOT
HETATM    1  C1  UNL     1     -34.470  16.589  -1.124  1.00 20.00     0.012 C 
HETATM    2  C2  UNL     1     -34.158  16.915  -2.237  1.00 20.00    -0.117 C 
HETATM    3  C8  UNL     1     -33.777  17.318  -3.599  1.00 20.00     0.100 C 
ENDROOT
BRANCH   3   4
HETATM    4  C9  UNL     1     -33.151  16.166  -4.380  1.00 20.00     0.090 C 
BRANCH   4   5
HETATM    5  C3  UNL     1     -34.106  15.494  -5.356  1.00 20.00     0.132 C 
HETATM    6  O10 UNL     1     -34.597  16.077  -6.321  1.00 20.00    -0.298 OA
BRANCH   5   7
HETATM    7  C5  UNL     1     -34.412  14.043  -5.089  1.00 20.00     0.059 A 
HETATM    8  C4  UNL     1     -34.276  13.543  -3.694  1.00 20.00     0.017 A 
HETATM    9  C6  UNL     1     -35.634  13.677  -4.319  1.00 20.00    -0.007 A 
HETATM   10  C7  UNL     1     -36.604  14.679  -3.791  1.00 20.00     0.011 C 
ENDBRANCH   5   7
ENDBRANCH   4   5
ENDBRANCH   3   4
TORSDOF 3
ENDMDL
MODEL 8
REMARK VINA RESULT:      -4.6     11.707     13.000
REMARK  3 active torsions:
REMARK  status: ('A' for Active; 'I' for Inactive)
REMARK    1  A    between atoms: C3_3  and  C5_5 
REMARK    2  A    between atoms: C3_3  and  C9_9 
REMARK    3  A    between atoms: C8_8  and  C9_9 
ROOT
HETATM    1  C1  UNL     1     -36.094  17.561  -6.114  1.00 20.00     0.012 C 
HETATM    2  C2  UNL     1     -36.082  16.363  -6.201  1.00 20.00    -0.117 C 
HETATM    3  C8  UNL     1     -36.070  14.897  -6.307  1.00 20.00     0.100 C 
ENDROOT
BRANCH   3   4
HETATM    4  C9  UNL     1     -34.672  14.321  -6.099  1.00 20.00     0.090 C 
BRANCH   4   5
HETATM    5  C3  UNL     1     -34.469  13.676  -4.735  1.00 20.00     0.132 C 
HETATM    6  O10 UNL     1     -35.071  12.667  -4.376  1.00 20.00    -0.298 OA
BRANCH   5   7
HETATM    7  C5  UNL     1     -33.458  14.337  -3.834  1.00 20.00     0.059 A 
HETATM    8  C4  UNL     1     -33.141  15.772  -4.071  1.00 20.00     0.017 A 
HETATM    9  C6  UNL     1     -33.907  15.359  -2.848  1.00 20.00    -0.007 A 
HETATM   10  C7  UNL     1     -35.330  15.773  -2.682  1.00 20.00     0.011 C 
ENDBRANCH   5   7
ENDBRANCH   4   5
ENDBRANCH   3   4
TORSDOF 3
ENDMDL
MODEL 9
REMARK VINA RESULT:      -4.6     11.437     12.797
REMARK  3 active torsions:
REMARK  status: ('A' for Active; 'I' for Inactive)
REMARK    1  A    between atoms: C3_3  and  C5_5 
REMARK    2  A    between atoms: C3_3  and  C9_9 
REMARK    3  A    between atoms: C8_8  and  C9_9 
ROOT
HETATM    1  C1  UNL     1     -34.935  17.599   0.632  1.00 20.00     0.012 C 
HETATM    2  C2  UNL     1     -34.801  16.994  -0.397  1.00 20.00    -0.117 C 
HETATM    3  C8  UNL     1     -34.638  16.252  -1.656  1.00 20.00     0.100 C 
ENDROOT
BRANCH   3   4
HETATM    4  C9  UNL     1     -33.807  17.029  -2.673  1.00 20.00     0.090 C 
BRANCH   4   5
HETATM    5  C3  UNL     1     -33.784  16.398  -4.058  1.00 20.00     0.132 C 
HETATM    6  O10 UNL     1     -32.949  16.689  -4.912  1.00 20.00    -0.298 OA
BRANCH   5   7
HETATM    7  C5  UNL     1     -34.843  15.363  -4.331  1.00 20.00     0.059 A 
HETATM    8  C4  UNL     1     -34.682  14.494  -5.529  1.00 20.00     0.017 A 
HETATM    9  C6  UNL     1     -34.526  13.918  -4.151  1.00 20.00    -0.007 A 
HETATM   10  C7  UNL     1     -33.196  13.420  -3.697  1.00 20.00     0.011 C 
ENDBRANCH   5   7
ENDBRANCH   4   5
ENDBRANCH   3   4
TORSDOF 3
ENDMDL
