MODEL 1
REMARK VINA RESULT:      -4.2      0.000      0.000
REMARK  1 active torsions:
REMARK  status: ('A' for Active; 'I' for Inactive)
REMARK    1  A    between atoms: C3_3  and  C4_4 
ROOT
HETATM    1  C1  UNL     1     -33.091   6.331   3.568  1.00 20.00     0.064 C 
HETATM    2  C4  UNL     1     -34.494   6.092   3.929  1.00 20.00     0.175 C 
HETATM    3  N5  UNL     1     -31.983   6.522   3.280  1.00 20.00    -0.197 NA
ENDROOT
BRANCH   2   4
HETATM    4  C3  UNL     1     -34.585   5.335   5.225  1.00 20.00     0.035 C 
HETATM    5  C2  UNL     1     -34.263   5.785   6.443  1.00 20.00     0.105 C 
HETATM    6 CL6  UNL     1     -33.712   7.368   6.799  1.00 20.00    -0.096 Cl
HETATM    7 CL7  UNL     1     -35.119   3.685   5.070  1.00 20.00    -0.087 Cl
ENDBRANCH   2   4
TORSDOF 1
ENDMDL
MODEL 2
REMARK VINA RESULT:      -3.9      1.811      2.161
REMARK  1 active torsions:
REMARK  status: ('A' for Active; 'I' for Inactive)
REMARK    1  A    between atoms: C3_3  and  C4_4 
ROOT
HETATM    1  C1  UNL     1     -32.167   7.701   2.565  1.00 20.00     0.064 C 
HETATM    2  C4  UNL     1     -32.126   6.712   3.650  1.00 20.00     0.175 C 
HETATM    3  N5  UNL     1     -32.195   8.483   1.709  1.00 20.00    -0.197 NA
ENDROOT
BRANCH   2   4
HETATM    4  C3  UNL     1     -33.485   6.107   3.865  1.00 20.00     0.035 C 
HETATM    5  C2  UNL     1     -34.187   6.092   5.003  1.00 20.00     0.105 C 
HETATM    6 CL6  UNL     1     -33.697   6.815   6.477  1.00 20.00    -0.096 Cl
HETATM    7 CL7  UNL     1     -34.155   5.304   2.472  1.00 20.00    -0.087 Cl
ENDBRANCH   2   4
TORSDOF 1
ENDMDL
MODEL 3
REMARK VINA RESULT:      -3.9      0.576      2.374
REMARK  1 active torsions:
REMARK  status: ('A' for Active; 'I' for Inactive)
REMARK    1  A    between atoms: C3_3  and  C4_4 
ROOT
HETATM    1  C1  UNL     1     -32.895   6.532   3.598  1.00 20.00     0.064 C 
HETATM    2  C4  UNL     1     -34.220   6.557   4.231  1.00 20.00     0.175 C 
HETATM    3  N5  UNL     1     -31.850   6.513   3.094  1.00 20.00    -0.197 NA
ENDROOT
BRANCH   2   4
HETATM    4  C3  UNL     1     -34.129   6.108   5.663  1.00 20.00     0.035 C 
HETATM    5  C2  UNL     1     -34.504   4.924   6.159  1.00 20.00     0.105 C 
HETATM    6 CL6  UNL     1     -35.138   3.623   5.242  1.00 20.00    -0.096 Cl
HETATM    7 CL7  UNL     1     -33.516   7.308   6.766  1.00 20.00    -0.087 Cl
ENDBRANCH   2   4
TORSDOF 1
ENDMDL
MODEL 4
REMARK VINA RESULT:      -3.9      2.646      3.277
REMARK  1 active torsions:
REMARK  status: ('A' for Active; 'I' for Inactive)
REMARK    1  A    between atoms: C3_3  and  C4_4 
ROOT
HETATM    1  C1  UNL     1     -34.610   5.199   5.929  1.00 20.00     0.064 C 
HETATM    2  C4  UNL     1     -33.853   6.345   5.411  1.00 20.00     0.175 C 
HETATM    3  N5  UNL     1     -35.208   4.295   6.343  1.00 20.00    -0.197 NA
ENDROOT
BRANCH   2   4
HETATM    4  C3  UNL     1     -33.670   6.228   3.924  1.00 20.00     0.035 C 
HETATM    5  C2  UNL     1     -32.680   6.752   3.192  1.00 20.00     0.105 C 
HETATM    6 CL6  UNL     1     -31.358   7.648   3.813  1.00 20.00    -0.096 Cl
HETATM    7 CL7  UNL     1     -34.931   5.355   3.100  1.00 20.00    -0.087 Cl
ENDBRANCH   2   4
TORSDOF 1
ENDMDL
MODEL 5
REMARK VINA RESULT:      -3.8     12.049     12.969
REMARK  1 active torsions:
REMARK  status: ('A' for Active; 'I' for Inactive)
REMARK    1  A    between atoms: C3_3  and  C4_4 
ROOT
HETATM    1  C1  UNL     1     -34.105  13.570  -4.088  1.00 20.00     0.064 C 
HETATM    2  C4  UNL     1     -33.087  14.515  -3.609  1.00 20.00     0.175 C 
HETATM    3  N5  UNL     1     -34.906  12.821  -4.466  1.00 20.00    -0.197 NA
ENDROOT
BRANCH   2   4
HETATM    4  C3  UNL     1     -33.544  15.932  -3.813  1.00 20.00     0.035 C 
HETATM    5  C2  UNL     1     -34.195  16.702  -2.934  1.00 20.00     0.105 C 
HETATM    6 CL6  UNL     1     -34.614  16.242  -1.338  1.00 20.00    -0.096 Cl
HETATM    7 CL7  UNL     1     -33.218  16.582  -5.396  1.00 20.00    -0.087 Cl
ENDBRANCH   2   4
TORSDOF 1
ENDMDL
MODEL 6
REMARK VINA RESULT:      -3.8      2.677      3.352
REMARK  1 active torsions:
REMARK  status: ('A' for Active; 'I' for Inactive)
REMARK    1  A    between atoms: C3_3  and  C4_4 
ROOT
HETATM    1  C1  UNL     1     -35.014   4.511   4.650  1.00 20.00     0.064 C 
HETATM    2  C4  UNL     1     -34.662   5.708   3.876  1.00 20.00     0.175 C 
HETATM    3  N5  UNL     1     -35.294   3.563   5.259  1.00 20.00    -0.197 NA
ENDROOT
BRANCH   2   4
HETATM    4  C3  UNL     1     -33.627   6.520   4.601  1.00 20.00     0.035 C 
HETATM    5  C2  UNL     1     -32.558   7.122   4.067  1.00 20.00     0.105 C 
HETATM    6 CL6  UNL     1     -32.159   7.133   2.401  1.00 20.00    -0.096 Cl
HETATM    7 CL7  UNL     1     -33.851   6.618   6.326  1.00 20.00    -0.087 Cl
ENDBRANCH   2   4
TORSDOF 1
ENDMDL
MODEL 7
REMARK VINA RESULT:      -3.7      2.608      2.938
REMARK  1 active torsions:
REMARK  status: ('A' for Active; 'I' for Inactive)
REMARK    1  A    between atoms: C3_3  and  C4_4 
ROOT
HETATM    1  C1  UNL     1     -35.015   4.518   4.619  1.00 20.00     0.064 C 
HETATM    2  C4  UNL     1     -34.780   5.650   3.713  1.00 20.00     0.175 C 
HETATM    3  N5  UNL     1     -35.204   3.624   5.333  1.00 20.00    -0.197 NA
ENDROOT
BRANCH   2   4
HETATM    4  C3  UNL     1     -33.491   6.342   4.054  1.00 20.00     0.035 C 
HETATM    5  C2  UNL     1     -33.139   6.845   5.243  1.00 20.00     0.105 C 
HETATM    6 CL6  UNL     1     -34.084   6.764   6.670  1.00 20.00    -0.096 Cl
HETATM    7 CL7  UNL     1     -32.390   6.536   2.719  1.00 20.00    -0.087 Cl
ENDBRANCH   2   4
TORSDOF 1
ENDMDL
MODEL 8
REMARK VINA RESULT:      -3.6     12.274     13.230
REMARK  1 active torsions:
REMARK  status: ('A' for Active; 'I' for Inactive)
REMARK    1  A    between atoms: C3_3  and  C4_4 
ROOT
HETATM    1  C1  UNL     1     -34.168  13.670  -4.017  1.00 20.00     0.064 C 
HETATM    2  C4  UNL     1     -33.203  14.697  -3.606  1.00 20.00     0.175 C 
HETATM    3  N5  UNL     1     -34.928  12.855  -4.342  1.00 20.00    -0.197 NA
ENDROOT
BRANCH   2   4
HETATM    4  C3  UNL     1     -33.909  15.980  -3.268  1.00 20.00     0.035 C 
HETATM    5  C2  UNL     1     -34.046  17.054  -4.054  1.00 20.00     0.105 C 
HETATM    6 CL6  UNL     1     -33.474  17.180  -5.664  1.00 20.00    -0.096 Cl
HETATM    7 CL7  UNL     1     -34.555  16.054  -1.652  1.00 20.00    -0.087 Cl
ENDBRANCH   2   4
TORSDOF 1
ENDMDL
MODEL 9
REMARK VINA RESULT:      -3.5     12.166     12.866
REMARK  1 active torsions:
REMARK  status: ('A' for Active; 'I' for Inactive)
REMARK    1  A    between atoms: C3_3  and  C4_4 
ROOT
HETATM    1  C1  UNL     1     -37.275  14.966  -3.828  1.00 20.00     0.064 C 
HETATM    2  C4  UNL     1     -36.074  15.801  -3.958  1.00 20.00     0.175 C 
HETATM    3  N5  UNL     1     -38.227  14.309  -3.727  1.00 20.00    -0.197 NA
ENDROOT
BRANCH   2   4
HETATM    4  C3  UNL     1     -34.943  15.228  -3.150  1.00 20.00     0.035 C 
HETATM    5  C2  UNL     1     -34.222  14.139  -3.436  1.00 20.00     0.105 C 
HETATM    6 CL6  UNL     1     -34.407  13.170  -4.838  1.00 20.00    -0.096 Cl
HETATM    7 CL7  UNL     1     -34.605  16.074  -1.666  1.00 20.00    -0.087 Cl
ENDBRANCH   2   4
TORSDOF 1
ENDMDL
