MODEL 1
REMARK VINA RESULT:      -5.2      0.000      0.000
REMARK  1 active torsions:
REMARK  status: ('A' for Active; 'I' for Inactive)
REMARK    1  A    between atoms: C3_3  and  C5_5 
ROOT
HETATM    1  C1  UNL     1     -32.184   8.641   1.842  1.00 20.00     0.021 C 
HETATM    2  C2  UNL     1     -32.402   7.641   2.470  1.00 20.00    -0.039 C 
HETATM    3  C3  UNL     1     -32.661   6.438   3.224  1.00 20.00     0.206 C 
HETATM    4  O8  UNL     1     -31.895   5.488   3.138  1.00 20.00    -0.283 OA
ENDROOT
BRANCH   3   5
HETATM    5  C5  UNL     1     -33.863   6.446   4.067  1.00 20.00     0.073 A 
HETATM    6  C4  UNL     1     -35.022   5.552   3.705  1.00 20.00     0.018 A 
HETATM    7  C6  UNL     1     -34.179   5.234   4.909  1.00 20.00    -0.006 A 
HETATM    8  C7  UNL     1     -34.736   5.400   6.279  1.00 20.00     0.011 C 
ENDBRANCH   3   5
TORSDOF 1
ENDMDL
MODEL 2
REMARK VINA RESULT:      -4.9      1.151      1.322
REMARK  1 active torsions:
REMARK  status: ('A' for Active; 'I' for Inactive)
REMARK    1  A    between atoms: C3_3  and  C5_5 
ROOT
HETATM    1  C1  UNL     1     -31.801   7.580   2.900  1.00 20.00     0.021 C 
HETATM    2  C2  UNL     1     -32.687   6.771   2.940  1.00 20.00    -0.039 C 
HETATM    3  C3  UNL     1     -33.751   5.798   2.987  1.00 20.00     0.206 C 
HETATM    4  O8  UNL     1     -33.870   4.980   2.084  1.00 20.00    -0.283 OA
ENDROOT
BRANCH   3   5
HETATM    5  C5  UNL     1     -34.641   5.864   4.153  1.00 20.00     0.073 A 
HETATM    6  C4  UNL     1     -35.312   4.604   4.639  1.00 20.00     0.018 A 
HETATM    7  C6  UNL     1     -34.205   5.221   5.447  1.00 20.00    -0.006 A 
HETATM    8  C7  UNL     1     -34.504   5.880   6.748  1.00 20.00     0.011 C 
ENDBRANCH   3   5
TORSDOF 1
ENDMDL
MODEL 3
REMARK VINA RESULT:      -4.8      1.442      4.067
REMARK  1 active torsions:
REMARK  status: ('A' for Active; 'I' for Inactive)
REMARK    1  A    between atoms: C3_3  and  C5_5 
ROOT
HETATM    1  C1  UNL     1     -34.946   4.394   6.297  1.00 20.00     0.021 C 
HETATM    2  C2  UNL     1     -34.778   5.001   5.275  1.00 20.00    -0.039 C 
HETATM    3  C3  UNL     1     -34.578   5.730   4.046  1.00 20.00     0.206 C 
HETATM    4  O8  UNL     1     -35.441   5.711   3.179  1.00 20.00    -0.283 OA
ENDROOT
BRANCH   3   5
HETATM    5  C5  UNL     1     -33.313   6.465   3.926  1.00 20.00     0.073 A 
HETATM    6  C4  UNL     1     -32.113   5.774   3.329  1.00 20.00     0.018 A 
HETATM    7  C6  UNL     1     -32.816   6.853   2.555  1.00 20.00    -0.006 A 
HETATM    8  C7  UNL     1     -32.159   8.172   2.343  1.00 20.00     0.011 C 
ENDBRANCH   3   5
TORSDOF 1
ENDMDL
MODEL 4
REMARK VINA RESULT:      -4.7      1.716      4.039
REMARK  1 active torsions:
REMARK  status: ('A' for Active; 'I' for Inactive)
REMARK    1  A    between atoms: C3_3  and  C5_5 
ROOT
HETATM    1  C1  UNL     1     -35.270   4.032   5.878  1.00 20.00     0.021 C 
HETATM    2  C2  UNL     1     -34.580   4.999   5.700  1.00 20.00    -0.039 C 
HETATM    3  C3  UNL     1     -33.752   6.161   5.488  1.00 20.00     0.206 C 
HETATM    4  O8  UNL     1     -33.764   7.075   6.302  1.00 20.00    -0.283 OA
ENDROOT
BRANCH   3   5
HETATM    5  C5  UNL     1     -32.930   6.159   4.272  1.00 20.00     0.073 A 
HETATM    6  C4  UNL     1     -33.546   5.723   2.967  1.00 20.00     0.018 A 
HETATM    7  C6  UNL     1     -33.215   7.172   3.190  1.00 20.00    -0.006 A 
HETATM    8  C7  UNL     1     -32.094   7.809   2.446  1.00 20.00     0.011 C 
ENDBRANCH   3   5
TORSDOF 1
ENDMDL
MODEL 5
REMARK VINA RESULT:      -4.6      2.038      3.708
REMARK  1 active torsions:
REMARK  status: ('A' for Active; 'I' for Inactive)
REMARK    1  A    between atoms: C3_3  and  C5_5 
ROOT
HETATM    1  C1  UNL     1     -33.564   7.482   7.128  1.00 20.00     0.021 C 
HETATM    2  C2  UNL     1     -34.003   6.531   6.541  1.00 20.00    -0.039 C 
HETATM    3  C3  UNL     1     -34.532   5.388   5.836  1.00 20.00     0.206 C 
HETATM    4  O8  UNL     1     -35.388   4.690   6.363  1.00 20.00    -0.283 OA
ENDROOT
BRANCH   3   5
HETATM    5  C5  UNL     1     -33.986   5.141   4.496  1.00 20.00     0.073 A 
HETATM    6  C4  UNL     1     -34.809   5.507   3.287  1.00 20.00     0.018 A 
HETATM    7  C6  UNL     1     -33.591   6.316   3.636  1.00 20.00    -0.006 A 
HETATM    8  C7  UNL     1     -32.373   6.242   2.783  1.00 20.00     0.011 C 
ENDBRANCH   3   5
TORSDOF 1
ENDMDL
MODEL 6
REMARK VINA RESULT:      -4.6     11.075     11.854
REMARK  1 active torsions:
REMARK  status: ('A' for Active; 'I' for Inactive)
REMARK    1  A    between atoms: C3_3  and  C5_5 
ROOT
HETATM    1  C1  UNL     1     -34.652  14.821  -6.987  1.00 20.00     0.021 C 
HETATM    2  C2  UNL     1     -34.613  14.348  -5.884  1.00 20.00    -0.039 C 
HETATM    3  C3  UNL     1     -34.567  13.777  -4.560  1.00 20.00     0.206 C 
HETATM    4  O8  UNL     1     -35.056  12.674  -4.354  1.00 20.00    -0.283 OA
ENDROOT
BRANCH   3   5
HETATM    5  C5  UNL     1     -33.916  14.589  -3.524  1.00 20.00     0.073 A 
HETATM    6  C4  UNL     1     -33.375  15.948  -3.887  1.00 20.00     0.018 A 
HETATM    7  C6  UNL     1     -34.604  15.837  -3.029  1.00 20.00    -0.006 A 
HETATM    8  C7  UNL     1     -34.547  16.200  -1.586  1.00 20.00     0.011 C 
ENDBRANCH   3   5
TORSDOF 1
ENDMDL
MODEL 7
REMARK VINA RESULT:      -4.2     11.126     11.861
REMARK  1 active torsions:
REMARK  status: ('A' for Active; 'I' for Inactive)
REMARK    1  A    between atoms: C3_3  and  C5_5 
ROOT
HETATM    1  C1  UNL     1     -34.832  14.439  -6.560  1.00 20.00     0.021 C 
HETATM    2  C2  UNL     1     -35.242  14.396  -5.433  1.00 20.00    -0.039 C 
HETATM    3  C3  UNL     1     -35.736  14.344  -4.077  1.00 20.00     0.206 C 
HETATM    4  O8  UNL     1     -36.884  13.979  -3.861  1.00 20.00    -0.283 OA
ENDROOT
BRANCH   3   5
HETATM    5  C5  UNL     1     -34.793  14.744  -3.026  1.00 20.00     0.073 A 
HETATM    6  C4  UNL     1     -33.653  15.668  -3.372  1.00 20.00     0.018 A 
HETATM    7  C6  UNL     1     -34.798  16.172  -2.539  1.00 20.00    -0.006 A 
HETATM    8  C7  UNL     1     -34.599  16.470  -1.094  1.00 20.00     0.011 C 
ENDBRANCH   3   5
TORSDOF 1
ENDMDL
MODEL 8
REMARK VINA RESULT:      -4.1     11.050     12.453
REMARK  1 active torsions:
REMARK  status: ('A' for Active; 'I' for Inactive)
REMARK    1  A    between atoms: C3_3  and  C5_5 
ROOT
HETATM    1  C1  UNL     1     -34.568  16.208  -1.753  1.00 20.00     0.021 C 
HETATM    2  C2  UNL     1     -34.607  15.387  -2.628  1.00 20.00    -0.039 C 
HETATM    3  C3  UNL     1     -34.653  14.398  -3.679  1.00 20.00     0.206 C 
HETATM    4  O8  UNL     1     -34.200  13.279  -3.482  1.00 20.00    -0.283 OA
ENDROOT
BRANCH   3   5
HETATM    5  C5  UNL     1     -35.260  14.824  -4.945  1.00 20.00     0.073 A 
HETATM    6  C4  UNL     1     -35.124  16.261  -5.381  1.00 20.00     0.018 A 
HETATM    7  C6  UNL     1     -34.365  15.185  -6.105  1.00 20.00    -0.006 A 
HETATM    8  C7  UNL     1     -34.747  14.802  -7.493  1.00 20.00     0.011 C 
ENDBRANCH   3   5
TORSDOF 1
ENDMDL
MODEL 9
REMARK VINA RESULT:      -4.1      1.105      3.953
REMARK  1 active torsions:
REMARK  status: ('A' for Active; 'I' for Inactive)
REMARK    1  A    between atoms: C3_3  and  C5_5 
ROOT
HETATM    1  C1  UNL     1     -35.365   5.328   4.029  1.00 20.00     0.021 C 
HETATM    2  C2  UNL     1     -34.277   5.675   3.657  1.00 20.00    -0.039 C 
HETATM    3  C3  UNL     1     -32.969   6.091   3.210  1.00 20.00     0.206 C 
HETATM    4  O8  UNL     1     -32.146   5.251   2.871  1.00 20.00    -0.283 OA
ENDROOT
BRANCH   3   5
HETATM    5  C5  UNL     1     -32.716   7.537   3.195  1.00 20.00     0.073 A 
HETATM    6  C4  UNL     1     -31.302   8.039   3.338  1.00 20.00     0.018 A 
HETATM    7  C6  UNL     1     -32.003   8.146   2.013  1.00 20.00    -0.006 A 
HETATM    8  C7  UNL     1     -32.421   9.476   1.491  1.00 20.00     0.011 C 
ENDBRANCH   3   5
TORSDOF 1
ENDMDL
