MODEL 1
REMARK VINA RESULT:      -5.0      0.000      0.000
REMARK  2 active torsions:
REMARK  status: ('A' for Active; 'I' for Inactive)
REMARK    1  A    between atoms: C2_2  and  C3_3 
REMARK    2  A    between atoms: C3_3  and  C8_8 
ROOT
HETATM    1  C4  UNL     1     -34.471   5.969   6.382  1.00 20.00     0.027 C 
HETATM    2  C5  UNL     1     -33.331   6.394   5.462  1.00 20.00     0.017 C 
HETATM    3  C6  UNL     1     -35.162   4.724   5.843  1.00 20.00     0.167 C 
HETATM    4  C7  UNL     1     -34.548   5.214   3.608  1.00 20.00     0.180 C 
HETATM    5  C8  UNL     1     -33.816   6.489   4.015  1.00 20.00     0.083 C 
HETATM    6  O10 UNL     1     -35.621   4.938   4.509  1.00 20.00    -0.390 OA
ENDROOT
BRANCH   5   7
HETATM    7  C3  UNL     1     -32.653   6.734   3.107  1.00 20.00     0.154 C 
HETATM    8  O9  UNL     1     -31.938   5.810   2.728  1.00 20.00    -0.293 OA
BRANCH   7   9
HETATM    9  C2  UNL     1     -32.432   8.138   2.667  1.00 20.00     0.040 C 
HETATM   10  C1  UNL     1     -31.918   8.404   1.463  1.00 20.00     0.015 C 
ENDBRANCH   7   9
ENDBRANCH   5   7
TORSDOF 2
ENDMDL
MODEL 2
REMARK VINA RESULT:      -4.4     11.119     12.066
REMARK  2 active torsions:
REMARK  status: ('A' for Active; 'I' for Inactive)
REMARK    1  A    between atoms: C2_2  and  C3_3 
REMARK    2  A    between atoms: C3_3  and  C8_8 
ROOT
HETATM    1  C4  UNL     1     -33.726  13.491  -4.006  1.00 20.00     0.027 C 
HETATM    2  C5  UNL     1     -33.255  14.877  -3.577  1.00 20.00     0.017 C 
HETATM    3  C6  UNL     1     -35.106  13.566  -4.647  1.00 20.00     0.167 C 
HETATM    4  C7  UNL     1     -35.677  15.529  -3.451  1.00 20.00     0.180 C 
HETATM    5  C8  UNL     1     -34.328  15.573  -2.740  1.00 20.00     0.083 C 
HETATM    6  O10 UNL     1     -36.041  14.184  -3.763  1.00 20.00    -0.390 OA
ENDROOT
BRANCH   5   7
HETATM    7  C3  UNL     1     -33.924  16.990  -2.477  1.00 20.00     0.154 C 
HETATM    8  O9  UNL     1     -33.724  17.775  -3.400  1.00 20.00    -0.293 OA
BRANCH   7   9
HETATM    9  C2  UNL     1     -33.810  17.398  -1.052  1.00 20.00     0.040 C 
HETATM   10  C1  UNL     1     -34.751  17.058  -0.166  1.00 20.00     0.015 C 
ENDBRANCH   7   9
ENDBRANCH   5   7
TORSDOF 2
ENDMDL
MODEL 3
REMARK VINA RESULT:      -4.4     11.001     12.443
REMARK  2 active torsions:
REMARK  status: ('A' for Active; 'I' for Inactive)
REMARK    1  A    between atoms: C2_2  and  C3_3 
REMARK    2  A    between atoms: C3_3  and  C8_8 
ROOT
HETATM    1  C4  UNL     1     -34.406  14.745  -6.138  1.00 20.00     0.027 C 
HETATM    2  C5  UNL     1     -34.483  15.893  -5.136  1.00 20.00     0.017 C 
HETATM    3  C6  UNL     1     -34.785  13.426  -5.477  1.00 20.00     0.167 C 
HETATM    4  C7  UNL     1     -34.121  14.182  -3.333  1.00 20.00     0.180 C 
HETATM    5  C8  UNL     1     -33.704  15.549  -3.867  1.00 20.00     0.083 C 
HETATM    6  O10 UNL     1     -33.965  13.178  -4.337  1.00 20.00    -0.390 OA
ENDROOT
BRANCH   5   7
HETATM    7  C3  UNL     1     -33.934  16.604  -2.831  1.00 20.00     0.154 C 
HETATM    8  O9  UNL     1     -33.572  17.763  -3.015  1.00 20.00    -0.293 OA
BRANCH   7   9
HETATM    9  C2  UNL     1     -34.644  16.183  -1.594  1.00 20.00     0.040 C 
HETATM   10  C1  UNL     1     -34.617  16.944  -0.497  1.00 20.00     0.015 C 
ENDBRANCH   7   9
ENDBRANCH   5   7
TORSDOF 2
ENDMDL
MODEL 4
REMARK VINA RESULT:      -4.2     11.063     12.324
REMARK  2 active torsions:
REMARK  status: ('A' for Active; 'I' for Inactive)
REMARK    1  A    between atoms: C2_2  and  C3_3 
REMARK    2  A    between atoms: C3_3  and  C8_8 
ROOT
HETATM    1  C4  UNL     1     -33.639  15.645  -3.069  1.00 20.00     0.027 C 
HETATM    2  C5  UNL     1     -35.055  15.870  -3.589  1.00 20.00     0.017 C 
HETATM    3  C6  UNL     1     -32.997  14.446  -3.756  1.00 20.00     0.167 C 
HETATM    4  C7  UNL     1     -35.092  13.431  -4.189  1.00 20.00     0.180 C 
HETATM    5  C8  UNL     1     -35.861  14.573  -3.529  1.00 20.00     0.083 C 
HETATM    6  O10 UNL     1     -33.803  13.280  -3.594  1.00 20.00    -0.390 OA
ENDROOT
BRANCH   5   7
HETATM    7  C3  UNL     1     -37.183  14.767  -4.202  1.00 20.00     0.154 C 
HETATM    8  O9  UNL     1     -38.188  14.181  -3.808  1.00 20.00    -0.293 OA
BRANCH   7   9
HETATM    9  C2  UNL     1     -37.219  15.722  -5.341  1.00 20.00     0.040 C 
HETATM   10  C1  UNL     1     -37.224  15.282  -6.603  1.00 20.00     0.015 C 
ENDBRANCH   7   9
ENDBRANCH   5   7
TORSDOF 2
ENDMDL
MODEL 5
REMARK VINA RESULT:      -4.2     11.339     12.592
REMARK  2 active torsions:
REMARK  status: ('A' for Active; 'I' for Inactive)
REMARK    1  A    between atoms: C2_2  and  C3_3 
REMARK    2  A    between atoms: C3_3  and  C8_8 
ROOT
HETATM    1  C4  UNL     1     -34.703  16.094  -1.889  1.00 20.00     0.027 C 
HETATM    2  C5  UNL     1     -35.037  14.998  -2.895  1.00 20.00     0.017 C 
HETATM    3  C6  UNL     1     -34.414  17.409  -2.600  1.00 20.00     0.167 C 
HETATM    4  C7  UNL     1     -33.720  16.314  -4.582  1.00 20.00     0.180 C 
HETATM    5  C8  UNL     1     -33.971  14.930  -3.988  1.00 20.00     0.083 C 
HETATM    6  O10 UNL     1     -33.370  17.246  -3.559  1.00 20.00    -0.390 OA
ENDROOT
BRANCH   5   7
HETATM    7  C3  UNL     1     -34.401  13.976  -5.057  1.00 20.00     0.154 C 
HETATM    8  O9  UNL     1     -34.650  12.802  -4.797  1.00 20.00    -0.293 OA
BRANCH   7   9
HETATM    9  C2  UNL     1     -34.540  14.529  -6.430  1.00 20.00     0.040 C 
HETATM   10  C1  UNL     1     -35.707  14.470  -7.077  1.00 20.00     0.015 C 
ENDBRANCH   7   9
ENDBRANCH   5   7
TORSDOF 2
ENDMDL
MODEL 6
REMARK VINA RESULT:      -4.1     11.609     12.540
REMARK  2 active torsions:
REMARK  status: ('A' for Active; 'I' for Inactive)
REMARK    1  A    between atoms: C2_2  and  C3_3 
REMARK    2  A    between atoms: C3_3  and  C8_8 
ROOT
HETATM    1  C4  UNL     1     -34.650  17.000  -0.620  1.00 20.00     0.027 C 
HETATM    2  C5  UNL     1     -34.704  15.976  -1.750  1.00 20.00     0.017 C 
HETATM    3  C6  UNL     1     -34.691  18.418  -1.175  1.00 20.00     0.167 C 
HETATM    4  C7  UNL     1     -33.747  17.755  -3.244  1.00 20.00     0.180 C 
HETATM    5  C8  UNL     1     -33.652  16.294  -2.812  1.00 20.00     0.083 C 
HETATM    6  O10 UNL     1     -33.638  18.623  -2.115  1.00 20.00    -0.390 OA
ENDROOT
BRANCH   5   7
HETATM    7  C3  UNL     1     -33.834  15.391  -3.991  1.00 20.00     0.154 C 
HETATM    8  O9  UNL     1     -33.752  15.820  -5.138  1.00 20.00    -0.293 OA
BRANCH   7   9
HETATM    9  C2  UNL     1     -34.086  13.954  -3.698  1.00 20.00     0.040 C 
HETATM   10  C1  UNL     1     -35.068  13.293  -4.317  1.00 20.00     0.015 C 
ENDBRANCH   7   9
ENDBRANCH   5   7
TORSDOF 2
ENDMDL
MODEL 7
REMARK VINA RESULT:      -4.1      1.366      1.952
REMARK  2 active torsions:
REMARK  status: ('A' for Active; 'I' for Inactive)
REMARK    1  A    between atoms: C2_2  and  C3_3 
REMARK    2  A    between atoms: C3_3  and  C8_8 
ROOT
HETATM    1  C4  UNL     1     -34.793   4.819   3.549  1.00 20.00     0.027 C 
HETATM    2  C5  UNL     1     -33.847   5.854   2.949  1.00 20.00     0.017 C 
HETATM    3  C6  UNL     1     -35.298   5.276   4.911  1.00 20.00     0.167 C 
HETATM    4  C7  UNL     1     -33.381   6.612   5.299  1.00 20.00     0.180 C 
HETATM    5  C8  UNL     1     -32.762   6.236   3.956  1.00 20.00     0.083 C 
HETATM    6  O10 UNL     1     -34.208   5.555   5.788  1.00 20.00    -0.390 OA
ENDROOT
BRANCH   5   7
HETATM    7  C3  UNL     1     -31.951   7.373   3.420  1.00 20.00     0.154 C 
HETATM    8  O9  UNL     1     -31.079   7.907   4.100  1.00 20.00    -0.293 OA
BRANCH   7   9
HETATM    9  C2  UNL     1     -32.237   7.796   2.023  1.00 20.00     0.040 C 
HETATM   10  C1  UNL     1     -32.241   9.090   1.687  1.00 20.00     0.015 C 
ENDBRANCH   7   9
ENDBRANCH   5   7
TORSDOF 2
ENDMDL
MODEL 8
REMARK VINA RESULT:      -4.0      9.589     11.015
REMARK  2 active torsions:
REMARK  status: ('A' for Active; 'I' for Inactive)
REMARK    1  A    between atoms: C2_2  and  C3_3 
REMARK    2  A    between atoms: C3_3  and  C8_8 
ROOT
HETATM    1  C4  UNL     1     -42.120   7.317  -1.589  1.00 20.00     0.027 C 
HETATM    2  C5  UNL     1     -42.425   6.233  -2.618  1.00 20.00     0.017 C 
HETATM    3  C6  UNL     1     -40.846   6.990  -0.822  1.00 20.00     0.167 C 
HETATM    4  C7  UNL     1     -41.099   4.662  -1.174  1.00 20.00     0.180 C 
HETATM    5  C8  UNL     1     -42.390   4.851  -1.966  1.00 20.00     0.083 C 
HETATM    6  O10 UNL     1     -40.940   5.704  -0.211  1.00 20.00    -0.390 OA
ENDROOT
BRANCH   5   7
HETATM    7  C3  UNL     1     -42.516   3.793  -3.017  1.00 20.00     0.154 C 
HETATM    8  O9  UNL     1     -43.417   3.830  -3.850  1.00 20.00    -0.293 OA
BRANCH   7   9
HETATM    9  C2  UNL     1     -41.482   2.723  -3.014  1.00 20.00     0.040 C 
HETATM   10  C1  UNL     1     -41.472   1.780  -3.961  1.00 20.00     0.015 C 
ENDBRANCH   7   9
ENDBRANCH   5   7
TORSDOF 2
ENDMDL
MODEL 9
REMARK VINA RESULT:      -4.0     11.132     12.906
REMARK  2 active torsions:
REMARK  status: ('A' for Active; 'I' for Inactive)
REMARK    1  A    between atoms: C2_2  and  C3_3 
REMARK    2  A    between atoms: C3_3  and  C8_8 
ROOT
HETATM    1  C4  UNL     1     -35.387  14.926  -7.447  1.00 20.00     0.027 C 
HETATM    2  C5  UNL     1     -34.491  14.691  -6.235  1.00 20.00     0.017 C 
HETATM    3  C6  UNL     1     -36.628  15.717  -7.055  1.00 20.00     0.167 C 
HETATM    4  C7  UNL     1     -36.549  14.946  -4.817  1.00 20.00     0.180 C 
HETATM    5  C8  UNL     1     -35.299  14.110  -5.075  1.00 20.00     0.083 C 
HETATM    6  O10 UNL     1     -37.335  15.061  -6.004  1.00 20.00    -0.390 OA
ENDROOT
BRANCH   5   7
HETATM    7  C3  UNL     1     -34.449  14.051  -3.845  1.00 20.00     0.154 C 
HETATM    8  O9  UNL     1     -33.652  13.133  -3.668  1.00 20.00    -0.293 OA
BRANCH   7   9
HETATM    9  C2  UNL     1     -34.599  15.168  -2.876  1.00 20.00     0.040 C 
HETATM   10  C1  UNL     1     -33.680  16.135  -2.799  1.00 20.00     0.015 C 
ENDBRANCH   7   9
ENDBRANCH   5   7
TORSDOF 2
ENDMDL
