MODEL 1
REMARK VINA RESULT:      -4.8      0.000      0.000
REMARK  3 active torsions:
REMARK  status: ('A' for Active; 'I' for Inactive)
REMARK    1  A    between atoms: C6_6  and  C10_10 
REMARK    2  A    between atoms: C7_7  and  C11_11 
REMARK    3  A    between atoms: C11_11  and  N12_12 
ROOT
HETATM    1  C1  UNL     1     -33.521  13.626  -3.783  1.00 20.00     0.014 C 
HETATM    2  C2  UNL     1     -34.071  14.641  -3.453  1.00 20.00    -0.081 C 
HETATM    3  C11 UNL     1     -34.748  15.883  -3.054  1.00 20.00     0.301 C 
ENDROOT
BRANCH   3   4
HETATM    4  C7  UNL     1     -33.944  16.635  -2.006  1.00 20.00     0.031 C 
HETATM    5  C4  UNL     1     -33.670  18.087  -2.393  1.00 20.00     0.008 C 
HETATM    6  C3  UNL     1     -33.380  18.747  -1.054  1.00 20.00     0.005 C 
HETATM    7  C6  UNL     1     -34.453  18.153  -0.142  1.00 20.00    -0.014 C 
HETATM    8  C5  UNL     1     -34.647  16.712  -0.641  1.00 20.00     0.012 C 
BRANCH   7   9
HETATM    9  C10 UNL     1     -34.092  18.235   1.331  1.00 20.00     0.000 C 
HETATM   10  C8  UNL     1     -32.809  18.975   1.551  1.00 20.00     0.005 C 
ENDBRANCH   7   9
ENDBRANCH   3   4
BRANCH   3  11
HETATM   11  N12 UNL     1     -36.071  15.584  -2.562  1.00 20.00     0.095 N 
HETATM   12  C9  UNL     1     -36.945  15.112  -3.634  1.00 20.00     0.308 C 
HETATM   13  H31 UNL     1     -36.487  16.423  -2.148  1.00 20.00     0.317 HD
ENDBRANCH   3  11
TORSDOF 3
ENDMDL
MODEL 2
REMARK VINA RESULT:      -4.5      1.965      5.552
REMARK  3 active torsions:
REMARK  status: ('A' for Active; 'I' for Inactive)
REMARK    1  A    between atoms: C6_6  and  C10_10 
REMARK    2  A    between atoms: C7_7  and  C11_11 
REMARK    3  A    between atoms: C11_11  and  N12_12 
ROOT
HETATM    1  C1  UNL     1     -33.741  18.873  -3.326  1.00 20.00     0.014 C 
HETATM    2  C2  UNL     1     -33.742  17.720  -2.988  1.00 20.00    -0.081 C 
HETATM    3  C11 UNL     1     -33.742  16.311  -2.569  1.00 20.00     0.301 C 
ENDROOT
BRANCH   3   4
HETATM    4  C7  UNL     1     -33.742  15.380  -3.770  1.00 20.00     0.031 C 
HETATM    5  C4  UNL     1     -34.102  13.941  -3.409  1.00 20.00     0.008 C 
HETATM    6  C3  UNL     1     -34.567  13.363  -4.737  1.00 20.00     0.005 C 
HETATM    7  C6  UNL     1     -35.433  14.484  -5.311  1.00 20.00    -0.014 C 
HETATM    8  C5  UNL     1     -34.755  15.785  -4.853  1.00 20.00     0.012 C 
BRANCH   7   9
HETATM    9  C10 UNL     1     -35.599  14.392  -6.819  1.00 20.00     0.000 C 
HETATM   10  C8  UNL     1     -34.486  15.078  -7.547  1.00 20.00     0.005 C 
ENDBRANCH   7   9
ENDBRANCH   3   4
BRANCH   3  11
HETATM   11  N12 UNL     1     -34.882  16.051  -1.724  1.00 20.00     0.095 N 
HETATM   12  C9  UNL     1     -34.787  16.780  -0.460  1.00 20.00     0.308 C 
HETATM   13  H31 UNL     1     -34.944  15.050  -1.519  1.00 20.00     0.317 HD
ENDBRANCH   3  11
TORSDOF 3
ENDMDL
MODEL 3
REMARK VINA RESULT:      -4.5      1.318      2.107
REMARK  3 active torsions:
REMARK  status: ('A' for Active; 'I' for Inactive)
REMARK    1  A    between atoms: C6_6  and  C10_10 
REMARK    2  A    between atoms: C7_7  and  C11_11 
REMARK    3  A    between atoms: C11_11  and  N12_12 
ROOT
HETATM    1  C1  UNL     1     -37.274  15.375  -3.580  1.00 20.00     0.014 C 
HETATM    2  C2  UNL     1     -36.113  15.110  -3.424  1.00 20.00    -0.081 C 
HETATM    3  C11 UNL     1     -34.694  14.780  -3.235  1.00 20.00     0.301 C 
ENDROOT
BRANCH   3   4
HETATM    4  C7  UNL     1     -33.944  15.930  -2.583  1.00 20.00     0.031 C 
HETATM    5  C4  UNL     1     -33.952  17.202  -3.428  1.00 20.00     0.008 C 
HETATM    6  C3  UNL     1     -33.666  18.291  -2.406  1.00 20.00     0.005 C 
HETATM    7  C6  UNL     1     -34.543  17.885  -1.222  1.00 20.00    -0.014 C 
HETATM    8  C5  UNL     1     -34.531  16.348  -1.226  1.00 20.00     0.012 C 
BRANCH   7   9
HETATM    9  C10 UNL     1     -34.078  18.486   0.094  1.00 20.00     0.000 C 
HETATM   10  C8  UNL     1     -32.659  18.957   0.023  1.00 20.00     0.005 C 
ENDBRANCH   7   9
ENDBRANCH   3   4
BRANCH   3  11
HETATM   11  N12 UNL     1     -34.096  14.437  -4.502  1.00 20.00     0.095 N 
HETATM   12  C9  UNL     1     -34.653  13.195  -5.036  1.00 20.00     0.308 C 
HETATM   13  H31 UNL     1     -33.085  14.320  -4.392  1.00 20.00     0.317 HD
ENDBRANCH   3  11
TORSDOF 3
ENDMDL
MODEL 4
REMARK VINA RESULT:      -4.5      1.983      2.576
REMARK  3 active torsions:
REMARK  status: ('A' for Active; 'I' for Inactive)
REMARK    1  A    between atoms: C6_6  and  C10_10 
REMARK    2  A    between atoms: C7_7  and  C11_11 
REMARK    3  A    between atoms: C11_11  and  N12_12 
ROOT
HETATM    1  C1  UNL     1     -34.853  13.209  -4.218  1.00 20.00     0.014 C 
HETATM    2  C2  UNL     1     -34.494  14.312  -4.530  1.00 20.00    -0.081 C 
HETATM    3  C11 UNL     1     -34.051  15.659  -4.916  1.00 20.00     0.301 C 
ENDROOT
BRANCH   3   4
HETATM    4  C7  UNL     1     -34.360  16.673  -3.826  1.00 20.00     0.031 C 
HETATM    5  C4  UNL     1     -35.857  16.881  -3.612  1.00 20.00     0.008 C 
HETATM    6  C3  UNL     1     -35.923  17.452  -2.204  1.00 20.00     0.005 C 
HETATM    7  C6  UNL     1     -34.927  16.583  -1.438  1.00 20.00    -0.014 C 
HETATM    8  C5  UNL     1     -33.812  16.270  -2.448  1.00 20.00     0.012 C 
BRANCH   7   9
HETATM    9  C10 UNL     1     -34.418  17.243  -0.167  1.00 20.00     0.000 C 
HETATM   10  C8  UNL     1     -33.309  18.209  -0.445  1.00 20.00     0.005 C 
ENDBRANCH   7   9
ENDBRANCH   3   4
BRANCH   3  11
HETATM   11  N12 UNL     1     -34.676  16.043  -6.158  1.00 20.00     0.095 N 
HETATM   12  C9  UNL     1     -34.363  15.097  -7.229  1.00 20.00     0.308 C 
HETATM   13  H31 UNL     1     -34.351  16.973  -6.440  1.00 20.00     0.317 HD
ENDBRANCH   3  11
TORSDOF 3
ENDMDL
MODEL 5
REMARK VINA RESULT:      -4.5      1.604      4.930
REMARK  3 active torsions:
REMARK  status: ('A' for Active; 'I' for Inactive)
REMARK    1  A    between atoms: C6_6  and  C10_10 
REMARK    2  A    between atoms: C7_7  and  C11_11 
REMARK    3  A    between atoms: C11_11  and  N12_12 
ROOT
HETATM    1  C1  UNL     1     -32.957  18.389  -0.414  1.00 20.00     0.014 C 
HETATM    2  C2  UNL     1     -33.815  17.639  -0.793  1.00 20.00    -0.081 C 
HETATM    3  C11 UNL     1     -34.867  16.720  -1.252  1.00 20.00     0.301 C 
ENDROOT
BRANCH   3   4
HETATM    4  C7  UNL     1     -34.580  16.212  -2.655  1.00 20.00     0.031 C 
HETATM    5  C4  UNL     1     -33.102  15.912  -2.891  1.00 20.00     0.008 C 
HETATM    6  C3  UNL     1     -33.134  14.951  -4.069  1.00 20.00     0.005 C 
HETATM    7  C6  UNL     1     -34.288  14.015  -3.715  1.00 20.00    -0.014 C 
HETATM    8  C5  UNL     1     -35.312  14.903  -2.989  1.00 20.00     0.012 C 
BRANCH   7   9
HETATM    9  C10 UNL     1     -34.864  13.299  -4.924  1.00 20.00     0.000 C 
HETATM   10  C8  UNL     1     -35.109  14.236  -6.065  1.00 20.00     0.005 C 
ENDBRANCH   7   9
ENDBRANCH   3   4
BRANCH   3  11
HETATM   11  N12 UNL     1     -36.149  17.379  -1.202  1.00 20.00     0.095 N 
HETATM   12  C9  UNL     1     -36.262  18.409  -2.234  1.00 20.00     0.308 C 
HETATM   13  H31 UNL     1     -36.280  17.819  -0.287  1.00 20.00     0.317 HD
ENDBRANCH   3  11
TORSDOF 3
ENDMDL
MODEL 6
REMARK VINA RESULT:      -4.4      1.653      4.882
REMARK  3 active torsions:
REMARK  status: ('A' for Active; 'I' for Inactive)
REMARK    1  A    between atoms: C6_6  and  C10_10 
REMARK    2  A    between atoms: C7_7  and  C11_11 
REMARK    3  A    between atoms: C11_11  and  N12_12 
ROOT
HETATM    1  C1  UNL     1     -33.022  19.112  -1.176  1.00 20.00     0.014 C 
HETATM    2  C2  UNL     1     -33.689  18.164  -0.860  1.00 20.00    -0.081 C 
HETATM    3  C11 UNL     1     -34.503  17.004  -0.468  1.00 20.00     0.301 C 
ENDROOT
BRANCH   3   4
HETATM    4  C7  UNL     1     -34.994  16.240  -1.686  1.00 20.00     0.031 C 
HETATM    5  C4  UNL     1     -35.947  17.055  -2.558  1.00 20.00     0.008 C 
HETATM    6  C3  UNL     1     -35.859  16.356  -3.905  1.00 20.00     0.005 C 
HETATM    7  C6  UNL     1     -34.361  16.095  -4.056  1.00 20.00    -0.014 C 
HETATM    8  C5  UNL     1     -33.861  15.808  -2.631  1.00 20.00     0.012 C 
BRANCH   7   9
HETATM    9  C10 UNL     1     -34.049  14.979  -5.038  1.00 20.00     0.000 C 
HETATM   10  C8  UNL     1     -34.360  13.630  -4.468  1.00 20.00     0.005 C 
ENDBRANCH   7   9
ENDBRANCH   3   4
BRANCH   3  11
HETATM   11  N12 UNL     1     -35.615  17.438   0.342  1.00 20.00     0.095 N 
HETATM   12  C9  UNL     1     -35.190  17.760   1.704  1.00 20.00     0.308 C 
HETATM   13  H31 UNL     1     -36.323  16.699   0.388  1.00 20.00     0.317 HD
ENDBRANCH   3  11
TORSDOF 3
ENDMDL
MODEL 7
REMARK VINA RESULT:      -4.4      1.654      1.845
REMARK  3 active torsions:
REMARK  status: ('A' for Active; 'I' for Inactive)
REMARK    1  A    between atoms: C6_6  and  C10_10 
REMARK    2  A    between atoms: C7_7  and  C11_11 
REMARK    3  A    between atoms: C11_11  and  N12_12 
ROOT
HETATM    1  C1  UNL     1     -34.139  16.095  -6.462  1.00 20.00     0.014 C 
HETATM    2  C2  UNL     1     -34.335  15.883  -5.296  1.00 20.00    -0.081 C 
HETATM    3  C11 UNL     1     -34.579  15.620  -3.870  1.00 20.00     0.301 C 
ENDROOT
BRANCH   3   4
HETATM    4  C7  UNL     1     -33.775  16.563  -2.991  1.00 20.00     0.031 C 
HETATM    5  C4  UNL     1     -33.882  18.022  -3.428  1.00 20.00     0.008 C 
HETATM    6  C3  UNL     1     -33.500  18.783  -2.168  1.00 20.00     0.005 C 
HETATM    7  C6  UNL     1     -34.245  18.023  -1.072  1.00 20.00    -0.014 C 
HETATM    8  C5  UNL     1     -34.222  16.553  -1.521  1.00 20.00     0.012 C 
BRANCH   7   9
HETATM    9  C10 UNL     1     -33.651  18.239   0.310  1.00 20.00     0.000 C 
HETATM   10  C8  UNL     1     -32.279  18.834   0.241  1.00 20.00     0.005 C 
ENDBRANCH   7   9
ENDBRANCH   3   4
BRANCH   3  11
HETATM   11  N12 UNL     1     -34.262  14.246  -3.564  1.00 20.00     0.095 N 
HETATM   12  C9  UNL     1     -35.155  13.323  -4.264  1.00 20.00     0.308 C 
HETATM   13  H31 UNL     1     -34.350  14.083  -2.557  1.00 20.00     0.317 HD
ENDBRANCH   3  11
TORSDOF 3
ENDMDL
MODEL 8
REMARK VINA RESULT:      -4.3      1.892      5.076
REMARK  3 active torsions:
REMARK  status: ('A' for Active; 'I' for Inactive)
REMARK    1  A    between atoms: C6_6  and  C10_10 
REMARK    2  A    between atoms: C7_7  and  C11_11 
REMARK    3  A    between atoms: C11_11  and  N12_12 
ROOT
HETATM    1  C1  UNL     1     -37.770  18.135  -2.037  1.00 20.00     0.014 C 
HETATM    2  C2  UNL     1     -36.623  17.799  -1.916  1.00 20.00    -0.081 C 
HETATM    3  C11 UNL     1     -35.218  17.392  -1.765  1.00 20.00     0.301 C 
ENDROOT
BRANCH   3   4
HETATM    4  C7  UNL     1     -34.749  16.580  -2.960  1.00 20.00     0.031 C 
HETATM    5  C4  UNL     1     -33.302  16.111  -2.831  1.00 20.00     0.008 C 
HETATM    6  C3  UNL     1     -33.240  14.931  -3.789  1.00 20.00     0.005 C 
HETATM    7  C6  UNL     1     -34.546  14.193  -3.504  1.00 20.00    -0.014 C 
HETATM    8  C5  UNL     1     -35.566  15.297  -3.181  1.00 20.00     0.012 C 
BRANCH   7   9
HETATM    9  C10 UNL     1     -34.979  13.291  -4.648  1.00 20.00     0.000 C 
HETATM   10  C8  UNL     1     -35.005  14.020  -5.955  1.00 20.00     0.005 C 
ENDBRANCH   7   9
ENDBRANCH   3   4
BRANCH   3  11
HETATM   11  N12 UNL     1     -35.054  16.642  -0.544  1.00 20.00     0.095 N 
HETATM   12  C9  UNL     1     -35.031  17.521   0.625  1.00 20.00     0.308 C 
HETATM   13  H31 UNL     1     -34.177  16.115  -0.573  1.00 20.00     0.317 HD
ENDBRANCH   3  11
TORSDOF 3
ENDMDL
MODEL 9
REMARK VINA RESULT:      -4.3      1.833      5.126
REMARK  3 active torsions:
REMARK  status: ('A' for Active; 'I' for Inactive)
REMARK    1  A    between atoms: C6_6  and  C10_10 
REMARK    2  A    between atoms: C7_7  and  C11_11 
REMARK    3  A    between atoms: C11_11  and  N12_12 
ROOT
HETATM    1  C1  UNL     1     -35.154  17.755   2.385  1.00 20.00     0.014 C 
HETATM    2  C2  UNL     1     -34.586  18.195   1.422  1.00 20.00    -0.081 C 
HETATM    3  C11 UNL     1     -33.890  18.738   0.247  1.00 20.00     0.301 C 
ENDROOT
BRANCH   3   4
HETATM    4  C7  UNL     1     -34.454  18.163  -1.041  1.00 20.00     0.031 C 
HETATM    5  C4  UNL     1     -33.633  18.539  -2.272  1.00 20.00     0.008 C 
HETATM    6  C3  UNL     1     -34.020  17.468  -3.280  1.00 20.00     0.005 C 
HETATM    7  C6  UNL     1     -34.013  16.192  -2.439  1.00 20.00    -0.014 C 
HETATM    8  C5  UNL     1     -34.506  16.627  -1.050  1.00 20.00     0.012 C 
BRANCH   7   9
HETATM    9  C10 UNL     1     -34.844  15.075  -3.049  1.00 20.00     0.000 C 
HETATM   10  C8  UNL     1     -33.988  13.974  -3.592  1.00 20.00     0.005 C 
ENDBRANCH   7   9
ENDBRANCH   3   4
BRANCH   3  11
HETATM   11  N12 UNL     1     -32.476  18.468   0.347  1.00 20.00     0.095 N 
HETATM   12  C9  UNL     1     -31.857  19.248   1.418  1.00 20.00     0.308 C 
HETATM   13  H31 UNL     1     -32.012  18.701  -0.535  1.00 20.00     0.317 HD
ENDBRANCH   3  11
TORSDOF 3
ENDMDL
