MODEL 1
REMARK VINA RESULT:      -5.7      0.000      0.000
REMARK  2 active torsions:
REMARK  status: ('A' for Active; 'I' for Inactive)
REMARK    1  A    between atoms: C3_3  and  C7_7 
REMARK    2  A    between atoms: C8_8  and  C10_10 
ROOT
HETATM    1  C1  UNL     1     -32.170   8.907   1.140  1.00 20.00     0.021 C 
HETATM    2  C2  UNL     1     -31.996   8.274   2.145  1.00 20.00    -0.039 C 
HETATM    3  C3  UNL     1     -31.788   7.515   3.354  1.00 20.00     0.205 C 
HETATM    4  O11 UNL     1     -30.906   7.847   4.137  1.00 20.00    -0.283 OA
ENDROOT
BRANCH   3   5
HETATM    5  C7  UNL     1     -32.707   6.325   3.570  1.00 20.00     0.069 C 
HETATM    6  C4  UNL     1     -33.206   5.709   2.269  1.00 20.00     0.013 C 
HETATM    7  C5  UNL     1     -34.407   4.871   2.697  1.00 20.00     0.005 C 
HETATM    8  C8  UNL     1     -34.963   5.548   3.949  1.00 20.00    -0.014 C 
HETATM    9  C6  UNL     1     -34.008   6.691   4.285  1.00 20.00     0.017 C 
BRANCH   8  10
HETATM   10  C10 UNL     1     -34.957   4.557   5.099  1.00 20.00     0.000 C 
HETATM   11  C9  UNL     1     -34.724   5.228   6.415  1.00 20.00     0.005 C 
ENDBRANCH   8  10
ENDBRANCH   3   5
TORSDOF 2
ENDMDL
MODEL 2
REMARK VINA RESULT:      -5.1     11.198     12.023
REMARK  2 active torsions:
REMARK  status: ('A' for Active; 'I' for Inactive)
REMARK    1  A    between atoms: C3_3  and  C7_7 
REMARK    2  A    between atoms: C8_8  and  C10_10 
ROOT
HETATM    1  C1  UNL     1     -34.772  14.760  -7.122  1.00 20.00     0.021 C 
HETATM    2  C2  UNL     1     -34.839  14.308  -6.012  1.00 20.00    -0.039 C 
HETATM    3  C3  UNL     1     -34.918  13.764  -4.678  1.00 20.00     0.205 C 
HETATM    4  O11 UNL     1     -34.940  12.551  -4.516  1.00 20.00    -0.283 OA
ENDROOT
BRANCH   3   5
HETATM    5  C7  UNL     1     -34.969  14.771  -3.542  1.00 20.00     0.069 C 
HETATM    6  C4  UNL     1     -36.258  15.585  -3.520  1.00 20.00     0.013 C 
HETATM    7  C5  UNL     1     -35.921  16.780  -2.632  1.00 20.00     0.005 C 
HETATM    8  C8  UNL     1     -34.414  16.994  -2.775  1.00 20.00    -0.014 C 
HETATM    9  C6  UNL     1     -33.894  15.853  -3.647  1.00 20.00     0.017 C 
BRANCH   8  10
HETATM   10  C10 UNL     1     -33.763  16.896  -1.408  1.00 20.00     0.000 C 
HETATM   11  C9  UNL     1     -34.765  17.000  -0.302  1.00 20.00     0.005 C 
ENDBRANCH   8  10
ENDBRANCH   3   5
TORSDOF 2
ENDMDL
MODEL 3
REMARK VINA RESULT:      -5.0      1.491      4.553
REMARK  2 active torsions:
REMARK  status: ('A' for Active; 'I' for Inactive)
REMARK    1  A    between atoms: C3_3  and  C7_7 
REMARK    2  A    between atoms: C8_8  and  C10_10 
ROOT
HETATM    1  C1  UNL     1     -35.162   3.926   5.942  1.00 20.00     0.021 C 
HETATM    2  C2  UNL     1     -34.657   5.011   5.851  1.00 20.00    -0.039 C 
HETATM    3  C3  UNL     1     -34.048   6.315   5.743  1.00 20.00     0.205 C 
HETATM    4  O11 UNL     1     -33.874   6.990   6.750  1.00 20.00    -0.283 OA
ENDROOT
BRANCH   3   5
HETATM    5  C7  UNL     1     -33.660   6.764   4.346  1.00 20.00     0.069 C 
HETATM    6  C4  UNL     1     -33.558   5.612   3.352  1.00 20.00     0.013 C 
HETATM    7  C5  UNL     1     -32.754   6.196   2.194  1.00 20.00     0.005 C 
HETATM    8  C8  UNL     1     -31.871   7.283   2.806  1.00 20.00    -0.014 C 
HETATM    9  C6  UNL     1     -32.264   7.384   4.278  1.00 20.00     0.017 C 
BRANCH   8  10
HETATM   10  C10 UNL     1     -32.170   8.609   2.132  1.00 20.00     0.000 C 
HETATM   11  C9  UNL     1     -31.752   8.614   0.695  1.00 20.00     0.005 C 
ENDBRANCH   8  10
ENDBRANCH   3   5
TORSDOF 2
ENDMDL
MODEL 4
REMARK VINA RESULT:      -4.9     10.932     12.233
REMARK  2 active torsions:
REMARK  status: ('A' for Active; 'I' for Inactive)
REMARK    1  A    between atoms: C3_3  and  C7_7 
REMARK    2  A    between atoms: C8_8  and  C10_10 
ROOT
HETATM    1  C1  UNL     1     -35.507  14.453  -7.856  1.00 20.00     0.021 C 
HETATM    2  C2  UNL     1     -35.251  14.200  -6.711  1.00 20.00    -0.039 C 
HETATM    3  C3  UNL     1     -34.943  13.894  -5.335  1.00 20.00     0.205 C 
HETATM    4  O11 UNL     1     -34.743  12.733  -5.000  1.00 20.00    -0.283 OA
ENDROOT
BRANCH   3   5
HETATM    5  C7  UNL     1     -34.888  15.072  -4.379  1.00 20.00     0.069 C 
HETATM    6  C4  UNL     1     -34.064  16.239  -4.912  1.00 20.00     0.013 C 
HETATM    7  C5  UNL     1     -33.776  17.081  -3.672  1.00 20.00     0.005 C 
HETATM    8  C8  UNL     1     -33.782  16.106  -2.495  1.00 20.00    -0.014 C 
HETATM    9  C6  UNL     1     -34.186  14.746  -3.060  1.00 20.00     0.017 C 
BRANCH   8  10
HETATM   10  C10 UNL     1     -34.830  16.544  -1.488  1.00 20.00     0.000 C 
HETATM   11  C9  UNL     1     -34.233  17.334  -0.367  1.00 20.00     0.005 C 
ENDBRANCH   8  10
ENDBRANCH   3   5
TORSDOF 2
ENDMDL
MODEL 5
REMARK VINA RESULT:      -4.6     11.267     12.284
REMARK  2 active torsions:
REMARK  status: ('A' for Active; 'I' for Inactive)
REMARK    1  A    between atoms: C3_3  and  C7_7 
REMARK    2  A    between atoms: C8_8  and  C10_10 
ROOT
HETATM    1  C1  UNL     1     -34.819  14.334  -6.091  1.00 20.00     0.021 C 
HETATM    2  C2  UNL     1     -35.548  14.511  -5.154  1.00 20.00    -0.039 C 
HETATM    3  C3  UNL     1     -36.424  14.722  -4.028  1.00 20.00     0.205 C 
HETATM    4  O11 UNL     1     -37.436  14.042  -3.909  1.00 20.00    -0.283 OA
ENDROOT
BRANCH   3   5
HETATM    5  C7  UNL     1     -36.011  15.804  -3.045  1.00 20.00     0.069 C 
HETATM    6  C4  UNL     1     -35.763  17.153  -3.709  1.00 20.00     0.013 C 
HETATM    7  C5  UNL     1     -34.960  17.931  -2.670  1.00 20.00     0.005 C 
HETATM    8  C8  UNL     1     -34.205  16.881  -1.856  1.00 20.00    -0.014 C 
HETATM    9  C6  UNL     1     -34.673  15.519  -2.363  1.00 20.00     0.017 C 
BRANCH   8  10
HETATM   10  C10 UNL     1     -34.586  17.012  -0.393  1.00 20.00     0.000 C 
HETATM   11  C9  UNL     1     -33.839  18.117   0.283  1.00 20.00     0.005 C 
ENDBRANCH   8  10
ENDBRANCH   3   5
TORSDOF 2
ENDMDL
MODEL 6
REMARK VINA RESULT:      -4.5     10.795     11.977
REMARK  2 active torsions:
REMARK  status: ('A' for Active; 'I' for Inactive)
REMARK    1  A    between atoms: C3_3  and  C7_7 
REMARK    2  A    between atoms: C8_8  and  C10_10 
ROOT
HETATM    1  C1  UNL     1     -35.270  17.511   1.091  1.00 20.00     0.021 C 
HETATM    2  C2  UNL     1     -34.484  17.661   0.196  1.00 20.00    -0.039 C 
HETATM    3  C3  UNL     1     -33.539  17.841  -0.880  1.00 20.00     0.205 C 
HETATM    4  O11 UNL     1     -32.726  18.755  -0.828  1.00 20.00    -0.283 OA
ENDROOT
BRANCH   3   5
HETATM    5  C7  UNL     1     -33.629  16.852  -2.029  1.00 20.00     0.069 C 
HETATM    6  C4  UNL     1     -33.869  17.520  -3.378  1.00 20.00     0.013 C 
HETATM    7  C5  UNL     1     -34.358  16.382  -4.269  1.00 20.00     0.005 C 
HETATM    8  C8  UNL     1     -35.034  15.381  -3.333  1.00 20.00    -0.014 C 
HETATM    9  C6  UNL     1     -34.821  15.901  -1.914  1.00 20.00     0.017 C 
BRANCH   8  10
HETATM   10  C10 UNL     1     -34.349  14.033  -3.463  1.00 20.00     0.000 C 
HETATM   11  C9  UNL     1     -34.783  13.301  -4.694  1.00 20.00     0.005 C 
ENDBRANCH   8  10
ENDBRANCH   3   5
TORSDOF 2
ENDMDL
MODEL 7
REMARK VINA RESULT:      -4.5     11.006     13.248
REMARK  2 active torsions:
REMARK  status: ('A' for Active; 'I' for Inactive)
REMARK    1  A    between atoms: C3_3  and  C7_7 
REMARK    2  A    between atoms: C8_8  and  C10_10 
ROOT
HETATM    1  C1  UNL     1     -34.488  16.346  -1.632  1.00 20.00     0.021 C 
HETATM    2  C2  UNL     1     -34.498  15.532  -2.515  1.00 20.00    -0.039 C 
HETATM    3  C3  UNL     1     -34.511  14.552  -3.574  1.00 20.00     0.205 C 
HETATM    4  O11 UNL     1     -34.187  13.396  -3.337  1.00 20.00    -0.283 OA
ENDROOT
BRANCH   3   5
HETATM    5  C7  UNL     1     -34.938  15.048  -4.945  1.00 20.00     0.069 C 
HETATM    6  C4  UNL     1     -35.122  13.924  -5.959  1.00 20.00     0.013 C 
HETATM    7  C5  UNL     1     -35.103  14.640  -7.307  1.00 20.00     0.005 C 
HETATM    8  C8  UNL     1     -34.249  15.891  -7.102  1.00 20.00    -0.014 C 
HETATM    9  C6  UNL     1     -33.890  15.934  -5.619  1.00 20.00     0.017 C 
BRANCH   8  10
HETATM   10  C10 UNL     1     -35.074  17.120  -7.438  1.00 20.00     0.000 C 
HETATM   11  C9  UNL     1     -34.267  18.376  -7.352  1.00 20.00     0.005 C 
ENDBRANCH   8  10
ENDBRANCH   3   5
TORSDOF 2
ENDMDL
MODEL 8
REMARK VINA RESULT:      -4.5     10.887     12.235
REMARK  2 active torsions:
REMARK  status: ('A' for Active; 'I' for Inactive)
REMARK    1  A    between atoms: C3_3  and  C7_7 
REMARK    2  A    between atoms: C8_8  and  C10_10 
ROOT
HETATM    1  C1  UNL     1     -34.506  13.420  -4.166  1.00 20.00     0.021 C 
HETATM    2  C2  UNL     1     -34.050  14.508  -3.942  1.00 20.00    -0.039 C 
HETATM    3  C3  UNL     1     -33.501  15.815  -3.674  1.00 20.00     0.205 C 
HETATM    4  O11 UNL     1     -32.939  16.434  -4.568  1.00 20.00    -0.283 OA
ENDROOT
BRANCH   3   5
HETATM    5  C7  UNL     1     -33.670  16.339  -2.258  1.00 20.00     0.069 C 
HETATM    6  C4  UNL     1     -35.081  16.153  -1.713  1.00 20.00     0.013 C 
HETATM    7  C5  UNL     1     -35.144  17.108  -0.524  1.00 20.00     0.005 C 
HETATM    8  C8  UNL     1     -34.161  18.234  -0.842  1.00 20.00    -0.014 C 
HETATM    9  C6  UNL     1     -33.468  17.851  -2.148  1.00 20.00     0.017 C 
BRANCH   8  10
HETATM   10  C10 UNL     1     -33.118  18.313   0.257  1.00 20.00     0.000 C 
HETATM   11  C9  UNL     1     -32.014  19.263  -0.086  1.00 20.00     0.005 C 
ENDBRANCH   8  10
ENDBRANCH   3   5
TORSDOF 2
ENDMDL
MODEL 9
REMARK VINA RESULT:      -4.5     11.013     12.494
REMARK  2 active torsions:
REMARK  status: ('A' for Active; 'I' for Inactive)
REMARK    1  A    between atoms: C3_3  and  C7_7 
REMARK    2  A    between atoms: C8_8  and  C10_10 
ROOT
HETATM    1  C1  UNL     1     -34.697  16.899  -0.342  1.00 20.00     0.021 C 
HETATM    2  C2  UNL     1     -34.463  16.945  -1.519  1.00 20.00    -0.039 C 
HETATM    3  C3  UNL     1     -34.181  17.001  -2.933  1.00 20.00     0.205 C 
HETATM    4  O11 UNL     1     -33.501  17.915  -3.382  1.00 20.00    -0.283 OA
ENDROOT
BRANCH   3   5
HETATM    5  C7  UNL     1     -34.768  15.887  -3.782  1.00 20.00     0.069 C 
HETATM    6  C4  UNL     1     -34.602  14.506  -3.158  1.00 20.00     0.013 C 
HETATM    7  C5  UNL     1     -34.836  13.547  -4.322  1.00 20.00     0.005 C 
HETATM    8  C8  UNL     1     -34.423  14.311  -5.580  1.00 20.00    -0.014 C 
HETATM    9  C6  UNL     1     -34.070  15.727  -5.132  1.00 20.00     0.017 C 
BRANCH   8  10
HETATM   10  C10 UNL     1     -35.602  14.382  -6.532  1.00 20.00     0.000 C 
HETATM   11  C9  UNL     1     -35.182  14.759  -7.917  1.00 20.00     0.005 C 
ENDBRANCH   8  10
ENDBRANCH   3   5
TORSDOF 2
ENDMDL
