MODEL 1
REMARK VINA RESULT:      -4.7      0.000      0.000
REMARK  1 active torsions:
REMARK  status: ('A' for Active; 'I' for Inactive)
REMARK    1  A    between atoms: C3_3  and  C7_7 
ROOT
HETATM    1  C1  UNL     1     -34.785  17.032  -0.042  1.00 20.00     0.021 C 
HETATM    2  C2  UNL     1     -34.354  17.094  -1.161  1.00 20.00    -0.039 C 
HETATM    3  C3  UNL     1     -33.837  17.168  -2.507  1.00 20.00     0.208 C 
HETATM    4  O10 UNL     1     -33.552  18.256  -2.991  1.00 20.00    -0.283 OA
ENDROOT
BRANCH   3   5
HETATM    5  C7  UNL     1     -33.681  15.866  -3.232  1.00 20.00     0.100 C 
HETATM    6  C6  UNL     1     -33.332  16.097  -4.705  1.00 20.00     0.047 C 
HETATM    7  C8  UNL     1     -34.502  15.418  -5.417  1.00 20.00     0.122 C 
HETATM    8  C4  UNL     1     -34.424  13.898  -5.268  1.00 20.00     0.034 C 
HETATM    9  O11 UNL     1     -35.593  15.732  -4.523  1.00 20.00    -0.380 OA
HETATM   10  C5  UNL     1     -34.812  13.698  -3.802  1.00 20.00     0.035 C 
HETATM   11  C9  UNL     1     -35.025  15.136  -3.330  1.00 20.00     0.134 C 
ENDBRANCH   3   5
TORSDOF 1
ENDMDL
MODEL 2
REMARK VINA RESULT:      -4.6      1.690      4.282
REMARK  1 active torsions:
REMARK  status: ('A' for Active; 'I' for Inactive)
REMARK    1  A    between atoms: C3_3  and  C7_7 
ROOT
HETATM    1  C1  UNL     1     -35.325  14.394  -7.579  1.00 20.00     0.021 C 
HETATM    2  C2  UNL     1     -35.235  14.181  -6.400  1.00 20.00    -0.039 C 
HETATM    3  C3  UNL     1     -35.128  13.924  -4.984  1.00 20.00     0.208 C 
HETATM    4  O10 UNL     1     -34.961  12.780  -4.584  1.00 20.00    -0.283 OA
ENDROOT
BRANCH   3   5
HETATM    5  C7  UNL     1     -35.232  15.116  -4.083  1.00 20.00     0.100 C 
HETATM    6  C6  UNL     1     -34.783  16.390  -4.806  1.00 20.00     0.047 C 
HETATM    7  C8  UNL     1     -33.616  16.853  -3.932  1.00 20.00     0.122 C 
HETATM    8  C4  UNL     1     -34.116  17.369  -2.583  1.00 20.00     0.034 C 
HETATM    9  O11 UNL     1     -33.033  15.587  -3.551  1.00 20.00    -0.380 OA
HETATM   10  C5  UNL     1     -34.521  16.075  -1.874  1.00 20.00     0.035 C 
HETATM   11  C9  UNL     1     -34.218  15.021  -2.938  1.00 20.00     0.134 C 
ENDBRANCH   3   5
TORSDOF 1
ENDMDL
MODEL 3
REMARK VINA RESULT:      -4.5     11.056     12.112
REMARK  1 active torsions:
REMARK  status: ('A' for Active; 'I' for Inactive)
REMARK    1  A    between atoms: C3_3  and  C7_7 
ROOT
HETATM    1  C1  UNL     1     -32.178   8.381   1.202  1.00 20.00     0.021 C 
HETATM    2  C2  UNL     1     -32.032   7.907   2.296  1.00 20.00    -0.039 C 
HETATM    3  C3  UNL     1     -31.857   7.337   3.611  1.00 20.00     0.208 C 
HETATM    4  O10 UNL     1     -31.091   7.865   4.406  1.00 20.00    -0.283 OA
ENDROOT
BRANCH   3   5
HETATM    5  C7  UNL     1     -32.653   6.104   3.912  1.00 20.00     0.100 C 
HETATM    6  C6  UNL     1     -33.528   5.712   2.718  1.00 20.00     0.047 C 
HETATM    7  C8  UNL     1     -34.932   5.776   3.322  1.00 20.00     0.122 C 
HETATM    8  C4  UNL     1     -35.153   4.635   4.314  1.00 20.00     0.034 C 
HETATM    9  O11 UNL     1     -34.800   6.904   4.216  1.00 20.00    -0.380 OA
HETATM   10  C5  UNL     1     -34.298   5.073   5.505  1.00 20.00     0.035 C 
HETATM   11  C9  UNL     1     -33.696   6.384   4.998  1.00 20.00     0.134 C 
ENDBRANCH   3   5
TORSDOF 1
ENDMDL
MODEL 4
REMARK VINA RESULT:      -4.4      1.762      2.989
REMARK  1 active torsions:
REMARK  status: ('A' for Active; 'I' for Inactive)
REMARK    1  A    between atoms: C3_3  and  C7_7 
ROOT
HETATM    1  C1  UNL     1     -34.521  16.326  -1.654  1.00 20.00     0.021 C 
HETATM    2  C2  UNL     1     -34.603  15.512  -2.533  1.00 20.00    -0.039 C 
HETATM    3  C3  UNL     1     -34.701  14.533  -3.590  1.00 20.00     0.208 C 
HETATM    4  O10 UNL     1     -34.235  13.414  -3.428  1.00 20.00    -0.283 OA
ENDROOT
BRANCH   3   5
HETATM    5  C7  UNL     1     -35.390  14.977  -4.844  1.00 20.00     0.100 C 
HETATM    6  C6  UNL     1     -35.006  14.082  -6.026  1.00 20.00     0.047 C 
HETATM    7  C8  UNL     1     -34.373  15.086  -6.990  1.00 20.00     0.122 C 
HETATM    8  C4  UNL     1     -35.432  16.018  -7.580  1.00 20.00     0.034 C 
HETATM    9  O11 UNL     1     -33.701  15.973  -6.068  1.00 20.00    -0.380 OA
HETATM   10  C5  UNL     1     -35.766  16.919  -6.390  1.00 20.00     0.035 C 
HETATM   11  C9  UNL     1     -34.869  16.346  -5.294  1.00 20.00     0.134 C 
ENDBRANCH   3   5
TORSDOF 1
ENDMDL
MODEL 5
REMARK VINA RESULT:      -4.4      1.880      2.832
REMARK  1 active torsions:
REMARK  status: ('A' for Active; 'I' for Inactive)
REMARK    1  A    between atoms: C3_3  and  C7_7 
ROOT
HETATM    1  C1  UNL     1     -34.575  16.235  -1.774  1.00 20.00     0.021 C 
HETATM    2  C2  UNL     1     -34.433  15.430  -2.654  1.00 20.00    -0.039 C 
HETATM    3  C3  UNL     1     -34.261  14.462  -3.711  1.00 20.00     0.208 C 
HETATM    4  O10 UNL     1     -34.297  13.266  -3.453  1.00 20.00    -0.283 OA
ENDROOT
BRANCH   3   5
HETATM    5  C7  UNL     1     -34.045  15.013  -5.087  1.00 20.00     0.100 C 
HETATM    6  C6  UNL     1     -34.346  16.514  -5.130  1.00 20.00     0.047 C 
HETATM    7  C8  UNL     1     -35.470  16.581  -6.165  1.00 20.00     0.122 C 
HETATM    8  C4  UNL     1     -34.938  16.286  -7.568  1.00 20.00     0.034 C 
HETATM    9  O11 UNL     1     -36.190  15.362  -5.875  1.00 20.00    -0.380 OA
HETATM   10  C5  UNL     1     -34.683  14.779  -7.504  1.00 20.00     0.035 C 
HETATM   11  C9  UNL     1     -35.080  14.449  -6.066  1.00 20.00     0.134 C 
ENDBRANCH   3   5
TORSDOF 1
ENDMDL
MODEL 6
REMARK VINA RESULT:      -4.4      1.029      1.730
REMARK  1 active torsions:
REMARK  status: ('A' for Active; 'I' for Inactive)
REMARK    1  A    between atoms: C3_3  and  C7_7 
ROOT
HETATM    1  C1  UNL     1     -34.755  17.027  -0.189  1.00 20.00     0.021 C 
HETATM    2  C2  UNL     1     -34.490  17.141  -1.354  1.00 20.00    -0.039 C 
HETATM    3  C3  UNL     1     -34.172  17.279  -2.756  1.00 20.00     0.208 C 
HETATM    4  O10 UNL     1     -33.492  18.223  -3.136  1.00 20.00    -0.283 OA
ENDROOT
BRANCH   3   5
HETATM    5  C7  UNL     1     -34.715  16.221  -3.667  1.00 20.00     0.100 C 
HETATM    6  C6  UNL     1     -34.977  14.920  -2.902  1.00 20.00     0.047 C 
HETATM    7  C8  UNL     1     -34.068  13.935  -3.637  1.00 20.00     0.122 C 
HETATM    8  C4  UNL     1     -34.604  13.636  -5.037  1.00 20.00     0.034 C 
HETATM    9  O11 UNL     1     -32.933  14.776  -3.944  1.00 20.00    -0.380 OA
HETATM   10  C5  UNL     1     -34.295  14.936  -5.783  1.00 20.00     0.035 C 
HETATM   11  C9  UNL     1     -33.656  15.788  -4.687  1.00 20.00     0.134 C 
ENDBRANCH   3   5
TORSDOF 1
ENDMDL
MODEL 7
REMARK VINA RESULT:      -4.3      1.744      2.410
REMARK  1 active torsions:
REMARK  status: ('A' for Active; 'I' for Inactive)
REMARK    1  A    between atoms: C3_3  and  C7_7 
ROOT
HETATM    1  C1  UNL     1     -34.507  16.484  -1.430  1.00 20.00     0.021 C 
HETATM    2  C2  UNL     1     -34.026  16.014  -2.425  1.00 20.00    -0.039 C 
HETATM    3  C3  UNL     1     -33.448  15.449  -3.621  1.00 20.00     0.208 C 
HETATM    4  O10 UNL     1     -32.394  14.831  -3.555  1.00 20.00    -0.283 OA
ENDROOT
BRANCH   3   5
HETATM    5  C7  UNL     1     -34.207  15.668  -4.894  1.00 20.00     0.100 C 
HETATM    6  C6  UNL     1     -35.628  16.163  -4.606  1.00 20.00     0.047 C 
HETATM    7  C8  UNL     1     -36.480  15.066  -5.245  1.00 20.00     0.122 C 
HETATM    8  C4  UNL     1     -36.388  15.120  -6.770  1.00 20.00     0.034 C 
HETATM    9  O11 UNL     1     -35.686  13.893  -4.957  1.00 20.00    -0.380 OA
HETATM   10  C5  UNL     1     -34.977  14.587  -7.026  1.00 20.00     0.035 C 
HETATM   11  C9  UNL     1     -34.468  14.337  -5.606  1.00 20.00     0.134 C 
ENDBRANCH   3   5
TORSDOF 1
ENDMDL
MODEL 8
REMARK VINA RESULT:      -4.2      1.354      3.909
REMARK  1 active torsions:
REMARK  status: ('A' for Active; 'I' for Inactive)
REMARK    1  A    between atoms: C3_3  and  C7_7 
ROOT
HETATM    1  C1  UNL     1     -34.625  14.739  -6.592  1.00 20.00     0.021 C 
HETATM    2  C2  UNL     1     -34.187  15.622  -5.906  1.00 20.00    -0.039 C 
HETATM    3  C3  UNL     1     -33.661  16.685  -5.083  1.00 20.00     0.208 C 
HETATM    4  O10 UNL     1     -33.297  17.732  -5.599  1.00 20.00    -0.283 OA
ENDROOT
BRANCH   3   5
HETATM    5  C7  UNL     1     -33.600  16.415  -3.610  1.00 20.00     0.100 C 
HETATM    6  C6  UNL     1     -34.750  15.502  -3.172  1.00 20.00     0.047 C 
HETATM    7  C8  UNL     1     -35.478  16.380  -2.154  1.00 20.00     0.122 C 
HETATM    8  C4  UNL     1     -34.649  16.542  -0.880  1.00 20.00     0.034 C 
HETATM    9  O11 UNL     1     -35.330  17.686  -2.754  1.00 20.00    -0.380 OA
HETATM   10  C5  UNL     1     -33.535  17.485  -1.339  1.00 20.00     0.035 C 
HETATM   11  C9  UNL     1     -33.882  17.693  -2.813  1.00 20.00     0.134 C 
ENDBRANCH   3   5
TORSDOF 1
ENDMDL
MODEL 9
REMARK VINA RESULT:      -4.2     11.976     13.474
REMARK  1 active torsions:
REMARK  status: ('A' for Active; 'I' for Inactive)
REMARK    1  A    between atoms: C3_3  and  C7_7 
ROOT
HETATM    1  C1  UNL     1     -41.941   2.207  -3.418  1.00 20.00     0.021 C 
HETATM    2  C2  UNL     1     -41.672   3.128  -2.696  1.00 20.00    -0.039 C 
HETATM    3  C3  UNL     1     -41.348   4.234  -1.827  1.00 20.00     0.208 C 
HETATM    4  O10 UNL     1     -40.279   4.249  -1.233  1.00 20.00    -0.283 OA
ENDROOT
BRANCH   3   5
HETATM    5  C7  UNL     1     -42.379   5.316  -1.717  1.00 20.00     0.100 C 
HETATM    6  C6  UNL     1     -42.915   5.705  -3.098  1.00 20.00     0.047 C 
HETATM    7  C8  UNL     1     -42.550   7.188  -3.171  1.00 20.00     0.122 C 
HETATM    8  C4  UNL     1     -43.410   8.011  -2.212  1.00 20.00     0.034 C 
HETATM    9  O11 UNL     1     -41.278   7.197  -2.484  1.00 20.00    -0.380 OA
HETATM   10  C5  UNL     1     -42.828   7.629  -0.849  1.00 20.00     0.035 C 
HETATM   11  C9  UNL     1     -41.744   6.624  -1.237  1.00 20.00     0.134 C 
ENDBRANCH   3   5
TORSDOF 1
ENDMDL
