MODEL 1
REMARK VINA RESULT:      -4.3      0.000      0.000
REMARK  2 active torsions:
REMARK  status: ('A' for Active; 'I' for Inactive)
REMARK    1  A    between atoms: C3_3  and  C7_7 
REMARK    2  A    between atoms: C7_7  and  C8_8 
ROOT
HETATM    1  C1  UNL     1     -35.188  14.519  -7.323  1.00 20.00     0.021 C 
HETATM    2  C2  UNL     1     -35.140  14.209  -6.165  1.00 20.00    -0.040 C 
HETATM    3  C3  UNL     1     -35.081  13.835  -4.769  1.00 20.00     0.202 C 
HETATM    4  O9  UNL     1     -34.971  12.654  -4.468  1.00 20.00    -0.283 OA
ENDROOT
BRANCH   3   5
HETATM    5  C7  UNL     1     -35.159  14.959  -3.758  1.00 20.00     0.101 C 
BRANCH   5   6
HETATM    6  C8  UNL     1     -33.832  15.719  -3.528  1.00 20.00    -0.044 C 
HETATM    7  C4  UNL     1     -32.628  14.763  -3.557  1.00 20.00     0.015 C 
HETATM    8  C5  UNL     1     -33.895  16.379  -2.137  1.00 20.00     0.015 C 
HETATM    9  C6  UNL     1     -33.632  16.820  -4.581  1.00 20.00     0.015 C 
ENDBRANCH   5   6
ENDBRANCH   3   5
TORSDOF 2
ENDMDL
MODEL 2
REMARK VINA RESULT:      -4.2      0.538      1.434
REMARK  2 active torsions:
REMARK  status: ('A' for Active; 'I' for Inactive)
REMARK    1  A    between atoms: C3_3  and  C7_7 
REMARK    2  A    between atoms: C7_7  and  C8_8 
ROOT
HETATM    1  C1  UNL     1     -35.211  14.545  -7.272  1.00 20.00     0.021 C 
HETATM    2  C2  UNL     1     -35.217  14.205  -6.120  1.00 20.00    -0.040 C 
HETATM    3  C3  UNL     1     -35.222  13.797  -4.734  1.00 20.00     0.202 C 
HETATM    4  O9  UNL     1     -34.931  12.643  -4.447  1.00 20.00    -0.283 OA
ENDROOT
BRANCH   3   5
HETATM    5  C7  UNL     1     -35.594  14.851  -3.713  1.00 20.00     0.101 C 
BRANCH   5   6
HETATM    6  C8  UNL     1     -34.431  15.770  -3.275  1.00 20.00    -0.044 C 
HETATM    7  C4  UNL     1     -34.546  16.149  -1.789  1.00 20.00     0.015 C 
HETATM    8  C5  UNL     1     -34.502  17.062  -4.112  1.00 20.00     0.015 C 
HETATM    9  C6  UNL     1     -33.069  15.102  -3.525  1.00 20.00     0.015 C 
ENDBRANCH   5   6
ENDBRANCH   3   5
TORSDOF 2
ENDMDL
MODEL 3
REMARK VINA RESULT:      -4.0      1.513      3.812
REMARK  2 active torsions:
REMARK  status: ('A' for Active; 'I' for Inactive)
REMARK    1  A    between atoms: C3_3  and  C7_7 
REMARK    2  A    between atoms: C7_7  and  C8_8 
ROOT
HETATM    1  C1  UNL     1     -34.656  16.300  -1.569  1.00 20.00     0.021 C 
HETATM    2  C2  UNL     1     -34.053  15.892  -2.524  1.00 20.00    -0.040 C 
HETATM    3  C3  UNL     1     -33.327  15.401  -3.674  1.00 20.00     0.202 C 
HETATM    4  O9  UNL     1     -32.289  14.774  -3.505  1.00 20.00    -0.283 OA
ENDROOT
BRANCH   3   5
HETATM    5  C7  UNL     1     -33.918  15.703  -5.034  1.00 20.00     0.101 C 
BRANCH   5   6
HETATM    6  C8  UNL     1     -34.988  14.696  -5.516  1.00 20.00    -0.044 C 
HETATM    7  C4  UNL     1     -34.734  13.292  -4.939  1.00 20.00     0.015 C 
HETATM    8  C5  UNL     1     -34.906  14.611  -7.053  1.00 20.00     0.015 C 
HETATM    9  C6  UNL     1     -36.401  15.157  -5.127  1.00 20.00     0.015 C 
ENDBRANCH   5   6
ENDBRANCH   3   5
TORSDOF 2
ENDMDL
MODEL 4
REMARK VINA RESULT:      -4.0      1.505      3.818
REMARK  2 active torsions:
REMARK  status: ('A' for Active; 'I' for Inactive)
REMARK    1  A    between atoms: C3_3  and  C7_7 
REMARK    2  A    between atoms: C7_7  and  C8_8 
ROOT
HETATM    1  C1  UNL     1     -34.597  16.310  -1.583  1.00 20.00     0.021 C 
HETATM    2  C2  UNL     1     -34.010  15.901  -2.547  1.00 20.00    -0.040 C 
HETATM    3  C3  UNL     1     -33.304  15.408  -3.708  1.00 20.00     0.202 C 
HETATM    4  O9  UNL     1     -32.271  14.768  -3.555  1.00 20.00    -0.283 OA
ENDROOT
BRANCH   3   5
HETATM    5  C7  UNL     1     -33.907  15.724  -5.060  1.00 20.00     0.101 C 
BRANCH   5   6
HETATM    6  C8  UNL     1     -34.947  14.697  -5.563  1.00 20.00    -0.044 C 
HETATM    7  C4  UNL     1     -34.921  14.579  -7.096  1.00 20.00     0.015 C 
HETATM    8  C5  UNL     1     -36.346  15.186  -5.137  1.00 20.00     0.015 C 
HETATM    9  C6  UNL     1     -34.706  13.311  -4.943  1.00 20.00     0.015 C 
ENDBRANCH   5   6
ENDBRANCH   3   5
TORSDOF 2
ENDMDL
MODEL 5
REMARK VINA RESULT:      -3.9      2.123      4.307
REMARK  2 active torsions:
REMARK  status: ('A' for Active; 'I' for Inactive)
REMARK    1  A    between atoms: C3_3  and  C7_7 
REMARK    2  A    between atoms: C7_7  and  C8_8 
ROOT
HETATM    1  C1  UNL     1     -34.730  16.994  -0.199  1.00 20.00     0.021 C 
HETATM    2  C2  UNL     1     -34.350  16.824  -1.325  1.00 20.00    -0.040 C 
HETATM    3  C3  UNL     1     -33.890  16.620  -2.681  1.00 20.00     0.202 C 
HETATM    4  O9  UNL     1     -33.589  17.589  -3.364  1.00 20.00    -0.283 OA
ENDROOT
BRANCH   3   5
HETATM    5  C7  UNL     1     -33.813  15.188  -3.167  1.00 20.00     0.101 C 
BRANCH   5   6
HETATM    6  C8  UNL     1     -34.912  14.785  -4.177  1.00 20.00    -0.044 C 
HETATM    7  C4  UNL     1     -36.297  15.275  -3.722  1.00 20.00     0.015 C 
HETATM    8  C5  UNL     1     -34.943  13.246  -4.260  1.00 20.00     0.015 C 
HETATM    9  C6  UNL     1     -34.611  15.342  -5.578  1.00 20.00     0.015 C 
ENDBRANCH   5   6
ENDBRANCH   3   5
TORSDOF 2
ENDMDL
MODEL 6
REMARK VINA RESULT:      -3.9     11.705     12.685
REMARK  2 active torsions:
REMARK  status: ('A' for Active; 'I' for Inactive)
REMARK    1  A    between atoms: C3_3  and  C7_7 
REMARK    2  A    between atoms: C7_7  and  C8_8 
ROOT
HETATM    1  C1  UNL     1     -34.960   3.920   5.395  1.00 20.00     0.021 C 
HETATM    2  C2  UNL     1     -34.494   5.026   5.384  1.00 20.00    -0.040 C 
HETATM    3  C3  UNL     1     -33.931   6.358   5.371  1.00 20.00     0.202 C 
HETATM    4  O9  UNL     1     -33.549   6.858   6.421  1.00 20.00    -0.283 OA
ENDROOT
BRANCH   3   5
HETATM    5  C7  UNL     1     -33.851   7.052   4.028  1.00 20.00     0.101 C 
BRANCH   5   6
HETATM    6  C8  UNL     1     -32.456   7.021   3.363  1.00 20.00    -0.044 C 
HETATM    7  C4  UNL     1     -31.379   7.601   4.295  1.00 20.00     0.015 C 
HETATM    8  C5  UNL     1     -32.514   7.888   2.090  1.00 20.00     0.015 C 
HETATM    9  C6  UNL     1     -32.063   5.590   2.960  1.00 20.00     0.015 C 
ENDBRANCH   5   6
ENDBRANCH   3   5
TORSDOF 2
ENDMDL
MODEL 7
REMARK VINA RESULT:      -3.9      1.353      3.597
REMARK  2 active torsions:
REMARK  status: ('A' for Active; 'I' for Inactive)
REMARK    1  A    between atoms: C3_3  and  C7_7 
REMARK    2  A    between atoms: C7_7  and  C8_8 
ROOT
HETATM    1  C1  UNL     1     -34.559  15.982  -2.137  1.00 20.00     0.021 C 
HETATM    2  C2  UNL     1     -34.393  15.102  -2.937  1.00 20.00    -0.040 C 
HETATM    3  C3  UNL     1     -34.195  14.042  -3.899  1.00 20.00     0.202 C 
HETATM    4  O9  UNL     1     -33.214  13.315  -3.798  1.00 20.00    -0.283 OA
ENDROOT
BRANCH   3   5
HETATM    5  C7  UNL     1     -35.239  13.902  -4.987  1.00 20.00     0.101 C 
BRANCH   5   6
HETATM    6  C8  UNL     1     -35.227  15.029  -6.046  1.00 20.00    -0.044 C 
HETATM    7  C4  UNL     1     -36.348  16.050  -5.788  1.00 20.00     0.015 C 
HETATM    8  C5  UNL     1     -35.462  14.387  -7.427  1.00 20.00     0.015 C 
HETATM    9  C6  UNL     1     -33.873  15.756  -6.070  1.00 20.00     0.015 C 
ENDBRANCH   5   6
ENDBRANCH   3   5
TORSDOF 2
ENDMDL
MODEL 8
REMARK VINA RESULT:      -3.8     11.401     12.309
REMARK  2 active torsions:
REMARK  status: ('A' for Active; 'I' for Inactive)
REMARK    1  A    between atoms: C3_3  and  C7_7 
REMARK    2  A    between atoms: C7_7  and  C8_8 
ROOT
HETATM    1  C1  UNL     1     -34.993   4.293   6.016  1.00 20.00     0.021 C 
HETATM    2  C2  UNL     1     -34.755   4.946   5.037  1.00 20.00    -0.040 C 
HETATM    3  C3  UNL     1     -34.469   5.732   3.858  1.00 20.00     0.202 C 
HETATM    4  O9  UNL     1     -34.858   5.339   2.766  1.00 20.00    -0.283 OA
ENDROOT
BRANCH   3   5
HETATM    5  C7  UNL     1     -33.693   7.015   4.065  1.00 20.00     0.101 C 
BRANCH   5   6
HETATM    6  C8  UNL     1     -32.335   7.078   3.329  1.00 20.00    -0.044 C 
HETATM    7  C4  UNL     1     -31.829   5.672   2.968  1.00 20.00     0.015 C 
HETATM    8  C5  UNL     1     -31.309   7.735   4.274  1.00 20.00     0.015 C 
HETATM    9  C6  UNL     1     -32.433   7.927   2.052  1.00 20.00     0.015 C 
ENDBRANCH   5   6
ENDBRANCH   3   5
TORSDOF 2
ENDMDL
MODEL 9
REMARK VINA RESULT:      -3.8      1.367      2.319
REMARK  2 active torsions:
REMARK  status: ('A' for Active; 'I' for Inactive)
REMARK    1  A    between atoms: C3_3  and  C7_7 
REMARK    2  A    between atoms: C7_7  and  C8_8 
ROOT
HETATM    1  C1  UNL     1     -38.183  14.754  -3.928  1.00 20.00     0.021 C 
HETATM    2  C2  UNL     1     -37.060  14.389  -4.141  1.00 20.00    -0.040 C 
HETATM    3  C3  UNL     1     -35.707  13.948  -4.399  1.00 20.00     0.202 C 
HETATM    4  O9  UNL     1     -35.406  12.780  -4.190  1.00 20.00    -0.283 OA
ENDROOT
BRANCH   3   5
HETATM    5  C7  UNL     1     -34.739  14.988  -4.923  1.00 20.00     0.101 C 
BRANCH   5   6
HETATM    6  C8  UNL     1     -33.808  15.605  -3.854  1.00 20.00    -0.044 C 
HETATM    7  C4  UNL     1     -34.531  15.763  -2.506  1.00 20.00     0.015 C 
HETATM    8  C5  UNL     1     -33.380  17.003  -4.343  1.00 20.00     0.015 C 
HETATM    9  C6  UNL     1     -32.545  14.750  -3.656  1.00 20.00     0.015 C 
ENDBRANCH   5   6
ENDBRANCH   3   5
TORSDOF 2
ENDMDL
