MODEL 1
REMARK VINA RESULT:      -4.4      0.000      0.000
REMARK  3 active torsions:
REMARK  status: ('A' for Active; 'I' for Inactive)
REMARK    1  A    between atoms: C7_7  and  C9_9 
REMARK    2  A    between atoms: C9_9  and  C10_10 
REMARK    3  A    between atoms: C10_10  and  N11_11 
ROOT
HETATM    1  C1  UNL     1     -33.877  17.810  -6.458  1.00 20.00     0.029 C 
HETATM    2  C4  UNL     1     -34.800  16.885  -7.249  1.00 20.00     0.023 C 
HETATM    3  C5  UNL     1     -33.802  17.412  -4.991  1.00 20.00     0.235 C 
HETATM    4  C6  UNL     1     -34.325  15.032  -5.600  1.00 20.00     0.254 C 
HETATM    5  C8  UNL     1     -34.392  15.424  -7.070  1.00 20.00     0.108 C 
HETATM    6  N11 UNL     1     -33.379  15.967  -4.881  1.00 20.00    -0.070 N 
HETATM    7 CL12 UNL     1     -35.554  14.366  -7.918  1.00 20.00    -0.123 Cl
HETATM    8  H31 UNL     1     -32.461  15.883  -5.337  1.00 20.00     0.279 HD
ENDROOT
BRANCH   6   9
HETATM    9  C10 UNL     1     -33.177  15.558  -3.447  1.00 20.00     0.235 C 
BRANCH   9  10
HETATM   10  C9  UNL     1     -34.535  15.402  -2.779  1.00 20.00     0.032 C 
BRANCH  10  11
HETATM   11  C7  UNL     1     -34.608  16.205  -1.490  1.00 20.00    -0.013 A 
HETATM   12  C2  UNL     1     -33.677  17.363  -1.266  1.00 20.00     0.005 A 
HETATM   13  C3  UNL     1     -35.140  17.611  -1.505  1.00 20.00     0.005 A 
ENDBRANCH  10  11
ENDBRANCH   9  10
ENDBRANCH   6   9
TORSDOF 3
ENDMDL
MODEL 2
REMARK VINA RESULT:      -4.4     11.831     13.656
REMARK  3 active torsions:
REMARK  status: ('A' for Active; 'I' for Inactive)
REMARK    1  A    between atoms: C7_7  and  C9_9 
REMARK    2  A    between atoms: C9_9  and  C10_10 
REMARK    3  A    between atoms: C10_10  and  N11_11 
ROOT
HETATM    1  C1  UNL     1     -34.935   4.397   5.359  1.00 20.00     0.029 C 
HETATM    2  C4  UNL     1     -34.959   5.531   6.381  1.00 20.00     0.023 C 
HETATM    3  C5  UNL     1     -34.626   4.906   3.959  1.00 20.00     0.235 C 
HETATM    4  C6  UNL     1     -33.361   6.846   4.933  1.00 20.00     0.254 C 
HETATM    5  C8  UNL     1     -33.661   6.334   6.336  1.00 20.00     0.108 C 
HETATM    6  N11 UNL     1     -33.326   5.675   3.976  1.00 20.00    -0.070 N 
HETATM    7 CL12 UNL     1     -33.767   7.714   7.464  1.00 20.00    -0.123 Cl
HETATM    8  H31 UNL     1     -32.596   5.031   4.309  1.00 20.00     0.279 HD
ENDROOT
BRANCH   6   9
HETATM    9  C10 UNL     1     -32.917   6.101   2.593  1.00 20.00     0.235 C 
BRANCH   9  10
HETATM   10  C9  UNL     1     -32.215   7.447   2.674  1.00 20.00     0.032 C 
BRANCH  10  11
HETATM   11  C7  UNL     1     -32.714   8.394   1.594  1.00 20.00    -0.013 A 
HETATM   12  C2  UNL     1     -32.410   9.864   1.677  1.00 20.00     0.005 A 
HETATM   13  C3  UNL     1     -31.744   9.017   0.628  1.00 20.00     0.005 A 
ENDBRANCH  10  11
ENDBRANCH   9  10
ENDBRANCH   6   9
TORSDOF 3
ENDMDL
MODEL 3
REMARK VINA RESULT:      -4.4      1.844      2.508
REMARK  3 active torsions:
REMARK  status: ('A' for Active; 'I' for Inactive)
REMARK    1  A    between atoms: C7_7  and  C9_9 
REMARK    2  A    between atoms: C9_9  and  C10_10 
REMARK    3  A    between atoms: C10_10  and  N11_11 
ROOT
HETATM    1  C1  UNL     1     -33.383  16.693  -5.372  1.00 20.00     0.029 C 
HETATM    2  C4  UNL     1     -34.210  15.413  -5.467  1.00 20.00     0.023 C 
HETATM    3  C5  UNL     1     -33.726  17.495  -4.126  1.00 20.00     0.235 C 
HETATM    4  C6  UNL     1     -34.425  15.388  -2.950  1.00 20.00     0.254 C 
HETATM    5  C8  UNL     1     -34.074  14.580  -4.194  1.00 20.00     0.108 C 
HETATM    6  N11 UNL     1     -33.557  16.625  -2.903  1.00 20.00    -0.070 N 
HETATM    7 CL12 UNL     1     -35.136  13.148  -4.294  1.00 20.00    -0.123 Cl
HETATM    8  H31 UNL     1     -32.578  16.311  -2.887  1.00 20.00     0.279 HD
ENDROOT
BRANCH   6   9
HETATM    9  C10 UNL     1     -33.772  17.406  -1.635  1.00 20.00     0.235 C 
BRANCH   9  10
HETATM   10  C9  UNL     1     -34.698  16.621  -0.719  1.00 20.00     0.032 C 
BRANCH  10  11
HETATM   11  C7  UNL     1     -35.012  17.403   0.547  1.00 20.00    -0.013 A 
HETATM   12  C2  UNL     1     -33.993  18.344   1.127  1.00 20.00     0.005 A 
HETATM   13  C3  UNL     1     -35.237  18.887   0.481  1.00 20.00     0.005 A 
ENDBRANCH  10  11
ENDBRANCH   9  10
ENDBRANCH   6   9
TORSDOF 3
ENDMDL
MODEL 4
REMARK VINA RESULT:      -4.4      1.588      2.646
REMARK  3 active torsions:
REMARK  status: ('A' for Active; 'I' for Inactive)
REMARK    1  A    between atoms: C7_7  and  C9_9 
REMARK    2  A    between atoms: C9_9  and  C10_10 
REMARK    3  A    between atoms: C10_10  and  N11_11 
ROOT
HETATM    1  C1  UNL     1     -35.047  13.410  -4.136  1.00 20.00     0.029 C 
HETATM    2  C4  UNL     1     -34.784  13.682  -5.615  1.00 20.00     0.023 C 
HETATM    3  C5  UNL     1     -34.349  14.424  -3.242  1.00 20.00     0.235 C 
HETATM    4  C6  UNL     1     -34.448  16.129  -5.084  1.00 20.00     0.254 C 
HETATM    5  C8  UNL     1     -35.155  15.118  -5.979  1.00 20.00     0.108 C 
HETATM    6  N11 UNL     1     -34.768  15.820  -3.639  1.00 20.00    -0.070 N 
HETATM    7 CL12 UNL     1     -34.734  15.435  -7.685  1.00 20.00    -0.123 Cl
HETATM    8  H31 UNL     1     -35.790  15.871  -3.535  1.00 20.00     0.279 HD
ENDROOT
BRANCH   6   9
HETATM    9  C10 UNL     1     -34.195  16.855  -2.710  1.00 20.00     0.235 C 
BRANCH   9  10
HETATM   10  C9  UNL     1     -34.523  16.472  -1.275  1.00 20.00     0.032 C 
BRANCH  10  11
HETATM   11  C7  UNL     1     -34.839  17.700  -0.436  1.00 20.00    -0.013 A 
HETATM   12  C2  UNL     1     -35.178  17.554   1.021  1.00 20.00     0.005 A 
HETATM   13  C3  UNL     1     -33.868  18.169   0.612  1.00 20.00     0.005 A 
ENDBRANCH  10  11
ENDBRANCH   9  10
ENDBRANCH   6   9
TORSDOF 3
ENDMDL
MODEL 5
REMARK VINA RESULT:      -4.4      2.405      3.114
REMARK  3 active torsions:
REMARK  status: ('A' for Active; 'I' for Inactive)
REMARK    1  A    between atoms: C7_7  and  C9_9 
REMARK    2  A    between atoms: C9_9  and  C10_10 
REMARK    3  A    between atoms: C10_10  and  N11_11 
ROOT
HETATM    1  C1  UNL     1     -33.791  13.889  -3.747  1.00 20.00     0.029 C 
HETATM    2  C4  UNL     1     -35.242  13.705  -4.186  1.00 20.00     0.023 C 
HETATM    3  C5  UNL     1     -33.294  15.301  -4.017  1.00 20.00     0.235 C 
HETATM    4  C6  UNL     1     -35.642  16.174  -3.829  1.00 20.00     0.254 C 
HETATM    5  C8  UNL     1     -36.142  14.762  -3.549  1.00 20.00     0.108 C 
HETATM    6  N11 UNL     1     -34.213  16.296  -3.350  1.00 20.00    -0.070 N 
HETATM    7 CL12 UNL     1     -37.808  14.586  -4.167  1.00 20.00    -0.123 Cl
HETATM    8  H31 UNL     1     -34.209  16.085  -2.343  1.00 20.00     0.279 HD
ENDROOT
BRANCH   6   9
HETATM    9  C10 UNL     1     -33.700  17.703  -3.489  1.00 20.00     0.235 C 
BRANCH   9  10
HETATM   10  C9  UNL     1     -33.969  18.462  -2.199  1.00 20.00     0.032 C 
BRANCH  10  11
HETATM   11  C7  UNL     1     -33.668  17.601  -0.982  1.00 20.00    -0.013 A 
HETATM   12  C2  UNL     1     -33.793  18.176   0.401  1.00 20.00     0.005 A 
HETATM   13  C3  UNL     1     -34.783  17.152  -0.079  1.00 20.00     0.005 A 
ENDBRANCH  10  11
ENDBRANCH   9  10
ENDBRANCH   6   9
TORSDOF 3
ENDMDL
MODEL 6
REMARK VINA RESULT:      -4.2     11.825     13.194
REMARK  3 active torsions:
REMARK  status: ('A' for Active; 'I' for Inactive)
REMARK    1  A    between atoms: C7_7  and  C9_9 
REMARK    2  A    between atoms: C9_9  and  C10_10 
REMARK    3  A    between atoms: C10_10  and  N11_11 
ROOT
HETATM    1  C1  UNL     1     -40.791   5.893  -0.167  1.00 20.00     0.029 C 
HETATM    2  C4  UNL     1     -40.648   4.631  -1.015  1.00 20.00     0.023 C 
HETATM    3  C5  UNL     1     -41.235   7.086  -1.000  1.00 20.00     0.235 C 
HETATM    4  C6  UNL     1     -42.369   5.541  -2.624  1.00 20.00     0.254 C 
HETATM    5  C8  UNL     1     -41.934   4.344  -1.787  1.00 20.00     0.108 C 
HETATM    6  N11 UNL     1     -42.516   6.747  -1.724  1.00 20.00    -0.070 N 
HETATM    7 CL12 UNL     1     -41.696   2.928  -2.849  1.00 20.00    -0.123 Cl
HETATM    8  H31 UNL     1     -43.216   6.510  -1.008  1.00 20.00     0.279 HD
ENDROOT
BRANCH   6   9
HETATM    9  C10 UNL     1     -43.060   7.934  -2.471  1.00 20.00     0.235 C 
BRANCH   9  10
HETATM   10  C9  UNL     1     -42.856   7.718  -3.963  1.00 20.00     0.032 C 
BRANCH  10  11
HETATM   11  C7  UNL     1     -42.611   9.036  -4.681  1.00 20.00    -0.013 A 
HETATM   12  C2  UNL     1     -41.524   9.144  -5.713  1.00 20.00     0.005 A 
HETATM   13  C3  UNL     1     -42.967   9.182  -6.134  1.00 20.00     0.005 A 
ENDBRANCH  10  11
ENDBRANCH   9  10
ENDBRANCH   6   9
TORSDOF 3
ENDMDL
MODEL 7
REMARK VINA RESULT:      -4.2     13.820     15.159
REMARK  3 active torsions:
REMARK  status: ('A' for Active; 'I' for Inactive)
REMARK    1  A    between atoms: C7_7  and  C9_9 
REMARK    2  A    between atoms: C9_9  and  C10_10 
REMARK    3  A    between atoms: C10_10  and  N11_11 
ROOT
HETATM    1  C1  UNL     1     -40.778   6.080  -0.595  1.00 20.00     0.029 C 
HETATM    2  C4  UNL     1     -41.585   7.243  -1.169  1.00 20.00     0.023 C 
HETATM    3  C5  UNL     1     -41.494   4.750  -0.782  1.00 20.00     0.235 C 
HETATM    4  C6  UNL     1     -42.668   5.656  -2.810  1.00 20.00     0.254 C 
HETATM    5  C8  UNL     1     -41.948   6.987  -2.630  1.00 20.00     0.108 C 
HETATM    6  N11 UNL     1     -41.809   4.548  -2.245  1.00 20.00    -0.070 N 
HETATM    7 CL12 UNL     1     -42.981   8.311  -3.236  1.00 20.00    -0.123 Cl
HETATM    8  H31 UNL     1     -40.915   4.566  -2.754  1.00 20.00     0.279 HD
ENDROOT
BRANCH   6   9
HETATM    9  C10 UNL     1     -42.413   3.193  -2.499  1.00 20.00     0.235 C 
BRANCH   9  10
HETATM   10  C9  UNL     1     -41.446   2.366  -3.332  1.00 20.00     0.032 C 
BRANCH  10  11
HETATM   11  C7  UNL     1     -42.164   1.225  -4.035  1.00 20.00    -0.013 A 
HETATM   12  C2  UNL     1     -41.580  -0.160  -4.018  1.00 20.00     0.005 A 
HETATM   13  C3  UNL     1     -42.826   0.140  -3.233  1.00 20.00     0.005 A 
ENDBRANCH  10  11
ENDBRANCH   9  10
ENDBRANCH   6   9
TORSDOF 3
ENDMDL
MODEL 8
REMARK VINA RESULT:      -4.1      2.630      5.064
REMARK  3 active torsions:
REMARK  status: ('A' for Active; 'I' for Inactive)
REMARK    1  A    between atoms: C7_7  and  C9_9 
REMARK    2  A    between atoms: C9_9  and  C10_10 
REMARK    3  A    between atoms: C10_10  and  N11_11 
ROOT
HETATM    1  C1  UNL     1     -34.329  13.626  -3.873  1.00 20.00     0.029 C 
HETATM    2  C4  UNL     1     -34.367  14.919  -3.061  1.00 20.00     0.023 C 
HETATM    3  C5  UNL     1     -34.801  13.844  -5.304  1.00 20.00     0.235 C 
HETATM    4  C6  UNL     1     -34.065  16.243  -5.192  1.00 20.00     0.254 C 
HETATM    5  C8  UNL     1     -33.583  16.027  -3.762  1.00 20.00     0.108 C 
HETATM    6  N11 UNL     1     -33.979  14.935  -5.946  1.00 20.00    -0.070 N 
HETATM    7 CL12 UNL     1     -33.739  17.550  -2.843  1.00 20.00    -0.123 Cl
HETATM    8  H31 UNL     1     -32.996  14.632  -5.919  1.00 20.00     0.279 HD
ENDROOT
BRANCH   6   9
HETATM    9  C10 UNL     1     -34.328  15.109  -7.399  1.00 20.00     0.235 C 
BRANCH   9  10
HETATM   10  C9  UNL     1     -35.658  14.425  -7.675  1.00 20.00     0.032 C 
BRANCH  10  11
HETATM   11  C7  UNL     1     -36.761  15.443  -7.918  1.00 20.00    -0.013 A 
HETATM   12  C2  UNL     1     -38.199  15.071  -7.686  1.00 20.00     0.005 A 
HETATM   13  C3  UNL     1     -37.512  16.034  -6.758  1.00 20.00     0.005 A 
ENDBRANCH  10  11
ENDBRANCH   9  10
ENDBRANCH   6   9
TORSDOF 3
ENDMDL
MODEL 9
REMARK VINA RESULT:      -4.0      2.617      4.505
REMARK  3 active torsions:
REMARK  status: ('A' for Active; 'I' for Inactive)
REMARK    1  A    between atoms: C7_7  and  C9_9 
REMARK    2  A    between atoms: C9_9  and  C10_10 
REMARK    3  A    between atoms: C10_10  and  N11_11 
ROOT
HETATM    1  C1  UNL     1     -34.637  17.159  -0.943  1.00 20.00     0.029 C 
HETATM    2  C4  UNL     1     -35.882  17.875  -1.460  1.00 20.00     0.023 C 
HETATM    3  C5  UNL     1     -34.108  16.146  -1.949  1.00 20.00     0.235 C 
HETATM    4  C6  UNL     1     -35.098  17.486  -3.830  1.00 20.00     0.254 C 
HETATM    5  C8  UNL     1     -35.621  18.506  -2.826  1.00 20.00     0.108 C 
HETATM    6  N11 UNL     1     -33.854  16.833  -3.270  1.00 20.00    -0.070 N 
HETATM    7 CL12 UNL     1     -37.125  19.239  -3.449  1.00 20.00    -0.123 Cl
HETATM    8  H31 UNL     1     -33.169  17.580  -3.097  1.00 20.00     0.279 HD
ENDROOT
BRANCH   6   9
HETATM    9  C10 UNL     1     -33.221  15.900  -4.265  1.00 20.00     0.235 C 
BRANCH   9  10
HETATM   10  C9  UNL     1     -33.165  14.501  -3.670  1.00 20.00     0.032 C 
BRANCH  10  11
HETATM   11  C7  UNL     1     -34.050  13.537  -4.444  1.00 20.00    -0.013 A 
HETATM   12  C2  UNL     1     -35.545  13.616  -4.319  1.00 20.00     0.005 A 
HETATM   13  C3  UNL     1     -34.876  14.032  -5.599  1.00 20.00     0.005 A 
ENDBRANCH  10  11
ENDBRANCH   9  10
ENDBRANCH   6   9
TORSDOF 3
ENDMDL
