MODEL 1
REMARK VINA RESULT:      -5.8      0.000      0.000
REMARK  4 active torsions:
REMARK  status: ('A' for Active; 'I' for Inactive)
REMARK    1  A    between atoms: C1_1  and  C5_5 
REMARK    2  A    between atoms: C1_1  and  C9_9 
REMARK    3  A    between atoms: C6_6  and  C10_10 
REMARK    4  A    between atoms: C9_9  and  C10_10 
ROOT
HETATM    1  C1  UNL     1     -33.660   5.907   3.497  1.00 20.00     0.131 C 
HETATM    2  O11 UNL     1     -34.255   5.319   2.596  1.00 20.00    -0.298 OA
ENDROOT
BRANCH   1   3
HETATM    3  C5  UNL     1     -34.396   6.420   4.709  1.00 20.00     0.059 A 
HETATM    4  C4  UNL     1     -33.712   6.342   6.029  1.00 20.00     0.017 A 
HETATM    5  C7  UNL     1     -34.889   5.458   5.733  1.00 20.00    -0.007 A 
HETATM    6  C8  UNL     1     -34.706   3.982   5.631  1.00 20.00     0.011 C 
ENDBRANCH   1   3
BRANCH   1   7
HETATM    7  C9  UNL     1     -32.163   6.162   3.468  1.00 20.00     0.079 C 
BRANCH   7   8
HETATM    8  C10 UNL     1     -31.823   7.631   3.232  1.00 20.00     0.012 C 
BRANCH   8   9
HETATM    9  C6  UNL     1     -32.488   8.161   1.972  1.00 20.00    -0.014 A 
HETATM   10  C2  UNL     1     -32.486   9.635   1.677  1.00 20.00     0.005 A 
HETATM   11  C3  UNL     1     -31.651   8.702   0.846  1.00 20.00     0.005 A 
ENDBRANCH   8   9
ENDBRANCH   7   8
ENDBRANCH   1   7
TORSDOF 4
ENDMDL
MODEL 2
REMARK VINA RESULT:      -5.5      1.241      1.518
REMARK  4 active torsions:
REMARK  status: ('A' for Active; 'I' for Inactive)
REMARK    1  A    between atoms: C1_1  and  C5_5 
REMARK    2  A    between atoms: C1_1  and  C9_9 
REMARK    3  A    between atoms: C6_6  and  C10_10 
REMARK    4  A    between atoms: C9_9  and  C10_10 
ROOT
HETATM    1  C1  UNL     1     -33.400   6.181   4.121  1.00 20.00     0.131 C 
HETATM    2  O11 UNL     1     -33.571   6.810   5.164  1.00 20.00    -0.298 OA
ENDROOT
BRANCH   1   3
HETATM    3  C5  UNL     1     -34.469   5.268   3.579  1.00 20.00     0.059 A 
HETATM    4  C4  UNL     1     -35.883   5.544   3.959  1.00 20.00     0.017 A 
HETATM    5  C7  UNL     1     -35.175   4.334   4.499  1.00 20.00    -0.007 A 
HETATM    6  C8  UNL     1     -34.878   4.232   5.956  1.00 20.00     0.011 C 
ENDBRANCH   1   3
BRANCH   1   7
HETATM    7  C9  UNL     1     -32.120   6.270   3.306  1.00 20.00     0.079 C 
BRANCH   7   8
HETATM    8  C10 UNL     1     -31.698   7.711   3.035  1.00 20.00     0.012 C 
BRANCH   8   9
HETATM    9  C6  UNL     1     -32.479   8.312   1.878  1.00 20.00    -0.014 A 
HETATM   10  C2  UNL     1     -32.424   9.791   1.613  1.00 20.00     0.005 A 
HETATM   11  C3  UNL     1     -31.757   8.833   0.667  1.00 20.00     0.005 A 
ENDBRANCH   8   9
ENDBRANCH   7   8
ENDBRANCH   1   7
TORSDOF 4
ENDMDL
MODEL 3
REMARK VINA RESULT:      -5.4      1.260      2.117
REMARK  4 active torsions:
REMARK  status: ('A' for Active; 'I' for Inactive)
REMARK    1  A    between atoms: C1_1  and  C5_5 
REMARK    2  A    between atoms: C1_1  and  C9_9 
REMARK    3  A    between atoms: C6_6  and  C10_10 
REMARK    4  A    between atoms: C9_9  and  C10_10 
ROOT
HETATM    1  C1  UNL     1     -34.979   5.144   3.879  1.00 20.00     0.131 C 
HETATM    2  O11 UNL     1     -36.081   5.690   3.894  1.00 20.00    -0.298 OA
ENDROOT
BRANCH   1   3
HETATM    3  C5  UNL     1     -34.472   4.385   5.078  1.00 20.00     0.059 A 
HETATM    4  C4  UNL     1     -35.327   4.349   6.296  1.00 20.00     0.017 A 
HETATM    5  C7  UNL     1     -34.044   5.130   6.294  1.00 20.00    -0.007 A 
HETATM    6  C8  UNL     1     -34.077   6.617   6.402  1.00 20.00     0.011 C 
ENDBRANCH   1   3
BRANCH   1   7
HETATM    7  C9  UNL     1     -34.055   5.187   2.674  1.00 20.00     0.079 C 
BRANCH   7   8
HETATM    8  C10 UNL     1     -32.663   5.707   3.022  1.00 20.00     0.012 C 
BRANCH   8   9
HETATM    9  C6  UNL     1     -32.658   7.219   3.183  1.00 20.00    -0.014 A 
HETATM   10  C2  UNL     1     -31.383   7.941   3.519  1.00 20.00     0.005 A 
HETATM   11  C3  UNL     1     -31.991   8.087   2.152  1.00 20.00     0.005 A 
ENDBRANCH   8   9
ENDBRANCH   7   8
ENDBRANCH   1   7
TORSDOF 4
ENDMDL
MODEL 4
REMARK VINA RESULT:      -4.7     10.710     12.261
REMARK  4 active torsions:
REMARK  status: ('A' for Active; 'I' for Inactive)
REMARK    1  A    between atoms: C1_1  and  C5_5 
REMARK    2  A    between atoms: C1_1  and  C9_9 
REMARK    3  A    between atoms: C6_6  and  C10_10 
REMARK    4  A    between atoms: C9_9  and  C10_10 
ROOT
HETATM    1  C1  UNL     1     -34.438  13.816  -5.026  1.00 20.00     0.131 C 
HETATM    2  O11 UNL     1     -34.792  12.650  -4.858  1.00 20.00    -0.298 OA
ENDROOT
BRANCH   1   3
HETATM    3  C5  UNL     1     -34.583  14.486  -6.369  1.00 20.00     0.059 A 
HETATM    4  C4  UNL     1     -34.584  15.974  -6.412  1.00 20.00     0.017 A 
HETATM    5  C7  UNL     1     -35.843  15.207  -6.701  1.00 20.00    -0.007 A 
HETATM    6  C8  UNL     1     -37.005  15.303  -5.772  1.00 20.00     0.011 C 
ENDBRANCH   1   3
BRANCH   1   7
HETATM    7  C9  UNL     1     -33.837  14.663  -3.918  1.00 20.00     0.079 C 
BRANCH   7   8
HETATM    8  C10 UNL     1     -34.799  14.868  -2.751  1.00 20.00     0.012 C 
BRANCH   8   9
HETATM    9  C6  UNL     1     -34.845  16.324  -2.316  1.00 20.00    -0.014 A 
HETATM   10  C2  UNL     1     -34.719  16.686  -0.863  1.00 20.00     0.005 A 
HETATM   11  C3  UNL     1     -33.602  17.005  -1.817  1.00 20.00     0.005 A 
ENDBRANCH   8   9
ENDBRANCH   7   8
ENDBRANCH   1   7
TORSDOF 4
ENDMDL
MODEL 5
REMARK VINA RESULT:      -4.6      0.910      4.670
REMARK  4 active torsions:
REMARK  status: ('A' for Active; 'I' for Inactive)
REMARK    1  A    between atoms: C1_1  and  C5_5 
REMARK    2  A    between atoms: C1_1  and  C9_9 
REMARK    3  A    between atoms: C6_6  and  C10_10 
REMARK    4  A    between atoms: C9_9  and  C10_10 
ROOT
HETATM    1  C1  UNL     1     -33.534   5.776   2.832  1.00 20.00     0.131 C 
HETATM    2  O11 UNL     1     -33.723   5.092   1.827  1.00 20.00    -0.298 OA
ENDROOT
BRANCH   1   3
HETATM    3  C5  UNL     1     -32.152   6.250   3.201  1.00 20.00     0.059 A 
HETATM    4  C4  UNL     1     -32.034   7.407   4.131  1.00 20.00     0.017 A 
HETATM    5  C7  UNL     1     -31.659   7.557   2.684  1.00 20.00    -0.007 A 
HETATM    6  C8  UNL     1     -32.460   8.445   1.794  1.00 20.00     0.011 C 
ENDBRANCH   1   3
BRANCH   1   7
HETATM    7  C9  UNL     1     -34.657   6.193   3.767  1.00 20.00     0.079 C 
BRANCH   7   8
HETATM    8  C10 UNL     1     -35.420   5.000   4.334  1.00 20.00     0.012 C 
BRANCH   8   9
HETATM    9  C6  UNL     1     -35.211   4.866   5.834  1.00 20.00    -0.014 A 
HETATM   10  C2  UNL     1     -33.881   4.424   6.377  1.00 20.00     0.005 A 
HETATM   11  C3  UNL     1     -34.336   5.844   6.565  1.00 20.00     0.005 A 
ENDBRANCH   8   9
ENDBRANCH   7   8
ENDBRANCH   1   7
TORSDOF 4
ENDMDL
MODEL 6
REMARK VINA RESULT:      -4.6     10.945     11.862
REMARK  4 active torsions:
REMARK  status: ('A' for Active; 'I' for Inactive)
REMARK    1  A    between atoms: C1_1  and  C5_5 
REMARK    2  A    between atoms: C1_1  and  C9_9 
REMARK    3  A    between atoms: C6_6  and  C10_10 
REMARK    4  A    between atoms: C9_9  and  C10_10 
ROOT
HETATM    1  C1  UNL     1     -33.478  15.113  -3.403  1.00 20.00     0.131 C 
HETATM    2  O11 UNL     1     -32.338  14.700  -3.610  1.00 20.00    -0.298 OA
ENDROOT
BRANCH   1   3
HETATM    3  C5  UNL     1     -34.683  14.340  -3.875  1.00 20.00     0.059 A 
HETATM    4  C4  UNL     1     -34.459  13.178  -4.780  1.00 20.00     0.017 A 
HETATM    5  C7  UNL     1     -35.105  14.431  -5.300  1.00 20.00    -0.007 A 
HETATM    6  C8  UNL     1     -34.401  15.267  -6.314  1.00 20.00     0.011 C 
ENDBRANCH   1   3
BRANCH   1   7
HETATM    7  C9  UNL     1     -33.762  16.412  -2.668  1.00 20.00     0.079 C 
BRANCH   7   8
HETATM    8  C10 UNL     1     -34.742  16.228  -1.513  1.00 20.00     0.012 C 
BRANCH   8   9
HETATM    9  C6  UNL     1     -34.924  17.517  -0.726  1.00 20.00    -0.014 A 
HETATM   10  C2  UNL     1     -35.069  17.478   0.769  1.00 20.00     0.005 A 
HETATM   11  C3  UNL     1     -33.816  18.031   0.150  1.00 20.00     0.005 A 
ENDBRANCH   8   9
ENDBRANCH   7   8
ENDBRANCH   1   7
TORSDOF 4
ENDMDL
MODEL 7
REMARK VINA RESULT:      -4.6      1.417      5.301
REMARK  4 active torsions:
REMARK  status: ('A' for Active; 'I' for Inactive)
REMARK    1  A    between atoms: C1_1  and  C5_5 
REMARK    2  A    between atoms: C1_1  and  C9_9 
REMARK    3  A    between atoms: C6_6  and  C10_10 
REMARK    4  A    between atoms: C9_9  and  C10_10 
ROOT
HETATM    1  C1  UNL     1     -32.246   7.308   2.771  1.00 20.00     0.131 C 
HETATM    2  O11 UNL     1     -31.399   7.660   3.590  1.00 20.00    -0.298 OA
ENDROOT
BRANCH   1   3
HETATM    3  C5  UNL     1     -32.224   7.829   1.357  1.00 20.00     0.059 A 
HETATM    4  C4  UNL     1     -31.113   8.740   0.964  1.00 20.00     0.017 A 
HETATM    5  C7  UNL     1     -32.513   9.267   1.098  1.00 20.00    -0.007 A 
HETATM    6  C8  UNL     1     -32.842  10.247   2.172  1.00 20.00     0.011 C 
ENDBRANCH   1   3
BRANCH   1   7
HETATM    7  C9  UNL     1     -33.364   6.337   3.108  1.00 20.00     0.079 C 
BRANCH   7   8
HETATM    8  C10 UNL     1     -33.559   6.168   4.612  1.00 20.00     0.012 C 
BRANCH   8   9
HETATM    9  C6  UNL     1     -34.820   5.377   4.925  1.00 20.00    -0.014 A 
HETATM   10  C2  UNL     1     -34.731   3.923   5.294  1.00 20.00     0.005 A 
HETATM   11  C3  UNL     1     -35.108   4.940   6.334  1.00 20.00     0.005 A 
ENDBRANCH   8   9
ENDBRANCH   7   8
ENDBRANCH   1   7
TORSDOF 4
ENDMDL
MODEL 8
REMARK VINA RESULT:      -4.6     10.732     12.141
REMARK  4 active torsions:
REMARK  status: ('A' for Active; 'I' for Inactive)
REMARK    1  A    between atoms: C1_1  and  C5_5 
REMARK    2  A    between atoms: C1_1  and  C9_9 
REMARK    3  A    between atoms: C6_6  and  C10_10 
REMARK    4  A    between atoms: C9_9  and  C10_10 
ROOT
HETATM    1  C1  UNL     1     -34.623  15.854  -5.368  1.00 20.00     0.131 C 
HETATM    2  O11 UNL     1     -33.756  16.117  -6.200  1.00 20.00    -0.298 OA
ENDROOT
BRANCH   1   3
HETATM    3  C5  UNL     1     -35.307  14.511  -5.357  1.00 20.00     0.059 A 
HETATM    4  C4  UNL     1     -35.963  14.070  -4.095  1.00 20.00     0.017 A 
HETATM    5  C7  UNL     1     -34.715  13.388  -4.578  1.00 20.00    -0.007 A 
HETATM    6  C8  UNL     1     -33.451  13.506  -3.797  1.00 20.00     0.011 C 
ENDBRANCH   1   3
BRANCH   1   7
HETATM    7  C9  UNL     1     -35.068  16.840  -4.302  1.00 20.00     0.079 C 
BRANCH   7   8
HETATM    8  C10 UNL     1     -33.895  17.442  -3.534  1.00 20.00     0.012 C 
BRANCH   8   9
HETATM    9  C6  UNL     1     -33.650  16.706  -2.226  1.00 20.00    -0.014 A 
HETATM   10  C2  UNL     1     -33.814  17.419  -0.913  1.00 20.00     0.005 A 
HETATM   11  C3  UNL     1     -34.802  16.363  -1.324  1.00 20.00     0.005 A 
ENDBRANCH   8   9
ENDBRANCH   7   8
ENDBRANCH   1   7
TORSDOF 4
ENDMDL
MODEL 9
REMARK VINA RESULT:      -4.6     10.836     11.824
REMARK  4 active torsions:
REMARK  status: ('A' for Active; 'I' for Inactive)
REMARK    1  A    between atoms: C1_1  and  C5_5 
REMARK    2  A    between atoms: C1_1  and  C9_9 
REMARK    3  A    between atoms: C6_6  and  C10_10 
REMARK    4  A    between atoms: C9_9  and  C10_10 
ROOT
HETATM    1  C1  UNL     1     -36.391  14.605  -3.864  1.00 20.00     0.131 C 
HETATM    2  O11 UNL     1     -37.560  14.281  -3.659  1.00 20.00    -0.298 OA
ENDROOT
BRANCH   1   3
HETATM    3  C5  UNL     1     -35.321  13.563  -4.069  1.00 20.00     0.059 A 
HETATM    4  C4  UNL     1     -33.926  14.029  -4.300  1.00 20.00     0.017 A 
HETATM    5  C7  UNL     1     -34.706  13.394  -5.415  1.00 20.00    -0.007 A 
HETATM    6  C8  UNL     1     -35.098  14.201  -6.606  1.00 20.00     0.011 C 
ENDBRANCH   1   3
BRANCH   1   7
HETATM    7  C9  UNL     1     -35.935  16.053  -3.925  1.00 20.00     0.079 C 
BRANCH   7   8
HETATM    8  C10 UNL     1     -36.004  16.746  -2.567  1.00 20.00     0.012 C 
BRANCH   8   9
HETATM    9  C6  UNL     1     -34.854  16.322  -1.667  1.00 20.00    -0.014 A 
HETATM   10  C2  UNL     1     -33.727  17.274  -1.379  1.00 20.00     0.005 A 
HETATM   11  C3  UNL     1     -34.707  16.921  -0.296  1.00 20.00     0.005 A 
ENDBRANCH   8   9
ENDBRANCH   7   8
ENDBRANCH   1   7
TORSDOF 4
ENDMDL
