MODEL 1
REMARK VINA RESULT:      -4.2      0.000      0.000
REMARK  3 active torsions:
REMARK  status: ('A' for Active; 'I' for Inactive)
REMARK    1  A    between atoms: C2_2  and  C8_8 
REMARK    2  A    between atoms: C6_6  and  C8_8 
REMARK    3  A    between atoms: C8_8  and  N9_9 
ROOT
HETATM    1  C8  UNL     1     -34.465  16.541  -2.874  1.00 20.00     0.248 C 
ENDROOT
BRANCH   1   2
HETATM    2  C2  UNL     1     -33.943  16.921  -1.516  1.00 20.00    -0.002 C 
HETATM    3  C1  UNL     1     -34.690  16.937  -0.406  1.00 20.00     0.009 C 
ENDBRANCH   1   2
BRANCH   1   4
HETATM    4  C6  UNL     1     -34.522  15.036  -3.052  1.00 20.00     0.048 C 
HETATM    5  C3  UNL     1     -35.610  14.562  -3.991  1.00 20.00     0.035 C 
HETATM    6  C4  UNL     1     -35.125  13.173  -4.347  1.00 20.00     0.168 C 
HETATM    7  O10 UNL     1     -33.691  13.211  -4.310  1.00 20.00    -0.391 OA
HETATM    8  C5  UNL     1     -33.285  14.450  -3.710  1.00 20.00     0.174 C 
ENDBRANCH   1   4
BRANCH   1   9
HETATM    9  N9  UNL     1     -33.604  17.148  -3.863  1.00 20.00     0.087 N 
HETATM   10  C7  UNL     1     -33.724  18.605  -3.851  1.00 20.00     0.307 C 
HETATM   11  H25 UNL     1     -33.852  16.808  -4.796  1.00 20.00     0.316 HD
ENDBRANCH   1   9
TORSDOF 3
ENDMDL
MODEL 2
REMARK VINA RESULT:      -4.0      1.179      1.578
REMARK  3 active torsions:
REMARK  status: ('A' for Active; 'I' for Inactive)
REMARK    1  A    between atoms: C2_2  and  C8_8 
REMARK    2  A    between atoms: C6_6  and  C8_8 
REMARK    3  A    between atoms: C8_8  and  N9_9 
ROOT
HETATM    1  C8  UNL     1     -34.800  16.820  -2.801  1.00 20.00     0.248 C 
ENDROOT
BRANCH   1   2
HETATM    2  C2  UNL     1     -34.492  16.335  -1.412  1.00 20.00    -0.002 C 
HETATM    3  C1  UNL     1     -34.790  17.016  -0.299  1.00 20.00     0.009 C 
ENDBRANCH   1   2
BRANCH   1   4
HETATM    4  C6  UNL     1     -35.097  15.669  -3.744  1.00 20.00     0.048 C 
HETATM    5  C3  UNL     1     -34.261  14.433  -3.497  1.00 20.00     0.035 C 
HETATM    6  C4  UNL     1     -35.079  13.365  -4.193  1.00 20.00     0.168 C 
HETATM    7  O10 UNL     1     -36.454  13.761  -4.088  1.00 20.00    -0.391 OA
HETATM    8  C5  UNL     1     -36.503  15.112  -3.605  1.00 20.00     0.174 C 
ENDBRANCH   1   4
BRANCH   1   9
HETATM    9  N9  UNL     1     -33.667  17.589  -3.261  1.00 20.00     0.087 N 
HETATM   10  C7  UNL     1     -33.737  17.833  -4.700  1.00 20.00     0.307 C 
HETATM   11  H25 UNL     1     -32.799  17.085  -3.057  1.00 20.00     0.316 HD
ENDBRANCH   1   9
TORSDOF 3
ENDMDL
MODEL 3
REMARK VINA RESULT:      -3.9      1.488      2.509
REMARK  3 active torsions:
REMARK  status: ('A' for Active; 'I' for Inactive)
REMARK    1  A    between atoms: C2_2  and  C8_8 
REMARK    2  A    between atoms: C6_6  and  C8_8 
REMARK    3  A    between atoms: C8_8  and  N9_9 
ROOT
HETATM    1  C8  UNL     1     -34.081  16.175  -2.380  1.00 20.00     0.248 C 
ENDROOT
BRANCH   1   2
HETATM    2  C2  UNL     1     -33.843  17.596  -2.811  1.00 20.00    -0.002 C 
HETATM    3  C1  UNL     1     -33.773  17.987  -4.089  1.00 20.00     0.009 C 
ENDBRANCH   1   2
BRANCH   1   4
HETATM    4  C6  UNL     1     -34.650  15.335  -3.507  1.00 20.00     0.048 C 
HETATM    5  C3  UNL     1     -34.094  13.929  -3.575  1.00 20.00     0.035 C 
HETATM    6  C4  UNL     1     -35.144  13.223  -4.406  1.00 20.00     0.168 C 
HETATM    7  O10 UNL     1     -36.397  13.861  -4.120  1.00 20.00    -0.391 OA
HETATM    8  C5  UNL     1     -36.138  15.061  -3.376  1.00 20.00     0.174 C 
ENDBRANCH   1   4
BRANCH   1   9
HETATM    9  N9  UNL     1     -34.980  16.203  -1.249  1.00 20.00     0.087 N 
HETATM   10  C7  UNL     1     -34.568  17.202  -0.265  1.00 20.00     0.307 C 
HETATM   11  H25 UNL     1     -34.997  15.286  -0.796  1.00 20.00     0.316 HD
ENDBRANCH   1   9
TORSDOF 3
ENDMDL
MODEL 4
REMARK VINA RESULT:      -3.8      2.400      4.265
REMARK  3 active torsions:
REMARK  status: ('A' for Active; 'I' for Inactive)
REMARK    1  A    between atoms: C2_2  and  C8_8 
REMARK    2  A    between atoms: C6_6  and  C8_8 
REMARK    3  A    between atoms: C8_8  and  N9_9 
ROOT
HETATM    1  C8  UNL     1     -34.964  15.712  -3.206  1.00 20.00     0.248 C 
ENDROOT
BRANCH   1   2
HETATM    2  C2  UNL     1     -34.544  14.284  -3.419  1.00 20.00    -0.002 C 
HETATM    3  C1  UNL     1     -33.301  13.911  -3.745  1.00 20.00     0.009 C 
ENDBRANCH   1   2
BRANCH   1   4
HETATM    4  C6  UNL     1     -34.075  16.414  -2.197  1.00 20.00     0.048 C 
HETATM    5  C3  UNL     1     -33.790  17.864  -2.523  1.00 20.00     0.035 C 
HETATM    6  C4  UNL     1     -33.346  18.399  -1.178  1.00 20.00     0.168 C 
HETATM    7  O10 UNL     1     -34.052  17.650  -0.179  1.00 20.00    -0.391 OA
HETATM    8  C5  UNL     1     -34.694  16.534  -0.816  1.00 20.00     0.174 C 
ENDBRANCH   1   4
BRANCH   1   9
HETATM    9  N9  UNL     1     -36.341  15.706  -2.769  1.00 20.00     0.087 N 
HETATM   10  C7  UNL     1     -37.182  14.919  -3.668  1.00 20.00     0.307 C 
HETATM   11  H25 UNL     1     -36.700  16.664  -2.740  1.00 20.00     0.316 HD
ENDBRANCH   1   9
TORSDOF 3
ENDMDL
MODEL 5
REMARK VINA RESULT:      -3.8      1.970      2.302
REMARK  3 active torsions:
REMARK  status: ('A' for Active; 'I' for Inactive)
REMARK    1  A    between atoms: C2_2  and  C8_8 
REMARK    2  A    between atoms: C6_6  and  C8_8 
REMARK    3  A    between atoms: C8_8  and  N9_9 
ROOT
HETATM    1  C8  UNL     1     -34.658  16.437  -3.180  1.00 20.00     0.248 C 
ENDROOT
BRANCH   1   2
HETATM    2  C2  UNL     1     -33.960  16.696  -1.873  1.00 20.00    -0.002 C 
HETATM    3  C1  UNL     1     -34.581  16.735  -0.689  1.00 20.00     0.009 C 
ENDBRANCH   1   2
BRANCH   1   4
HETATM    4  C6  UNL     1     -35.939  15.648  -2.984  1.00 20.00     0.048 C 
HETATM    5  C3  UNL     1     -37.189  16.369  -3.439  1.00 20.00     0.035 C 
HETATM    6  C4  UNL     1     -38.167  15.223  -3.590  1.00 20.00     0.168 C 
HETATM    7  O10 UNL     1     -37.402  14.072  -3.974  1.00 20.00    -0.391 OA
HETATM    8  C5  UNL     1     -36.008  14.379  -3.816  1.00 20.00     0.174 C 
ENDBRANCH   1   4
BRANCH   1   9
HETATM    9  N9  UNL     1     -33.737  15.728  -4.038  1.00 20.00     0.087 N 
HETATM   10  C7  UNL     1     -33.262  16.579  -5.127  1.00 20.00     0.307 C 
HETATM   11  H25 UNL     1     -34.199  14.909  -4.442  1.00 20.00     0.316 HD
ENDBRANCH   1   9
TORSDOF 3
ENDMDL
MODEL 6
REMARK VINA RESULT:      -3.8      2.320      3.112
REMARK  3 active torsions:
REMARK  status: ('A' for Active; 'I' for Inactive)
REMARK    1  A    between atoms: C2_2  and  C8_8 
REMARK    2  A    between atoms: C6_6  and  C8_8 
REMARK    3  A    between atoms: C8_8  and  N9_9 
ROOT
HETATM    1  C8  UNL     1     -35.547  14.968  -3.452  1.00 20.00     0.248 C 
ENDROOT
BRANCH   1   2
HETATM    2  C2  UNL     1     -34.471  15.679  -2.679  1.00 20.00    -0.002 C 
HETATM    3  C1  UNL     1     -34.674  16.293  -1.508  1.00 20.00     0.009 C 
ENDBRANCH   1   2
BRANCH   1   4
HETATM    4  C6  UNL     1     -35.462  15.266  -4.936  1.00 20.00     0.048 C 
HETATM    5  C3  UNL     1     -34.546  16.418  -5.287  1.00 20.00     0.035 C 
HETATM    6  C4  UNL     1     -34.280  16.163  -6.755  1.00 20.00     0.168 C 
HETATM    7  O10 UNL     1     -34.325  14.742  -6.945  1.00 20.00    -0.391 OA
HETATM    8  C5  UNL     1     -34.851  14.140  -5.752  1.00 20.00     0.174 C 
ENDBRANCH   1   4
BRANCH   1   9
HETATM    9  N9  UNL     1     -36.823  15.380  -2.912  1.00 20.00     0.087 N 
HETATM   10  C7  UNL     1     -37.927  14.950  -3.767  1.00 20.00     0.307 C 
HETATM   11  H25 UNL     1     -36.852  16.399  -2.829  1.00 20.00     0.316 HD
ENDBRANCH   1   9
TORSDOF 3
ENDMDL
MODEL 7
REMARK VINA RESULT:      -3.7      2.211      3.910
REMARK  3 active torsions:
REMARK  status: ('A' for Active; 'I' for Inactive)
REMARK    1  A    between atoms: C2_2  and  C8_8 
REMARK    2  A    between atoms: C6_6  and  C8_8 
REMARK    3  A    between atoms: C8_8  and  N9_9 
ROOT
HETATM    1  C8  UNL     1     -34.057  15.336  -3.380  1.00 20.00     0.248 C 
ENDROOT
BRANCH   1   2
HETATM    2  C2  UNL     1     -34.285  13.857  -3.524  1.00 20.00    -0.002 C 
HETATM    3  C1  UNL     1     -34.844  13.288  -4.598  1.00 20.00     0.009 C 
ENDBRANCH   1   2
BRANCH   1   4
HETATM    4  C6  UNL     1     -34.851  15.916  -2.226  1.00 20.00     0.048 C 
HETATM    5  C3  UNL     1     -34.052  16.823  -1.315  1.00 20.00     0.035 C 
HETATM    6  C4  UNL     1     -35.148  17.601  -0.618  1.00 20.00     0.168 C 
HETATM    7  O10 UNL     1     -36.234  17.715  -1.549  1.00 20.00    -0.391 OA
HETATM    8  C5  UNL     1     -35.972  16.844  -2.661  1.00 20.00     0.174 C 
ENDBRANCH   1   4
BRANCH   1   9
HETATM    9  N9  UNL     1     -34.422  15.962  -4.629  1.00 20.00     0.087 N 
HETATM   10  C7  UNL     1     -33.296  16.688  -5.211  1.00 20.00     0.307 C 
HETATM   11  H25 UNL     1     -35.191  16.621  -4.476  1.00 20.00     0.316 HD
ENDBRANCH   1   9
TORSDOF 3
ENDMDL
MODEL 8
REMARK VINA RESULT:      -3.7      2.545      3.467
REMARK  3 active torsions:
REMARK  status: ('A' for Active; 'I' for Inactive)
REMARK    1  A    between atoms: C2_2  and  C8_8 
REMARK    2  A    between atoms: C6_6  and  C8_8 
REMARK    3  A    between atoms: C8_8  and  N9_9 
ROOT
HETATM    1  C8  UNL     1     -33.300  16.003  -3.618  1.00 20.00     0.248 C 
ENDROOT
BRANCH   1   2
HETATM    2  C2  UNL     1     -34.435  15.735  -2.668  1.00 20.00    -0.002 C 
HETATM    3  C1  UNL     1     -34.573  16.335  -1.480  1.00 20.00     0.009 C 
ENDBRANCH   1   2
BRANCH   1   4
HETATM    4  C6  UNL     1     -33.791  16.589  -4.927  1.00 20.00     0.048 C 
HETATM    5  C3  UNL     1     -35.291  16.526  -5.112  1.00 20.00     0.035 C 
HETATM    6  C4  UNL     1     -35.512  17.571  -6.186  1.00 20.00     0.168 C 
HETATM    7  O10 UNL     1     -34.502  18.573  -6.004  1.00 20.00    -0.391 OA
HETATM    8  C5  UNL     1     -33.535  18.080  -5.064  1.00 20.00     0.174 C 
ENDBRANCH   1   4
BRANCH   1   9
HETATM    9  N9  UNL     1     -32.605  14.755  -3.836  1.00 20.00     0.087 N 
HETATM   10  C7  UNL     1     -33.530  13.623  -3.841  1.00 20.00     0.307 C 
HETATM   11  H25 UNL     1     -31.914  14.608  -3.095  1.00 20.00     0.316 HD
ENDBRANCH   1   9
TORSDOF 3
ENDMDL
MODEL 9
REMARK VINA RESULT:      -3.6      2.467      4.190
REMARK  3 active torsions:
REMARK  status: ('A' for Active; 'I' for Inactive)
REMARK    1  A    between atoms: C2_2  and  C8_8 
REMARK    2  A    between atoms: C6_6  and  C8_8 
REMARK    3  A    between atoms: C8_8  and  N9_9 
ROOT
HETATM    1  C8  UNL     1     -34.635  15.361  -3.646  1.00 20.00     0.248 C 
ENDROOT
BRANCH   1   2
HETATM    2  C2  UNL     1     -33.386  16.068  -4.098  1.00 20.00    -0.002 C 
HETATM    3  C1  UNL     1     -33.314  16.829  -5.195  1.00 20.00     0.009 C 
ENDBRANCH   1   2
BRANCH   1   4
HETATM    4  C6  UNL     1     -35.168  15.938  -2.349  1.00 20.00     0.048 C 
HETATM    5  C3  UNL     1     -34.114  16.588  -1.479  1.00 20.00     0.035 C 
HETATM    6  C4  UNL     1     -34.958  17.460  -0.574  1.00 20.00     0.168 C 
HETATM    7  O10 UNL     1     -36.107  17.860  -1.336  1.00 20.00    -0.391 OA
HETATM    8  C5  UNL     1     -36.143  17.085  -2.544  1.00 20.00     0.174 C 
ENDBRANCH   1   4
BRANCH   1   9
HETATM    9  N9  UNL     1     -34.319  13.959  -3.500  1.00 20.00     0.087 N 
HETATM   10  C7  UNL     1     -34.551  13.228  -4.744  1.00 20.00     0.307 C 
HETATM   11  H25 UNL     1     -34.900  13.546  -2.766  1.00 20.00     0.316 HD
ENDBRANCH   1   9
TORSDOF 3
ENDMDL
