MODEL 1
REMARK VINA RESULT:      -5.2      0.000      0.000
REMARK  2 active torsions:
REMARK  status: ('A' for Active; 'I' for Inactive)
REMARK    1  A    between atoms: C2_2  and  C3_3 
REMARK    2  A    between atoms: C3_3  and  C7_7 
ROOT
HETATM    1  C4  UNL     1     -35.061   4.922   6.363  1.00 20.00     0.002 C 
HETATM    2  C5  UNL     1     -35.080   4.357   4.927  1.00 20.00     0.012 C 
HETATM    3  C6  UNL     1     -34.047   5.969   5.857  1.00 20.00     0.012 C 
HETATM    4  C7  UNL     1     -34.660   5.769   4.446  1.00 20.00     0.059 C 
ENDROOT
BRANCH   4   5
HETATM    5  C3  UNL     1     -33.705   5.804   3.325  1.00 20.00     0.152 C 
HETATM    6  O8  UNL     1     -33.924   5.188   2.284  1.00 20.00    -0.293 OA
BRANCH   5   7
HETATM    7  C2  UNL     1     -32.489   6.641   3.508  1.00 20.00     0.040 C 
HETATM    8  C1  UNL     1     -32.190   7.612   2.640  1.00 20.00     0.015 C 
ENDBRANCH   5   7
ENDBRANCH   4   5
TORSDOF 2
ENDMDL
MODEL 2
REMARK VINA RESULT:      -5.0      1.023      1.454
REMARK  2 active torsions:
REMARK  status: ('A' for Active; 'I' for Inactive)
REMARK    1  A    between atoms: C2_2  and  C3_3 
REMARK    2  A    between atoms: C3_3  and  C7_7 
ROOT
HETATM    1  C4  UNL     1     -35.165   4.438   6.324  1.00 20.00     0.002 C 
HETATM    2  C5  UNL     1     -34.391   5.773   6.283  1.00 20.00     0.012 C 
HETATM    3  C6  UNL     1     -35.096   4.438   4.782  1.00 20.00     0.012 C 
HETATM    4  C7  UNL     1     -33.825   5.317   4.914  1.00 20.00     0.059 C 
ENDROOT
BRANCH   4   5
HETATM    5  C3  UNL     1     -33.672   6.375   3.901  1.00 20.00     0.152 C 
HETATM    6  O8  UNL     1     -34.615   7.102   3.594  1.00 20.00    -0.293 OA
BRANCH   5   7
HETATM    7  C2  UNL     1     -32.322   6.533   3.298  1.00 20.00     0.040 C 
HETATM    8  C1  UNL     1     -32.019   7.614   2.572  1.00 20.00     0.015 C 
ENDBRANCH   5   7
ENDBRANCH   4   5
TORSDOF 2
ENDMDL
MODEL 3
REMARK VINA RESULT:      -4.9      1.094      1.430
REMARK  2 active torsions:
REMARK  status: ('A' for Active; 'I' for Inactive)
REMARK    1  A    between atoms: C2_2  and  C3_3 
REMARK    2  A    between atoms: C3_3  and  C7_7 
ROOT
HETATM    1  C4  UNL     1     -35.193   5.241   5.068  1.00 20.00     0.002 C 
HETATM    2  C5  UNL     1     -34.721   5.208   3.599  1.00 20.00     0.012 C 
HETATM    3  C6  UNL     1     -33.906   6.031   5.384  1.00 20.00     0.012 C 
HETATM    4  C7  UNL     1     -33.919   6.498   3.905  1.00 20.00     0.059 C 
ENDROOT
BRANCH   4   5
HETATM    5  C3  UNL     1     -32.601   6.601   3.255  1.00 20.00     0.152 C 
HETATM    6  O8  UNL     1     -31.939   5.597   2.999  1.00 20.00    -0.293 OA
BRANCH   5   7
HETATM    7  C2  UNL     1     -32.134   7.968   2.903  1.00 20.00     0.040 C 
HETATM    8  C1  UNL     1     -31.997   8.336   1.626  1.00 20.00     0.015 C 
ENDBRANCH   5   7
ENDBRANCH   4   5
TORSDOF 2
ENDMDL
MODEL 4
REMARK VINA RESULT:      -4.5      0.947      3.456
REMARK  2 active torsions:
REMARK  status: ('A' for Active; 'I' for Inactive)
REMARK    1  A    between atoms: C2_2  and  C3_3 
REMARK    2  A    between atoms: C3_3  and  C7_7 
ROOT
HETATM    1  C4  UNL     1     -31.935   7.299   2.969  1.00 20.00     0.002 C 
HETATM    2  C5  UNL     1     -32.304   5.803   3.058  1.00 20.00     0.012 C 
HETATM    3  C6  UNL     1     -33.368   7.603   3.454  1.00 20.00     0.012 C 
HETATM    4  C7  UNL     1     -33.359   6.202   4.121  1.00 20.00     0.059 C 
ENDROOT
BRANCH   4   5
HETATM    5  C3  UNL     1     -34.632   5.462   4.068  1.00 20.00     0.152 C 
HETATM    6  O8  UNL     1     -35.316   5.447   3.048  1.00 20.00    -0.293 OA
BRANCH   5   7
HETATM    7  C2  UNL     1     -35.023   4.718   5.295  1.00 20.00     0.040 C 
HETATM    8  C1  UNL     1     -34.621   5.129   6.501  1.00 20.00     0.015 C 
ENDBRANCH   5   7
ENDBRANCH   4   5
TORSDOF 2
ENDMDL
MODEL 5
REMARK VINA RESULT:      -4.4      1.740      3.899
REMARK  2 active torsions:
REMARK  status: ('A' for Active; 'I' for Inactive)
REMARK    1  A    between atoms: C2_2  and  C3_3 
REMARK    2  A    between atoms: C3_3  and  C7_7 
ROOT
HETATM    1  C4  UNL     1     -32.190   6.764   2.565  1.00 20.00     0.002 C 
HETATM    2  C5  UNL     1     -32.250   7.252   4.028  1.00 20.00     0.012 C 
HETATM    3  C6  UNL     1     -33.325   5.783   2.926  1.00 20.00     0.012 C 
HETATM    4  C7  UNL     1     -33.724   6.776   4.049  1.00 20.00     0.059 C 
ENDROOT
BRANCH   4   5
HETATM    5  C3  UNL     1     -34.181   6.165   5.309  1.00 20.00     0.152 C 
HETATM    6  O8  UNL     1     -33.845   6.626   6.397  1.00 20.00    -0.293 OA
BRANCH   5   7
HETATM    7  C2  UNL     1     -35.086   4.990   5.192  1.00 20.00     0.040 C 
HETATM    8  C1  UNL     1     -34.847   3.872   5.884  1.00 20.00     0.015 C 
ENDBRANCH   5   7
ENDBRANCH   4   5
TORSDOF 2
ENDMDL
MODEL 6
REMARK VINA RESULT:      -4.3     11.815     12.387
REMARK  2 active torsions:
REMARK  status: ('A' for Active; 'I' for Inactive)
REMARK    1  A    between atoms: C2_2  and  C3_3 
REMARK    2  A    between atoms: C3_3  and  C7_7 
ROOT
HETATM    1  C4  UNL     1     -35.001  13.272  -4.299  1.00 20.00     0.002 C 
HETATM    2  C5  UNL     1     -35.558  14.695  -4.081  1.00 20.00     0.012 C 
HETATM    3  C6  UNL     1     -33.630  13.822  -3.851  1.00 20.00     0.012 C 
HETATM    4  C7  UNL     1     -34.409  14.909  -3.064  1.00 20.00     0.059 C 
ENDROOT
BRANCH   4   5
HETATM    5  C3  UNL     1     -33.802  16.251  -3.058  1.00 20.00     0.152 C 
HETATM    6  O8  UNL     1     -33.333  16.741  -4.084  1.00 20.00    -0.293 OA
BRANCH   5   7
HETATM    7  C2  UNL     1     -33.814  16.985  -1.765  1.00 20.00     0.040 C 
HETATM    8  C1  UNL     1     -34.643  16.622  -0.781  1.00 20.00     0.015 C 
ENDBRANCH   5   7
ENDBRANCH   4   5
TORSDOF 2
ENDMDL
MODEL 7
REMARK VINA RESULT:      -4.3      1.397      3.419
REMARK  2 active torsions:
REMARK  status: ('A' for Active; 'I' for Inactive)
REMARK    1  A    between atoms: C2_2  and  C3_3 
REMARK    2  A    between atoms: C3_3  and  C7_7 
ROOT
HETATM    1  C4  UNL     1     -32.862   6.198   2.455  1.00 20.00     0.002 C 
HETATM    2  C5  UNL     1     -32.777   6.198   3.996  1.00 20.00     0.012 C 
HETATM    3  C6  UNL     1     -34.086   5.270   2.598  1.00 20.00     0.012 C 
HETATM    4  C7  UNL     1     -34.295   5.887   4.006  1.00 20.00     0.059 C 
ENDROOT
BRANCH   4   5
HETATM    5  C3  UNL     1     -34.749   4.954   5.051  1.00 20.00     0.152 C 
HETATM    6  O8  UNL     1     -35.149   3.827   4.767  1.00 20.00    -0.293 OA
BRANCH   5   7
HETATM    7  C2  UNL     1     -34.670   5.434   6.456  1.00 20.00     0.040 C 
HETATM    8  C1  UNL     1     -34.117   6.617   6.744  1.00 20.00     0.015 C 
ENDBRANCH   5   7
ENDBRANCH   4   5
TORSDOF 2
ENDMDL
MODEL 8
REMARK VINA RESULT:      -4.2     11.556     12.477
REMARK  2 active torsions:
REMARK  status: ('A' for Active; 'I' for Inactive)
REMARK    1  A    between atoms: C2_2  and  C3_3 
REMARK    2  A    between atoms: C3_3  and  C7_7 
ROOT
HETATM    1  C4  UNL     1     -34.013  16.197  -2.356  1.00 20.00     0.002 C 
HETATM    2  C5  UNL     1     -33.245  15.408  -3.437  1.00 20.00     0.012 C 
HETATM    3  C6  UNL     1     -35.296  15.521  -2.882  1.00 20.00     0.012 C 
HETATM    4  C7  UNL     1     -34.392  14.367  -3.386  1.00 20.00     0.059 C 
ENDROOT
BRANCH   4   5
HETATM    5  C3  UNL     1     -34.774  13.773  -4.679  1.00 20.00     0.152 C 
HETATM    6  O8  UNL     1     -34.745  12.557  -4.852  1.00 20.00    -0.293 OA
BRANCH   5   7
HETATM    7  C2  UNL     1     -35.221  14.714  -5.740  1.00 20.00     0.040 C 
HETATM    8  C1  UNL     1     -34.516  14.860  -6.865  1.00 20.00     0.015 C 
ENDBRANCH   5   7
ENDBRANCH   4   5
TORSDOF 2
ENDMDL
MODEL 9
REMARK VINA RESULT:      -4.1     11.656     12.413
REMARK  2 active torsions:
REMARK  status: ('A' for Active; 'I' for Inactive)
REMARK    1  A    between atoms: C2_2  and  C3_3 
REMARK    2  A    between atoms: C3_3  and  C7_7 
ROOT
HETATM    1  C4  UNL     1     -33.674  17.672  -1.126  1.00 20.00     0.002 C 
HETATM    2  C5  UNL     1     -33.818  17.380  -2.634  1.00 20.00     0.012 C 
HETATM    3  C6  UNL     1     -34.680  16.527  -0.886  1.00 20.00     0.012 C 
HETATM    4  C7  UNL     1     -34.214  15.935  -2.241  1.00 20.00     0.059 C 
ENDROOT
BRANCH   4   5
HETATM    5  C3  UNL     1     -35.268  15.314  -3.063  1.00 20.00     0.152 C 
HETATM    6  O8  UNL     1     -36.382  15.824  -3.157  1.00 20.00    -0.293 OA
BRANCH   5   7
HETATM    7  C2  UNL     1     -34.903  14.068  -3.788  1.00 20.00     0.040 C 
HETATM    8  C1  UNL     1     -33.628  13.678  -3.879  1.00 20.00     0.015 C 
ENDBRANCH   5   7
ENDBRANCH   4   5
TORSDOF 2
ENDMDL
