MODEL 1
REMARK VINA RESULT:      -4.6      0.000      0.000
REMARK  3 active torsions:
REMARK  status: ('A' for Active; 'I' for Inactive)
REMARK    1  A    between atoms: C3_3  and  C7_7 
REMARK    2  A    between atoms: C6_6  and  O9_9 
REMARK    3  A    between atoms: C7_7  and  O9_9 
ROOT
HETATM    1  C1  UNL     1     -35.122   3.939   6.175  1.00 20.00     0.021 C 
HETATM    2  C2  UNL     1     -34.588   4.962   5.845  1.00 20.00    -0.037 C 
HETATM    3  C3  UNL     1     -33.946   6.195   5.449  1.00 20.00     0.230 C 
HETATM    4  O8  UNL     1     -33.598   6.990   6.312  1.00 20.00    -0.281 OA
ENDROOT
BRANCH   3   5
HETATM    5  C7  UNL     1     -33.782   6.426   3.959  1.00 20.00     0.200 C 
HETATM    6  C5  UNL     1     -34.678   5.512   3.139  1.00 20.00     0.049 C 
BRANCH   5   7
HETATM    7  O9  UNL     1     -32.427   6.188   3.611  1.00 20.00    -0.378 OA
BRANCH   7   8
HETATM    8  C6  UNL     1     -31.703   7.403   3.466  1.00 20.00     0.164 C 
HETATM    9  C4  UNL     1     -32.067   8.039   2.141  1.00 20.00     0.033 C 
ENDBRANCH   7   8
ENDBRANCH   5   7
ENDBRANCH   3   5
TORSDOF 3
ENDMDL
MODEL 2
REMARK VINA RESULT:      -4.1     11.868     12.811
REMARK  3 active torsions:
REMARK  status: ('A' for Active; 'I' for Inactive)
REMARK    1  A    between atoms: C3_3  and  C7_7 
REMARK    2  A    between atoms: C6_6  and  O9_9 
REMARK    3  A    between atoms: C7_7  and  O9_9 
ROOT
HETATM    1  C1  UNL     1     -34.749  14.802  -7.162  1.00 20.00     0.021 C 
HETATM    2  C2  UNL     1     -34.910  14.331  -6.070  1.00 20.00    -0.037 C 
HETATM    3  C3  UNL     1     -35.104  13.762  -4.755  1.00 20.00     0.230 C 
HETATM    4  O8  UNL     1     -34.838  12.581  -4.572  1.00 20.00    -0.281 OA
ENDROOT
BRANCH   3   5
HETATM    5  C7  UNL     1     -35.668  14.686  -3.693  1.00 20.00     0.200 C 
HETATM    6  C5  UNL     1     -37.163  14.902  -3.861  1.00 20.00     0.049 C 
BRANCH   5   7
HETATM    7  O9  UNL     1     -35.000  15.935  -3.780  1.00 20.00    -0.378 OA
BRANCH   7   8
HETATM    8  C6  UNL     1     -33.988  16.058  -2.789  1.00 20.00     0.164 C 
HETATM    9  C4  UNL     1     -34.640  16.318  -1.448  1.00 20.00     0.033 C 
ENDBRANCH   7   8
ENDBRANCH   5   7
ENDBRANCH   3   5
TORSDOF 3
ENDMDL
MODEL 3
REMARK VINA RESULT:      -4.1      1.403      4.364
REMARK  3 active torsions:
REMARK  status: ('A' for Active; 'I' for Inactive)
REMARK    1  A    between atoms: C3_3  and  C7_7 
REMARK    2  A    between atoms: C6_6  and  O9_9 
REMARK    3  A    between atoms: C7_7  and  O9_9 
ROOT
HETATM    1  C1  UNL     1     -32.131   8.819   1.743  1.00 20.00     0.021 C 
HETATM    2  C2  UNL     1     -32.322   7.829   2.394  1.00 20.00    -0.037 C 
HETATM    3  C3  UNL     1     -32.551   6.636   3.178  1.00 20.00     0.230 C 
HETATM    4  O8  UNL     1     -31.710   5.746   3.168  1.00 20.00    -0.281 OA
ENDROOT
BRANCH   3   5
HETATM    5  C7  UNL     1     -33.860   6.565   3.939  1.00 20.00     0.200 C 
HETATM    6  C5  UNL     1     -33.662   6.769   5.432  1.00 20.00     0.049 C 
BRANCH   5   7
HETATM    7  O9  UNL     1     -34.447   5.293   3.714  1.00 20.00    -0.378 OA
BRANCH   7   8
HETATM    8  C6  UNL     1     -35.409   4.976   4.711  1.00 20.00     0.164 C 
HETATM    9  C4  UNL     1     -34.908   3.801   5.524  1.00 20.00     0.033 C 
ENDBRANCH   7   8
ENDBRANCH   5   7
ENDBRANCH   3   5
TORSDOF 3
ENDMDL
MODEL 4
REMARK VINA RESULT:      -4.1     11.667     12.244
REMARK  3 active torsions:
REMARK  status: ('A' for Active; 'I' for Inactive)
REMARK    1  A    between atoms: C3_3  and  C7_7 
REMARK    2  A    between atoms: C6_6  and  O9_9 
REMARK    3  A    between atoms: C7_7  and  O9_9 
ROOT
HETATM    1  C1  UNL     1     -37.696  14.760  -3.858  1.00 20.00     0.021 C 
HETATM    2  C2  UNL     1     -36.571  14.374  -4.020  1.00 20.00    -0.037 C 
HETATM    3  C3  UNL     1     -35.216  13.908  -4.216  1.00 20.00     0.230 C 
HETATM    4  O8  UNL     1     -35.006  12.705  -4.301  1.00 20.00    -0.281 OA
ENDROOT
BRANCH   3   5
HETATM    5  C7  UNL     1     -34.134  14.970  -4.267  1.00 20.00     0.200 C 
HETATM    6  C5  UNL     1     -32.828  14.481  -3.664  1.00 20.00     0.049 C 
BRANCH   5   7
HETATM    7  O9  UNL     1     -34.584  16.109  -3.550  1.00 20.00    -0.378 OA
BRANCH   7   8
HETATM    8  C6  UNL     1     -33.782  16.355  -2.402  1.00 20.00     0.164 C 
HETATM    9  C4  UNL     1     -34.681  16.476  -1.189  1.00 20.00     0.033 C 
ENDBRANCH   7   8
ENDBRANCH   5   7
ENDBRANCH   3   5
TORSDOF 3
ENDMDL
MODEL 5
REMARK VINA RESULT:      -4.1      1.310      1.722
REMARK  3 active torsions:
REMARK  status: ('A' for Active; 'I' for Inactive)
REMARK    1  A    between atoms: C3_3  and  C7_7 
REMARK    2  A    between atoms: C6_6  and  O9_9 
REMARK    3  A    between atoms: C7_7  and  O9_9 
ROOT
HETATM    1  C1  UNL     1     -33.669   7.335   7.046  1.00 20.00     0.021 C 
HETATM    2  C2  UNL     1     -33.879   6.566   6.149  1.00 20.00    -0.037 C 
HETATM    3  C3  UNL     1     -34.132   5.637   5.070  1.00 20.00     0.230 C 
HETATM    4  O8  UNL     1     -34.576   4.526   5.332  1.00 20.00    -0.281 OA
ENDROOT
BRANCH   3   5
HETATM    5  C7  UNL     1     -33.786   6.112   3.672  1.00 20.00     0.200 C 
HETATM    6  C5  UNL     1     -34.458   5.267   2.602  1.00 20.00     0.049 C 
BRANCH   5   7
HETATM    7  O9  UNL     1     -32.378   6.045   3.507  1.00 20.00    -0.378 OA
BRANCH   7   8
HETATM    8  C6  UNL     1     -31.791   7.340   3.492  1.00 20.00     0.164 C 
HETATM    9  C4  UNL     1     -32.100   8.006   2.168  1.00 20.00     0.033 C 
ENDBRANCH   7   8
ENDBRANCH   5   7
ENDBRANCH   3   5
TORSDOF 3
ENDMDL
MODEL 6
REMARK VINA RESULT:      -4.0      1.168      4.141
REMARK  3 active torsions:
REMARK  status: ('A' for Active; 'I' for Inactive)
REMARK    1  A    between atoms: C3_3  and  C7_7 
REMARK    2  A    between atoms: C6_6  and  O9_9 
REMARK    3  A    between atoms: C7_7  and  O9_9 
ROOT
HETATM    1  C1  UNL     1     -32.180   8.614   1.189  1.00 20.00     0.021 C 
HETATM    2  C2  UNL     1     -32.074   8.041   2.238  1.00 20.00    -0.037 C 
HETATM    3  C3  UNL     1     -31.944   7.353   3.503  1.00 20.00     0.230 C 
HETATM    4  O8  UNL     1     -31.048   7.679   4.270  1.00 20.00    -0.281 OA
ENDROOT
BRANCH   3   5
HETATM    5  C7  UNL     1     -32.931   6.232   3.769  1.00 20.00     0.200 C 
HETATM    6  C5  UNL     1     -33.462   5.624   2.482  1.00 20.00     0.049 C 
BRANCH   5   7
HETATM    7  O9  UNL     1     -34.014   6.753   4.523  1.00 20.00    -0.378 OA
BRANCH   7   8
HETATM    8  C6  UNL     1     -33.988   6.289   5.867  1.00 20.00     0.164 C 
HETATM    9  C4  UNL     1     -34.788   5.007   5.962  1.00 20.00     0.033 C 
ENDBRANCH   7   8
ENDBRANCH   5   7
ENDBRANCH   3   5
TORSDOF 3
ENDMDL
MODEL 7
REMARK VINA RESULT:      -4.0     11.845     13.116
REMARK  3 active torsions:
REMARK  status: ('A' for Active; 'I' for Inactive)
REMARK    1  A    between atoms: C3_3  and  C7_7 
REMARK    2  A    between atoms: C6_6  and  O9_9 
REMARK    3  A    between atoms: C7_7  and  O9_9 
ROOT
HETATM    1  C1  UNL     1     -34.912  14.794  -7.147  1.00 20.00     0.021 C 
HETATM    2  C2  UNL     1     -34.774  14.315  -6.055  1.00 20.00    -0.037 C 
HETATM    3  C3  UNL     1     -34.610  13.737  -4.740  1.00 20.00     0.230 C 
HETATM    4  O8  UNL     1     -34.851  12.547  -4.578  1.00 20.00    -0.281 OA
ENDROOT
BRANCH   3   5
HETATM    5  C7  UNL     1     -34.176  14.679  -3.634  1.00 20.00     0.200 C 
HETATM    6  C5  UNL     1     -35.350  15.439  -3.039  1.00 20.00     0.049 C 
BRANCH   5   7
HETATM    7  O9  UNL     1     -33.241  15.603  -4.168  1.00 20.00    -0.378 OA
BRANCH   7   8
HETATM    8  C6  UNL     1     -33.611  16.946  -3.884  1.00 20.00     0.164 C 
HETATM    9  C4  UNL     1     -33.519  17.763  -5.155  1.00 20.00     0.033 C 
ENDBRANCH   7   8
ENDBRANCH   5   7
ENDBRANCH   3   5
TORSDOF 3
ENDMDL
MODEL 8
REMARK VINA RESULT:      -3.9      1.536      1.898
REMARK  3 active torsions:
REMARK  status: ('A' for Active; 'I' for Inactive)
REMARK    1  A    between atoms: C3_3  and  C7_7 
REMARK    2  A    between atoms: C6_6  and  O9_9 
REMARK    3  A    between atoms: C7_7  and  O9_9 
ROOT
HETATM    1  C1  UNL     1     -35.128   4.345   6.241  1.00 20.00     0.021 C 
HETATM    2  C2  UNL     1     -34.854   4.902   5.213  1.00 20.00    -0.037 C 
HETATM    3  C3  UNL     1     -34.526   5.572   3.975  1.00 20.00     0.230 C 
HETATM    4  O8  UNL     1     -35.362   5.617   3.082  1.00 20.00    -0.281 OA
ENDROOT
BRANCH   3   5
HETATM    5  C7  UNL     1     -33.127   6.148   3.865  1.00 20.00     0.200 C 
HETATM    6  C5  UNL     1     -32.829   7.135   4.982  1.00 20.00     0.049 C 
BRANCH   5   7
HETATM    7  O9  UNL     1     -33.006   6.805   2.613  1.00 20.00    -0.378 OA
BRANCH   7   8
HETATM    8  C6  UNL     1     -31.917   7.720   2.606  1.00 20.00     0.164 C 
HETATM    9  C4  UNL     1     -32.092   8.685   1.452  1.00 20.00     0.033 C 
ENDBRANCH   7   8
ENDBRANCH   5   7
ENDBRANCH   3   5
TORSDOF 3
ENDMDL
MODEL 9
REMARK VINA RESULT:      -3.9     11.358     12.414
REMARK  3 active torsions:
REMARK  status: ('A' for Active; 'I' for Inactive)
REMARK    1  A    between atoms: C3_3  and  C7_7 
REMARK    2  A    between atoms: C6_6  and  O9_9 
REMARK    3  A    between atoms: C7_7  and  O9_9 
ROOT
HETATM    1  C1  UNL     1     -34.405  16.115  -2.187  1.00 20.00     0.021 C 
HETATM    2  C2  UNL     1     -34.399  15.126  -2.867  1.00 20.00    -0.037 C 
HETATM    3  C3  UNL     1     -34.390  13.934  -3.685  1.00 20.00     0.230 C 
HETATM    4  O8  UNL     1     -33.415  13.195  -3.652  1.00 20.00    -0.281 OA
ENDROOT
BRANCH   3   5
HETATM    5  C7  UNL     1     -35.604  13.708  -4.566  1.00 20.00     0.200 C 
HETATM    6  C5  UNL     1     -35.611  14.630  -5.774  1.00 20.00     0.049 C 
BRANCH   5   7
HETATM    7  O9  UNL     1     -36.772  13.938  -3.794  1.00 20.00    -0.378 OA
BRANCH   7   8
HETATM    8  C6  UNL     1     -37.661  14.838  -4.444  1.00 20.00     0.164 C 
HETATM    9  C4  UNL     1     -38.826  15.133  -3.523  1.00 20.00     0.033 C 
ENDBRANCH   7   8
ENDBRANCH   5   7
ENDBRANCH   3   5
TORSDOF 3
ENDMDL
