MODEL 1
REMARK VINA RESULT:      -4.2      0.000      0.000
REMARK  2 active torsions:
REMARK  status: ('A' for Active; 'I' for Inactive)
REMARK    1  A    between atoms: C5_5  and  C8_8 
REMARK    2  A    between atoms: C8_8  and  N9_9 
ROOT
HETATM    1  C1  UNL     1     -34.669  16.719  -0.701  1.00 20.00     0.014 C 
HETATM    2  C2  UNL     1     -34.590  16.273  -1.813  1.00 20.00    -0.081 C 
HETATM    3  C8  UNL     1     -34.469  15.737  -3.189  1.00 20.00     0.301 C 
ENDROOT
BRANCH   3   4
HETATM    4  C5  UNL     1     -34.523  14.249  -3.223  1.00 20.00     0.035 A 
HETATM    5  C3  UNL     1     -33.508  13.469  -4.017  1.00 20.00     0.012 A 
HETATM    6  C4  UNL     1     -34.951  13.480  -4.452  1.00 20.00    -0.011 A 
HETATM    7  C6  UNL     1     -35.349  14.155  -5.719  1.00 20.00     0.010 C 
ENDBRANCH   3   4
BRANCH   3   8
HETATM    8  N9  UNL     1     -33.242  16.245  -3.778  1.00 20.00     0.095 N 
HETATM    9  C7  UNL     1     -33.523  17.280  -4.766  1.00 20.00     0.308 C 
HETATM   10  H22 UNL     1     -32.650  16.636  -3.044  1.00 20.00     0.317 HD
ENDBRANCH   3   8
TORSDOF 2
ENDMDL
MODEL 2
REMARK VINA RESULT:      -4.2      1.552      2.411
REMARK  2 active torsions:
REMARK  status: ('A' for Active; 'I' for Inactive)
REMARK    1  A    between atoms: C5_5  and  C8_8 
REMARK    2  A    between atoms: C8_8  and  N9_9 
ROOT
HETATM    1  C1  UNL     1     -34.815  17.232   0.103  1.00 20.00     0.014 C 
HETATM    2  C2  UNL     1     -34.782  16.652  -0.948  1.00 20.00    -0.081 C 
HETATM    3  C8  UNL     1     -34.762  15.952  -2.254  1.00 20.00     0.301 C 
ENDROOT
BRANCH   3   4
HETATM    4  C5  UNL     1     -33.442  16.061  -2.934  1.00 20.00     0.035 A 
HETATM    5  C3  UNL     1     -33.365  16.125  -4.438  1.00 20.00     0.012 A 
HETATM    6  C4  UNL     1     -32.834  14.916  -3.711  1.00 20.00    -0.011 A 
HETATM    7  C6  UNL     1     -33.511  13.596  -3.854  1.00 20.00     0.010 C 
ENDBRANCH   3   4
BRANCH   3   8
HETATM    8  N9  UNL     1     -35.838  16.478  -3.077  1.00 20.00     0.095 N 
HETATM    9  C7  UNL     1     -36.817  15.443  -3.387  1.00 20.00     0.308 C 
HETATM   10  H22 UNL     1     -36.304  17.240  -2.581  1.00 20.00     0.317 HD
ENDBRANCH   3   8
TORSDOF 2
ENDMDL
MODEL 3
REMARK VINA RESULT:      -4.0      1.828      4.159
REMARK  2 active torsions:
REMARK  status: ('A' for Active; 'I' for Inactive)
REMARK    1  A    between atoms: C5_5  and  C8_8 
REMARK    2  A    between atoms: C8_8  and  N9_9 
ROOT
HETATM    1  C1  UNL     1     -33.937  13.815  -3.782  1.00 20.00     0.014 C 
HETATM    2  C2  UNL     1     -34.419  14.793  -3.278  1.00 20.00    -0.081 C 
HETATM    3  C8  UNL     1     -35.038  15.988  -2.659  1.00 20.00     0.301 C 
ENDROOT
BRANCH   3   4
HETATM    4  C5  UNL     1     -34.487  16.275  -1.306  1.00 20.00     0.035 A 
HETATM    5  C3  UNL     1     -35.126  17.321  -0.430  1.00 20.00     0.012 A 
HETATM    6  C4  UNL     1     -33.744  17.552  -0.986  1.00 20.00    -0.011 A 
HETATM    7  C6  UNL     1     -33.511  18.617  -2.001  1.00 20.00     0.010 C 
ENDBRANCH   3   4
BRANCH   3   8
HETATM    8  N9  UNL     1     -36.479  15.798  -2.625  1.00 20.00     0.095 N 
HETATM    9  C7  UNL     1     -37.060  15.947  -3.953  1.00 20.00     0.308 C 
HETATM   10  H22 UNL     1     -36.690  14.864  -2.271  1.00 20.00     0.317 HD
ENDBRANCH   3   8
TORSDOF 2
ENDMDL
MODEL 4
REMARK VINA RESULT:      -4.0     11.627     12.599
REMARK  2 active torsions:
REMARK  status: ('A' for Active; 'I' for Inactive)
REMARK    1  A    between atoms: C5_5  and  C8_8 
REMARK    2  A    between atoms: C8_8  and  N9_9 
ROOT
HETATM    1  C1  UNL     1     -31.850   7.550   2.553  1.00 20.00     0.014 C 
HETATM    2  C2  UNL     1     -32.513   6.926   3.336  1.00 20.00    -0.081 C 
HETATM    3  C8  UNL     1     -33.339   6.180   4.314  1.00 20.00     0.301 C 
ENDROOT
BRANCH   3   4
HETATM    4  C5  UNL     1     -34.346   5.305   3.652  1.00 20.00     0.035 A 
HETATM    5  C3  UNL     1     -35.814   5.481   3.943  1.00 20.00     0.012 A 
HETATM    6  C4  UNL     1     -35.104   4.232   4.400  1.00 20.00    -0.011 A 
HETATM    7  C6  UNL     1     -34.900   3.973   5.853  1.00 20.00     0.010 C 
ENDBRANCH   3   4
BRANCH   3   8
HETATM    8  N9  UNL     1     -33.962   7.133   5.216  1.00 20.00     0.095 N 
HETATM    9  C7  UNL     1     -33.395   7.037   6.556  1.00 20.00     0.308 C 
HETATM   10  H22 UNL     1     -33.820   8.080   4.861  1.00 20.00     0.317 HD
ENDBRANCH   3   8
TORSDOF 2
ENDMDL
MODEL 5
REMARK VINA RESULT:      -4.0     12.075     13.613
REMARK  2 active torsions:
REMARK  status: ('A' for Active; 'I' for Inactive)
REMARK    1  A    between atoms: C5_5  and  C8_8 
REMARK    2  A    between atoms: C8_8  and  N9_9 
ROOT
HETATM    1  C1  UNL     1     -41.844   2.667  -3.160  1.00 20.00     0.014 C 
HETATM    2  C2  UNL     1     -41.974   3.512  -2.317  1.00 20.00    -0.081 C 
HETATM    3  C8  UNL     1     -42.132   4.536  -1.257  1.00 20.00     0.301 C 
ENDROOT
BRANCH   3   4
HETATM    4  C5  UNL     1     -41.099   5.606  -1.345  1.00 20.00     0.035 A 
HETATM    5  C3  UNL     1     -40.652   6.335  -0.105  1.00 20.00     0.012 A 
HETATM    6  C4  UNL     1     -41.431   7.069  -1.165  1.00 20.00    -0.011 A 
HETATM    7  C6  UNL     1     -42.814   7.548  -0.885  1.00 20.00     0.010 C 
ENDBRANCH   3   4
BRANCH   3   8
HETATM    8  N9  UNL     1     -42.110   3.871   0.035  1.00 20.00     0.095 N 
HETATM    9  C7  UNL     1     -43.417   3.931   0.679  1.00 20.00     0.308 C 
HETATM   10  H22 UNL     1     -41.844   2.893  -0.090  1.00 20.00     0.317 HD
ENDBRANCH   3   8
TORSDOF 2
ENDMDL
MODEL 6
REMARK VINA RESULT:      -3.9      1.411      2.914
REMARK  2 active torsions:
REMARK  status: ('A' for Active; 'I' for Inactive)
REMARK    1  A    between atoms: C5_5  and  C8_8 
REMARK    2  A    between atoms: C8_8  and  N9_9 
ROOT
HETATM    1  C1  UNL     1     -34.417  16.417  -1.489  1.00 20.00     0.014 C 
HETATM    2  C2  UNL     1     -33.954  16.266  -2.587  1.00 20.00    -0.081 C 
HETATM    3  C8  UNL     1     -33.372  16.057  -3.934  1.00 20.00     0.301 C 
ENDROOT
BRANCH   3   4
HETATM    4  C5  UNL     1     -34.406  16.076  -5.006  1.00 20.00     0.035 A 
HETATM    5  C3  UNL     1     -34.007  15.903  -6.449  1.00 20.00     0.012 A 
HETATM    6  C4  UNL     1     -34.548  17.227  -5.974  1.00 20.00    -0.011 A 
HETATM    7  C6  UNL     1     -33.665  18.426  -5.927  1.00 20.00     0.010 C 
ENDBRANCH   3   4
BRANCH   3   8
HETATM    8  N9  UNL     1     -32.625  14.810  -3.926  1.00 20.00     0.095 N 
HETATM    9  C7  UNL     1     -33.516  13.665  -3.783  1.00 20.00     0.308 C 
HETATM   10  H22 UNL     1     -32.105  14.721  -4.801  1.00 20.00     0.317 HD
ENDBRANCH   3   8
TORSDOF 2
ENDMDL
MODEL 7
REMARK VINA RESULT:      -3.9     11.928     12.814
REMARK  2 active torsions:
REMARK  status: ('A' for Active; 'I' for Inactive)
REMARK    1  A    between atoms: C5_5  and  C8_8 
REMARK    2  A    between atoms: C8_8  and  N9_9 
ROOT
HETATM    1  C1  UNL     1     -33.406   7.712   7.216  1.00 20.00     0.014 C 
HETATM    2  C2  UNL     1     -33.679   6.870   6.405  1.00 20.00    -0.081 C 
HETATM    3  C8  UNL     1     -34.035   5.822   5.420  1.00 20.00     0.301 C 
ENDROOT
BRANCH   3   4
HETATM    4  C5  UNL     1     -34.363   6.391   4.083  1.00 20.00     0.035 A 
HETATM    5  C3  UNL     1     -34.215   5.549   2.842  1.00 20.00     0.012 A 
HETATM    6  C4  UNL     1     -33.301   6.726   3.062  1.00 20.00    -0.011 A 
HETATM    7  C6  UNL     1     -31.849   6.512   3.318  1.00 20.00     0.010 C 
ENDBRANCH   3   4
BRANCH   3   8
HETATM    8  N9  UNL     1     -35.135   5.037   5.956  1.00 20.00     0.095 N 
HETATM    9  C7  UNL     1     -34.982   3.626   5.628  1.00 20.00     0.308 C 
HETATM   10  H22 UNL     1     -35.163   5.142   6.972  1.00 20.00     0.317 HD
ENDBRANCH   3   8
TORSDOF 2
ENDMDL
MODEL 8
REMARK VINA RESULT:      -3.8      1.892      3.629
REMARK  2 active torsions:
REMARK  status: ('A' for Active; 'I' for Inactive)
REMARK    1  A    between atoms: C5_5  and  C8_8 
REMARK    2  A    between atoms: C8_8  and  N9_9 
ROOT
HETATM    1  C1  UNL     1     -37.953  14.792  -4.203  1.00 20.00     0.014 C 
HETATM    2  C2  UNL     1     -36.827  14.640  -3.815  1.00 20.00    -0.081 C 
HETATM    3  C8  UNL     1     -35.436  14.429  -3.350  1.00 20.00     0.301 C 
ENDROOT
BRANCH   3   4
HETATM    4  C5  UNL     1     -34.550  15.582  -3.675  1.00 20.00     0.035 A 
HETATM    5  C3  UNL     1     -33.122  15.602  -3.194  1.00 20.00     0.012 A 
HETATM    6  C4  UNL     1     -34.115  16.588  -2.634  1.00 20.00    -0.011 A 
HETATM    7  C6  UNL     1     -34.539  16.499  -1.209  1.00 20.00     0.010 C 
ENDBRANCH   3   4
BRANCH   3   8
HETATM    8  N9  UNL     1     -34.939  13.189  -3.924  1.00 20.00     0.095 N 
HETATM    9  C7  UNL     1     -34.762  13.311  -5.365  1.00 20.00     0.308 C 
HETATM   10  H22 UNL     1     -34.042  12.953  -3.496  1.00 20.00     0.317 HD
ENDBRANCH   3   8
TORSDOF 2
ENDMDL
MODEL 9
REMARK VINA RESULT:      -3.8      2.262      2.876
REMARK  2 active torsions:
REMARK  status: ('A' for Active; 'I' for Inactive)
REMARK    1  A    between atoms: C5_5  and  C8_8 
REMARK    2  A    between atoms: C8_8  and  N9_9 
ROOT
HETATM    1  C1  UNL     1     -38.995  14.820  -3.850  1.00 20.00     0.014 C 
HETATM    2  C2  UNL     1     -37.800  14.938  -3.849  1.00 20.00    -0.081 C 
HETATM    3  C8  UNL     1     -36.326  15.094  -3.822  1.00 20.00     0.301 C 
ENDROOT
BRANCH   3   4
HETATM    4  C5  UNL     1     -35.617  13.809  -4.076  1.00 20.00     0.035 A 
HETATM    5  C3  UNL     1     -34.118  13.731  -3.951  1.00 20.00     0.012 A 
HETATM    6  C4  UNL     1     -34.765  13.582  -5.304  1.00 20.00    -0.011 A 
HETATM    7  C6  UNL     1     -34.572  14.627  -6.348  1.00 20.00     0.010 C 
ENDBRANCH   3   4
BRANCH   3   8
HETATM    8  N9  UNL     1     -35.946  15.677  -2.547  1.00 20.00     0.095 N 
HETATM    9  C7  UNL     1     -35.456  17.039  -2.717  1.00 20.00     0.308 C 
HETATM   10  H22 UNL     1     -36.755  15.689  -1.924  1.00 20.00     0.317 HD
ENDBRANCH   3   8
TORSDOF 2
ENDMDL
