MODEL 1
REMARK VINA RESULT:      -5.2      0.000      0.000
REMARK  1 active torsions:
REMARK  status: ('A' for Active; 'I' for Inactive)
REMARK    1  A    between atoms: C3_3  and  C5_5 
ROOT
HETATM    1  C1  UNL     1     -32.551   6.045   3.150  1.00 20.00     0.021 C 
HETATM    2  C2  UNL     1     -33.683   5.799   3.463  1.00 20.00    -0.039 C 
HETATM    3  C3  UNL     1     -35.045   5.502   3.839  1.00 20.00     0.206 C 
HETATM    4  O8  UNL     1     -35.968   5.882   3.131  1.00 20.00    -0.283 OA
ENDROOT
BRANCH   3   5
HETATM    5  C5  UNL     1     -35.226   4.745   5.083  1.00 20.00     0.073 A 
HETATM    6  C4  UNL     1     -34.024   4.143   5.765  1.00 20.00     0.018 A 
HETATM    7  C6  UNL     1     -34.747   5.295   6.404  1.00 20.00    -0.006 A 
HETATM    8  C7  UNL     1     -34.080   6.624   6.516  1.00 20.00     0.011 C 
ENDBRANCH   3   5
TORSDOF 1
ENDMDL
MODEL 2
REMARK VINA RESULT:      -4.8     12.318     13.030
REMARK  1 active torsions:
REMARK  status: ('A' for Active; 'I' for Inactive)
REMARK    1  A    between atoms: C3_3  and  C5_5 
ROOT
HETATM    1  C1  UNL     1     -34.901  14.718  -7.080  1.00 20.00     0.021 C 
HETATM    2  C2  UNL     1     -34.701  14.239  -5.997  1.00 20.00    -0.039 C 
HETATM    3  C3  UNL     1     -34.460  13.663  -4.695  1.00 20.00     0.206 C 
HETATM    4  O8  UNL     1     -35.071  12.659  -4.352  1.00 20.00    -0.283 OA
ENDROOT
BRANCH   3   5
HETATM    5  C5  UNL     1     -33.470  14.345  -3.855  1.00 20.00     0.073 A 
HETATM    6  C4  UNL     1     -33.153  15.797  -4.114  1.00 20.00     0.018 A 
HETATM    7  C6  UNL     1     -33.890  15.404  -2.864  1.00 20.00    -0.006 A 
HETATM    8  C7  UNL     1     -35.316  15.802  -2.684  1.00 20.00     0.011 C 
ENDBRANCH   3   5
TORSDOF 1
ENDMDL
MODEL 3
REMARK VINA RESULT:      -4.7      1.617      3.152
REMARK  1 active torsions:
REMARK  status: ('A' for Active; 'I' for Inactive)
REMARK    1  A    between atoms: C3_3  and  C5_5 
ROOT
HETATM    1  C1  UNL     1     -33.896   7.059   6.713  1.00 20.00     0.021 C 
HETATM    2  C2  UNL     1     -34.167   6.007   6.203  1.00 20.00    -0.039 C 
HETATM    3  C3  UNL     1     -34.493   4.741   5.589  1.00 20.00     0.206 C 
HETATM    4  O8  UNL     1     -34.241   3.698   6.177  1.00 20.00    -0.283 OA
ENDROOT
BRANCH   3   5
HETATM    5  C5  UNL     1     -35.122   4.803   4.265  1.00 20.00     0.073 A 
HETATM    6  C4  UNL     1     -35.523   6.141   3.697  1.00 20.00     0.018 A 
HETATM    7  C6  UNL     1     -34.384   5.378   3.080  1.00 20.00    -0.006 A 
HETATM    8  C7  UNL     1     -32.992   5.899   3.190  1.00 20.00     0.011 C 
ENDBRANCH   3   5
TORSDOF 1
ENDMDL
MODEL 4
REMARK VINA RESULT:      -4.7      1.957      2.399
REMARK  1 active torsions:
REMARK  status: ('A' for Active; 'I' for Inactive)
REMARK    1  A    between atoms: C3_3  and  C5_5 
ROOT
HETATM    1  C1  UNL     1     -32.157   8.566   2.075  1.00 20.00     0.021 C 
HETATM    2  C2  UNL     1     -32.443   7.535   2.620  1.00 20.00    -0.039 C 
HETATM    3  C3  UNL     1     -32.788   6.296   3.276  1.00 20.00     0.206 C 
HETATM    4  O8  UNL     1     -31.930   5.439   3.445  1.00 20.00    -0.283 OA
ENDROOT
BRANCH   3   5
HETATM    5  C5  UNL     1     -34.184   6.153   3.704  1.00 20.00     0.073 A 
HETATM    6  C4  UNL     1     -34.589   4.948   4.516  1.00 20.00     0.018 A 
HETATM    7  C6  UNL     1     -34.571   6.308   5.155  1.00 20.00    -0.006 A 
HETATM    8  C7  UNL     1     -33.569   6.620   6.215  1.00 20.00     0.011 C 
ENDBRANCH   3   5
TORSDOF 1
ENDMDL
MODEL 5
REMARK VINA RESULT:      -4.6      1.788      2.321
REMARK  1 active torsions:
REMARK  status: ('A' for Active; 'I' for Inactive)
REMARK    1  A    between atoms: C3_3  and  C5_5 
ROOT
HETATM    1  C1  UNL     1     -32.167   6.669   3.024  1.00 20.00     0.021 C 
HETATM    2  C2  UNL     1     -32.836   6.612   4.020  1.00 20.00    -0.039 C 
HETATM    3  C3  UNL     1     -33.640   6.543   5.217  1.00 20.00     0.206 C 
HETATM    4  O8  UNL     1     -33.195   6.972   6.273  1.00 20.00    -0.283 OA
ENDROOT
BRANCH   3   5
HETATM    5  C5  UNL     1     -34.972   5.946   5.072  1.00 20.00     0.073 A 
HETATM    6  C4  UNL     1     -35.197   4.880   4.030  1.00 20.00     0.018 A 
HETATM    7  C6  UNL     1     -35.233   4.519   5.489  1.00 20.00    -0.006 A 
HETATM    8  C7  UNL     1     -34.166   3.654   6.069  1.00 20.00     0.011 C 
ENDBRANCH   3   5
TORSDOF 1
ENDMDL
MODEL 6
REMARK VINA RESULT:      -4.5     12.270     13.216
REMARK  1 active torsions:
REMARK  status: ('A' for Active; 'I' for Inactive)
REMARK    1  A    between atoms: C3_3  and  C5_5 
ROOT
HETATM    1  C1  UNL     1     -34.624  16.322  -1.637  1.00 20.00     0.021 C 
HETATM    2  C2  UNL     1     -34.093  15.886  -2.622  1.00 20.00    -0.039 C 
HETATM    3  C3  UNL     1     -33.455  15.363  -3.806  1.00 20.00     0.206 C 
HETATM    4  O8  UNL     1     -32.699  16.074  -4.455  1.00 20.00    -0.283 OA
ENDROOT
BRANCH   3   5
HETATM    5  C5  UNL     1     -33.770  13.973  -4.155  1.00 20.00     0.073 A 
HETATM    6  C4  UNL     1     -35.185  13.475  -4.005  1.00 20.00     0.018 A 
HETATM    7  C6  UNL     1     -34.595  13.646  -5.376  1.00 20.00    -0.006 A 
HETATM    8  C7  UNL     1     -35.119  14.705  -6.286  1.00 20.00     0.011 C 
ENDBRANCH   3   5
TORSDOF 1
ENDMDL
MODEL 7
REMARK VINA RESULT:      -4.4     12.007     13.105
REMARK  1 active torsions:
REMARK  status: ('A' for Active; 'I' for Inactive)
REMARK    1  A    between atoms: C3_3  and  C5_5 
ROOT
HETATM    1  C1  UNL     1     -34.172  16.157  -2.264  1.00 20.00     0.021 C 
HETATM    2  C2  UNL     1     -34.134  15.154  -2.921  1.00 20.00    -0.039 C 
HETATM    3  C3  UNL     1     -34.089  13.947  -3.713  1.00 20.00     0.206 C 
HETATM    4  O8  UNL     1     -33.088  13.243  -3.692  1.00 20.00    -0.283 OA
ENDROOT
BRANCH   3   5
HETATM    5  C5  UNL     1     -35.285  13.645  -4.508  1.00 20.00     0.073 A 
HETATM    6  C4  UNL     1     -36.254  14.752  -4.838  1.00 20.00     0.018 A 
HETATM    7  C6  UNL     1     -35.419  14.141  -5.927  1.00 20.00    -0.006 A 
HETATM    8  C7  UNL     1     -34.354  14.945  -6.591  1.00 20.00     0.011 C 
ENDBRANCH   3   5
TORSDOF 1
ENDMDL
MODEL 8
REMARK VINA RESULT:      -4.4     12.112     12.970
REMARK  1 active torsions:
REMARK  status: ('A' for Active; 'I' for Inactive)
REMARK    1  A    between atoms: C3_3  and  C5_5 
ROOT
HETATM    1  C1  UNL     1     -37.643  14.743  -4.084  1.00 20.00     0.021 C 
HETATM    2  C2  UNL     1     -36.520  14.321  -4.048  1.00 20.00    -0.039 C 
HETATM    3  C3  UNL     1     -35.169  13.814  -4.005  1.00 20.00     0.206 C 
HETATM    4  O8  UNL     1     -34.902  12.749  -4.545  1.00 20.00    -0.283 OA
ENDROOT
BRANCH   3   5
HETATM    5  C5  UNL     1     -34.186  14.640  -3.294  1.00 20.00     0.073 A 
HETATM    6  C4  UNL     1     -32.720  14.480  -3.606  1.00 20.00     0.018 A 
HETATM    7  C6  UNL     1     -33.436  15.740  -4.006  1.00 20.00    -0.006 A 
HETATM    8  C7  UNL     1     -33.656  16.046  -5.448  1.00 20.00     0.011 C 
ENDBRANCH   3   5
TORSDOF 1
ENDMDL
MODEL 9
REMARK VINA RESULT:      -4.2      1.734      2.948
REMARK  1 active torsions:
REMARK  status: ('A' for Active; 'I' for Inactive)
REMARK    1  A    between atoms: C3_3  and  C5_5 
ROOT
HETATM    1  C1  UNL     1     -33.441   7.387   7.068  1.00 20.00     0.021 C 
HETATM    2  C2  UNL     1     -33.417   7.020   5.925  1.00 20.00    -0.039 C 
HETATM    3  C3  UNL     1     -33.389   6.579   4.551  1.00 20.00     0.206 C 
HETATM    4  O8  UNL     1     -32.327   6.550   3.944  1.00 20.00    -0.283 OA
ENDROOT
BRANCH   3   5
HETATM    5  C5  UNL     1     -34.676   6.186   3.967  1.00 20.00     0.073 A 
HETATM    6  C4  UNL     1     -34.739   4.993   3.047  1.00 20.00     0.018 A 
HETATM    7  C6  UNL     1     -35.375   4.922   4.406  1.00 20.00    -0.006 A 
HETATM    8  C7  UNL     1     -34.806   4.022   5.450  1.00 20.00     0.011 C 
ENDBRANCH   3   5
TORSDOF 1
ENDMDL
