MODEL 1
REMARK VINA RESULT:      -4.8      0.000      0.000
REMARK  2 active torsions:
REMARK  status: ('A' for Active; 'I' for Inactive)
REMARK    1  A    between atoms: C3_3  and  C8_8 
REMARK    2  A    between atoms: C9_9  and  C12_12 
ROOT
HETATM    1  C1  UNL     1     -35.522  14.449  -7.585  1.00 20.00     0.021 C 
HETATM    2  C2  UNL     1     -35.122  14.163  -6.490  1.00 20.00    -0.039 C 
HETATM    3  C3  UNL     1     -34.643  13.817  -5.173  1.00 20.00     0.205 C 
HETATM    4  O13 UNL     1     -35.093  12.835  -4.598  1.00 20.00    -0.283 OA
ENDROOT
BRANCH   3   5
HETATM    5  C8  UNL     1     -33.580  14.731  -4.581  1.00 20.00     0.069 C 
HETATM    6  C4  UNL     1     -33.759  16.142  -5.130  1.00 20.00     0.013 C 
HETATM    7  C6  UNL     1     -34.931  16.900  -4.505  1.00 20.00     0.006 C 
HETATM    8  C9  UNL     1     -34.924  16.869  -2.972  1.00 20.00    -0.011 C 
HETATM    9  C7  UNL     1     -34.830  15.425  -2.464  1.00 20.00     0.006 C 
HETATM   10  C5  UNL     1     -33.653  14.651  -3.060  1.00 20.00     0.013 C 
BRANCH   8  11
HETATM   11  C12 UNL     1     -33.816  17.749  -2.391  1.00 20.00    -0.019 C 
HETATM   12  C10 UNL     1     -33.994  19.200  -2.836  1.00 20.00     0.010 C 
HETATM   13  C11 UNL     1     -33.797  17.653  -0.867  1.00 20.00     0.010 C 
ENDBRANCH   8  11
ENDBRANCH   3   5
TORSDOF 2
ENDMDL
MODEL 2
REMARK VINA RESULT:      -4.8      2.109      4.982
REMARK  2 active torsions:
REMARK  status: ('A' for Active; 'I' for Inactive)
REMARK    1  A    between atoms: C3_3  and  C8_8 
REMARK    2  A    between atoms: C9_9  and  C12_12 
ROOT
HETATM    1  C1  UNL     1     -35.168  17.386   0.742  1.00 20.00     0.021 C 
HETATM    2  C2  UNL     1     -34.638  17.274  -0.330  1.00 20.00    -0.039 C 
HETATM    3  C3  UNL     1     -34.000  17.141  -1.619  1.00 20.00     0.205 C 
HETATM    4  O13 UNL     1     -33.283  18.039  -2.039  1.00 20.00    -0.283 OA
ENDROOT
BRANCH   3   5
HETATM    5  C8  UNL     1     -34.278  15.853  -2.379  1.00 20.00     0.069 C 
HETATM    6  C4  UNL     1     -35.730  15.841  -2.845  1.00 20.00     0.013 C 
HETATM    7  C6  UNL     1     -35.996  16.750  -4.046  1.00 20.00     0.006 C 
HETATM    8  C9  UNL     1     -35.012  16.532  -5.202  1.00 20.00    -0.011 C 
HETATM    9  C7  UNL     1     -33.566  16.639  -4.703  1.00 20.00     0.006 C 
HETATM   10  C5  UNL     1     -33.268  15.724  -3.514  1.00 20.00     0.013 C 
BRANCH   8  11
HETATM   11  C12 UNL     1     -35.268  15.208  -5.924  1.00 20.00    -0.019 C 
HETATM   12  C10 UNL     1     -36.731  15.103  -6.351  1.00 20.00     0.010 C 
HETATM   13  C11 UNL     1     -34.345  15.068  -7.132  1.00 20.00     0.010 C 
ENDBRANCH   8  11
ENDBRANCH   3   5
TORSDOF 2
ENDMDL
MODEL 3
REMARK VINA RESULT:      -4.8      2.116      5.067
REMARK  2 active torsions:
REMARK  status: ('A' for Active; 'I' for Inactive)
REMARK    1  A    between atoms: C3_3  and  C8_8 
REMARK    2  A    between atoms: C9_9  and  C12_12 
ROOT
HETATM    1  C1  UNL     1     -34.037  18.134   0.666  1.00 20.00     0.021 C 
HETATM    2  C2  UNL     1     -34.035  18.245  -0.530  1.00 20.00    -0.039 C 
HETATM    3  C3  UNL     1     -34.031  18.380  -1.967  1.00 20.00     0.205 C 
HETATM    4  O13 UNL     1     -33.253  19.156  -2.505  1.00 20.00    -0.283 OA
ENDROOT
BRANCH   3   5
HETATM    5  C8  UNL     1     -35.028  17.518  -2.727  1.00 20.00     0.069 C 
HETATM    6  C4  UNL     1     -34.893  17.784  -4.223  1.00 20.00     0.013 C 
HETATM    7  C6  UNL     1     -33.663  17.132  -4.854  1.00 20.00     0.006 C 
HETATM    8  C9  UNL     1     -33.523  15.643  -4.513  1.00 20.00    -0.011 C 
HETATM    9  C7  UNL     1     -33.578  15.432  -2.995  1.00 20.00     0.006 C 
HETATM   10  C5  UNL     1     -34.811  16.059  -2.342  1.00 20.00     0.013 C 
BRANCH   8  11
HETATM   11  C12 UNL     1     -34.566  14.794  -5.243  1.00 20.00    -0.019 C 
HETATM   12  C10 UNL     1     -34.414  14.939  -6.756  1.00 20.00     0.010 C 
HETATM   13  C11 UNL     1     -34.449  13.328  -4.830  1.00 20.00     0.010 C 
ENDBRANCH   8  11
ENDBRANCH   3   5
TORSDOF 2
ENDMDL
MODEL 4
REMARK VINA RESULT:      -4.7      2.101      5.152
REMARK  2 active torsions:
REMARK  status: ('A' for Active; 'I' for Inactive)
REMARK    1  A    between atoms: C3_3  and  C8_8 
REMARK    2  A    between atoms: C9_9  and  C12_12 
ROOT
HETATM    1  C1  UNL     1     -35.013  17.388   0.557  1.00 20.00     0.021 C 
HETATM    2  C2  UNL     1     -34.830  17.664  -0.597  1.00 20.00    -0.039 C 
HETATM    3  C3  UNL     1     -34.611  17.997  -1.985  1.00 20.00     0.205 C 
HETATM    4  O13 UNL     1     -35.126  19.000  -2.460  1.00 20.00    -0.283 OA
ENDROOT
BRANCH   3   5
HETATM    5  C8  UNL     1     -33.726  17.044  -2.775  1.00 20.00     0.069 C 
HETATM    6  C4  UNL     1     -34.180  15.609  -2.532  1.00 20.00     0.013 C 
HETATM    7  C6  UNL     1     -35.460  15.235  -3.281  1.00 20.00     0.006 C 
HETATM    8  C9  UNL     1     -35.414  15.586  -4.773  1.00 20.00    -0.011 C 
HETATM    9  C7  UNL     1     -35.038  17.060  -4.967  1.00 20.00     0.006 C 
HETATM   10  C5  UNL     1     -33.749  17.455  -4.244  1.00 20.00     0.013 C 
BRANCH   8  11
HETATM   11  C12 UNL     1     -34.479  14.654  -5.547  1.00 20.00    -0.019 C 
HETATM   12  C10 UNL     1     -34.715  13.201  -5.144  1.00 20.00     0.010 C 
HETATM   13  C11 UNL     1     -34.670  14.832  -7.052  1.00 20.00     0.010 C 
ENDBRANCH   8  11
ENDBRANCH   3   5
TORSDOF 2
ENDMDL
MODEL 5
REMARK VINA RESULT:      -4.7      0.881      2.042
REMARK  2 active torsions:
REMARK  status: ('A' for Active; 'I' for Inactive)
REMARK    1  A    between atoms: C3_3  and  C8_8 
REMARK    2  A    between atoms: C9_9  and  C12_12 
ROOT
HETATM    1  C1  UNL     1     -35.156  14.759  -7.918  1.00 20.00     0.021 C 
HETATM    2  C2  UNL     1     -35.168  14.404  -6.771  1.00 20.00    -0.039 C 
HETATM    3  C3  UNL     1     -35.183  13.975  -5.393  1.00 20.00     0.205 C 
HETATM    4  O13 UNL     1     -34.777  12.860  -5.097  1.00 20.00    -0.283 OA
ENDROOT
BRANCH   3   5
HETATM    5  C8  UNL     1     -35.720  14.977  -4.381  1.00 20.00     0.069 C 
HETATM    6  C4  UNL     1     -34.984  14.806  -3.056  1.00 20.00     0.013 C 
HETATM    7  C6  UNL     1     -33.568  15.386  -3.061  1.00 20.00     0.006 C 
HETATM    8  C9  UNL     1     -33.505  16.827  -3.580  1.00 20.00    -0.011 C 
HETATM    9  C7  UNL     1     -34.181  16.935  -4.953  1.00 20.00     0.006 C 
HETATM   10  C5  UNL     1     -35.606  16.379  -4.969  1.00 20.00     0.013 C 
BRANCH   8  11
HETATM   11  C12 UNL     1     -34.097  17.819  -2.576  1.00 20.00    -0.019 C 
HETATM   12  C10 UNL     1     -33.730  17.421  -1.148  1.00 20.00     0.010 C 
HETATM   13  C11 UNL     1     -33.620  19.238  -2.878  1.00 20.00     0.010 C 
ENDBRANCH   8  11
ENDBRANCH   3   5
TORSDOF 2
ENDMDL
MODEL 6
REMARK VINA RESULT:      -4.5      1.812      4.778
REMARK  2 active torsions:
REMARK  status: ('A' for Active; 'I' for Inactive)
REMARK    1  A    between atoms: C3_3  and  C8_8 
REMARK    2  A    between atoms: C9_9  and  C12_12 
ROOT
HETATM    1  C1  UNL     1     -34.884  17.010  -0.483  1.00 20.00     0.021 C 
HETATM    2  C2  UNL     1     -34.563  16.407  -1.470  1.00 20.00    -0.039 C 
HETATM    3  C3  UNL     1     -34.176  15.684  -2.658  1.00 20.00     0.205 C 
HETATM    4  O13 UNL     1     -33.007  15.686  -3.019  1.00 20.00    -0.283 OA
ENDROOT
BRANCH   3   5
HETATM    5  C8  UNL     1     -35.288  14.949  -3.392  1.00 20.00     0.069 C 
HETATM    6  C4  UNL     1     -36.401  15.930  -3.742  1.00 20.00     0.013 C 
HETATM    7  C6  UNL     1     -36.064  16.847  -4.920  1.00 20.00     0.006 C 
HETATM    8  C9  UNL     1     -35.547  16.090  -6.149  1.00 20.00    -0.011 C 
HETATM    9  C7  UNL     1     -34.373  15.180  -5.766  1.00 20.00     0.006 C 
HETATM   10  C5  UNL     1     -34.692  14.239  -4.603  1.00 20.00     0.013 C 
BRANCH   8  11
HETATM   11  C12 UNL     1     -36.665  15.311  -6.847  1.00 20.00    -0.019 C 
HETATM   12  C10 UNL     1     -37.686  16.269  -7.457  1.00 20.00     0.010 C 
HETATM   13  C11 UNL     1     -36.088  14.388  -7.918  1.00 20.00     0.010 C 
ENDBRANCH   8  11
ENDBRANCH   3   5
TORSDOF 2
ENDMDL
MODEL 7
REMARK VINA RESULT:      -4.4      1.856      4.761
REMARK  2 active torsions:
REMARK  status: ('A' for Active; 'I' for Inactive)
REMARK    1  A    between atoms: C3_3  and  C8_8 
REMARK    2  A    between atoms: C9_9  and  C12_12 
ROOT
HETATM    1  C1  UNL     1     -34.463  16.987  -0.473  1.00 20.00     0.021 C 
HETATM    2  C2  UNL     1     -34.131  16.652  -1.577  1.00 20.00    -0.039 C 
HETATM    3  C3  UNL     1     -33.732  16.248  -2.904  1.00 20.00     0.205 C 
HETATM    4  O13 UNL     1     -32.818  15.448  -3.048  1.00 20.00    -0.283 OA
ENDROOT
BRANCH   3   5
HETATM    5  C8  UNL     1     -34.503  16.869  -4.059  1.00 20.00     0.069 C 
HETATM    6  C4  UNL     1     -34.037  16.252  -5.373  1.00 20.00     0.013 C 
HETATM    7  C6  UNL     1     -34.574  14.841  -5.613  1.00 20.00     0.006 C 
HETATM    8  C9  UNL     1     -36.092  14.729  -5.425  1.00 20.00    -0.011 C 
HETATM    9  C7  UNL     1     -36.506  15.282  -4.056  1.00 20.00     0.006 C 
HETATM   10  C5  UNL     1     -35.997  16.702  -3.799  1.00 20.00     0.013 C 
BRANCH   8  11
HETATM   11  C12 UNL     1     -36.856  15.405  -6.566  1.00 20.00    -0.019 C 
HETATM   12  C10 UNL     1     -36.375  14.883  -7.918  1.00 20.00     0.010 C 
HETATM   13  C11 UNL     1     -38.360  15.184  -6.409  1.00 20.00     0.010 C 
ENDBRANCH   8  11
ENDBRANCH   3   5
TORSDOF 2
ENDMDL
MODEL 8
REMARK VINA RESULT:      -4.2      1.702      2.001
REMARK  2 active torsions:
REMARK  status: ('A' for Active; 'I' for Inactive)
REMARK    1  A    between atoms: C3_3  and  C8_8 
REMARK    2  A    between atoms: C9_9  and  C12_12 
ROOT
HETATM    1  C1  UNL     1     -34.704  13.112  -4.857  1.00 20.00     0.021 C 
HETATM    2  C2  UNL     1     -34.442  14.255  -5.115  1.00 20.00    -0.039 C 
HETATM    3  C3  UNL     1     -34.127  15.629  -5.427  1.00 20.00     0.205 C 
HETATM    4  O13 UNL     1     -34.394  16.080  -6.532  1.00 20.00    -0.283 OA
ENDROOT
BRANCH   3   5
HETATM    5  C8  UNL     1     -33.468  16.437  -4.319  1.00 20.00     0.069 C 
HETATM    6  C4  UNL     1     -34.105  17.821  -4.250  1.00 20.00     0.013 C 
HETATM    7  C6  UNL     1     -35.488  17.828  -3.598  1.00 20.00     0.006 C 
HETATM    8  C9  UNL     1     -35.525  17.103  -2.247  1.00 20.00    -0.011 C 
HETATM    9  C7  UNL     1     -34.954  15.686  -2.382  1.00 20.00     0.006 C 
HETATM   10  C5  UNL     1     -33.562  15.653  -3.015  1.00 20.00     0.013 C 
BRANCH   8  11
HETATM   11  C12 UNL     1     -34.811  17.901  -1.154  1.00 20.00    -0.019 C 
HETATM   12  C10 UNL     1     -35.492  19.252  -0.945  1.00 20.00     0.010 C 
HETATM   13  C11 UNL     1     -34.774  17.110   0.151  1.00 20.00     0.010 C 
ENDBRANCH   8  11
ENDBRANCH   3   5
TORSDOF 2
ENDMDL
MODEL 9
REMARK VINA RESULT:      -4.1      1.400      1.900
REMARK  2 active torsions:
REMARK  status: ('A' for Active; 'I' for Inactive)
REMARK    1  A    between atoms: C3_3  and  C8_8 
REMARK    2  A    between atoms: C9_9  and  C12_12 
ROOT
HETATM    1  C1  UNL     1     -37.264  15.110  -7.197  1.00 20.00     0.021 C 
HETATM    2  C2  UNL     1     -36.249  15.196  -6.561  1.00 20.00    -0.039 C 
HETATM    3  C3  UNL     1     -35.029  15.299  -5.796  1.00 20.00     0.205 C 
HETATM    4  O13 UNL     1     -34.278  14.337  -5.714  1.00 20.00    -0.283 OA
ENDROOT
BRANCH   3   5
HETATM    5  C8  UNL     1     -34.763  16.640  -5.129  1.00 20.00     0.069 C 
HETATM    6  C4  UNL     1     -36.022  17.109  -4.407  1.00 20.00     0.013 C 
HETATM    7  C6  UNL     1     -36.287  16.372  -3.094  1.00 20.00     0.006 C 
HETATM    8  C9  UNL     1     -35.068  16.327  -2.166  1.00 20.00    -0.011 C 
HETATM    9  C7  UNL     1     -33.847  15.769  -2.908  1.00 20.00     0.006 C 
HETATM   10  C5  UNL     1     -33.548  16.504  -4.217  1.00 20.00     0.013 C 
BRANCH   8  11
HETATM   11  C12 UNL     1     -34.778  17.695  -1.544  1.00 20.00    -0.019 C 
HETATM   12  C10 UNL     1     -35.997  18.207  -0.780  1.00 20.00     0.010 C 
HETATM   13  C11 UNL     1     -33.561  17.619  -0.624  1.00 20.00     0.010 C 
ENDBRANCH   8  11
ENDBRANCH   3   5
TORSDOF 2
ENDMDL
