MODEL 1
REMARK VINA RESULT:      -4.6      0.000      0.000
REMARK  2 active torsions:
REMARK  status: ('A' for Active; 'I' for Inactive)
REMARK    1  A    between atoms: C3_3  and  C7_7 
REMARK    2  A    between atoms: C8_8  and  C10_10 
ROOT
HETATM    1  C1  UNL     1     -35.030  14.802  -7.096  1.00 20.00     0.021 C 
HETATM    2  C2  UNL     1     -34.800  14.352  -6.006  1.00 20.00    -0.039 C 
HETATM    3  C3  UNL     1     -34.525  13.811  -4.697  1.00 20.00     0.205 C 
HETATM    4  O11 UNL     1     -34.887  12.675  -4.419  1.00 20.00    -0.283 OA
ENDROOT
BRANCH   3   5
HETATM    5  C7  UNL     1     -33.793  14.709  -3.747  1.00 20.00     0.069 C 
HETATM    6  C4  UNL     1     -34.757  15.308  -2.720  1.00 20.00     0.013 C 
HETATM    7  C5  UNL     1     -35.013  16.727  -3.208  1.00 20.00     0.005 C 
HETATM    8  C8  UNL     1     -33.657  17.145  -3.764  1.00 20.00    -0.014 C 
HETATM    9  C6  UNL     1     -33.177  15.893  -4.502  1.00 20.00     0.017 C 
BRANCH   8  10
HETATM   10  C10 UNL     1     -33.728  18.375  -4.651  1.00 20.00     0.000 C 
HETATM   11  C9  UNL     1     -33.703  18.019  -6.106  1.00 20.00     0.005 C 
ENDBRANCH   8  10
ENDBRANCH   3   5
TORSDOF 2
ENDMDL
MODEL 2
REMARK VINA RESULT:      -4.6      2.027      3.992
REMARK  2 active torsions:
REMARK  status: ('A' for Active; 'I' for Inactive)
REMARK    1  A    between atoms: C3_3  and  C7_7 
REMARK    2  A    between atoms: C8_8  and  C10_10 
ROOT
HETATM    1  C1  UNL     1     -34.696  16.919  -0.301  1.00 20.00     0.021 C 
HETATM    2  C2  UNL     1     -34.536  16.576  -1.441  1.00 20.00    -0.039 C 
HETATM    3  C3  UNL     1     -34.345  16.164  -2.811  1.00 20.00     0.205 C 
HETATM    4  O11 UNL     1     -33.471  16.689  -3.488  1.00 20.00    -0.283 OA
ENDROOT
BRANCH   3   5
HETATM    5  C7  UNL     1     -35.259  15.090  -3.316  1.00 20.00     0.069 C 
HETATM    6  C4  UNL     1     -34.514  13.758  -3.431  1.00 20.00     0.013 C 
HETATM    7  C5  UNL     1     -34.204  13.612  -4.915  1.00 20.00     0.005 C 
HETATM    8  C8  UNL     1     -35.444  14.198  -5.580  1.00 20.00    -0.014 C 
HETATM    9  C6  UNL     1     -35.752  15.432  -4.727  1.00 20.00     0.017 C 
BRANCH   8  10
HETATM   10  C10 UNL     1     -35.239  14.520  -7.049  1.00 20.00     0.000 C 
HETATM   11  C9  UNL     1     -34.440  15.772  -7.243  1.00 20.00     0.005 C 
ENDBRANCH   8  10
ENDBRANCH   3   5
TORSDOF 2
ENDMDL
MODEL 3
REMARK VINA RESULT:      -4.6      1.448      3.731
REMARK  2 active torsions:
REMARK  status: ('A' for Active; 'I' for Inactive)
REMARK    1  A    between atoms: C3_3  and  C7_7 
REMARK    2  A    between atoms: C8_8  and  C10_10 
ROOT
HETATM    1  C1  UNL     1     -34.417  16.649  -1.088  1.00 20.00     0.021 C 
HETATM    2  C2  UNL     1     -34.770  16.017  -2.047  1.00 20.00    -0.039 C 
HETATM    3  C3  UNL     1     -35.195  15.259  -3.199  1.00 20.00     0.205 C 
HETATM    4  O11 UNL     1     -36.371  14.941  -3.319  1.00 20.00    -0.283 OA
ENDROOT
BRANCH   3   5
HETATM    5  C7  UNL     1     -34.130  14.907  -4.193  1.00 20.00     0.069 C 
HETATM    6  C4  UNL     1     -33.501  16.173  -4.779  1.00 20.00     0.013 C 
HETATM    7  C5  UNL     1     -34.145  16.328  -6.151  1.00 20.00     0.005 C 
HETATM    8  C8  UNL     1     -34.277  14.886  -6.628  1.00 20.00    -0.014 C 
HETATM    9  C6  UNL     1     -34.738  14.140  -5.373  1.00 20.00     0.017 C 
BRANCH   8  10
HETATM   10  C10 UNL     1     -35.227  14.731  -7.802  1.00 20.00     0.000 C 
HETATM   11  C9  UNL     1     -36.650  14.983  -7.409  1.00 20.00     0.005 C 
ENDBRANCH   8  10
ENDBRANCH   3   5
TORSDOF 2
ENDMDL
MODEL 4
REMARK VINA RESULT:      -4.6      1.624      2.823
REMARK  2 active torsions:
REMARK  status: ('A' for Active; 'I' for Inactive)
REMARK    1  A    between atoms: C3_3  and  C7_7 
REMARK    2  A    between atoms: C8_8  and  C10_10 
ROOT
HETATM    1  C1  UNL     1     -33.912  17.660  -6.140  1.00 20.00     0.021 C 
HETATM    2  C2  UNL     1     -34.149  16.483  -6.113  1.00 20.00    -0.039 C 
HETATM    3  C3  UNL     1     -34.433  15.068  -6.080  1.00 20.00     0.205 C 
HETATM    4  O11 UNL     1     -34.682  14.473  -7.121  1.00 20.00    -0.283 OA
ENDROOT
BRANCH   3   5
HETATM    5  C7  UNL     1     -34.401  14.414  -4.733  1.00 20.00     0.069 C 
HETATM    6  C4  UNL     1     -35.798  14.399  -4.108  1.00 20.00     0.013 C 
HETATM    7  C5  UNL     1     -35.784  15.535  -3.094  1.00 20.00     0.005 C 
HETATM    8  C8  UNL     1     -34.367  15.473  -2.535  1.00 20.00    -0.014 C 
HETATM    9  C6  UNL     1     -33.508  15.213  -3.775  1.00 20.00     0.017 C 
BRANCH   8  10
HETATM   10  C10 UNL     1     -33.967  16.727  -1.779  1.00 20.00     0.000 C 
HETATM   11  C9  UNL     1     -34.689  16.848  -0.472  1.00 20.00     0.005 C 
ENDBRANCH   8  10
ENDBRANCH   3   5
TORSDOF 2
ENDMDL
MODEL 5
REMARK VINA RESULT:      -4.5      1.177      2.801
REMARK  2 active torsions:
REMARK  status: ('A' for Active; 'I' for Inactive)
REMARK    1  A    between atoms: C3_3  and  C7_7 
REMARK    2  A    between atoms: C8_8  and  C10_10 
ROOT
HETATM    1  C1  UNL     1     -32.608  14.770  -3.503  1.00 20.00     0.021 C 
HETATM    2  C2  UNL     1     -33.599  14.297  -3.991  1.00 20.00    -0.039 C 
HETATM    3  C3  UNL     1     -34.789  13.729  -4.577  1.00 20.00     0.205 C 
HETATM    4  O11 UNL     1     -35.082  12.562  -4.352  1.00 20.00    -0.283 OA
ENDROOT
BRANCH   3   5
HETATM    5  C7  UNL     1     -35.603  14.641  -5.445  1.00 20.00     0.069 C 
HETATM    6  C4  UNL     1     -35.266  14.422  -6.921  1.00 20.00     0.013 C 
HETATM    7  C5  UNL     1     -34.346  15.580  -7.286  1.00 20.00     0.005 C 
HETATM    8  C8  UNL     1     -34.930  16.740  -6.488  1.00 20.00    -0.014 C 
HETATM    9  C6  UNL     1     -35.269  16.105  -5.137  1.00 20.00     0.017 C 
BRANCH   8  10
HETATM   10  C10 UNL     1     -33.984  17.923  -6.376  1.00 20.00     0.000 C 
HETATM   11  C9  UNL     1     -33.569  18.175  -4.959  1.00 20.00     0.005 C 
ENDBRANCH   8  10
ENDBRANCH   3   5
TORSDOF 2
ENDMDL
MODEL 6
REMARK VINA RESULT:      -4.5     11.456     13.092
REMARK  2 active torsions:
REMARK  status: ('A' for Active; 'I' for Inactive)
REMARK    1  A    between atoms: C3_3  and  C7_7 
REMARK    2  A    between atoms: C8_8  and  C10_10 
ROOT
HETATM    1  C1  UNL     1     -33.502   7.276   7.002  1.00 20.00     0.021 C 
HETATM    2  C2  UNL     1     -34.019   6.439   6.314  1.00 20.00    -0.039 C 
HETATM    3  C3  UNL     1     -34.640   5.433   5.486  1.00 20.00     0.205 C 
HETATM    4  O11 UNL     1     -35.088   4.415   5.998  1.00 20.00    -0.283 OA
ENDROOT
BRANCH   3   5
HETATM    5  C7  UNL     1     -34.693   5.720   4.017  1.00 20.00     0.069 C 
HETATM    6  C4  UNL     1     -33.819   4.731   3.243  1.00 20.00     0.013 C 
HETATM    7  C5  UNL     1     -32.545   5.503   2.924  1.00 20.00     0.005 C 
HETATM    8  C8  UNL     1     -33.062   6.909   2.646  1.00 20.00    -0.014 C 
HETATM    9  C6  UNL     1     -34.126   7.116   3.727  1.00 20.00     0.017 C 
BRANCH   8  10
HETATM   10  C10 UNL     1     -31.969   7.963   2.669  1.00 20.00     0.000 C 
HETATM   11  C9  UNL     1     -31.945   8.773   1.410  1.00 20.00     0.005 C 
ENDBRANCH   8  10
ENDBRANCH   3   5
TORSDOF 2
ENDMDL
MODEL 7
REMARK VINA RESULT:      -4.5     11.182     12.914
REMARK  2 active torsions:
REMARK  status: ('A' for Active; 'I' for Inactive)
REMARK    1  A    between atoms: C3_3  and  C7_7 
REMARK    2  A    between atoms: C8_8  and  C10_10 
ROOT
HETATM    1  C1  UNL     1     -32.113   8.851   0.941  1.00 20.00     0.021 C 
HETATM    2  C2  UNL     1     -32.067   8.163   1.925  1.00 20.00    -0.039 C 
HETATM    3  C3  UNL     1     -32.011   7.337   3.107  1.00 20.00     0.205 C 
HETATM    4  O11 UNL     1     -31.465   7.758   4.119  1.00 20.00    -0.283 OA
ENDROOT
BRANCH   3   5
HETATM    5  C7  UNL     1     -32.646   5.984   3.003  1.00 20.00     0.069 C 
HETATM    6  C4  UNL     1     -34.045   6.091   2.393  1.00 20.00     0.013 C 
HETATM    7  C5  UNL     1     -34.996   5.985   3.579  1.00 20.00     0.005 C 
HETATM    8  C8  UNL     1     -34.302   4.970   4.480  1.00 20.00    -0.014 C 
HETATM    9  C6  UNL     1     -32.828   5.374   4.398  1.00 20.00     0.017 C 
BRANCH   8  10
HETATM   10  C10 UNL     1     -34.845   4.961   5.898  1.00 20.00     0.000 C 
HETATM   11  C9  UNL     1     -34.409   6.166   6.672  1.00 20.00     0.005 C 
ENDBRANCH   8  10
ENDBRANCH   3   5
TORSDOF 2
ENDMDL
MODEL 8
REMARK VINA RESULT:      -4.4      1.850      2.973
REMARK  2 active torsions:
REMARK  status: ('A' for Active; 'I' for Inactive)
REMARK    1  A    between atoms: C3_3  and  C7_7 
REMARK    2  A    between atoms: C8_8  and  C10_10 
ROOT
HETATM    1  C1  UNL     1     -37.603  15.711  -4.704  1.00 20.00     0.021 C 
HETATM    2  C2  UNL     1     -36.802  15.267  -5.481  1.00 20.00    -0.039 C 
HETATM    3  C3  UNL     1     -35.839  14.734  -6.414  1.00 20.00     0.205 C 
HETATM    4  O11 UNL     1     -36.167  14.528  -7.576  1.00 20.00    -0.283 OA
ENDROOT
BRANCH   3   5
HETATM    5  C7  UNL     1     -34.467  14.467  -5.875  1.00 20.00     0.069 C 
HETATM    6  C4  UNL     1     -34.501  13.317  -4.865  1.00 20.00     0.013 C 
HETATM    7  C5  UNL     1     -34.450  13.995  -3.502  1.00 20.00     0.005 C 
HETATM    8  C8  UNL     1     -33.513  15.172  -3.743  1.00 20.00    -0.014 C 
HETATM    9  C6  UNL     1     -33.946  15.693  -5.116  1.00 20.00     0.017 C 
BRANCH   8  10
HETATM   10  C10 UNL     1     -33.583  16.226  -2.652  1.00 20.00     0.000 C 
HETATM   11  C9  UNL     1     -34.826  16.095  -1.827  1.00 20.00     0.005 C 
ENDBRANCH   8  10
ENDBRANCH   3   5
TORSDOF 2
ENDMDL
MODEL 9
REMARK VINA RESULT:      -4.4      1.594      2.940
REMARK  2 active torsions:
REMARK  status: ('A' for Active; 'I' for Inactive)
REMARK    1  A    between atoms: C3_3  and  C7_7 
REMARK    2  A    between atoms: C8_8  and  C10_10 
ROOT
HETATM    1  C1  UNL     1     -32.479  14.428  -3.486  1.00 20.00     0.021 C 
HETATM    2  C2  UNL     1     -33.534  14.052  -3.920  1.00 20.00    -0.039 C 
HETATM    3  C3  UNL     1     -34.802  13.599  -4.441  1.00 20.00     0.205 C 
HETATM    4  O11 UNL     1     -34.905  12.466  -4.892  1.00 20.00    -0.283 OA
ENDROOT
BRANCH   3   5
HETATM    5  C7  UNL     1     -35.931  14.582  -4.388  1.00 20.00     0.069 C 
HETATM    6  C4  UNL     1     -35.706  15.717  -5.390  1.00 20.00     0.013 C 
HETATM    7  C5  UNL     1     -35.203  16.884  -4.550  1.00 20.00     0.005 C 
HETATM    8  C8  UNL     1     -36.007  16.745  -3.262  1.00 20.00    -0.014 C 
HETATM    9  C6  UNL     1     -36.003  15.236  -3.003  1.00 20.00     0.017 C 
BRANCH   8  10
HETATM   10  C10 UNL     1     -35.436  17.554  -2.111  1.00 20.00     0.000 C 
HETATM   11  C9  UNL     1     -34.669  16.698  -1.152  1.00 20.00     0.005 C 
ENDBRANCH   8  10
ENDBRANCH   3   5
TORSDOF 2
ENDMDL
