MODEL 1
REMARK VINA RESULT:      -5.0      0.000      0.000
REMARK  2 active torsions:
REMARK  status: ('A' for Active; 'I' for Inactive)
REMARK    1  A    between atoms: C3_3  and  C7_7 
REMARK    2  A    between atoms: C8_8  and  C10_10 
ROOT
HETATM    1  C1  UNL     1     -34.938  14.852  -7.300  1.00 20.00     0.021 C 
HETATM    2  C2  UNL     1     -34.694  14.382  -6.222  1.00 20.00    -0.039 C 
HETATM    3  C3  UNL     1     -34.401  13.816  -4.926  1.00 20.00     0.205 C 
HETATM    4  O11 UNL     1     -34.829  12.707  -4.636  1.00 20.00    -0.283 OA
ENDROOT
BRANCH   3   5
HETATM    5  C7  UNL     1     -33.558  14.668  -3.995  1.00 20.00     0.069 C 
HETATM    6  C4  UNL     1     -33.209  15.982  -4.694  1.00 20.00     0.013 C 
HETATM    7  C5  UNL     1     -33.753  17.087  -3.793  1.00 20.00     0.005 C 
HETATM    8  C8  UNL     1     -34.929  16.433  -3.079  1.00 20.00    -0.014 C 
HETATM    9  C6  UNL     1     -34.395  15.034  -2.773  1.00 20.00     0.017 C 
BRANCH   8  10
HETATM   10  C10 UNL     1     -35.373  17.190  -1.839  1.00 20.00     0.000 C 
HETATM   11  C9  UNL     1     -34.602  16.775  -0.625  1.00 20.00     0.005 C 
ENDBRANCH   8  10
ENDBRANCH   3   5
TORSDOF 2
ENDMDL
MODEL 2
REMARK VINA RESULT:      -4.8      2.110      3.197
REMARK  2 active torsions:
REMARK  status: ('A' for Active; 'I' for Inactive)
REMARK    1  A    between atoms: C3_3  and  C7_7 
REMARK    2  A    between atoms: C8_8  and  C10_10 
ROOT
HETATM    1  C1  UNL     1     -33.366  13.629  -3.760  1.00 20.00     0.021 C 
HETATM    2  C2  UNL     1     -33.462  14.816  -3.913  1.00 20.00    -0.039 C 
HETATM    3  C3  UNL     1     -33.576  16.244  -4.100  1.00 20.00     0.205 C 
HETATM    4  O11 UNL     1     -32.912  16.799  -4.965  1.00 20.00    -0.283 OA
ENDROOT
BRANCH   3   5
HETATM    5  C7  UNL     1     -34.543  16.967  -3.181  1.00 20.00     0.069 C 
HETATM    6  C4  UNL     1     -34.987  16.015  -2.071  1.00 20.00     0.013 C 
HETATM    7  C5  UNL     1     -34.600  16.696  -0.761  1.00 20.00     0.005 C 
HETATM    8  C8  UNL     1     -33.399  17.555  -1.136  1.00 20.00    -0.014 C 
HETATM    9  C6  UNL     1     -33.804  18.115  -2.499  1.00 20.00     0.017 C 
BRANCH   8  10
HETATM   10  C10 UNL     1     -33.092  18.634  -0.113  1.00 20.00     0.000 C 
HETATM   11  C9  UNL     1     -33.852  18.432   1.161  1.00 20.00     0.005 C 
ENDBRANCH   8  10
ENDBRANCH   3   5
TORSDOF 2
ENDMDL
MODEL 3
REMARK VINA RESULT:      -4.8      1.411      1.731
REMARK  2 active torsions:
REMARK  status: ('A' for Active; 'I' for Inactive)
REMARK    1  A    between atoms: C3_3  and  C7_7 
REMARK    2  A    between atoms: C8_8  and  C10_10 
ROOT
HETATM    1  C1  UNL     1     -37.558  14.689  -3.945  1.00 20.00     0.021 C 
HETATM    2  C2  UNL     1     -36.449  14.280  -4.159  1.00 20.00    -0.039 C 
HETATM    3  C3  UNL     1     -35.117  13.787  -4.418  1.00 20.00     0.205 C 
HETATM    4  O11 UNL     1     -34.940  12.595  -4.630  1.00 20.00    -0.283 OA
ENDROOT
BRANCH   3   5
HETATM    5  C7  UNL     1     -34.004  14.819  -4.408  1.00 20.00     0.069 C 
HETATM    6  C4  UNL     1     -34.530  16.131  -4.989  1.00 20.00     0.013 C 
HETATM    7  C5  UNL     1     -34.324  17.179  -3.898  1.00 20.00     0.005 C 
HETATM    8  C8  UNL     1     -34.389  16.379  -2.604  1.00 20.00    -0.014 C 
HETATM    9  C6  UNL     1     -33.618  15.108  -2.960  1.00 20.00     0.017 C 
BRANCH   8  10
HETATM   10  C10 UNL     1     -33.806  17.119  -1.413  1.00 20.00     0.000 C 
HETATM   11  C9  UNL     1     -34.713  17.067  -0.222  1.00 20.00     0.005 C 
ENDBRANCH   8  10
ENDBRANCH   3   5
TORSDOF 2
ENDMDL
MODEL 4
REMARK VINA RESULT:      -4.8      1.867      4.739
REMARK  2 active torsions:
REMARK  status: ('A' for Active; 'I' for Inactive)
REMARK    1  A    between atoms: C3_3  and  C7_7 
REMARK    2  A    between atoms: C8_8  and  C10_10 
ROOT
HETATM    1  C1  UNL     1     -34.679  16.743  -0.510  1.00 20.00     0.021 C 
HETATM    2  C2  UNL     1     -34.306  16.886  -1.642  1.00 20.00    -0.039 C 
HETATM    3  C3  UNL     1     -33.856  17.059  -3.004  1.00 20.00     0.205 C 
HETATM    4  O11 UNL     1     -33.977  18.146  -3.551  1.00 20.00    -0.283 OA
ENDROOT
BRANCH   3   5
HETATM    5  C7  UNL     1     -33.247  15.839  -3.671  1.00 20.00     0.069 C 
HETATM    6  C4  UNL     1     -34.161  14.635  -3.447  1.00 20.00     0.013 C 
HETATM    7  C5  UNL     1     -34.529  14.129  -4.839  1.00 20.00     0.005 C 
HETATM    8  C8  UNL     1     -34.448  15.373  -5.715  1.00 20.00    -0.014 C 
HETATM    9  C6  UNL     1     -33.202  16.077  -5.178  1.00 20.00     0.017 C 
BRANCH   8  10
HETATM   10  C10 UNL     1     -34.366  15.058  -7.198  1.00 20.00     0.000 C 
HETATM   11  C9  UNL     1     -35.638  14.462  -7.715  1.00 20.00     0.005 C 
ENDBRANCH   8  10
ENDBRANCH   3   5
TORSDOF 2
ENDMDL
MODEL 5
REMARK VINA RESULT:      -4.6      1.494      1.857
REMARK  2 active torsions:
REMARK  status: ('A' for Active; 'I' for Inactive)
REMARK    1  A    between atoms: C3_3  and  C7_7 
REMARK    2  A    between atoms: C8_8  and  C10_10 
ROOT
HETATM    1  C1  UNL     1     -34.755  14.824  -7.509  1.00 20.00     0.021 C 
HETATM    2  C2  UNL     1     -35.418  14.772  -6.510  1.00 20.00    -0.039 C 
HETATM    3  C3  UNL     1     -36.217  14.710  -5.308  1.00 20.00     0.205 C 
HETATM    4  O11 UNL     1     -37.392  15.050  -5.341  1.00 20.00    -0.283 OA
ENDROOT
BRANCH   3   5
HETATM    5  C7  UNL     1     -35.516  14.210  -4.059  1.00 20.00     0.069 C 
HETATM    6  C4  UNL     1     -34.057  13.900  -4.393  1.00 20.00     0.013 C 
HETATM    7  C5  UNL     1     -33.223  14.769  -3.454  1.00 20.00     0.005 C 
HETATM    8  C8  UNL     1     -34.117  15.972  -3.179  1.00 20.00    -0.014 C 
HETATM    9  C6  UNL     1     -35.497  15.333  -3.026  1.00 20.00     0.017 C 
BRANCH   8  10
HETATM   10  C10 UNL     1     -33.687  16.770  -1.961  1.00 20.00     0.000 C 
HETATM   11  C9  UNL     1     -34.648  16.616  -0.823  1.00 20.00     0.005 C 
ENDBRANCH   8  10
ENDBRANCH   3   5
TORSDOF 2
ENDMDL
MODEL 6
REMARK VINA RESULT:      -4.6      2.545      4.735
REMARK  2 active torsions:
REMARK  status: ('A' for Active; 'I' for Inactive)
REMARK    1  A    between atoms: C3_3  and  C7_7 
REMARK    2  A    between atoms: C8_8  and  C10_10 
ROOT
HETATM    1  C1  UNL     1     -34.943  17.278   0.479  1.00 20.00     0.021 C 
HETATM    2  C2  UNL     1     -34.527  17.632  -0.590  1.00 20.00    -0.039 C 
HETATM    3  C3  UNL     1     -34.025  18.059  -1.875  1.00 20.00     0.205 C 
HETATM    4  O11 UNL     1     -33.184  18.946  -1.935  1.00 20.00    -0.283 OA
ENDROOT
BRANCH   3   5
HETATM    5  C7  UNL     1     -34.597  17.351  -3.090  1.00 20.00     0.069 C 
HETATM    6  C4  UNL     1     -33.646  17.536  -4.272  1.00 20.00     0.013 C 
HETATM    7  C5  UNL     1     -33.264  16.127  -4.720  1.00 20.00     0.005 C 
HETATM    8  C8  UNL     1     -33.382  15.294  -3.450  1.00 20.00    -0.014 C 
HETATM    9  C6  UNL     1     -34.649  15.854  -2.803  1.00 20.00     0.017 C 
BRANCH   8  10
HETATM   10  C10 UNL     1     -33.455  13.801  -3.718  1.00 20.00     0.000 C 
HETATM   11  C9  UNL     1     -34.806  13.387  -4.213  1.00 20.00     0.005 C 
ENDBRANCH   8  10
ENDBRANCH   3   5
TORSDOF 2
ENDMDL
MODEL 7
REMARK VINA RESULT:      -4.6     11.353     12.499
REMARK  2 active torsions:
REMARK  status: ('A' for Active; 'I' for Inactive)
REMARK    1  A    between atoms: C3_3  and  C7_7 
REMARK    2  A    between atoms: C8_8  and  C10_10 
ROOT
HETATM    1  C1  UNL     1     -31.954   8.851   1.403  1.00 20.00     0.021 C 
HETATM    2  C2  UNL     1     -32.207   7.947   2.152  1.00 20.00    -0.039 C 
HETATM    3  C3  UNL     1     -32.510   6.860   3.054  1.00 20.00     0.205 C 
HETATM    4  O11 UNL     1     -31.724   5.930   3.170  1.00 20.00    -0.283 OA
ENDROOT
BRANCH   3   5
HETATM    5  C7  UNL     1     -33.821   6.960   3.811  1.00 20.00     0.069 C 
HETATM    6  C4  UNL     1     -34.944   6.386   2.948  1.00 20.00     0.013 C 
HETATM    7  C5  UNL     1     -35.564   5.259   3.770  1.00 20.00     0.005 C 
HETATM    8  C8  UNL     1     -34.418   4.775   4.650  1.00 20.00    -0.014 C 
HETATM    9  C6  UNL     1     -33.736   6.081   5.055  1.00 20.00     0.017 C 
BRANCH   8  10
HETATM   10  C10 UNL     1     -34.882   3.948   5.836  1.00 20.00     0.000 C 
HETATM   11  C9  UNL     1     -35.378   4.807   6.957  1.00 20.00     0.005 C 
ENDBRANCH   8  10
ENDBRANCH   3   5
TORSDOF 2
ENDMDL
MODEL 8
REMARK VINA RESULT:      -4.5      1.583      1.957
REMARK  2 active torsions:
REMARK  status: ('A' for Active; 'I' for Inactive)
REMARK    1  A    between atoms: C3_3  and  C7_7 
REMARK    2  A    between atoms: C8_8  and  C10_10 
ROOT
HETATM    1  C1  UNL     1     -34.769  13.108  -4.869  1.00 20.00     0.021 C 
HETATM    2  C2  UNL     1     -34.443  14.229  -5.152  1.00 20.00    -0.039 C 
HETATM    3  C3  UNL     1     -34.053  15.577  -5.492  1.00 20.00     0.205 C 
HETATM    4  O11 UNL     1     -34.393  16.056  -6.565  1.00 20.00    -0.283 OA
ENDROOT
BRANCH   3   5
HETATM    5  C7  UNL     1     -33.225  16.319  -4.459  1.00 20.00     0.069 C 
HETATM    6  C4  UNL     1     -33.668  17.781  -4.416  1.00 20.00     0.013 C 
HETATM    7  C5  UNL     1     -34.102  18.041  -2.976  1.00 20.00     0.005 C 
HETATM    8  C8  UNL     1     -34.566  16.677  -2.481  1.00 20.00    -0.014 C 
HETATM    9  C6  UNL     1     -33.523  15.734  -3.081  1.00 20.00     0.017 C 
BRANCH   8  10
HETATM   10  C10 UNL     1     -34.654  16.588  -0.968  1.00 20.00     0.000 C 
HETATM   11  C9  UNL     1     -33.849  17.655  -0.296  1.00 20.00     0.005 C 
ENDBRANCH   8  10
ENDBRANCH   3   5
TORSDOF 2
ENDMDL
MODEL 9
REMARK VINA RESULT:      -4.4     11.473     12.678
REMARK  2 active torsions:
REMARK  status: ('A' for Active; 'I' for Inactive)
REMARK    1  A    between atoms: C3_3  and  C7_7 
REMARK    2  A    between atoms: C8_8  and  C10_10 
ROOT
HETATM    1  C1  UNL     1     -41.797   2.305  -3.294  1.00 20.00     0.021 C 
HETATM    2  C2  UNL     1     -41.663   3.286  -2.616  1.00 20.00    -0.039 C 
HETATM    3  C3  UNL     1     -41.499   4.467  -1.801  1.00 20.00     0.205 C 
HETATM    4  O11 UNL     1     -40.427   4.684  -1.253  1.00 20.00    -0.283 OA
ENDROOT
BRANCH   3   5
HETATM    5  C7  UNL     1     -42.708   5.376  -1.683  1.00 20.00     0.069 C 
HETATM    6  C4  UNL     1     -42.346   6.584  -0.819  1.00 20.00     0.013 C 
HETATM    7  C5  UNL     1     -42.604   7.810  -1.692  1.00 20.00     0.005 C 
HETATM    8  C8  UNL     1     -42.394   7.299  -3.112  1.00 20.00    -0.014 C 
HETATM    9  C6  UNL     1     -43.050   5.918  -3.068  1.00 20.00     0.017 C 
BRANCH   8  10
HETATM   10  C10 UNL     1     -42.989   8.211  -4.171  1.00 20.00     0.000 C 
HETATM   11  C9  UNL     1     -41.933   8.852  -5.015  1.00 20.00     0.005 C 
ENDBRANCH   8  10
ENDBRANCH   3   5
TORSDOF 2
ENDMDL
