MODEL 1
REMARK VINA RESULT:      -4.6      0.000      0.000
REMARK  1 active torsions:
REMARK  status: ('A' for Active; 'I' for Inactive)
REMARK    1  A    between atoms: C3_3  and  C8_8 
ROOT
HETATM    1  C1  UNL     1     -35.004  15.939  -2.210  1.00 20.00     0.016 A 
HETATM    2  C2  UNL     1     -34.517  16.513  -0.999  1.00 20.00     0.015 A 
HETATM    3  C3  UNL     1     -34.680  16.702  -3.310  1.00 20.00    -0.012 A 
HETATM    4  C4  UNL     1     -33.840  17.692  -1.221  1.00 20.00    -0.021 A 
HETATM    5  C10 UNL     1     -33.191  18.581  -0.233  1.00 20.00     0.056 C 
HETATM    6  S11 UNL     1     -33.793  18.103  -2.882  1.00 20.00    -0.099 SA
ENDROOT
BRANCH   3   7
HETATM    7  C8  UNL     1     -35.008  16.443  -4.765  1.00 20.00     0.040 C 
HETATM    8  C6  UNL     1     -33.756  16.380  -5.657  1.00 20.00     0.011 C 
HETATM    9  C5  UNL     1     -34.177  15.484  -6.811  1.00 20.00     0.002 C 
HETATM   10  C7  UNL     1     -34.972  14.387  -6.119  1.00 20.00     0.016 C 
HETATM   11  C9  UNL     1     -35.739  15.106  -5.010  1.00 20.00     0.067 C 
HETATM   12 BR12 UNL     1     -37.578  15.452  -5.598  1.00 20.00    -0.090 Br
ENDBRANCH   3   7
TORSDOF 1
ENDMDL
MODEL 2
REMARK VINA RESULT:      -4.6      3.174      5.075
REMARK  1 active torsions:
REMARK  status: ('A' for Active; 'I' for Inactive)
REMARK    1  A    between atoms: C3_3  and  C8_8 
ROOT
HETATM    1  C1  UNL     1     -36.646  15.241  -5.935  1.00 20.00     0.016 A 
HETATM    2  C2  UNL     1     -37.958  15.472  -6.442  1.00 20.00     0.015 A 
HETATM    3  C3  UNL     1     -36.659  14.910  -4.599  1.00 20.00    -0.012 A 
HETATM    4  C4  UNL     1     -38.923  15.309  -5.474  1.00 20.00    -0.021 A 
HETATM    5  C10 UNL     1     -40.390  15.457  -5.601  1.00 20.00     0.056 C 
HETATM    6  S11 UNL     1     -38.248  14.878  -3.960  1.00 20.00    -0.099 SA
ENDROOT
BRANCH   3   7
HETATM    7  C8  UNL     1     -35.487  14.590  -3.696  1.00 20.00     0.040 C 
HETATM    8  C6  UNL     1     -34.600  13.460  -4.246  1.00 20.00     0.011 C 
HETATM    9  C5  UNL     1     -33.231  13.750  -3.651  1.00 20.00     0.002 C 
HETATM   10  C7  UNL     1     -33.120  15.263  -3.772  1.00 20.00     0.016 C 
HETATM   11  C9  UNL     1     -34.527  15.779  -3.477  1.00 20.00     0.067 C 
HETATM   12 BR12 UNL     1     -34.631  16.382  -1.614  1.00 20.00    -0.090 Br
ENDBRANCH   3   7
TORSDOF 1
ENDMDL
MODEL 3
REMARK VINA RESULT:      -4.6      1.892      2.171
REMARK  1 active torsions:
REMARK  status: ('A' for Active; 'I' for Inactive)
REMARK    1  A    between atoms: C3_3  and  C8_8 
ROOT
HETATM    1  C1  UNL     1     -34.524  16.470  -1.030  1.00 20.00     0.016 A 
HETATM    2  C2  UNL     1     -35.045  17.402  -0.086  1.00 20.00     0.015 A 
HETATM    3  C3  UNL     1     -35.140  16.578  -2.257  1.00 20.00    -0.012 A 
HETATM    4  C4  UNL     1     -36.039  18.187  -0.629  1.00 20.00    -0.021 A 
HETATM    5  C10 UNL     1     -36.821  19.262   0.021  1.00 20.00     0.056 C 
HETATM    6  S11 UNL     1     -36.340  17.800  -2.269  1.00 20.00    -0.099 SA
ENDROOT
BRANCH   3   7
HETATM    7  C8  UNL     1     -34.878  15.778  -3.516  1.00 20.00     0.040 C 
HETATM    8  C6  UNL     1     -33.626  14.890  -3.410  1.00 20.00     0.011 C 
HETATM    9  C5  UNL     1     -33.910  13.746  -4.370  1.00 20.00     0.002 C 
HETATM   10  C7  UNL     1     -35.379  13.444  -4.116  1.00 20.00     0.016 C 
HETATM   11  C9  UNL     1     -36.022  14.812  -3.888  1.00 20.00     0.067 C 
HETATM   12 BR12 UNL     1     -36.890  15.415  -5.540  1.00 20.00    -0.090 Br
ENDBRANCH   3   7
TORSDOF 1
ENDMDL
MODEL 4
REMARK VINA RESULT:      -4.4      2.019      2.325
REMARK  1 active torsions:
REMARK  status: ('A' for Active; 'I' for Inactive)
REMARK    1  A    between atoms: C3_3  and  C8_8 
ROOT
HETATM    1  C1  UNL     1     -34.352  16.418  -1.321  1.00 20.00     0.016 A 
HETATM    2  C2  UNL     1     -35.075  17.346  -0.515  1.00 20.00     0.015 A 
HETATM    3  C3  UNL     1     -34.813  16.391  -2.618  1.00 20.00    -0.012 A 
HETATM    4  C4  UNL     1     -36.061  17.991  -1.229  1.00 20.00    -0.021 A 
HETATM    5  C10 UNL     1     -37.018  19.016  -0.756  1.00 20.00     0.056 C 
HETATM    6  S11 UNL     1     -36.112  17.481  -2.862  1.00 20.00    -0.099 SA
ENDROOT
BRANCH   3   7
HETATM    7  C8  UNL     1     -34.318  15.551  -3.776  1.00 20.00     0.040 C 
HETATM    8  C6  UNL     1     -34.227  14.054  -3.431  1.00 20.00     0.011 C 
HETATM    9  C5  UNL     1     -34.403  13.361  -4.774  1.00 20.00     0.002 C 
HETATM   10  C7  UNL     1     -35.505  14.174  -5.436  1.00 20.00     0.016 C 
HETATM   11  C9  UNL     1     -35.221  15.618  -5.025  1.00 20.00     0.067 C 
HETATM   12 BR12 UNL     1     -34.280  16.543  -6.477  1.00 20.00    -0.090 Br
ENDBRANCH   3   7
TORSDOF 1
ENDMDL
MODEL 5
REMARK VINA RESULT:      -4.4      2.165      2.578
REMARK  1 active torsions:
REMARK  status: ('A' for Active; 'I' for Inactive)
REMARK    1  A    between atoms: C3_3  and  C8_8 
ROOT
HETATM    1  C1  UNL     1     -34.540  16.595  -0.882  1.00 20.00     0.016 A 
HETATM    2  C2  UNL     1     -34.977  17.354   0.243  1.00 20.00     0.015 A 
HETATM    3  C3  UNL     1     -35.234  16.921  -2.025  1.00 20.00    -0.012 A 
HETATM    4  C4  UNL     1     -35.988  18.229  -0.085  1.00 20.00    -0.021 A 
HETATM    5  C10 UNL     1     -36.701  19.182   0.794  1.00 20.00     0.056 C 
HETATM    6  S11 UNL     1     -36.407  18.136  -1.742  1.00 20.00    -0.099 SA
ENDROOT
BRANCH   3   7
HETATM    7  C8  UNL     1     -35.074  16.350  -3.418  1.00 20.00     0.040 C 
HETATM    8  C6  UNL     1     -35.310  17.395  -4.523  1.00 20.00     0.011 C 
HETATM    9  C5  UNL     1     -34.479  16.883  -5.690  1.00 20.00     0.002 C 
HETATM   10  C7  UNL     1     -33.202  16.406  -5.015  1.00 20.00     0.016 C 
HETATM   11  C9  UNL     1     -33.668  15.781  -3.701  1.00 20.00     0.067 C 
HETATM   12 BR12 UNL     1     -33.766  13.832  -3.896  1.00 20.00    -0.090 Br
ENDBRANCH   3   7
TORSDOF 1
ENDMDL
MODEL 6
REMARK VINA RESULT:      -4.3      1.462      1.815
REMARK  1 active torsions:
REMARK  status: ('A' for Active; 'I' for Inactive)
REMARK    1  A    between atoms: C3_3  and  C8_8 
ROOT
HETATM    1  C1  UNL     1     -33.750  18.252  -2.975  1.00 20.00     0.016 A 
HETATM    2  C2  UNL     1     -33.419  18.832  -1.716  1.00 20.00     0.015 A 
HETATM    3  C3  UNL     1     -34.418  17.056  -2.833  1.00 20.00    -0.012 A 
HETATM    4  C4  UNL     1     -33.846  18.057  -0.661  1.00 20.00    -0.021 A 
HETATM    5  C10 UNL     1     -33.696  18.312   0.789  1.00 20.00     0.056 C 
HETATM    6  S11 UNL     1     -34.643  16.637  -1.188  1.00 20.00    -0.099 SA
ENDROOT
BRANCH   3   7
HETATM    7  C8  UNL     1     -34.939  16.135  -3.915  1.00 20.00     0.040 C 
HETATM    8  C6  UNL     1     -33.820  15.552  -4.795  1.00 20.00     0.011 C 
HETATM    9  C5  UNL     1     -34.395  14.234  -5.289  1.00 20.00     0.002 C 
HETATM   10  C7  UNL     1     -35.092  13.681  -4.055  1.00 20.00     0.016 C 
HETATM   11  C9  UNL     1     -35.701  14.906  -3.373  1.00 20.00     0.067 C 
HETATM   12 BR12 UNL     1     -37.601  15.044  -3.839  1.00 20.00    -0.090 Br
ENDBRANCH   3   7
TORSDOF 1
ENDMDL
MODEL 7
REMARK VINA RESULT:      -4.3     14.285     15.993
REMARK  1 active torsions:
REMARK  status: ('A' for Active; 'I' for Inactive)
REMARK    1  A    between atoms: C3_3  and  C8_8 
ROOT
HETATM    1  C1  UNL     1     -41.328   2.793  -3.248  1.00 20.00     0.016 A 
HETATM    2  C2  UNL     1     -41.365   1.494  -3.833  1.00 20.00     0.015 A 
HETATM    3  C3  UNL     1     -42.385   3.005  -2.392  1.00 20.00    -0.012 A 
HETATM    4  C4  UNL     1     -42.450   0.763  -3.400  1.00 20.00    -0.021 A 
HETATM    5  C10 UNL     1     -42.838  -0.616  -3.770  1.00 20.00     0.056 C 
HETATM    6  S11 UNL     1     -43.417   1.642  -2.294  1.00 20.00    -0.099 SA
ENDROOT
BRANCH   3   7
HETATM    7  C8  UNL     1     -42.706   4.242  -1.580  1.00 20.00     0.040 C 
HETATM    8  C6  UNL     1     -43.034   3.924  -0.110  1.00 20.00     0.011 C 
HETATM    9  C5  UNL     1     -42.648   5.194   0.631  1.00 20.00     0.002 C 
HETATM   10  C7  UNL     1     -41.345   5.599  -0.042  1.00 20.00     0.016 C 
HETATM   11  C9  UNL     1     -41.550   5.263  -1.518  1.00 20.00     0.067 C 
HETATM   12 BR12 UNL     1     -42.045   6.887  -2.501  1.00 20.00    -0.090 Br
ENDBRANCH   3   7
TORSDOF 1
ENDMDL
MODEL 8
REMARK VINA RESULT:      -4.3      3.069      5.375
REMARK  1 active torsions:
REMARK  status: ('A' for Active; 'I' for Inactive)
REMARK    1  A    between atoms: C3_3  and  C8_8 
ROOT
HETATM    1  C1  UNL     1     -33.173  15.905  -3.000  1.00 20.00     0.016 A 
HETATM    2  C2  UNL     1     -33.281  14.731  -3.802  1.00 20.00     0.015 A 
HETATM    3  C3  UNL     1     -34.403  16.361  -2.583  1.00 20.00    -0.012 A 
HETATM    4  C4  UNL     1     -34.590  14.336  -3.965  1.00 20.00    -0.021 A 
HETATM    5  C10 UNL     1     -35.114  13.177  -4.721  1.00 20.00     0.056 C 
HETATM    6  S11 UNL     1     -35.682  15.376  -3.155  1.00 20.00    -0.099 SA
ENDROOT
BRANCH   3   7
HETATM    7  C8  UNL     1     -34.718  17.567  -1.723  1.00 20.00     0.040 C 
HETATM    8  C6  UNL     1     -36.229  17.819  -1.579  1.00 20.00     0.011 C 
HETATM    9  C5  UNL     1     -36.352  18.534  -0.242  1.00 20.00     0.002 C 
HETATM   10  C7  UNL     1     -35.372  17.776   0.641  1.00 20.00     0.016 C 
HETATM   11  C9  UNL     1     -34.193  17.454  -0.276  1.00 20.00     0.067 C 
HETATM   12 BR12 UNL     1     -32.758  18.759   0.013  1.00 20.00    -0.090 Br
ENDBRANCH   3   7
TORSDOF 1
ENDMDL
MODEL 9
REMARK VINA RESULT:      -4.2      1.933      4.811
REMARK  1 active torsions:
REMARK  status: ('A' for Active; 'I' for Inactive)
REMARK    1  A    between atoms: C3_3  and  C8_8 
ROOT
HETATM    1  C1  UNL     1     -35.186  14.071  -3.901  1.00 20.00     0.016 A 
HETATM    2  C2  UNL     1     -34.902  13.707  -5.250  1.00 20.00     0.015 A 
HETATM    3  C3  UNL     1     -35.353  15.430  -3.756  1.00 20.00    -0.012 A 
HETATM    4  C4  UNL     1     -34.863  14.803  -6.083  1.00 20.00    -0.021 A 
HETATM    5  C10 UNL     1     -34.602  14.843  -7.539  1.00 20.00     0.056 C 
HETATM    6  S11 UNL     1     -35.168  16.262  -5.242  1.00 20.00    -0.099 SA
ENDROOT
BRANCH   3   7
HETATM    7  C8  UNL     1     -35.665  16.212  -2.498  1.00 20.00     0.040 C 
HETATM    8  C6  UNL     1     -34.492  16.231  -1.501  1.00 20.00     0.011 C 
HETATM    9  C5  UNL     1     -34.697  17.523  -0.726  1.00 20.00     0.002 C 
HETATM   10  C7  UNL     1     -35.111  18.509  -1.808  1.00 20.00     0.016 C 
HETATM   11  C9  UNL     1     -35.995  17.697  -2.753  1.00 20.00     0.067 C 
HETATM   12 BR12 UNL     1     -37.883  18.038  -2.344  1.00 20.00    -0.090 Br
ENDBRANCH   3   7
TORSDOF 1
ENDMDL
