MODEL 1
REMARK VINA RESULT:      -4.9      0.000      0.000
REMARK  1 active torsions:
REMARK  status: ('A' for Active; 'I' for Inactive)
REMARK    1  A    between atoms: C3_3  and  C9_9 
ROOT
HETATM    1  C1  UNL     1     -34.292  16.263  -1.622  1.00 20.00     0.016 A 
HETATM    2  C2  UNL     1     -35.145  17.209  -0.983  1.00 20.00     0.015 A 
HETATM    3  C3  UNL     1     -34.181  16.499  -2.975  1.00 20.00    -0.013 A 
HETATM    4  C4  UNL     1     -35.653  18.131  -1.871  1.00 20.00    -0.021 A 
HETATM    5  C10 UNL     1     -36.567  19.262  -1.602  1.00 20.00     0.056 C 
HETATM    6  S12 UNL     1     -35.103  17.855  -3.469  1.00 20.00    -0.099 SA
ENDROOT
BRANCH   3   7
HETATM    7  C9  UNL     1     -33.375  15.725  -4.007  1.00 20.00     0.033 C 
HETATM    8  C7  UNL     1     -33.263  14.208  -3.794  1.00 20.00     0.088 C 
HETATM    9  C5  UNL     1     -34.407  13.671  -4.618  1.00 20.00     0.127 C 
HETATM   10  C6  UNL     1     -35.011  14.722  -5.512  1.00 20.00     0.079 C 
HETATM   11  O11 UNL     1     -34.801  12.513  -4.565  1.00 20.00    -0.298 OA
HETATM   12  C8  UNL     1     -33.986  15.848  -5.411  1.00 20.00     0.018 C 
ENDBRANCH   3   7
TORSDOF 1
ENDMDL
MODEL 2
REMARK VINA RESULT:      -4.7      1.475      1.629
REMARK  1 active torsions:
REMARK  status: ('A' for Active; 'I' for Inactive)
REMARK    1  A    between atoms: C3_3  and  C9_9 
ROOT
HETATM    1  C1  UNL     1     -34.460  16.258  -1.547  1.00 20.00     0.016 A 
HETATM    2  C2  UNL     1     -34.731  16.956  -0.335  1.00 20.00     0.015 A 
HETATM    3  C3  UNL     1     -35.209  16.739  -2.600  1.00 20.00    -0.013 A 
HETATM    4  C4  UNL     1     -35.677  17.943  -0.507  1.00 20.00    -0.021 A 
HETATM    5  C10 UNL     1     -36.224  18.879   0.499  1.00 20.00     0.056 C 
HETATM    6  S12 UNL     1     -36.234  18.025  -2.124  1.00 20.00    -0.099 SA
ENDROOT
BRANCH   3   7
HETATM    7  C9  UNL     1     -35.217  16.271  -4.046  1.00 20.00     0.033 C 
HETATM    8  C7  UNL     1     -34.369  15.032  -4.373  1.00 20.00     0.088 C 
HETATM    9  C5  UNL     1     -35.363  13.904  -4.240  1.00 20.00     0.127 C 
HETATM   10  C6  UNL     1     -36.780  14.400  -4.132  1.00 20.00     0.079 C 
HETATM   11  O11 UNL     1     -35.051  12.720  -4.221  1.00 20.00    -0.298 OA
HETATM   12  C8  UNL     1     -36.628  15.872  -4.505  1.00 20.00     0.018 C 
ENDBRANCH   3   7
TORSDOF 1
ENDMDL
MODEL 3
REMARK VINA RESULT:      -4.7      1.062      1.367
REMARK  1 active torsions:
REMARK  status: ('A' for Active; 'I' for Inactive)
REMARK    1  A    between atoms: C3_3  and  C9_9 
ROOT
HETATM    1  C1  UNL     1     -34.709  17.936  -3.769  1.00 20.00     0.016 A 
HETATM    2  C2  UNL     1     -35.397  18.581  -2.702  1.00 20.00     0.015 A 
HETATM    3  C3  UNL     1     -34.139  16.745  -3.372  1.00 20.00    -0.013 A 
HETATM    4  C4  UNL     1     -35.328  17.859  -1.530  1.00 20.00    -0.021 A 
HETATM    5  C10 UNL     1     -35.909  18.188  -0.210  1.00 20.00     0.056 C 
HETATM    6  S12 UNL     1     -34.436  16.411  -1.720  1.00 20.00    -0.099 SA
ENDROOT
BRANCH   3   7
HETATM    7  C9  UNL     1     -33.327  15.763  -4.201  1.00 20.00     0.033 C 
HETATM    8  C7  UNL     1     -33.381  14.289  -3.769  1.00 20.00     0.088 C 
HETATM    9  C5  UNL     1     -34.497  13.734  -4.619  1.00 20.00     0.127 C 
HETATM   10  C6  UNL     1     -34.917  14.687  -5.706  1.00 20.00     0.079 C 
HETATM   11  O11 UNL     1     -35.004  12.633  -4.444  1.00 20.00    -0.298 OA
HETATM   12  C8  UNL     1     -33.801  15.726  -5.662  1.00 20.00     0.018 C 
ENDBRANCH   3   7
TORSDOF 1
ENDMDL
MODEL 4
REMARK VINA RESULT:      -4.6      2.199      2.454
REMARK  1 active torsions:
REMARK  status: ('A' for Active; 'I' for Inactive)
REMARK    1  A    between atoms: C3_3  and  C9_9 
ROOT
HETATM    1  C1  UNL     1     -34.811  16.065  -1.872  1.00 20.00     0.016 A 
HETATM    2  C2  UNL     1     -34.216  17.017  -0.994  1.00 20.00     0.015 A 
HETATM    3  C3  UNL     1     -34.696  16.437  -3.194  1.00 20.00    -0.013 A 
HETATM    4  C4  UNL     1     -33.669  18.080  -1.679  1.00 20.00    -0.021 A 
HETATM    5  C10 UNL     1     -32.967  19.263  -1.134  1.00 20.00     0.056 C 
HETATM    6  S12 UNL     1     -33.874  17.928  -3.372  1.00 20.00    -0.099 SA
ENDROOT
BRANCH   3   7
HETATM    7  C9  UNL     1     -35.195  15.705  -4.429  1.00 20.00     0.033 C 
HETATM    8  C7  UNL     1     -35.950  14.388  -4.189  1.00 20.00     0.088 C 
HETATM    9  C5  UNL     1     -37.391  14.833  -4.150  1.00 20.00     0.127 C 
HETATM   10  C6  UNL     1     -37.564  16.254  -4.617  1.00 20.00     0.079 C 
HETATM   11  O11 UNL     1     -38.315  14.120  -3.778  1.00 20.00    -0.298 OA
HETATM   12  C8  UNL     1     -36.197  16.554  -5.225  1.00 20.00     0.018 C 
ENDBRANCH   3   7
TORSDOF 1
ENDMDL
MODEL 5
REMARK VINA RESULT:      -4.4      3.709      4.984
REMARK  1 active torsions:
REMARK  status: ('A' for Active; 'I' for Inactive)
REMARK    1  A    between atoms: C3_3  and  C9_9 
ROOT
HETATM    1  C1  UNL     1     -32.008  19.078   0.362  1.00 20.00     0.016 A 
HETATM    2  C2  UNL     1     -31.459  19.080   1.677  1.00 20.00     0.015 A 
HETATM    3  C3  UNL     1     -33.366  18.843   0.368  1.00 20.00    -0.013 A 
HETATM    4  C4  UNL     1     -32.418  18.847   2.638  1.00 20.00    -0.021 A 
HETATM    5  C10 UNL     1     -32.251  18.773   4.106  1.00 20.00     0.056 C 
HETATM    6  S12 UNL     1     -33.972  18.626   1.955  1.00 20.00    -0.099 SA
ENDROOT
BRANCH   3   7
HETATM    7  C9  UNL     1     -34.317  18.762  -0.815  1.00 20.00     0.033 C 
HETATM    8  C7  UNL     1     -33.695  18.408  -2.174  1.00 20.00     0.088 C 
HETATM    9  C5  UNL     1     -33.854  16.908  -2.233  1.00 20.00     0.127 C 
HETATM   10  C6  UNL     1     -34.760  16.386  -1.149  1.00 20.00     0.079 C 
HETATM   11  O11 UNL     1     -33.307  16.197  -3.066  1.00 20.00    -0.298 OA
HETATM   12  C8  UNL     1     -35.381  17.672  -0.612  1.00 20.00     0.018 C 
ENDBRANCH   3   7
TORSDOF 1
ENDMDL
MODEL 6
REMARK VINA RESULT:      -4.3      2.442      4.711
REMARK  1 active torsions:
REMARK  status: ('A' for Active; 'I' for Inactive)
REMARK    1  A    between atoms: C3_3  and  C9_9 
ROOT
HETATM    1  C1  UNL     1     -34.282  14.682  -3.217  1.00 20.00     0.016 A 
HETATM    2  C2  UNL     1     -34.019  14.198  -4.531  1.00 20.00     0.015 A 
HETATM    3  C3  UNL     1     -34.994  15.862  -3.233  1.00 20.00    -0.013 A 
HETATM    4  C4  UNL     1     -34.540  15.026  -5.501  1.00 20.00    -0.021 A 
HETATM    5  C10 UNL     1     -34.480  14.873  -6.971  1.00 20.00     0.056 C 
HETATM    6  S12 UNL     1     -35.342  16.380  -4.827  1.00 20.00    -0.099 SA
ENDROOT
BRANCH   3   7
HETATM    7  C9  UNL     1     -35.470  16.695  -2.054  1.00 20.00     0.033 C 
HETATM    8  C7  UNL     1     -34.578  16.688  -0.803  1.00 20.00     0.088 C 
HETATM    9  C5  UNL     1     -33.702  17.898  -1.013  1.00 20.00     0.127 C 
HETATM   10  C6  UNL     1     -34.187  18.767  -2.142  1.00 20.00     0.079 C 
HETATM   11  O11 UNL     1     -32.708  18.144  -0.341  1.00 20.00    -0.298 OA
HETATM   12  C8  UNL     1     -35.570  18.184  -2.416  1.00 20.00     0.018 C 
ENDBRANCH   3   7
TORSDOF 1
ENDMDL
MODEL 7
REMARK VINA RESULT:      -4.3      1.582      2.196
REMARK  1 active torsions:
REMARK  status: ('A' for Active; 'I' for Inactive)
REMARK    1  A    between atoms: C3_3  and  C9_9 
ROOT
HETATM    1  C1  UNL     1     -34.665  15.617  -2.246  1.00 20.00     0.016 A 
HETATM    2  C2  UNL     1     -34.515  16.763  -1.413  1.00 20.00     0.015 A 
HETATM    3  C3  UNL     1     -35.741  15.734  -3.098  1.00 20.00    -0.013 A 
HETATM    4  C4  UNL     1     -35.483  17.712  -1.660  1.00 20.00    -0.021 A 
HETATM    5  C10 UNL     1     -35.670  19.028  -1.010  1.00 20.00     0.056 C 
HETATM    6  S12 UNL     1     -36.566  17.220  -2.891  1.00 20.00    -0.099 SA
ENDROOT
BRANCH   3   7
HETATM    7  C9  UNL     1     -36.238  14.740  -4.136  1.00 20.00     0.033 C 
HETATM    8  C7  UNL     1     -36.142  15.176  -5.606  1.00 20.00     0.088 C 
HETATM    9  C5  UNL     1     -34.809  14.611  -6.034  1.00 20.00     0.127 C 
HETATM   10  C6  UNL     1     -34.243  13.651  -5.021  1.00 20.00     0.079 C 
HETATM   11  O11 UNL     1     -34.251  14.901  -7.084  1.00 20.00    -0.298 OA
HETATM   12  C8  UNL     1     -35.436  13.430  -4.095  1.00 20.00     0.018 C 
ENDBRANCH   3   7
TORSDOF 1
ENDMDL
MODEL 8
REMARK VINA RESULT:      -4.3      2.612      3.422
REMARK  1 active torsions:
REMARK  status: ('A' for Active; 'I' for Inactive)
REMARK    1  A    between atoms: C3_3  and  C9_9 
ROOT
HETATM    1  C1  UNL     1     -33.225  18.603  -1.273  1.00 20.00     0.016 A 
HETATM    2  C2  UNL     1     -32.833  18.992   0.041  1.00 20.00     0.015 A 
HETATM    3  C3  UNL     1     -34.338  17.790  -1.261  1.00 20.00    -0.013 A 
HETATM    4  C4  UNL     1     -33.661  18.463   1.006  1.00 20.00    -0.021 A 
HETATM    5  C10 UNL     1     -33.589  18.631   2.474  1.00 20.00     0.056 C 
HETATM    6  S12 UNL     1     -34.905  17.500   0.329  1.00 20.00    -0.099 SA
ENDROOT
BRANCH   3   7
HETATM    7  C9  UNL     1     -35.066  17.165  -2.441  1.00 20.00     0.033 C 
HETATM    8  C7  UNL     1     -34.571  17.561  -3.841  1.00 20.00     0.088 C 
HETATM    9  C5  UNL     1     -33.581  16.468  -4.164  1.00 20.00     0.127 C 
HETATM   10  C6  UNL     1     -33.656  15.322  -3.190  1.00 20.00     0.079 C 
HETATM   11  O11 UNL     1     -32.804  16.510  -5.109  1.00 20.00    -0.298 OA
HETATM   12  C8  UNL     1     -34.944  15.634  -2.435  1.00 20.00     0.018 C 
ENDBRANCH   3   7
TORSDOF 1
ENDMDL
MODEL 9
REMARK VINA RESULT:      -4.3      2.240      3.247
REMARK  1 active torsions:
REMARK  status: ('A' for Active; 'I' for Inactive)
REMARK    1  A    between atoms: C3_3  and  C9_9 
ROOT
HETATM    1  C1  UNL     1     -35.038  14.643  -4.209  1.00 20.00     0.016 A 
HETATM    2  C2  UNL     1     -34.854  15.087  -2.868  1.00 20.00     0.015 A 
HETATM    3  C3  UNL     1     -34.449  15.492  -5.121  1.00 20.00    -0.013 A 
HETATM    4  C4  UNL     1     -34.132  16.258  -2.805  1.00 20.00    -0.021 A 
HETATM    5  C10 UNL     1     -33.734  17.032  -1.609  1.00 20.00     0.056 C 
HETATM    6  S12 UNL     1     -33.679  16.818  -4.359  1.00 20.00    -0.099 SA
ENDROOT
BRANCH   3   7
HETATM    7  C9  UNL     1     -34.416  15.378  -6.636  1.00 20.00     0.033 C 
HETATM    8  C7  UNL     1     -35.376  14.358  -7.269  1.00 20.00     0.088 C 
HETATM    9  C5  UNL     1     -36.591  15.196  -7.585  1.00 20.00     0.127 C 
HETATM   10  C6  UNL     1     -36.322  16.671  -7.441  1.00 20.00     0.079 C 
HETATM   11  O11 UNL     1     -37.673  14.730  -7.918  1.00 20.00    -0.298 OA
HETATM   12  C8  UNL     1     -34.802  16.702  -7.313  1.00 20.00     0.018 C 
ENDBRANCH   3   7
TORSDOF 1
ENDMDL
