MODEL 1
REMARK VINA RESULT:      -4.8      0.000      0.000
REMARK  1 active torsions:
REMARK  status: ('A' for Active; 'I' for Inactive)
REMARK    1  A    between atoms: C3_3  and  C8_8 
ROOT
HETATM    1  C1  UNL     1     -40.785   4.252  -1.170  1.00 20.00     0.016 A 
HETATM    2  C2  UNL     1     -40.673   5.593  -0.702  1.00 20.00     0.015 A 
HETATM    3  C3  UNL     1     -41.794   4.110  -2.097  1.00 20.00    -0.013 A 
HETATM    4  C4  UNL     1     -41.600   6.426  -1.291  1.00 20.00    -0.021 A 
HETATM    5  C10 UNL     1     -41.804   7.874  -1.075  1.00 20.00     0.056 C 
HETATM    6  S11 UNL     1     -42.599   5.590  -2.402  1.00 20.00    -0.099 SA
ENDROOT
BRANCH   3   7
HETATM    7  C8  UNL     1     -42.232   2.858  -2.829  1.00 20.00     0.027 C 
HETATM    8  C5  UNL     1     -43.345   3.095  -3.863  1.00 20.00     0.011 C 
HETATM    9  C6  UNL     1     -43.283   1.917  -4.841  1.00 20.00     0.016 C 
HETATM   10  C9  UNL     1     -41.968   1.199  -4.563  1.00 20.00     0.058 C 
HETATM   11  C7  UNL     1     -41.169   2.136  -3.670  1.00 20.00     0.025 C 
HETATM   12 BR12 UNL     1     -42.302  -0.491  -3.636  1.00 20.00    -0.091 Br
ENDBRANCH   3   7
TORSDOF 1
ENDMDL
MODEL 2
REMARK VINA RESULT:      -4.7     12.837     14.224
REMARK  1 active torsions:
REMARK  status: ('A' for Active; 'I' for Inactive)
REMARK    1  A    between atoms: C3_3  and  C8_8 
ROOT
HETATM    1  C1  UNL     1     -34.417  16.637  -0.963  1.00 20.00     0.016 A 
HETATM    2  C2  UNL     1     -35.000  17.595  -0.083  1.00 20.00     0.015 A 
HETATM    3  C3  UNL     1     -35.086  16.564  -2.165  1.00 20.00    -0.013 A 
HETATM    4  C4  UNL     1     -36.092  18.219  -0.647  1.00 20.00    -0.021 A 
HETATM    5  C10 UNL     1     -36.959  19.263  -0.062  1.00 20.00     0.056 C 
HETATM    6  S11 UNL     1     -36.409  17.649  -2.230  1.00 20.00    -0.099 SA
ENDROOT
BRANCH   3   7
HETATM    7  C8  UNL     1     -34.787  15.681  -3.358  1.00 20.00     0.027 C 
HETATM    8  C5  UNL     1     -33.572  14.758  -3.165  1.00 20.00     0.011 C 
HETATM    9  C6  UNL     1     -33.736  13.613  -4.171  1.00 20.00     0.016 C 
HETATM   10  C9  UNL     1     -35.163  13.706  -4.696  1.00 20.00     0.058 C 
HETATM   11  C7  UNL     1     -35.879  14.682  -3.774  1.00 20.00     0.025 C 
HETATM   12 BR12 UNL     1     -35.166  14.388  -6.530  1.00 20.00    -0.091 Br
ENDBRANCH   3   7
TORSDOF 1
ENDMDL
MODEL 3
REMARK VINA RESULT:      -4.6      2.958      5.455
REMARK  1 active torsions:
REMARK  status: ('A' for Active; 'I' for Inactive)
REMARK    1  A    between atoms: C3_3  and  C8_8 
ROOT
HETATM    1  C1  UNL     1     -41.208   2.386  -3.428  1.00 20.00     0.016 A 
HETATM    2  C2  UNL     1     -41.551   1.108  -3.957  1.00 20.00     0.015 A 
HETATM    3  C3  UNL     1     -42.137   2.835  -2.516  1.00 20.00    -0.013 A 
HETATM    4  C4  UNL     1     -42.731   0.629  -3.428  1.00 20.00    -0.021 A 
HETATM    5  C10 UNL     1     -43.417  -0.648  -3.718  1.00 20.00     0.056 C 
HETATM    6  S11 UNL     1     -43.417   1.718  -2.300  1.00 20.00    -0.099 SA
ENDROOT
BRANCH   3   7
HETATM    7  C8  UNL     1     -42.140   4.133  -1.734  1.00 20.00     0.027 C 
HETATM    8  C5  UNL     1     -43.038   4.110  -0.486  1.00 20.00     0.011 C 
HETATM    9  C6  UNL     1     -42.527   5.224   0.433  1.00 20.00     0.016 C 
HETATM   10  C9  UNL     1     -41.177   5.656  -0.127  1.00 20.00     0.058 C 
HETATM   11  C7  UNL     1     -40.796   4.594  -1.148  1.00 20.00     0.025 C 
HETATM   12 BR12 UNL     1     -41.333   7.401  -0.998  1.00 20.00    -0.091 Br
ENDBRANCH   3   7
TORSDOF 1
ENDMDL
MODEL 4
REMARK VINA RESULT:      -4.5     13.544     14.756
REMARK  1 active torsions:
REMARK  status: ('A' for Active; 'I' for Inactive)
REMARK    1  A    between atoms: C3_3  and  C8_8 
ROOT
HETATM    1  C1  UNL     1     -35.003  15.908  -2.224  1.00 20.00     0.016 A 
HETATM    2  C2  UNL     1     -34.505  16.603  -1.083  1.00 20.00     0.015 A 
HETATM    3  C3  UNL     1     -34.716  16.569  -3.398  1.00 20.00    -0.013 A 
HETATM    4  C4  UNL     1     -33.855  17.768  -1.430  1.00 20.00    -0.021 A 
HETATM    5  C10 UNL     1     -33.204  18.757  -0.545  1.00 20.00     0.056 C 
HETATM    6  S11 UNL     1     -33.848  18.019  -3.124  1.00 20.00    -0.099 SA
ENDROOT
BRANCH   3   7
HETATM    7  C8  UNL     1     -35.067  16.166  -4.815  1.00 20.00     0.027 C 
HETATM    8  C5  UNL     1     -33.870  16.170  -5.781  1.00 20.00     0.011 C 
HETATM    9  C6  UNL     1     -34.260  15.263  -6.953  1.00 20.00     0.016 C 
HETATM   10  C9  UNL     1     -35.508  14.507  -6.514  1.00 20.00     0.058 C 
HETATM   11  C7  UNL     1     -35.630  14.751  -5.017  1.00 20.00     0.025 C 
HETATM   12 BR12 UNL     1     -37.083  15.207  -7.440  1.00 20.00    -0.091 Br
ENDBRANCH   3   7
TORSDOF 1
ENDMDL
MODEL 5
REMARK VINA RESULT:      -4.4     13.786     15.622
REMARK  1 active torsions:
REMARK  status: ('A' for Active; 'I' for Inactive)
REMARK    1  A    between atoms: C3_3  and  C8_8 
ROOT
HETATM    1  C1  UNL     1     -34.214  14.542  -3.379  1.00 20.00     0.016 A 
HETATM    2  C2  UNL     1     -34.497  13.812  -4.570  1.00 20.00     0.015 A 
HETATM    3  C3  UNL     1     -34.358  15.900  -3.559  1.00 20.00    -0.013 A 
HETATM    4  C4  UNL     1     -34.847  14.640  -5.614  1.00 20.00    -0.021 A 
HETATM    5  C10 UNL     1     -35.211  14.271  -6.999  1.00 20.00     0.056 C 
HETATM    6  S11 UNL     1     -34.833  16.290  -5.157  1.00 20.00    -0.099 SA
ENDROOT
BRANCH   3   7
HETATM    7  C8  UNL     1     -34.153  17.012  -2.550  1.00 20.00     0.027 C 
HETATM    8  C5  UNL     1     -35.105  18.205  -2.731  1.00 20.00     0.011 C 
HETATM    9  C6  UNL     1     -35.141  18.936  -1.384  1.00 20.00     0.016 C 
HETATM   10  C9  UNL     1     -34.485  18.004  -0.374  1.00 20.00     0.058 C 
HETATM   11  C7  UNL     1     -34.369  16.656  -1.071  1.00 20.00     0.025 C 
HETATM   12 BR12 UNL     1     -32.707  18.667   0.103  1.00 20.00    -0.091 Br
ENDBRANCH   3   7
TORSDOF 1
ENDMDL
MODEL 6
REMARK VINA RESULT:      -4.4     13.528     15.780
REMARK  1 active torsions:
REMARK  status: ('A' for Active; 'I' for Inactive)
REMARK    1  A    between atoms: C3_3  and  C8_8 
ROOT
HETATM    1  C1  UNL     1     -33.326  15.781  -3.040  1.00 20.00     0.016 A 
HETATM    2  C2  UNL     1     -33.727  15.163  -4.261  1.00 20.00     0.015 A 
HETATM    3  C3  UNL     1     -34.406  16.184  -2.286  1.00 20.00    -0.013 A 
HETATM    4  C4  UNL     1     -35.098  15.117  -4.391  1.00 20.00    -0.021 A 
HETATM    5  C10 UNL     1     -35.898  14.559  -5.503  1.00 20.00     0.056 C 
HETATM    6  S11 UNL     1     -35.895  15.817  -3.047  1.00 20.00    -0.099 SA
ENDROOT
BRANCH   3   7
HETATM    7  C8  UNL     1     -34.408  16.873  -0.937  1.00 20.00     0.027 C 
HETATM    8  C5  UNL     1     -33.222  17.827  -0.719  1.00 20.00     0.011 C 
HETATM    9  C6  UNL     1     -33.648  18.799   0.387  1.00 20.00     0.016 C 
HETATM   10  C9  UNL     1     -35.149  18.611   0.568  1.00 20.00     0.058 C 
HETATM   11  C7  UNL     1     -35.607  17.784  -0.624  1.00 20.00     0.025 C 
HETATM   12 BR12 UNL     1     -35.514  17.650   2.233  1.00 20.00    -0.091 Br
ENDBRANCH   3   7
TORSDOF 1
ENDMDL
MODEL 7
REMARK VINA RESULT:      -4.3     13.317     14.371
REMARK  1 active torsions:
REMARK  status: ('A' for Active; 'I' for Inactive)
REMARK    1  A    between atoms: C3_3  and  C8_8 
ROOT
HETATM    1  C1  UNL     1     -34.427  15.814  -2.533  1.00 20.00     0.016 A 
HETATM    2  C2  UNL     1     -34.572  16.453  -1.266  1.00 20.00     0.015 A 
HETATM    3  C3  UNL     1     -35.200  16.411  -3.504  1.00 20.00    -0.013 A 
HETATM    4  C4  UNL     1     -35.450  17.514  -1.320  1.00 20.00    -0.021 A 
HETATM    5  C10 UNL     1     -35.863  18.421  -0.229  1.00 20.00     0.056 C 
HETATM    6  S11 UNL     1     -36.094  17.735  -2.891  1.00 20.00    -0.099 SA
ENDROOT
BRANCH   3   7
HETATM    7  C8  UNL     1     -35.329  16.038  -4.967  1.00 20.00     0.027 C 
HETATM    8  C5  UNL     1     -34.024  16.184  -5.767  1.00 20.00     0.011 C 
HETATM    9  C6  UNL     1     -34.177  15.295  -7.006  1.00 20.00     0.016 C 
HETATM   10  C9  UNL     1     -35.397  14.418  -6.756  1.00 20.00     0.058 C 
HETATM   11  C7  UNL     1     -35.731  14.588  -5.282  1.00 20.00     0.025 C 
HETATM   12 BR12 UNL     1     -36.898  15.016  -7.859  1.00 20.00    -0.091 Br
ENDBRANCH   3   7
TORSDOF 1
ENDMDL
MODEL 8
REMARK VINA RESULT:      -4.3     13.485     15.488
REMARK  1 active torsions:
REMARK  status: ('A' for Active; 'I' for Inactive)
REMARK    1  A    between atoms: C3_3  and  C8_8 
ROOT
HETATM    1  C1  UNL     1     -36.438  16.059  -3.160  1.00 20.00     0.016 A 
HETATM    2  C2  UNL     1     -36.422  15.269  -4.347  1.00 20.00     0.015 A 
HETATM    3  C3  UNL     1     -35.241  15.997  -2.481  1.00 20.00    -0.013 A 
HETATM    4  C4  UNL     1     -35.212  14.635  -4.529  1.00 20.00    -0.021 A 
HETATM    5  C10 UNL     1     -34.802  13.736  -5.629  1.00 20.00     0.056 C 
HETATM    6  S11 UNL     1     -34.104  14.992  -3.274  1.00 20.00    -0.099 SA
ENDROOT
BRANCH   3   7
HETATM    7  C8  UNL     1     -34.854  16.685  -1.189  1.00 20.00     0.027 C 
HETATM    8  C5  UNL     1     -33.458  17.329  -1.216  1.00 20.00     0.011 C 
HETATM    9  C6  UNL     1     -33.450  18.389  -0.110  1.00 20.00     0.016 C 
HETATM   10  C9  UNL     1     -34.900  18.569   0.321  1.00 20.00     0.058 C 
HETATM   11  C7  UNL     1     -35.734  17.860  -0.736  1.00 20.00     0.025 C 
HETATM   12 BR12 UNL     1     -35.194  17.747   2.072  1.00 20.00    -0.091 Br
ENDBRANCH   3   7
TORSDOF 1
ENDMDL
MODEL 9
REMARK VINA RESULT:      -4.2     14.798     15.535
REMARK  1 active torsions:
REMARK  status: ('A' for Active; 'I' for Inactive)
REMARK    1  A    between atoms: C3_3  and  C8_8 
ROOT
HETATM    1  C1  UNL     1     -34.814  16.334  -1.608  1.00 20.00     0.016 A 
HETATM    2  C2  UNL     1     -34.415  17.011  -0.419  1.00 20.00     0.015 A 
HETATM    3  C3  UNL     1     -34.469  17.035  -2.743  1.00 20.00    -0.013 A 
HETATM    4  C4  UNL     1     -33.780  18.204  -0.690  1.00 20.00    -0.021 A 
HETATM    5  C10 UNL     1     -33.222  19.186   0.263  1.00 20.00     0.056 C 
HETATM    6  S11 UNL     1     -33.667  18.502  -2.372  1.00 20.00    -0.099 SA
ENDROOT
BRANCH   3   7
HETATM    7  C8  UNL     1     -34.711  16.663  -4.191  1.00 20.00     0.027 C 
HETATM    8  C5  UNL     1     -34.736  17.864  -5.150  1.00 20.00     0.011 C 
HETATM    9  C6  UNL     1     -34.449  17.306  -6.548  1.00 20.00     0.016 C 
HETATM   10  C9  UNL     1     -33.954  15.879  -6.346  1.00 20.00     0.058 C 
HETATM   11  C7  UNL     1     -33.670  15.749  -4.857  1.00 20.00     0.025 C 
HETATM   12 BR12 UNL     1     -35.335  14.601  -6.880  1.00 20.00    -0.091 Br
ENDBRANCH   3   7
TORSDOF 1
ENDMDL
