MODEL 1
REMARK VINA RESULT:      -4.8      0.000      0.000
REMARK  1 active torsions:
REMARK  status: ('A' for Active; 'I' for Inactive)
REMARK    1  A    between atoms: C3_3  and  C8_8 
ROOT
HETATM    1  C1  UNL     1     -34.886  16.029  -1.930  1.00 20.00     0.016 A 
HETATM    2  C2  UNL     1     -34.415  16.813  -0.837  1.00 20.00     0.015 A 
HETATM    3  C3  UNL     1     -34.603  16.612  -3.146  1.00 20.00    -0.012 A 
HETATM    4  C4  UNL     1     -33.790  17.965  -1.259  1.00 20.00    -0.021 A 
HETATM    5  C10 UNL     1     -33.172  19.030  -0.440  1.00 20.00     0.056 C 
HETATM    6  S11 UNL     1     -33.772  18.099  -2.966  1.00 20.00    -0.099 SA
ENDROOT
BRANCH   3   7
HETATM    7  C8  UNL     1     -34.930  16.105  -4.533  1.00 20.00     0.040 C 
HETATM    8  C6  UNL     1     -33.929  16.400  -5.662  1.00 20.00     0.011 C 
HETATM    9  C5  UNL     1     -34.312  15.450  -6.798  1.00 20.00     0.002 C 
HETATM   10  C7  UNL     1     -35.227  14.385  -6.188  1.00 20.00     0.016 C 
HETATM   11  C9  UNL     1     -35.161  14.593  -4.679  1.00 20.00     0.067 C 
HETATM   12 BR12 UNL     1     -33.687  13.533  -3.943  1.00 20.00    -0.090 Br
ENDBRANCH   3   7
TORSDOF 1
ENDMDL
MODEL 2
REMARK VINA RESULT:      -4.7      1.254      1.391
REMARK  1 active torsions:
REMARK  status: ('A' for Active; 'I' for Inactive)
REMARK    1  A    between atoms: C3_3  and  C8_8 
ROOT
HETATM    1  C1  UNL     1     -33.785  16.462  -2.530  1.00 20.00     0.016 A 
HETATM    2  C2  UNL     1     -34.014  16.924  -1.202  1.00 20.00     0.015 A 
HETATM    3  C3  UNL     1     -34.878  16.664  -3.345  1.00 20.00    -0.012 A 
HETATM    4  C4  UNL     1     -35.274  17.460  -1.052  1.00 20.00    -0.021 A 
HETATM    5  C10 UNL     1     -35.888  18.041   0.162  1.00 20.00     0.056 C 
HETATM    6  S11 UNL     1     -36.174  17.407  -2.507  1.00 20.00    -0.099 SA
ENDROOT
BRANCH   3   7
HETATM    7  C8  UNL     1     -35.039  16.318  -4.809  1.00 20.00     0.040 C 
HETATM    8  C6  UNL     1     -33.768  16.204  -5.666  1.00 20.00     0.011 C 
HETATM    9  C5  UNL     1     -34.204  15.471  -6.936  1.00 20.00     0.002 C 
HETATM   10  C7  UNL     1     -35.565  14.840  -6.633  1.00 20.00     0.016 C 
HETATM   11  C9  UNL     1     -35.778  15.011  -5.132  1.00 20.00     0.067 C 
HETATM   12 BR12 UNL     1     -35.022  13.467  -4.192  1.00 20.00    -0.090 Br
ENDBRANCH   3   7
TORSDOF 1
ENDMDL
MODEL 3
REMARK VINA RESULT:      -4.6      2.155      5.212
REMARK  1 active torsions:
REMARK  status: ('A' for Active; 'I' for Inactive)
REMARK    1  A    between atoms: C3_3  and  C8_8 
ROOT
HETATM    1  C1  UNL     1     -33.599  17.356  -4.056  1.00 20.00     0.016 A 
HETATM    2  C2  UNL     1     -33.810  16.681  -5.293  1.00 20.00     0.015 A 
HETATM    3  C3  UNL     1     -33.923  16.567  -2.973  1.00 20.00    -0.012 A 
HETATM    4  C4  UNL     1     -34.288  15.402  -5.109  1.00 20.00    -0.021 A 
HETATM    5  C10 UNL     1     -34.629  14.392  -6.133  1.00 20.00     0.056 C 
HETATM    6  S11 UNL     1     -34.480  15.019  -3.452  1.00 20.00    -0.099 SA
ENDROOT
BRANCH   3   7
HETATM    7  C8  UNL     1     -33.842  16.907  -1.501  1.00 20.00     0.040 C 
HETATM    8  C6  UNL     1     -33.134  18.212  -1.101  1.00 20.00     0.011 C 
HETATM    9  C5  UNL     1     -33.559  18.473   0.345  1.00 20.00     0.002 C 
HETATM   10  C7  UNL     1     -34.771  17.578   0.613  1.00 20.00     0.016 C 
HETATM   11  C9  UNL     1     -35.173  17.003  -0.741  1.00 20.00     0.067 C 
HETATM   12 BR12 UNL     1     -36.448  18.213  -1.606  1.00 20.00    -0.090 Br
ENDBRANCH   3   7
TORSDOF 1
ENDMDL
MODEL 4
REMARK VINA RESULT:      -4.5      1.627      1.937
REMARK  1 active torsions:
REMARK  status: ('A' for Active; 'I' for Inactive)
REMARK    1  A    between atoms: C3_3  and  C8_8 
ROOT
HETATM    1  C1  UNL     1     -34.465  15.886  -2.289  1.00 20.00     0.016 A 
HETATM    2  C2  UNL     1     -34.514  16.579  -1.045  1.00 20.00     0.015 A 
HETATM    3  C3  UNL     1     -34.095  16.712  -3.328  1.00 20.00    -0.012 A 
HETATM    4  C4  UNL     1     -34.179  17.908  -1.181  1.00 20.00    -0.021 A 
HETATM    5  C10 UNL     1     -34.111  18.951  -0.134  1.00 20.00     0.056 C 
HETATM    6  S11 UNL     1     -33.808  18.317  -2.801  1.00 20.00    -0.099 SA
ENDROOT
BRANCH   3   7
HETATM    7  C8  UNL     1     -33.927  16.368  -4.792  1.00 20.00     0.040 C 
HETATM    8  C6  UNL     1     -34.272  14.939  -5.241  1.00 20.00     0.011 C 
HETATM    9  C5  UNL     1     -34.395  15.013  -6.763  1.00 20.00     0.002 C 
HETATM   10  C7  UNL     1     -34.515  16.496  -7.121  1.00 20.00     0.016 C 
HETATM   11  C9  UNL     1     -34.704  17.230  -5.798  1.00 20.00     0.067 C 
HETATM   12 BR12 UNL     1     -36.617  17.330  -5.381  1.00 20.00    -0.090 Br
ENDBRANCH   3   7
TORSDOF 1
ENDMDL
MODEL 5
REMARK VINA RESULT:      -4.5      2.216      5.086
REMARK  1 active torsions:
REMARK  status: ('A' for Active; 'I' for Inactive)
REMARK    1  A    between atoms: C3_3  and  C8_8 
ROOT
HETATM    1  C1  UNL     1     -34.408  14.424  -3.684  1.00 20.00     0.016 A 
HETATM    2  C2  UNL     1     -34.372  13.862  -4.993  1.00 20.00     0.015 A 
HETATM    3  C3  UNL     1     -35.197  15.553  -3.627  1.00 20.00    -0.012 A 
HETATM    4  C4  UNL     1     -35.134  14.582  -5.886  1.00 20.00    -0.021 A 
HETATM    5  C10 UNL     1     -35.353  14.325  -7.326  1.00 20.00     0.056 C 
HETATM    6  S11 UNL     1     -35.889  15.930  -5.148  1.00 20.00    -0.099 SA
ENDROOT
BRANCH   3   7
HETATM    7  C8  UNL     1     -35.494  16.436  -2.435  1.00 20.00     0.040 C 
HETATM    8  C6  UNL     1     -34.587  16.307  -1.199  1.00 20.00     0.011 C 
HETATM    9  C5  UNL     1     -34.866  17.558  -0.364  1.00 20.00     0.002 C 
HETATM   10  C7  UNL     1     -35.593  18.544  -1.281  1.00 20.00     0.016 C 
HETATM   11  C9  UNL     1     -35.506  17.951  -2.684  1.00 20.00     0.067 C 
HETATM   12 BR12 UNL     1     -33.867  18.583  -3.553  1.00 20.00    -0.090 Br
ENDBRANCH   3   7
TORSDOF 1
ENDMDL
MODEL 6
REMARK VINA RESULT:      -4.5      1.744      2.243
REMARK  1 active torsions:
REMARK  status: ('A' for Active; 'I' for Inactive)
REMARK    1  A    between atoms: C3_3  and  C8_8 
ROOT
HETATM    1  C1  UNL     1     -33.707  17.962  -3.335  1.00 20.00     0.016 A 
HETATM    2  C2  UNL     1     -33.845  18.752  -2.157  1.00 20.00     0.015 A 
HETATM    3  C3  UNL     1     -34.050  16.645  -3.119  1.00 20.00    -0.012 A 
HETATM    4  C4  UNL     1     -34.288  18.008  -1.086  1.00 20.00    -0.021 A 
HETATM    5  C10 UNL     1     -34.554  18.457   0.298  1.00 20.00     0.056 C 
HETATM    6  S11 UNL     1     -34.535  16.366  -1.500  1.00 20.00    -0.099 SA
ENDROOT
BRANCH   3   7
HETATM    7  C8  UNL     1     -34.041  15.495  -4.102  1.00 20.00     0.040 C 
HETATM    8  C6  UNL     1     -34.315  14.082  -3.561  1.00 20.00     0.011 C 
HETATM    9  C5  UNL     1     -34.638  13.235  -4.792  1.00 20.00     0.002 C 
HETATM   10  C7  UNL     1     -34.933  14.213  -5.932  1.00 20.00     0.016 C 
HETATM   11  C9  UNL     1     -35.014  15.592  -5.287  1.00 20.00     0.067 C 
HETATM   12 BR12 UNL     1     -36.858  15.933  -4.719  1.00 20.00    -0.090 Br
ENDBRANCH   3   7
TORSDOF 1
ENDMDL
MODEL 7
REMARK VINA RESULT:      -4.4      1.911      2.231
REMARK  1 active torsions:
REMARK  status: ('A' for Active; 'I' for Inactive)
REMARK    1  A    between atoms: C3_3  and  C8_8 
ROOT
HETATM    1  C1  UNL     1     -34.140  15.899  -2.316  1.00 20.00     0.016 A 
HETATM    2  C2  UNL     1     -34.460  16.729  -1.203  1.00 20.00     0.015 A 
HETATM    3  C3  UNL     1     -35.068  16.010  -3.329  1.00 20.00    -0.012 A 
HETATM    4  C4  UNL     1     -35.620  17.442  -1.407  1.00 20.00    -0.021 A 
HETATM    5  C10 UNL     1     -36.281  18.404  -0.498  1.00 20.00     0.056 C 
HETATM    6  S11 UNL     1     -36.319  17.112  -2.934  1.00 20.00    -0.099 SA
ENDROOT
BRANCH   3   7
HETATM    7  C8  UNL     1     -35.092  15.304  -4.667  1.00 20.00     0.040 C 
HETATM    8  C6  UNL     1     -36.382  15.386  -5.501  1.00 20.00     0.011 C 
HETATM    9  C5  UNL     1     -35.977  14.952  -6.911  1.00 20.00     0.002 C 
HETATM   10  C7  UNL     1     -34.448  15.014  -6.966  1.00 20.00     0.016 C 
HETATM   11  C9  UNL     1     -34.012  15.709  -5.681  1.00 20.00     0.067 C 
HETATM   12 BR12 UNL     1     -33.951  17.644  -5.982  1.00 20.00    -0.090 Br
ENDBRANCH   3   7
TORSDOF 1
ENDMDL
MODEL 8
REMARK VINA RESULT:      -4.3      2.209      2.875
REMARK  1 active torsions:
REMARK  status: ('A' for Active; 'I' for Inactive)
REMARK    1  A    between atoms: C3_3  and  C8_8 
ROOT
HETATM    1  C1  UNL     1     -33.765  15.056  -4.214  1.00 20.00     0.016 A 
HETATM    2  C2  UNL     1     -33.314  15.606  -2.980  1.00 20.00     0.015 A 
HETATM    3  C3  UNL     1     -35.114  15.259  -4.409  1.00 20.00    -0.012 A 
HETATM    4  C4  UNL     1     -34.334  16.209  -2.279  1.00 20.00    -0.021 A 
HETATM    5  C10 UNL     1     -34.273  16.890  -0.967  1.00 20.00     0.056 C 
HETATM    6  S11 UNL     1     -35.830  16.111  -3.107  1.00 20.00    -0.099 SA
ENDROOT
BRANCH   3   7
HETATM    7  C8  UNL     1     -35.972  14.834  -5.581  1.00 20.00     0.040 C 
HETATM    8  C6  UNL     1     -37.356  15.487  -5.735  1.00 20.00     0.011 C 
HETATM    9  C5  UNL     1     -37.788  15.179  -7.170  1.00 20.00     0.002 C 
HETATM   10  C7  UNL     1     -36.532  14.725  -7.918  1.00 20.00     0.016 C 
HETATM   11  C9  UNL     1     -35.363  15.009  -6.981  1.00 20.00     0.067 C 
HETATM   12 BR12 UNL     1     -34.710  16.829  -7.295  1.00 20.00    -0.090 Br
ENDBRANCH   3   7
TORSDOF 1
ENDMDL
MODEL 9
REMARK VINA RESULT:      -4.3      2.995      4.169
REMARK  1 active torsions:
REMARK  status: ('A' for Active; 'I' for Inactive)
REMARK    1  A    between atoms: C3_3  and  C8_8 
ROOT
HETATM    1  C1  UNL     1     -37.672  14.691  -4.116  1.00 20.00     0.016 A 
HETATM    2  C2  UNL     1     -38.882  15.438  -4.208  1.00 20.00     0.015 A 
HETATM    3  C3  UNL     1     -36.641  15.437  -3.588  1.00 20.00    -0.012 A 
HETATM    4  C4  UNL     1     -38.730  16.726  -3.745  1.00 20.00    -0.021 A 
HETATM    5  C10 UNL     1     -39.741  17.803  -3.674  1.00 20.00     0.056 C 
HETATM    6  S11 UNL     1     -37.135  17.032  -3.204  1.00 20.00    -0.099 SA
ENDROOT
BRANCH   3   7
HETATM    7  C8  UNL     1     -35.211  15.018  -3.328  1.00 20.00     0.040 C 
HETATM    8  C6  UNL     1     -34.773  13.621  -3.797  1.00 20.00     0.011 C 
HETATM    9  C5  UNL     1     -33.244  13.648  -3.770  1.00 20.00     0.002 C 
HETATM   10  C7  UNL     1     -32.834  15.120  -3.681  1.00 20.00     0.016 C 
HETATM   11  C9  UNL     1     -34.111  15.923  -3.903  1.00 20.00     0.067 C 
HETATM   12 BR12 UNL     1     -34.340  16.258  -5.820  1.00 20.00    -0.090 Br
ENDBRANCH   3   7
TORSDOF 1
ENDMDL
