MODEL 1
REMARK VINA RESULT:      -4.0      0.000      0.000
REMARK  5 active torsions:
REMARK  status: ('A' for Active; 'I' for Inactive)
REMARK    1  A    between atoms: C3_3  and  C5_5 
REMARK    2  A    between atoms: C3_3  and  C7_7 
REMARK    3  A    between atoms: C4_4  and  C6_6 
REMARK    4  A    between atoms: C4_4  and  C7_7 
REMARK    5  A    between atoms: C5_5  and  S8_8 
ROOT
HETATM    1  C1  UNL     1     -35.049   5.762   3.159  1.00 20.00     0.010 C 
HETATM    2  C7  UNL     1     -33.726   5.686   3.931  1.00 20.00    -0.017 C 
ENDROOT
BRANCH   2   3
HETATM    3  C3  UNL     1     -32.532   6.099   3.042  1.00 20.00     0.014 C 
BRANCH   3   4
HETATM    4  C5  UNL     1     -32.159   7.579   3.118  1.00 20.00     0.073 C 
BRANCH   4   5
HETATM    5  S8  UNL     1     -31.905   8.257   1.450  1.00 20.00    -0.173 SA
HETATM    6  C2  UNL     1     -32.602   9.901   1.728  1.00 20.00     0.089 C 
ENDBRANCH   4   5
ENDBRANCH   3   4
ENDBRANCH   2   3
BRANCH   2   7
HETATM    7  C4  UNL     1     -33.848   6.488   5.244  1.00 20.00     0.019 C 
BRANCH   7   8
HETATM    8  C6  UNL     1     -34.456   5.740   6.428  1.00 20.00     0.115 C 
HETATM    9 CL9  UNL     1     -34.916   4.076   6.005  1.00 20.00    -0.130 Cl
ENDBRANCH   7   8
ENDBRANCH   2   7
TORSDOF 5
ENDMDL
MODEL 2
REMARK VINA RESULT:      -3.9      3.465      4.954
REMARK  5 active torsions:
REMARK  status: ('A' for Active; 'I' for Inactive)
REMARK    1  A    between atoms: C3_3  and  C5_5 
REMARK    2  A    between atoms: C3_3  and  C7_7 
REMARK    3  A    between atoms: C4_4  and  C6_6 
REMARK    4  A    between atoms: C4_4  and  C7_7 
REMARK    5  A    between atoms: C5_5  and  S8_8 
ROOT
HETATM    1  C1  UNL     1     -32.113   5.225   2.975  1.00 20.00     0.010 C 
HETATM    2  C7  UNL     1     -32.965   6.495   2.859  1.00 20.00    -0.017 C 
ENDROOT
BRANCH   2   3
HETATM    3  C3  UNL     1     -34.087   6.517   3.920  1.00 20.00     0.014 C 
BRANCH   3   4
HETATM    4  C5  UNL     1     -35.003   5.294   3.910  1.00 20.00     0.073 C 
BRANCH   4   5
HETATM    5  S8  UNL     1     -34.968   4.460   5.526  1.00 20.00    -0.173 SA
HETATM    6  C2  UNL     1     -34.364   5.844   6.519  1.00 20.00     0.089 C 
ENDBRANCH   4   5
ENDBRANCH   3   4
ENDBRANCH   2   3
BRANCH   2   7
HETATM    7  C4  UNL     1     -32.047   7.736   2.880  1.00 20.00     0.019 C 
BRANCH   7   8
HETATM    8  C6  UNL     1     -31.884   8.467   1.550  1.00 20.00     0.115 C 
HETATM    9 CL9  UNL     1     -32.598  10.095   1.588  1.00 20.00    -0.130 Cl
ENDBRANCH   7   8
ENDBRANCH   2   7
TORSDOF 5
ENDMDL
MODEL 3
REMARK VINA RESULT:      -3.6     11.264     12.034
REMARK  5 active torsions:
REMARK  status: ('A' for Active; 'I' for Inactive)
REMARK    1  A    between atoms: C3_3  and  C5_5 
REMARK    2  A    between atoms: C3_3  and  C7_7 
REMARK    3  A    between atoms: C4_4  and  C6_6 
REMARK    4  A    between atoms: C4_4  and  C7_7 
REMARK    5  A    between atoms: C5_5  and  S8_8 
ROOT
HETATM    1  C1  UNL     1     -32.827  13.950  -3.559  1.00 20.00     0.010 C 
HETATM    2  C7  UNL     1     -34.356  13.836  -3.577  1.00 20.00    -0.017 C 
ENDROOT
BRANCH   2   3
HETATM    3  C3  UNL     1     -35.023  15.153  -3.122  1.00 20.00     0.014 C 
BRANCH   3   4
HETATM    4  C5  UNL     1     -34.060  16.199  -2.561  1.00 20.00     0.073 C 
BRANCH   4   5
HETATM    5  S8  UNL     1     -34.597  16.738  -0.909  1.00 20.00    -0.173 SA
HETATM    6  C2  UNL     1     -33.374  18.042  -0.650  1.00 20.00     0.089 C 
ENDBRANCH   4   5
ENDBRANCH   3   4
ENDBRANCH   2   3
BRANCH   2   7
HETATM    7  C4  UNL     1     -34.820  13.335  -4.961  1.00 20.00     0.019 C 
BRANCH   7   8
HETATM    8  C6  UNL     1     -35.407  14.394  -5.891  1.00 20.00     0.115 C 
HETATM    9 CL9  UNL     1     -34.155  15.210  -6.853  1.00 20.00    -0.130 Cl
ENDBRANCH   7   8
ENDBRANCH   2   7
TORSDOF 5
ENDMDL
MODEL 4
REMARK VINA RESULT:      -3.6      1.588      1.659
REMARK  5 active torsions:
REMARK  status: ('A' for Active; 'I' for Inactive)
REMARK    1  A    between atoms: C3_3  and  C5_5 
REMARK    2  A    between atoms: C3_3  and  C7_7 
REMARK    3  A    between atoms: C4_4  and  C6_6 
REMARK    4  A    between atoms: C4_4  and  C7_7 
REMARK    5  A    between atoms: C5_5  and  S8_8 
ROOT
HETATM    1  C1  UNL     1     -35.879   5.724   3.826  1.00 20.00     0.010 C 
HETATM    2  C7  UNL     1     -34.662   4.797   3.933  1.00 20.00    -0.017 C 
ENDROOT
BRANCH   2   3
HETATM    3  C3  UNL     1     -33.425   5.412   3.241  1.00 20.00     0.014 C 
BRANCH   3   4
HETATM    4  C5  UNL     1     -33.441   6.936   3.136  1.00 20.00     0.073 C 
BRANCH   4   5
HETATM    5  S8  UNL     1     -31.752   7.576   2.922  1.00 20.00    -0.173 SA
HETATM    6  C2  UNL     1     -32.059   8.652   1.503  1.00 20.00     0.089 C 
ENDBRANCH   4   5
ENDBRANCH   3   4
ENDBRANCH   2   3
BRANCH   2   7
HETATM    7  C4  UNL     1     -34.435   4.411   5.410  1.00 20.00     0.019 C 
BRANCH   7   8
HETATM    8  C6  UNL     1     -34.893   5.436   6.445  1.00 20.00     0.115 C 
HETATM    9 CL9  UNL     1     -33.755   6.794   6.592  1.00 20.00    -0.130 Cl
ENDBRANCH   7   8
ENDBRANCH   2   7
TORSDOF 5
ENDMDL
MODEL 5
REMARK VINA RESULT:      -3.5     11.236     12.331
REMARK  5 active torsions:
REMARK  status: ('A' for Active; 'I' for Inactive)
REMARK    1  A    between atoms: C3_3  and  C5_5 
REMARK    2  A    between atoms: C3_3  and  C7_7 
REMARK    3  A    between atoms: C4_4  and  C6_6 
REMARK    4  A    between atoms: C4_4  and  C7_7 
REMARK    5  A    between atoms: C5_5  and  S8_8 
ROOT
HETATM    1  C1  UNL     1     -33.584  13.843  -3.780  1.00 20.00     0.010 C 
HETATM    2  C7  UNL     1     -33.328  15.320  -3.458  1.00 20.00    -0.017 C 
ENDROOT
BRANCH   2   3
HETATM    3  C3  UNL     1     -33.255  16.171  -4.745  1.00 20.00     0.014 C 
BRANCH   3   4
HETATM    4  C5  UNL     1     -34.607  16.476  -5.389  1.00 20.00     0.073 C 
BRANCH   4   5
HETATM    5  S8  UNL     1     -34.588  16.026  -7.151  1.00 20.00    -0.173 SA
HETATM    6  C2  UNL     1     -35.386  14.410  -7.016  1.00 20.00     0.089 C 
ENDBRANCH   4   5
ENDBRANCH   3   4
ENDBRANCH   2   3
BRANCH   2   7
HETATM    7  C4  UNL     1     -34.368  15.812  -2.430  1.00 20.00     0.019 C 
BRANCH   7   8
HETATM    8  C6  UNL     1     -33.923  16.961  -1.528  1.00 20.00     0.115 C 
HETATM    9 CL9  UNL     1     -34.844  17.017  -0.009  1.00 20.00    -0.130 Cl
ENDBRANCH   7   8
ENDBRANCH   2   7
TORSDOF 5
ENDMDL
MODEL 6
REMARK VINA RESULT:      -3.5     11.351     12.386
REMARK  5 active torsions:
REMARK  status: ('A' for Active; 'I' for Inactive)
REMARK    1  A    between atoms: C3_3  and  C5_5 
REMARK    2  A    between atoms: C3_3  and  C7_7 
REMARK    3  A    between atoms: C4_4  and  C6_6 
REMARK    4  A    between atoms: C4_4  and  C7_7 
REMARK    5  A    between atoms: C5_5  and  S8_8 
ROOT
HETATM    1  C1  UNL     1     -34.322  13.893  -3.523  1.00 20.00     0.010 C 
HETATM    2  C7  UNL     1     -33.789  15.272  -3.118  1.00 20.00    -0.017 C 
ENDROOT
BRANCH   2   3
HETATM    3  C3  UNL     1     -33.135  15.997  -4.315  1.00 20.00     0.014 C 
BRANCH   3   4
HETATM    4  C5  UNL     1     -33.704  17.383  -4.614  1.00 20.00     0.073 C 
BRANCH   4   5
HETATM    5  S8  UNL     1     -34.752  17.335  -6.099  1.00 20.00    -0.173 SA
HETATM    6  C2  UNL     1     -34.193  15.748  -6.760  1.00 20.00     0.089 C 
ENDBRANCH   4   5
ENDBRANCH   3   4
ENDBRANCH   2   3
BRANCH   2   7
HETATM    7  C4  UNL     1     -34.910  16.075  -2.426  1.00 20.00     0.019 C 
BRANCH   7   8
HETATM    8  C6  UNL     1     -34.630  16.510  -0.989  1.00 20.00     0.115 C 
HETATM    9 CL9  UNL     1     -33.387  17.779  -0.903  1.00 20.00    -0.130 Cl
ENDBRANCH   7   8
ENDBRANCH   2   7
TORSDOF 5
ENDMDL
MODEL 7
REMARK VINA RESULT:      -3.5     11.336     12.083
REMARK  5 active torsions:
REMARK  status: ('A' for Active; 'I' for Inactive)
REMARK    1  A    between atoms: C3_3  and  C5_5 
REMARK    2  A    between atoms: C3_3  and  C7_7 
REMARK    3  A    between atoms: C4_4  and  C6_6 
REMARK    4  A    between atoms: C4_4  and  C7_7 
REMARK    5  A    between atoms: C5_5  and  S8_8 
ROOT
HETATM    1  C1  UNL     1     -33.296  16.399  -4.402  1.00 20.00     0.010 C 
HETATM    2  C7  UNL     1     -33.540  15.423  -3.245  1.00 20.00    -0.017 C 
ENDROOT
BRANCH   2   3
HETATM    3  C3  UNL     1     -34.820  15.788  -2.462  1.00 20.00     0.014 C 
BRANCH   3   4
HETATM    4  C5  UNL     1     -34.577  16.513  -1.139  1.00 20.00     0.073 C 
BRANCH   4   5
HETATM    5  S8  UNL     1     -35.023  18.270  -1.285  1.00 20.00    -0.173 SA
HETATM    6  C2  UNL     1     -33.372  18.932  -1.605  1.00 20.00     0.089 C 
ENDBRANCH   4   5
ENDBRANCH   3   4
ENDBRANCH   2   3
BRANCH   2   7
HETATM    7  C4  UNL     1     -33.514  13.974  -3.777  1.00 20.00     0.019 C 
BRANCH   7   8
HETATM    8  C6  UNL     1     -34.848  13.422  -4.274  1.00 20.00     0.115 C 
HETATM    9 CL9  UNL     1     -35.160  13.852  -5.971  1.00 20.00    -0.130 Cl
ENDBRANCH   7   8
ENDBRANCH   2   7
TORSDOF 5
ENDMDL
MODEL 8
REMARK VINA RESULT:      -3.4     11.335     11.854
REMARK  5 active torsions:
REMARK  status: ('A' for Active; 'I' for Inactive)
REMARK    1  A    between atoms: C3_3  and  C5_5 
REMARK    2  A    between atoms: C3_3  and  C7_7 
REMARK    3  A    between atoms: C4_4  and  C6_6 
REMARK    4  A    between atoms: C4_4  and  C7_7 
REMARK    5  A    between atoms: C5_5  and  S8_8 
ROOT
HETATM    1  C1  UNL     1     -36.089  16.716  -2.928  1.00 20.00     0.010 C 
HETATM    2  C7  UNL     1     -34.860  16.024  -2.329  1.00 20.00    -0.017 C 
ENDROOT
BRANCH   2   3
HETATM    3  C3  UNL     1     -33.642  16.123  -3.274  1.00 20.00     0.014 C 
BRANCH   3   4
HETATM    4  C5  UNL     1     -33.015  14.781  -3.653  1.00 20.00     0.073 C 
BRANCH   4   5
HETATM    5  S8  UNL     1     -34.291  13.628  -4.245  1.00 20.00    -0.173 SA
HETATM    6  C2  UNL     1     -34.636  14.415  -5.835  1.00 20.00     0.089 C 
ENDBRANCH   4   5
ENDBRANCH   3   4
ENDBRANCH   2   3
BRANCH   2   7
HETATM    7  C4  UNL     1     -34.604  16.566  -0.906  1.00 20.00     0.019 C 
BRANCH   7   8
HETATM    8  C6  UNL     1     -33.612  17.722  -0.802  1.00 20.00     0.115 C 
HETATM    9 CL9  UNL     1     -33.547  18.404   0.839  1.00 20.00    -0.130 Cl
ENDBRANCH   7   8
ENDBRANCH   2   7
TORSDOF 5
ENDMDL
MODEL 9
REMARK VINA RESULT:      -3.4     11.150     12.494
REMARK  5 active torsions:
REMARK  status: ('A' for Active; 'I' for Inactive)
REMARK    1  A    between atoms: C3_3  and  C5_5 
REMARK    2  A    between atoms: C3_3  and  C7_7 
REMARK    3  A    between atoms: C4_4  and  C6_6 
REMARK    4  A    between atoms: C4_4  and  C7_7 
REMARK    5  A    between atoms: C5_5  and  S8_8 
ROOT
HETATM    1  C1  UNL     1     -34.463  16.354  -1.683  1.00 20.00     0.010 C 
HETATM    2  C7  UNL     1     -34.162  16.149  -3.173  1.00 20.00    -0.017 C 
ENDROOT
BRANCH   2   3
HETATM    3  C3  UNL     1     -33.824  17.486  -3.868  1.00 20.00     0.014 C 
BRANCH   3   4
HETATM    4  C5  UNL     1     -33.527  17.374  -5.363  1.00 20.00     0.073 C 
BRANCH   4   5
HETATM    5  S8  UNL     1     -34.997  16.792  -6.261  1.00 20.00    -0.173 SA
HETATM    6  C2  UNL     1     -34.261  15.345  -7.055  1.00 20.00     0.089 C 
ENDBRANCH   4   5
ENDBRANCH   3   4
ENDBRANCH   2   3
BRANCH   2   7
HETATM    7  C4  UNL     1     -33.080  15.059  -3.334  1.00 20.00     0.019 C 
BRANCH   7   8
HETATM    8  C6  UNL     1     -33.567  13.709  -3.856  1.00 20.00     0.115 C 
HETATM    9 CL9  UNL     1     -35.340  13.633  -3.968  1.00 20.00    -0.130 Cl
ENDBRANCH   7   8
ENDBRANCH   2   7
TORSDOF 5
ENDMDL
