MODEL 1
REMARK VINA RESULT:      -4.0      0.000      0.000
REMARK  4 active torsions:
REMARK  status: ('A' for Active; 'I' for Inactive)
REMARK    1  A    between atoms: C1_1  and  C8_8 
REMARK    2  A    between atoms: C1_1  and  O11_11 
REMARK    3  A    between atoms: C4_4  and  C8_8 
REMARK    4  A    between atoms: C8_8  and  N9_9 
ROOT
HETATM    1  C8  UNL     1     -34.958  14.904  -4.371  1.00 20.00     0.324 C 
ENDROOT
BRANCH   1   2
HETATM    2  C1  UNL     1     -34.415  13.491  -4.226  1.00 20.00     0.292 C 
HETATM    3  O10 UNL     1     -35.057  12.498  -4.553  1.00 20.00    -0.263 OA
BRANCH   2   4
HETATM    4  O11 UNL     1     -33.154  13.473  -3.711  1.00 20.00    -0.325 OA
HETATM    5  C7  UNL     1     -32.497  14.743  -3.628  1.00 20.00     0.213 C 
ENDBRANCH   2   4
ENDBRANCH   1   2
BRANCH   1   6
HETATM    6  C4  UNL     1     -35.431  15.147  -5.796  1.00 20.00     0.029 A 
HETATM    7  C2  UNL     1     -35.033  16.402  -6.522  1.00 20.00     0.008 A 
HETATM    8  C3  UNL     1     -34.455  15.078  -6.938  1.00 20.00     0.008 A 
ENDBRANCH   1   6
BRANCH   1   9
HETATM    9  N9  UNL     1     -36.025  15.166  -3.438  1.00 20.00     0.094 N 
HETATM   10  C5  UNL     1     -37.340  14.987  -4.070  1.00 20.00     0.310 C 
HETATM   11  C6  UNL     1     -35.926  16.524  -2.884  1.00 20.00     0.310 C 
ENDBRANCH   1   9
TORSDOF 4
ENDMDL
MODEL 2
REMARK VINA RESULT:      -4.0      1.613      3.579
REMARK  4 active torsions:
REMARK  status: ('A' for Active; 'I' for Inactive)
REMARK    1  A    between atoms: C1_1  and  C8_8 
REMARK    2  A    between atoms: C1_1  and  O11_11 
REMARK    3  A    between atoms: C4_4  and  C8_8 
REMARK    4  A    between atoms: C8_8  and  N9_9 
ROOT
HETATM    1  C8  UNL     1     -34.939  15.165  -4.254  1.00 20.00     0.324 C 
ENDROOT
BRANCH   1   2
HETATM    2  C1  UNL     1     -35.615  13.807  -4.148  1.00 20.00     0.292 C 
HETATM    3  O10 UNL     1     -34.999  12.752  -4.248  1.00 20.00    -0.263 OA
BRANCH   2   4
HETATM    4  O11 UNL     1     -36.955  13.914  -3.923  1.00 20.00    -0.325 OA
HETATM    5  C7  UNL     1     -37.528  15.201  -4.179  1.00 20.00     0.213 C 
ENDBRANCH   2   4
ENDBRANCH   1   2
BRANCH   1   6
HETATM    6  C4  UNL     1     -34.109  15.443  -3.009  1.00 20.00     0.029 A 
HETATM    7  C2  UNL     1     -33.790  16.857  -2.612  1.00 20.00     0.008 A 
HETATM    8  C3  UNL     1     -34.752  16.045  -1.791  1.00 20.00     0.008 A 
ENDBRANCH   1   6
BRANCH   1   9
HETATM    9  N9  UNL     1     -34.119  15.266  -5.435  1.00 20.00     0.094 N 
HETATM   10  C5  UNL     1     -33.776  16.665  -5.726  1.00 20.00     0.310 C 
HETATM   11  C6  UNL     1     -34.789  14.670  -6.600  1.00 20.00     0.310 C 
ENDBRANCH   1   9
TORSDOF 4
ENDMDL
MODEL 3
REMARK VINA RESULT:      -3.9      1.640      3.182
REMARK  4 active torsions:
REMARK  status: ('A' for Active; 'I' for Inactive)
REMARK    1  A    between atoms: C1_1  and  C8_8 
REMARK    2  A    between atoms: C1_1  and  O11_11 
REMARK    3  A    between atoms: C4_4  and  C8_8 
REMARK    4  A    between atoms: C8_8  and  N9_9 
ROOT
HETATM    1  C8  UNL     1     -35.389  15.104  -5.031  1.00 20.00     0.324 C 
ENDROOT
BRANCH   1   2
HETATM    2  C1  UNL     1     -35.838  13.811  -4.367  1.00 20.00     0.292 C 
HETATM    3  O10 UNL     1     -35.132  12.809  -4.326  1.00 20.00    -0.263 OA
BRANCH   2   4
HETATM    4  O11 UNL     1     -37.087  13.912  -3.832  1.00 20.00    -0.325 OA
HETATM    5  C7  UNL     1     -37.514  15.236  -3.494  1.00 20.00     0.213 C 
ENDBRANCH   2   4
ENDBRANCH   1   2
BRANCH   1   6
HETATM    6  C4  UNL     1     -33.905  15.335  -4.792  1.00 20.00     0.029 A 
HETATM    7  C2  UNL     1     -33.382  16.725  -4.560  1.00 20.00     0.008 A 
HETATM    8  C3  UNL     1     -33.411  15.734  -3.430  1.00 20.00     0.008 A 
ENDBRANCH   1   6
BRANCH   1   9
HETATM    9  N9  UNL     1     -35.677  15.111  -6.443  1.00 20.00     0.094 N 
HETATM   10  C5  UNL     1     -34.468  14.835  -7.233  1.00 20.00     0.310 C 
HETATM   11  C6  UNL     1     -36.258  16.394  -6.863  1.00 20.00     0.310 C 
ENDBRANCH   1   9
TORSDOF 4
ENDMDL
MODEL 4
REMARK VINA RESULT:      -3.8      2.716      4.289
REMARK  4 active torsions:
REMARK  status: ('A' for Active; 'I' for Inactive)
REMARK    1  A    between atoms: C1_1  and  C8_8 
REMARK    2  A    between atoms: C1_1  and  O11_11 
REMARK    3  A    between atoms: C4_4  and  C8_8 
REMARK    4  A    between atoms: C8_8  and  N9_9 
ROOT
HETATM    1  C8  UNL     1     -33.744  16.182  -2.892  1.00 20.00     0.324 C 
ENDROOT
BRANCH   1   2
HETATM    2  C1  UNL     1     -33.525  16.836  -4.248  1.00 20.00     0.292 C 
HETATM    3  O10 UNL     1     -32.790  16.353  -5.104  1.00 20.00    -0.263 OA
BRANCH   2   4
HETATM    4  O11 UNL     1     -34.239  17.988  -4.387  1.00 20.00    -0.325 OA
HETATM    5  C7  UNL     1     -33.538  19.086  -4.981  1.00 20.00     0.213 C 
ENDBRANCH   2   4
ENDBRANCH   1   2
BRANCH   1   6
HETATM    6  C4  UNL     1     -34.358  17.176  -1.918  1.00 20.00     0.029 A 
HETATM    7  C2  UNL     1     -34.683  16.755  -0.512  1.00 20.00     0.008 A 
HETATM    8  C3  UNL     1     -33.548  17.706  -0.767  1.00 20.00     0.008 A 
ENDBRANCH   1   6
BRANCH   1   9
HETATM    9  N9  UNL     1     -34.568  15.004  -2.991  1.00 20.00     0.094 N 
HETATM   10  C5  UNL     1     -33.827  13.886  -3.595  1.00 20.00     0.310 C 
HETATM   11  C6  UNL     1     -35.784  15.268  -3.774  1.00 20.00     0.310 C 
ENDBRANCH   1   9
TORSDOF 4
ENDMDL
MODEL 5
REMARK VINA RESULT:      -3.8      2.204      3.869
REMARK  4 active torsions:
REMARK  status: ('A' for Active; 'I' for Inactive)
REMARK    1  A    between atoms: C1_1  and  C8_8 
REMARK    2  A    between atoms: C1_1  and  O11_11 
REMARK    3  A    between atoms: C4_4  and  C8_8 
REMARK    4  A    between atoms: C8_8  and  N9_9 
ROOT
HETATM    1  C8  UNL     1     -35.696  15.320  -4.274  1.00 20.00     0.324 C 
ENDROOT
BRANCH   1   2
HETATM    2  C1  UNL     1     -37.163  15.220  -3.886  1.00 20.00     0.292 C 
HETATM    3  O10 UNL     1     -37.729  14.147  -3.706  1.00 20.00    -0.263 OA
BRANCH   2   4
HETATM    4  O11 UNL     1     -37.748  16.445  -3.760  1.00 20.00    -0.325 OA
HETATM    5  C7  UNL     1     -37.259  17.462  -4.641  1.00 20.00     0.213 C 
ENDBRANCH   2   4
ENDBRANCH   1   2
BRANCH   1   6
HETATM    6  C4  UNL     1     -34.810  15.092  -3.059  1.00 20.00     0.029 A 
HETATM    7  C2  UNL     1     -33.596  15.950  -2.835  1.00 20.00     0.008 A 
HETATM    8  C3  UNL     1     -34.793  16.093  -1.937  1.00 20.00     0.008 A 
ENDBRANCH   1   6
BRANCH   1   9
HETATM    9  N9  UNL     1     -35.355  14.393  -5.324  1.00 20.00     0.094 N 
HETATM   10  C5  UNL     1     -34.641  13.224  -4.789  1.00 20.00     0.310 C 
HETATM   11  C6  UNL     1     -34.536  15.039  -6.360  1.00 20.00     0.310 C 
ENDBRANCH   1   9
TORSDOF 4
ENDMDL
MODEL 6
REMARK VINA RESULT:      -3.7      2.081      3.574
REMARK  4 active torsions:
REMARK  status: ('A' for Active; 'I' for Inactive)
REMARK    1  A    between atoms: C1_1  and  C8_8 
REMARK    2  A    between atoms: C1_1  and  O11_11 
REMARK    3  A    between atoms: C4_4  and  C8_8 
REMARK    4  A    between atoms: C8_8  and  N9_9 
ROOT
HETATM    1  C8  UNL     1     -35.316  16.281  -3.417  1.00 20.00     0.324 C 
ENDROOT
BRANCH   1   2
HETATM    2  C1  UNL     1     -35.851  14.860  -3.506  1.00 20.00     0.292 C 
HETATM    3  O10 UNL     1     -37.051  14.606  -3.539  1.00 20.00    -0.263 OA
BRANCH   2   4
HETATM    4  O11 UNL     1     -34.852  13.935  -3.553  1.00 20.00    -0.325 OA
HETATM    5  C7  UNL     1     -34.758  13.182  -4.767  1.00 20.00     0.213 C 
ENDBRANCH   2   4
ENDBRANCH   1   2
BRANCH   1   6
HETATM    6  C4  UNL     1     -34.223  16.372  -2.363  1.00 20.00     0.029 A 
HETATM    7  C2  UNL     1     -33.964  17.669  -1.650  1.00 20.00     0.008 A 
HETATM    8  C3  UNL     1     -34.583  16.516  -0.911  1.00 20.00     0.008 A 
ENDBRANCH   1   6
BRANCH   1   9
HETATM    9  N9  UNL     1     -34.825  16.750  -4.689  1.00 20.00     0.094 N 
HETATM   10  C5  UNL     1     -33.358  16.686  -4.749  1.00 20.00     0.310 C 
HETATM   11  C6  UNL     1     -35.270  18.125  -4.958  1.00 20.00     0.310 C 
ENDBRANCH   1   9
TORSDOF 4
ENDMDL
MODEL 7
REMARK VINA RESULT:      -3.7      2.361      3.602
REMARK  4 active torsions:
REMARK  status: ('A' for Active; 'I' for Inactive)
REMARK    1  A    between atoms: C1_1  and  C8_8 
REMARK    2  A    between atoms: C1_1  and  O11_11 
REMARK    3  A    between atoms: C4_4  and  C8_8 
REMARK    4  A    between atoms: C8_8  and  N9_9 
ROOT
HETATM    1  C8  UNL     1     -35.531  15.150  -3.397  1.00 20.00     0.324 C 
ENDROOT
BRANCH   1   2
HETATM    2  C1  UNL     1     -36.833  15.190  -4.182  1.00 20.00     0.292 C 
HETATM    3  O10 UNL     1     -36.983  15.889  -5.179  1.00 20.00    -0.263 OA
BRANCH   2   4
HETATM    4  O11 UNL     1     -37.780  14.365  -3.654  1.00 20.00    -0.325 OA
HETATM    5  C7  UNL     1     -39.139  14.725  -3.924  1.00 20.00     0.213 C 
ENDBRANCH   2   4
ENDBRANCH   1   2
BRANCH   1   6
HETATM    6  C4  UNL     1     -34.397  14.646  -4.277  1.00 20.00     0.029 A 
HETATM    7  C2  UNL     1     -33.387  13.676  -3.730  1.00 20.00     0.008 A 
HETATM    8  C3  UNL     1     -34.387  13.221  -4.756  1.00 20.00     0.008 A 
ENDBRANCH   1   6
BRANCH   1   9
HETATM    9  N9  UNL     1     -35.200  16.437  -2.841  1.00 20.00     0.094 N 
HETATM   10  C5  UNL     1     -34.193  17.128  -3.661  1.00 20.00     0.310 C 
HETATM   11  C6  UNL     1     -34.709  16.312  -1.461  1.00 20.00     0.310 C 
ENDBRANCH   1   9
TORSDOF 4
ENDMDL
MODEL 8
REMARK VINA RESULT:      -3.6      1.464      2.849
REMARK  4 active torsions:
REMARK  status: ('A' for Active; 'I' for Inactive)
REMARK    1  A    between atoms: C1_1  and  C8_8 
REMARK    2  A    between atoms: C1_1  and  O11_11 
REMARK    3  A    between atoms: C4_4  and  C8_8 
REMARK    4  A    between atoms: C8_8  and  N9_9 
ROOT
HETATM    1  C8  UNL     1     -35.873  14.689  -3.924  1.00 20.00     0.324 C 
ENDROOT
BRANCH   1   2
HETATM    2  C1  UNL     1     -35.060  13.825  -4.875  1.00 20.00     0.292 C 
HETATM    3  O10 UNL     1     -34.912  12.619  -4.711  1.00 20.00    -0.263 OA
BRANCH   2   4
HETATM    4  O11 UNL     1     -34.540  14.545  -5.910  1.00 20.00    -0.325 OA
HETATM    5  C7  UNL     1     -35.146  14.323  -7.188  1.00 20.00     0.213 C 
ENDBRANCH   2   4
ENDBRANCH   1   2
BRANCH   1   6
HETATM    6  C4  UNL     1     -35.053  15.884  -3.461  1.00 20.00     0.029 A 
HETATM    7  C2  UNL     1     -34.931  16.197  -1.996  1.00 20.00     0.008 A 
HETATM    8  C3  UNL     1     -33.743  15.675  -2.754  1.00 20.00     0.008 A 
ENDBRANCH   1   6
BRANCH   1   9
HETATM    9  N9  UNL     1     -37.108  15.130  -4.522  1.00 20.00     0.094 N 
HETATM   10  C5  UNL     1     -37.070  16.569  -4.820  1.00 20.00     0.310 C 
HETATM   11  C6  UNL     1     -38.256  14.837  -3.652  1.00 20.00     0.310 C 
ENDBRANCH   1   9
TORSDOF 4
ENDMDL
MODEL 9
REMARK VINA RESULT:      -3.6      2.260      3.289
REMARK  4 active torsions:
REMARK  status: ('A' for Active; 'I' for Inactive)
REMARK    1  A    between atoms: C1_1  and  C8_8 
REMARK    2  A    between atoms: C1_1  and  O11_11 
REMARK    3  A    between atoms: C4_4  and  C8_8 
REMARK    4  A    between atoms: C8_8  and  N9_9 
ROOT
HETATM    1  C8  UNL     1     -34.876  15.794  -3.882  1.00 20.00     0.324 C 
ENDROOT
BRANCH   1   2
HETATM    2  C1  UNL     1     -34.310  16.610  -2.731  1.00 20.00     0.292 C 
HETATM    3  O10 UNL     1     -33.705  17.663  -2.902  1.00 20.00    -0.263 OA
BRANCH   2   4
HETATM    4  O11 UNL     1     -34.564  16.040  -1.520  1.00 20.00    -0.325 OA
HETATM    5  C7  UNL     1     -34.700  16.948  -0.421  1.00 20.00     0.213 C 
ENDBRANCH   2   4
ENDBRANCH   1   2
BRANCH   1   6
HETATM    6  C4  UNL     1     -34.708  14.307  -3.611  1.00 20.00     0.029 A 
HETATM    7  C2  UNL     1     -34.454  13.354  -4.745  1.00 20.00     0.008 A 
HETATM    8  C3  UNL     1     -33.360  13.658  -3.761  1.00 20.00     0.008 A 
ENDBRANCH   1   6
BRANCH   1   9
HETATM    9  N9  UNL     1     -36.262  16.104  -4.130  1.00 20.00     0.094 N 
HETATM   10  C5  UNL     1     -37.144  15.051  -3.608  1.00 20.00     0.310 C 
HETATM   11  C6  UNL     1     -36.517  16.295  -5.565  1.00 20.00     0.310 C 
ENDBRANCH   1   9
TORSDOF 4
ENDMDL
