MODEL 1
REMARK VINA RESULT:      -3.5      0.000      0.000
REMARK  4 active torsions:
REMARK  status: ('A' for Active; 'I' for Inactive)
REMARK    1  A    between atoms: C1_1  and  C5_5 
REMARK       I    between atoms: C1_1  and  N8_8 
REMARK    2  A    between atoms: C5_5  and  S10_10 
REMARK    3  A    between atoms: C6_6  and  N8_8 
REMARK    4  A    between atoms: C7_7  and  N8_8 
ROOT
HETATM    1  C1  UNL     1     -33.683  16.864  -4.294  1.00 20.00     0.229 C 
HETATM    2  N8  UNL     1     -34.715  16.121  -3.704  1.00 20.00    -0.348 N 
HETATM    3  O9  UNL     1     -32.742  16.342  -4.897  1.00 20.00    -0.273 OA
ENDROOT
BRANCH   2   4
HETATM    4  C6  UNL     1     -35.433  16.581  -2.517  1.00 20.00     0.121 C 
HETATM    5  C2  UNL     1     -34.600  16.424  -1.291  1.00 20.00     0.026 C 
ENDBRANCH   2   4
BRANCH   2   6
HETATM    6  C7  UNL     1     -35.151  14.833  -4.231  1.00 20.00     0.079 C 
HETATM    7  C3  UNL     1     -36.630  14.646  -3.926  1.00 20.00     0.032 C 
HETATM    8  C4  UNL     1     -34.304  13.733  -3.608  1.00 20.00     0.032 C 
ENDBRANCH   2   6
BRANCH   1   9
HETATM    9  C5  UNL     1     -33.793  18.372  -4.145  1.00 20.00     0.173 C 
BRANCH   9  10
HETATM   10  S10 UNL     1     -33.828  19.214  -5.748  1.00 20.00    -0.173 SA
HETATM   11  H25 UNL     1     -33.113  18.295  -6.411  1.00 20.00     0.102 HD
ENDBRANCH   9  10
ENDBRANCH   1   9
TORSDOF 4
ENDMDL
MODEL 2
REMARK VINA RESULT:      -3.4      2.530      3.313
REMARK  4 active torsions:
REMARK  status: ('A' for Active; 'I' for Inactive)
REMARK    1  A    between atoms: C1_1  and  C5_5 
REMARK       I    between atoms: C1_1  and  N8_8 
REMARK    2  A    between atoms: C5_5  and  S10_10 
REMARK    3  A    between atoms: C6_6  and  N8_8 
REMARK    4  A    between atoms: C7_7  and  N8_8 
ROOT
HETATM    1  C1  UNL     1     -34.857  15.875  -3.265  1.00 20.00     0.229 C 
HETATM    2  N8  UNL     1     -34.380  15.664  -4.566  1.00 20.00    -0.348 N 
HETATM    3  O9  UNL     1     -36.031  15.680  -2.942  1.00 20.00    -0.273 OA
ENDROOT
BRANCH   2   4
HETATM    4  C6  UNL     1     -33.274  16.435  -5.131  1.00 20.00     0.121 C 
HETATM    5  C2  UNL     1     -33.662  17.859  -5.337  1.00 20.00     0.026 C 
ENDBRANCH   2   4
BRANCH   2   6
HETATM    6  C7  UNL     1     -34.951  14.659  -5.455  1.00 20.00     0.079 C 
HETATM    7  C3  UNL     1     -34.574  13.275  -4.949  1.00 20.00     0.032 C 
HETATM    8  C4  UNL     1     -34.438  14.901  -6.867  1.00 20.00     0.032 C 
ENDBRANCH   2   6
BRANCH   1   9
HETATM    9  C5  UNL     1     -33.826  16.364  -2.261  1.00 20.00     0.173 C 
BRANCH   9  10
HETATM   10  S10 UNL     1     -34.593  16.931  -0.721  1.00 20.00    -0.173 SA
HETATM   11  H25 UNL     1     -35.571  17.643  -1.298  1.00 20.00     0.102 HD
ENDBRANCH   9  10
ENDBRANCH   1   9
TORSDOF 4
ENDMDL
MODEL 3
REMARK VINA RESULT:      -3.4      2.894      3.895
REMARK  4 active torsions:
REMARK  status: ('A' for Active; 'I' for Inactive)
REMARK    1  A    between atoms: C1_1  and  C5_5 
REMARK       I    between atoms: C1_1  and  N8_8 
REMARK    2  A    between atoms: C5_5  and  S10_10 
REMARK    3  A    between atoms: C6_6  and  N8_8 
REMARK    4  A    between atoms: C7_7  and  N8_8 
ROOT
HETATM    1  C1  UNL     1     -36.799  15.073  -4.418  1.00 20.00     0.229 C 
HETATM    2  N8  UNL     1     -35.415  15.292  -4.387  1.00 20.00    -0.348 N 
HETATM    3  O9  UNL     1     -37.336  14.107  -3.871  1.00 20.00    -0.273 OA
ENDROOT
BRANCH   2   4
HETATM    4  C6  UNL     1     -34.704  15.974  -5.467  1.00 20.00     0.121 C 
HETATM    5  C2  UNL     1     -34.523  15.076  -6.642  1.00 20.00     0.026 C 
ENDBRANCH   2   4
BRANCH   2   6
HETATM    6  C7  UNL     1     -34.578  14.857  -3.274  1.00 20.00     0.079 C 
HETATM    7  C3  UNL     1     -33.690  16.012  -2.837  1.00 20.00     0.032 C 
HETATM    8  C4  UNL     1     -33.759  13.652  -3.715  1.00 20.00     0.032 C 
ENDBRANCH   2   6
BRANCH   1   9
HETATM    9  C5  UNL     1     -37.609  16.111  -5.175  1.00 20.00     0.173 C 
BRANCH   9  10
HETATM   10  S10 UNL     1     -38.380  15.419  -6.661  1.00 20.00    -0.173 SA
HETATM   11  H25 UNL     1     -37.804  16.262  -7.530  1.00 20.00     0.102 HD
ENDBRANCH   9  10
ENDBRANCH   1   9
TORSDOF 4
ENDMDL
MODEL 4
REMARK VINA RESULT:      -3.4      2.963      3.860
REMARK  4 active torsions:
REMARK  status: ('A' for Active; 'I' for Inactive)
REMARK    1  A    between atoms: C1_1  and  C5_5 
REMARK       I    between atoms: C1_1  and  N8_8 
REMARK    2  A    between atoms: C5_5  and  S10_10 
REMARK    3  A    between atoms: C6_6  and  N8_8 
REMARK    4  A    between atoms: C7_7  and  N8_8 
ROOT
HETATM    1  C1  UNL     1     -34.991  13.695  -4.632  1.00 20.00     0.229 C 
HETATM    2  N8  UNL     1     -35.787  14.546  -5.412  1.00 20.00    -0.348 N 
HETATM    3  O9  UNL     1     -34.731  12.535  -4.960  1.00 20.00    -0.273 OA
ENDROOT
BRANCH   2   4
HETATM    4  C6  UNL     1     -36.612  15.602  -4.829  1.00 20.00     0.121 C 
HETATM    5  C2  UNL     1     -37.674  15.032  -3.953  1.00 20.00     0.026 C 
ENDBRANCH   2   4
BRANCH   2   6
HETATM    6  C7  UNL     1     -35.852  14.441  -6.865  1.00 20.00     0.079 C 
HETATM    7  C3  UNL     1     -34.570  15.002  -7.462  1.00 20.00     0.032 C 
HETATM    8  C4  UNL     1     -37.079  15.195  -7.359  1.00 20.00     0.032 C 
ENDBRANCH   2   6
BRANCH   1   9
HETATM    9  C5  UNL     1     -34.460  14.296  -3.342  1.00 20.00     0.173 C 
BRANCH   9  10
HETATM   10  S10 UNL     1     -33.030  15.370  -3.630  1.00 20.00    -0.173 SA
HETATM   11  H25 UNL     1     -33.349  15.705  -4.888  1.00 20.00     0.102 HD
ENDBRANCH   9  10
ENDBRANCH   1   9
TORSDOF 4
ENDMDL
MODEL 5
REMARK VINA RESULT:      -3.4      1.855      3.204
REMARK  4 active torsions:
REMARK  status: ('A' for Active; 'I' for Inactive)
REMARK    1  A    between atoms: C1_1  and  C5_5 
REMARK       I    between atoms: C1_1  and  N8_8 
REMARK    2  A    between atoms: C5_5  and  S10_10 
REMARK    3  A    between atoms: C6_6  and  N8_8 
REMARK    4  A    between atoms: C7_7  and  N8_8 
ROOT
HETATM    1  C1  UNL     1     -33.770  15.714  -4.420  1.00 20.00     0.229 C 
HETATM    2  N8  UNL     1     -34.481  16.151  -3.294  1.00 20.00    -0.348 N 
HETATM    3  O9  UNL     1     -32.776  16.303  -4.854  1.00 20.00    -0.273 OA
ENDROOT
BRANCH   2   4
HETATM    4  C6  UNL     1     -35.915  15.918  -3.133  1.00 20.00     0.121 C 
HETATM    5  C2  UNL     1     -36.708  16.838  -3.996  1.00 20.00     0.026 C 
ENDBRANCH   2   4
BRANCH   2   6
HETATM    6  C7  UNL     1     -33.844  16.868  -2.196  1.00 20.00     0.079 C 
HETATM    7  C3  UNL     1     -34.603  16.585  -0.908  1.00 20.00     0.032 C 
HETATM    8  C4  UNL     1     -33.826  18.355  -2.523  1.00 20.00     0.032 C 
ENDBRANCH   2   6
BRANCH   1   9
HETATM    9  C5  UNL     1     -34.303  14.457  -5.085  1.00 20.00     0.173 C 
BRANCH   9  10
HETATM   10  S10 UNL     1     -34.849  14.765  -6.784  1.00 20.00    -0.173 SA
HETATM   11  H25 UNL     1     -33.658  15.167  -7.250  1.00 20.00     0.102 HD
ENDBRANCH   9  10
ENDBRANCH   1   9
TORSDOF 4
ENDMDL
MODEL 6
REMARK VINA RESULT:      -3.3      2.065      2.779
REMARK  4 active torsions:
REMARK  status: ('A' for Active; 'I' for Inactive)
REMARK    1  A    between atoms: C1_1  and  C5_5 
REMARK       I    between atoms: C1_1  and  N8_8 
REMARK    2  A    between atoms: C5_5  and  S10_10 
REMARK    3  A    between atoms: C6_6  and  N8_8 
REMARK    4  A    between atoms: C7_7  and  N8_8 
ROOT
HETATM    1  C1  UNL     1     -33.771  16.136  -4.378  1.00 20.00     0.229 C 
HETATM    2  N8  UNL     1     -34.887  15.537  -4.979  1.00 20.00    -0.348 N 
HETATM    3  O9  UNL     1     -32.799  16.540  -5.022  1.00 20.00    -0.273 OA
ENDROOT
BRANCH   2   4
HETATM    4  C6  UNL     1     -35.696  14.527  -4.301  1.00 20.00     0.121 C 
HETATM    5  C2  UNL     1     -35.008  13.205  -4.290  1.00 20.00     0.026 C 
ENDBRANCH   2   4
BRANCH   2   6
HETATM    6  C7  UNL     1     -35.326  15.879  -6.327  1.00 20.00     0.079 C 
HETATM    7  C3  UNL     1     -36.840  15.751  -6.406  1.00 20.00     0.032 C 
HETATM    8  C4  UNL     1     -34.631  14.958  -7.320  1.00 20.00     0.032 C 
ENDBRANCH   2   6
BRANCH   1   9
HETATM    9  C5  UNL     1     -33.830  16.258  -2.865  1.00 20.00     0.173 C 
BRANCH   9  10
HETATM   10  S10 UNL     1     -33.936  17.984  -2.326  1.00 20.00    -0.173 SA
HETATM   11  H25 UNL     1     -35.011  17.826  -1.541  1.00 20.00     0.102 HD
ENDBRANCH   9  10
ENDBRANCH   1   9
TORSDOF 4
ENDMDL
MODEL 7
REMARK VINA RESULT:      -3.3      2.488      3.579
REMARK  4 active torsions:
REMARK  status: ('A' for Active; 'I' for Inactive)
REMARK    1  A    between atoms: C1_1  and  C5_5 
REMARK       I    between atoms: C1_1  and  N8_8 
REMARK    2  A    between atoms: C5_5  and  S10_10 
REMARK    3  A    between atoms: C6_6  and  N8_8 
REMARK    4  A    between atoms: C7_7  and  N8_8 
ROOT
HETATM    1  C1  UNL     1     -35.913  14.409  -4.322  1.00 20.00     0.229 C 
HETATM    2  N8  UNL     1     -35.056  15.209  -3.554  1.00 20.00    -0.348 N 
HETATM    3  O9  UNL     1     -36.984  13.973  -3.894  1.00 20.00    -0.273 OA
ENDROOT
BRANCH   2   4
HETATM    4  C6  UNL     1     -33.606  15.208  -3.739  1.00 20.00     0.121 C 
HETATM    5  C2  UNL     1     -33.044  13.839  -3.564  1.00 20.00     0.026 C 
ENDBRANCH   2   4
BRANCH   2   6
HETATM    6  C7  UNL     1     -35.546  16.105  -2.513  1.00 20.00     0.079 C 
HETATM    7  C3  UNL     1     -36.073  17.378  -3.159  1.00 20.00     0.032 C 
HETATM    8  C4  UNL     1     -34.413  16.395  -1.539  1.00 20.00     0.032 C 
ENDBRANCH   2   6
BRANCH   1   9
HETATM    9  C5  UNL     1     -35.438  14.108  -5.733  1.00 20.00     0.173 C 
BRANCH   9  10
HETATM   10  S10 UNL     1     -36.156  15.241  -6.950  1.00 20.00    -0.173 SA
HETATM   11  H25 UNL     1     -35.594  16.356  -6.461  1.00 20.00     0.102 HD
ENDBRANCH   9  10
ENDBRANCH   1   9
TORSDOF 4
ENDMDL
MODEL 8
REMARK VINA RESULT:      -3.2      2.497      3.424
REMARK  4 active torsions:
REMARK  status: ('A' for Active; 'I' for Inactive)
REMARK    1  A    between atoms: C1_1  and  C5_5 
REMARK       I    between atoms: C1_1  and  N8_8 
REMARK    2  A    between atoms: C5_5  and  S10_10 
REMARK    3  A    between atoms: C6_6  and  N8_8 
REMARK    4  A    between atoms: C7_7  and  N8_8 
ROOT
HETATM    1  C1  UNL     1     -34.579  14.127  -5.444  1.00 20.00     0.229 C 
HETATM    2  N8  UNL     1     -34.210  15.125  -4.532  1.00 20.00    -0.348 N 
HETATM    3  O9  UNL     1     -34.866  12.978  -5.100  1.00 20.00    -0.273 OA
ENDROOT
BRANCH   2   4
HETATM    4  C6  UNL     1     -33.298  16.212  -4.884  1.00 20.00     0.121 C 
HETATM    5  C2  UNL     1     -34.037  17.358  -5.487  1.00 20.00     0.026 C 
ENDBRANCH   2   4
BRANCH   2   6
HETATM    6  C7  UNL     1     -34.709  15.155  -3.162  1.00 20.00     0.079 C 
HETATM    7  C3  UNL     1     -36.184  15.528  -3.177  1.00 20.00     0.032 C 
HETATM    8  C4  UNL     1     -33.885  16.152  -2.359  1.00 20.00     0.032 C 
ENDBRANCH   2   6
BRANCH   1   9
HETATM    9  C5  UNL     1     -34.606  14.551  -6.903  1.00 20.00     0.173 C 
BRANCH   9  10
HETATM   10  S10 UNL     1     -36.283  14.933  -7.469  1.00 20.00    -0.173 SA
HETATM   11  H25 UNL     1     -36.209  14.248  -8.619  1.00 20.00     0.102 HD
ENDBRANCH   9  10
ENDBRANCH   1   9
TORSDOF 4
ENDMDL
MODEL 9
REMARK VINA RESULT:      -3.2     13.030     14.404
REMARK  4 active torsions:
REMARK  status: ('A' for Active; 'I' for Inactive)
REMARK    1  A    between atoms: C1_1  and  C5_5 
REMARK       I    between atoms: C1_1  and  N8_8 
REMARK    2  A    between atoms: C5_5  and  S10_10 
REMARK    3  A    between atoms: C6_6  and  N8_8 
REMARK    4  A    between atoms: C7_7  and  N8_8 
ROOT
HETATM    1  C1  UNL     1     -42.462   4.510  -2.713  1.00 20.00     0.229 C 
HETATM    2  N8  UNL     1     -42.061   5.321  -1.642  1.00 20.00    -0.348 N 
HETATM    3  O9  UNL     1     -43.303   4.863  -3.542  1.00 20.00    -0.273 OA
ENDROOT
BRANCH   2   4
HETATM    4  C6  UNL     1     -41.613   4.770  -0.365  1.00 20.00     0.121 C 
HETATM    5  C2  UNL     1     -42.765   4.274   0.440  1.00 20.00     0.026 C 
ENDBRANCH   2   4
BRANCH   2   6
HETATM    6  C7  UNL     1     -42.061   6.777  -1.722  1.00 20.00     0.079 C 
HETATM    7  C3  UNL     1     -40.932   7.323  -0.859  1.00 20.00     0.032 C 
HETATM    8  C4  UNL     1     -43.417   7.297  -1.269  1.00 20.00     0.032 C 
ENDBRANCH   2   6
BRANCH   1   9
HETATM    9  C5  UNL     1     -41.787   3.151  -2.792  1.00 20.00     0.173 C 
BRANCH   9  10
HETATM   10  S10 UNL     1     -42.990   1.801  -2.908  1.00 20.00    -0.173 SA
HETATM   11  H25 UNL     1     -42.114   0.807  -2.702  1.00 20.00     0.102 HD
ENDBRANCH   9  10
ENDBRANCH   1   9
TORSDOF 4
ENDMDL
