MODEL 1
REMARK VINA RESULT:      -3.9      0.000      0.000
REMARK  3 active torsions:
REMARK  status: ('A' for Active; 'I' for Inactive)
REMARK    1  A    between atoms: C4_4  and  C9_9 
REMARK    2  A    between atoms: C7_7  and  C8_8 
REMARK    3  A    between atoms: C7_7  and  N10_10 
ROOT
HETATM    1  C1  UNL     1     -33.489  17.835  -5.005  1.00 20.00     0.032 C 
HETATM    2  C2  UNL     1     -33.917  18.066  -3.559  1.00 20.00     0.038 C 
HETATM    3  C3  UNL     1     -33.248  16.339  -5.114  1.00 20.00     0.273 C 
HETATM    4  C4  UNL     1     -33.906  16.681  -2.909  1.00 20.00     0.226 C 
HETATM    5  N10 UNL     1     -34.094  15.783  -4.056  1.00 20.00     0.094 N 
ENDROOT
BRANCH   4   6
HETATM    6  C9  UNL     1     -34.994  16.545  -1.850  1.00 20.00     0.011 C 
HETATM    7  C5  UNL     1     -34.470  16.975  -0.480  1.00 20.00     0.011 C 
HETATM    8  C6  UNL     1     -36.226  17.364  -2.233  1.00 20.00     0.011 C 
ENDBRANCH   4   6
BRANCH   5   9
HETATM    9  C7  UNL     1     -33.748  14.397  -3.768  1.00 20.00     0.287 C 
BRANCH   9  10
HETATM   10  C8  UNL     1     -34.848  13.426  -4.162  1.00 20.00     0.144 C 
HETATM   11 CL11 UNL     1     -36.445  14.215  -4.150  1.00 20.00    -0.129 Cl
ENDBRANCH   9  10
ENDBRANCH   5   9
TORSDOF 3
ENDMDL
MODEL 2
REMARK VINA RESULT:      -3.9      2.078      3.834
REMARK  3 active torsions:
REMARK  status: ('A' for Active; 'I' for Inactive)
REMARK    1  A    between atoms: C4_4  and  C9_9 
REMARK    2  A    between atoms: C7_7  and  C8_8 
REMARK    3  A    between atoms: C7_7  and  N10_10 
ROOT
HETATM    1  C1  UNL     1     -33.649  17.504  -4.853  1.00 20.00     0.032 C 
HETATM    2  C2  UNL     1     -34.088  16.080  -5.179  1.00 20.00     0.038 C 
HETATM    3  C3  UNL     1     -33.991  17.699  -3.386  1.00 20.00     0.273 C 
HETATM    4  C4  UNL     1     -34.655  15.523  -3.872  1.00 20.00     0.226 C 
HETATM    5  N10 UNL     1     -33.977  16.335  -2.852  1.00 20.00     0.094 N 
ENDROOT
BRANCH   4   6
HETATM    6  C9  UNL     1     -34.388  14.029  -3.731  1.00 20.00     0.011 C 
HETATM    7  C5  UNL     1     -34.878  13.274  -4.966  1.00 20.00     0.011 C 
HETATM    8  C6  UNL     1     -32.901  13.766  -3.498  1.00 20.00     0.011 C 
ENDBRANCH   4   6
BRANCH   5   9
HETATM    9  C7  UNL     1     -34.614  16.267  -1.543  1.00 20.00     0.287 C 
BRANCH   9  10
HETATM   10  C8  UNL     1     -34.142  17.367  -0.607  1.00 20.00     0.144 C 
HETATM   11 CL11 UNL     1     -35.133  17.429   0.873  1.00 20.00    -0.129 Cl
ENDBRANCH   9  10
ENDBRANCH   5   9
TORSDOF 3
ENDMDL
MODEL 3
REMARK VINA RESULT:      -3.8      2.183      3.834
REMARK  3 active torsions:
REMARK  status: ('A' for Active; 'I' for Inactive)
REMARK    1  A    between atoms: C4_4  and  C9_9 
REMARK    2  A    between atoms: C7_7  and  C8_8 
REMARK    3  A    between atoms: C7_7  and  N10_10 
ROOT
HETATM    1  C1  UNL     1     -33.349  13.451  -3.915  1.00 20.00     0.032 C 
HETATM    2  C2  UNL     1     -34.624  13.691  -4.717  1.00 20.00     0.038 C 
HETATM    3  C3  UNL     1     -32.841  14.837  -3.551  1.00 20.00     0.273 C 
HETATM    4  C4  UNL     1     -34.790  15.211  -4.766  1.00 20.00     0.226 C 
HETATM    5  N10 UNL     1     -34.055  15.657  -3.575  1.00 20.00     0.094 N 
ENDROOT
BRANCH   4   6
HETATM    6  C9  UNL     1     -36.257  15.620  -4.759  1.00 20.00     0.011 C 
HETATM    7  C5  UNL     1     -36.910  15.316  -6.108  1.00 20.00     0.011 C 
HETATM    8  C6  UNL     1     -37.009  14.915  -3.630  1.00 20.00     0.011 C 
ENDBRANCH   4   6
BRANCH   5   9
HETATM    9  C7  UNL     1     -33.738  17.079  -3.590  1.00 20.00     0.287 C 
BRANCH   9  10
HETATM   10  C8  UNL     1     -34.058  17.763  -2.271  1.00 20.00     0.144 C 
HETATM   11 CL11 UNL     1     -34.602  16.588  -1.047  1.00 20.00    -0.129 Cl
ENDBRANCH   9  10
ENDBRANCH   5   9
TORSDOF 3
ENDMDL
MODEL 4
REMARK VINA RESULT:      -3.8      1.564      3.240
REMARK  3 active torsions:
REMARK  status: ('A' for Active; 'I' for Inactive)
REMARK    1  A    between atoms: C4_4  and  C9_9 
REMARK    2  A    between atoms: C7_7  and  C8_8 
REMARK    3  A    between atoms: C7_7  and  N10_10 
ROOT
HETATM    1  C1  UNL     1     -34.454  17.871  -1.728  1.00 20.00     0.032 C 
HETATM    2  C2  UNL     1     -34.525  16.361  -1.525  1.00 20.00     0.038 C 
HETATM    3  C3  UNL     1     -33.823  18.059  -3.097  1.00 20.00     0.273 C 
HETATM    4  C4  UNL     1     -33.935  15.754  -2.799  1.00 20.00     0.226 C 
HETATM    5  N10 UNL     1     -34.153  16.813  -3.794  1.00 20.00     0.094 N 
ENDROOT
BRANCH   4   6
HETATM    6  C9  UNL     1     -34.609  14.436  -3.162  1.00 20.00     0.011 C 
HETATM    7  C5  UNL     1     -35.947  14.687  -3.857  1.00 20.00     0.011 C 
HETATM    8  C6  UNL     1     -33.696  13.589  -4.047  1.00 20.00     0.011 C 
ENDBRANCH   4   6
BRANCH   5   9
HETATM    9  C7  UNL     1     -33.351  16.647  -5.000  1.00 20.00     0.287 C 
BRANCH   9  10
HETATM   10  C8  UNL     1     -34.172  16.787  -6.270  1.00 20.00     0.144 C 
HETATM   11 CL11 UNL     1     -34.245  15.250  -7.169  1.00 20.00    -0.129 Cl
ENDBRANCH   9  10
ENDBRANCH   5   9
TORSDOF 3
ENDMDL
MODEL 5
REMARK VINA RESULT:      -3.8     11.769     13.603
REMARK  3 active torsions:
REMARK  status: ('A' for Active; 'I' for Inactive)
REMARK    1  A    between atoms: C4_4  and  C9_9 
REMARK    2  A    between atoms: C7_7  and  C8_8 
REMARK    3  A    between atoms: C7_7  and  N10_10 
ROOT
HETATM    1  C1  UNL     1     -40.765   6.032  -0.405  1.00 20.00     0.032 C 
HETATM    2  C2  UNL     1     -40.906   4.624  -0.973  1.00 20.00     0.038 C 
HETATM    3  C3  UNL     1     -41.441   6.940  -1.419  1.00 20.00     0.273 C 
HETATM    4  C4  UNL     1     -41.668   4.794  -2.289  1.00 20.00     0.226 C 
HETATM    5  N10 UNL     1     -42.399   6.051  -2.081  1.00 20.00     0.094 N 
ENDROOT
BRANCH   4   6
HETATM    6  C9  UNL     1     -42.577   3.605  -2.573  1.00 20.00     0.011 C 
HETATM    7  C5  UNL     1     -41.775   2.435  -3.144  1.00 20.00     0.011 C 
HETATM    8  C6  UNL     1     -43.319   3.178  -1.308  1.00 20.00     0.011 C 
ENDBRANCH   4   6
BRANCH   5   9
HETATM    9  C7  UNL     1     -42.906   6.636  -3.316  1.00 20.00     0.287 C 
BRANCH   9  10
HETATM   10  C8  UNL     1     -42.751   8.147  -3.352  1.00 20.00     0.144 C 
HETATM   11 CL11 UNL     1     -42.013   8.687  -4.882  1.00 20.00    -0.129 Cl
ENDBRANCH   9  10
ENDBRANCH   5   9
TORSDOF 3
ENDMDL
MODEL 6
REMARK VINA RESULT:      -3.7      1.877      2.983
REMARK  3 active torsions:
REMARK  status: ('A' for Active; 'I' for Inactive)
REMARK    1  A    between atoms: C4_4  and  C9_9 
REMARK    2  A    between atoms: C7_7  and  C8_8 
REMARK    3  A    between atoms: C7_7  and  N10_10 
ROOT
HETATM    1  C1  UNL     1     -33.957  13.566  -4.409  1.00 20.00     0.032 C 
HETATM    2  C2  UNL     1     -33.616  14.571  -3.312  1.00 20.00     0.038 C 
HETATM    3  C3  UNL     1     -35.474  13.563  -4.487  1.00 20.00     0.273 C 
HETATM    4  C4  UNL     1     -34.963  15.102  -2.819  1.00 20.00     0.226 C 
HETATM    5  N10 UNL     1     -35.841  14.886  -3.977  1.00 20.00     0.094 N 
ENDROOT
BRANCH   4   6
HETATM    6  C9  UNL     1     -34.873  16.563  -2.394  1.00 20.00     0.011 C 
HETATM    7  C5  UNL     1     -34.559  16.672  -0.902  1.00 20.00     0.011 C 
HETATM    8  C6  UNL     1     -33.818  17.301  -3.218  1.00 20.00     0.011 C 
ENDBRANCH   4   6
BRANCH   5   9
HETATM    9  C7  UNL     1     -37.259  14.958  -3.649  1.00 20.00     0.287 C 
BRANCH   9  10
HETATM   10  C8  UNL     1     -38.030  15.872  -4.586  1.00 20.00     0.144 C 
HETATM   11 CL11 UNL     1     -36.956  17.067  -5.356  1.00 20.00    -0.129 Cl
ENDBRANCH   9  10
ENDBRANCH   5   9
TORSDOF 3
ENDMDL
MODEL 7
REMARK VINA RESULT:      -3.7      1.691      2.658
REMARK  3 active torsions:
REMARK  status: ('A' for Active; 'I' for Inactive)
REMARK    1  A    between atoms: C4_4  and  C9_9 
REMARK    2  A    between atoms: C7_7  and  C8_8 
REMARK    3  A    between atoms: C7_7  and  N10_10 
ROOT
HETATM    1  C1  UNL     1     -37.583  15.860  -3.464  1.00 20.00     0.032 C 
HETATM    2  C2  UNL     1     -36.551  16.910  -3.065  1.00 20.00     0.038 C 
HETATM    3  C3  UNL     1     -36.773  14.668  -3.943  1.00 20.00     0.273 C 
HETATM    4  C4  UNL     1     -35.192  16.261  -3.330  1.00 20.00     0.226 C 
HETATM    5  N10 UNL     1     -35.496  14.826  -3.244  1.00 20.00     0.094 N 
ENDROOT
BRANCH   4   6
HETATM    6  C9  UNL     1     -34.142  16.718  -2.325  1.00 20.00     0.011 C 
HETATM    7  C5  UNL     1     -33.739  18.169  -2.587  1.00 20.00     0.011 C 
HETATM    8  C6  UNL     1     -34.656  16.555  -0.895  1.00 20.00     0.011 C 
ENDBRANCH   4   6
BRANCH   5   9
HETATM    9  C7  UNL     1     -34.460  13.980  -3.825  1.00 20.00     0.287 C 
BRANCH   9  10
HETATM   10  C8  UNL     1     -34.816  13.498  -5.222  1.00 20.00     0.144 C 
HETATM   11 CL11 UNL     1     -34.356  14.696  -6.458  1.00 20.00    -0.129 Cl
ENDBRANCH   9  10
ENDBRANCH   5   9
TORSDOF 3
ENDMDL
MODEL 8
REMARK VINA RESULT:      -3.7      2.039      3.651
REMARK  3 active torsions:
REMARK  status: ('A' for Active; 'I' for Inactive)
REMARK    1  A    between atoms: C4_4  and  C9_9 
REMARK    2  A    between atoms: C7_7  and  C8_8 
REMARK    3  A    between atoms: C7_7  and  N10_10 
ROOT
HETATM    1  C1  UNL     1     -33.852  18.468  -5.611  1.00 20.00     0.032 C 
HETATM    2  C2  UNL     1     -34.474  17.308  -6.381  1.00 20.00     0.038 C 
HETATM    3  C3  UNL     1     -33.563  17.915  -4.225  1.00 20.00     0.273 C 
HETATM    4  C4  UNL     1     -34.503  16.138  -5.396  1.00 20.00     0.226 C 
HETATM    5  N10 UNL     1     -33.424  16.476  -4.459  1.00 20.00     0.094 N 
ENDROOT
BRANCH   4   6
HETATM    6  C9  UNL     1     -34.298  14.802  -6.099  1.00 20.00     0.011 C 
HETATM    7  C5  UNL     1     -35.143  13.710  -5.442  1.00 20.00     0.011 C 
HETATM    8  C6  UNL     1     -34.635  14.916  -7.585  1.00 20.00     0.011 C 
ENDBRANCH   4   6
BRANCH   5   9
HETATM    9  C7  UNL     1     -33.485  15.724  -3.212  1.00 20.00     0.287 C 
BRANCH   9  10
HETATM   10  C8  UNL     1     -34.805  15.908  -2.482  1.00 20.00     0.144 C 
HETATM   11 CL11 UNL     1     -34.554  16.553  -0.840  1.00 20.00    -0.129 Cl
ENDBRANCH   9  10
ENDBRANCH   5   9
TORSDOF 3
ENDMDL
MODEL 9
REMARK VINA RESULT:      -3.7      2.271      3.751
REMARK  3 active torsions:
REMARK  status: ('A' for Active; 'I' for Inactive)
REMARK    1  A    between atoms: C4_4  and  C9_9 
REMARK    2  A    between atoms: C7_7  and  C8_8 
REMARK    3  A    between atoms: C7_7  and  N10_10 
ROOT
HETATM    1  C1  UNL     1     -34.751  14.848  -7.292  1.00 20.00     0.032 C 
HETATM    2  C2  UNL     1     -34.778  14.353  -5.849  1.00 20.00     0.038 C 
HETATM    3  C3  UNL     1     -34.438  16.332  -7.196  1.00 20.00     0.273 C 
HETATM    4  C4  UNL     1     -34.469  15.583  -4.994  1.00 20.00     0.226 C 
HETATM    5  N10 UNL     1     -33.724  16.444  -5.922  1.00 20.00     0.094 N 
ENDROOT
BRANCH   4   6
HETATM    6  C9  UNL     1     -33.679  15.217  -3.743  1.00 20.00     0.011 C 
HETATM    7  C5  UNL     1     -34.436  15.639  -2.484  1.00 20.00     0.011 C 
HETATM    8  C6  UNL     1     -33.382  13.718  -3.711  1.00 20.00     0.011 C 
ENDBRANCH   4   6
BRANCH   5   9
HETATM    9  C7  UNL     1     -33.636  17.830  -5.479  1.00 20.00     0.287 C 
BRANCH   9  10
HETATM   10  C8  UNL     1     -34.999  18.439  -5.194  1.00 20.00     0.144 C 
HETATM   11 CL11 UNL     1     -35.077  19.109  -3.544  1.00 20.00    -0.129 Cl
ENDBRANCH   9  10
ENDBRANCH   5   9
TORSDOF 3
ENDMDL
