MODEL 1
REMARK VINA RESULT:      -5.0      0.000      0.000
REMARK  0 active torsions:
REMARK  status: ('A' for Active; 'I' for Inactive)
ROOT
HETATM    1  C1  UNL     1     -33.688  16.213  -2.669  1.00 20.00     0.002 C 
HETATM    2  C2  UNL     1     -33.028  15.519  -3.887  1.00 20.00     0.015 C 
HETATM    3  C3  UNL     1     -34.841  15.182  -2.782  1.00 20.00     0.015 C 
HETATM    4  C4  UNL     1     -35.397  14.566  -7.335  1.00 20.00     0.036 C 
HETATM    5  C5  UNL     1     -34.277  15.597  -7.420  1.00 20.00     0.168 C 
HETATM    6  C6  UNL     1     -35.653  14.370  -5.843  1.00 20.00     0.050 C 
HETATM    7  C7  UNL     1     -34.542  13.691  -4.978  1.00 20.00     0.178 C 
HETATM    8  C8  UNL     1     -35.218  15.750  -5.278  1.00 20.00     0.139 C 
HETATM    9  C9  UNL     1     -34.411  14.997  -4.229  1.00 20.00     0.016 C 
HETATM   10  O10 UNL     1     -35.039  12.606  -4.240  1.00 20.00    -0.234 OA
HETATM   11  O11 UNL     1     -34.506  16.474  -6.312  1.00 20.00    -0.385 OA
ENDROOT
TORSDOF 0
ENDMDL
MODEL 2
REMARK VINA RESULT:      -4.8      1.400      3.477
REMARK  0 active torsions:
REMARK  status: ('A' for Active; 'I' for Inactive)
ROOT
HETATM    1  C1  UNL     1     -34.516  15.019  -7.049  1.00 20.00     0.002 C 
HETATM    2  C2  UNL     1     -35.213  16.091  -6.173  1.00 20.00     0.015 C 
HETATM    3  C3  UNL     1     -34.949  13.964  -5.999  1.00 20.00     0.015 C 
HETATM    4  C4  UNL     1     -34.539  16.143  -1.936  1.00 20.00     0.036 C 
HETATM    5  C5  UNL     1     -34.060  17.293  -2.815  1.00 20.00     0.168 C 
HETATM    6  C6  UNL     1     -34.850  15.001  -2.899  1.00 20.00     0.050 C 
HETATM    7  C7  UNL     1     -36.055  15.160  -3.881  1.00 20.00     0.178 C 
HETATM    8  C8  UNL     1     -33.882  15.321  -4.071  1.00 20.00     0.139 C 
HETATM    9  C9  UNL     1     -35.058  15.120  -5.016  1.00 20.00     0.016 C 
HETATM   10  O10 UNL     1     -36.943  14.076  -3.806  1.00 20.00    -0.234 OA
HETATM   11  O11 UNL     1     -33.358  16.660  -3.890  1.00 20.00    -0.385 OA
ENDROOT
TORSDOF 0
ENDMDL
MODEL 3
REMARK VINA RESULT:      -4.7      1.249      3.494
REMARK  0 active torsions:
REMARK  status: ('A' for Active; 'I' for Inactive)
ROOT
HETATM    1  C1  UNL     1     -36.040  15.325  -7.350  1.00 20.00     0.002 C 
HETATM    2  C2  UNL     1     -36.820  15.227  -6.014  1.00 20.00     0.015 C 
HETATM    3  C3  UNL     1     -34.964  14.403  -6.720  1.00 20.00     0.015 C 
HETATM    4  C4  UNL     1     -34.745  15.741  -2.294  1.00 20.00     0.036 C 
HETATM    5  C5  UNL     1     -35.801  16.745  -2.742  1.00 20.00     0.168 C 
HETATM    6  C6  UNL     1     -34.405  14.928  -3.541  1.00 20.00     0.050 C 
HETATM    7  C7  UNL     1     -35.498  13.982  -4.136  1.00 20.00     0.178 C 
HETATM    8  C8  UNL     1     -34.715  15.955  -4.665  1.00 20.00     0.139 C 
HETATM    9  C9  UNL     1     -35.498  14.856  -5.369  1.00 20.00     0.016 C 
HETATM   10  O10 UNL     1     -35.023  12.673  -4.310  1.00 20.00    -0.234 OA
HETATM   11  O11 UNL     1     -35.446  17.068  -4.091  1.00 20.00    -0.385 OA
ENDROOT
TORSDOF 0
ENDMDL
MODEL 4
REMARK VINA RESULT:      -4.6      1.369      1.376
REMARK  0 active torsions:
REMARK  status: ('A' for Active; 'I' for Inactive)
ROOT
HETATM    1  C1  UNL     1     -34.026  15.985  -2.340  1.00 20.00     0.002 C 
HETATM    2  C2  UNL     1     -34.007  14.762  -3.292  1.00 20.00     0.015 C 
HETATM    3  C3  UNL     1     -35.553  16.079  -2.587  1.00 20.00     0.015 C 
HETATM    4  C4  UNL     1     -36.074  14.956  -7.047  1.00 20.00     0.036 C 
HETATM    5  C5  UNL     1     -34.554  14.837  -6.999  1.00 20.00     0.168 C 
HETATM    6  C6  UNL     1     -36.491  15.366  -5.637  1.00 20.00     0.050 C 
HETATM    7  C7  UNL     1     -36.299  14.340  -4.474  1.00 20.00     0.178 C 
HETATM    8  C8  UNL     1     -35.222  16.119  -5.153  1.00 20.00     0.139 C 
HETATM    9  C9  UNL     1     -35.302  15.303  -3.871  1.00 20.00     0.016 C 
HETATM   10  O10 UNL     1     -37.481  14.143  -3.744  1.00 20.00    -0.234 OA
HETATM   11  O11 UNL     1     -34.140  15.853  -6.080  1.00 20.00    -0.385 OA
ENDROOT
TORSDOF 0
ENDMDL
MODEL 5
REMARK VINA RESULT:      -4.5      1.411      2.917
REMARK  0 active torsions:
REMARK  status: ('A' for Active; 'I' for Inactive)
ROOT
HETATM    1  C1  UNL     1     -33.784  17.000  -1.472  1.00 20.00     0.002 C 
HETATM    2  C2  UNL     1     -34.966  16.109  -1.933  1.00 20.00     0.015 C 
HETATM    3  C3  UNL     1     -33.773  17.619  -2.893  1.00 20.00     0.015 C 
HETATM    4  C4  UNL     1     -34.750  14.073  -5.704  1.00 20.00     0.036 C 
HETATM    5  C5  UNL     1     -34.778  13.290  -4.396  1.00 20.00     0.168 C 
HETATM    6  C6  UNL     1     -34.422  15.510  -5.307  1.00 20.00     0.050 C 
HETATM    7  C7  UNL     1     -35.479  16.318  -4.486  1.00 20.00     0.178 C 
HETATM    8  C8  UNL     1     -33.612  15.286  -4.000  1.00 20.00     0.139 C 
HETATM    9  C9  UNL     1     -34.482  16.353  -3.351  1.00 20.00     0.016 C 
HETATM   10  O10 UNL     1     -35.776  17.553  -5.081  1.00 20.00    -0.234 OA
HETATM   11  O11 UNL     1     -33.776  13.908  -3.582  1.00 20.00    -0.385 OA
ENDROOT
TORSDOF 0
ENDMDL
MODEL 6
REMARK VINA RESULT:      -4.4      1.896      3.988
REMARK  0 active torsions:
REMARK  status: ('A' for Active; 'I' for Inactive)
ROOT
HETATM    1  C1  UNL     1     -35.075  13.309  -4.287  1.00 20.00     0.002 C 
HETATM    2  C2  UNL     1     -33.842  13.950  -3.601  1.00 20.00     0.015 C 
HETATM    3  C3  UNL     1     -35.174  14.582  -5.166  1.00 20.00     0.015 C 
HETATM    4  C4  UNL     1     -34.008  18.043  -2.322  1.00 20.00     0.036 C 
HETATM    5  C5  UNL     1     -33.882  16.914  -1.306  1.00 20.00     0.168 C 
HETATM    6  C6  UNL     1     -34.434  17.369  -3.624  1.00 20.00     0.050 C 
HETATM    7  C7  UNL     1     -33.419  16.420  -4.340  1.00 20.00     0.178 C 
HETATM    8  C8  UNL     1     -35.186  16.121  -3.086  1.00 20.00     0.139 C 
HETATM    9  C9  UNL     1     -34.383  15.287  -4.074  1.00 20.00     0.016 C 
HETATM   10  O10 UNL     1     -33.235  16.766  -5.688  1.00 20.00    -0.234 OA
HETATM   11  O11 UNL     1     -34.905  15.981  -1.671  1.00 20.00    -0.385 OA
ENDROOT
TORSDOF 0
ENDMDL
MODEL 7
REMARK VINA RESULT:      -4.4      1.804      2.485
REMARK  0 active torsions:
REMARK  status: ('A' for Active; 'I' for Inactive)
ROOT
HETATM    1  C1  UNL     1     -33.153  16.418  -5.208  1.00 20.00     0.002 C 
HETATM    2  C2  UNL     1     -34.268  15.749  -6.051  1.00 20.00     0.015 C 
HETATM    3  C3  UNL     1     -33.431  15.360  -4.109  1.00 20.00     0.015 C 
HETATM    4  C4  UNL     1     -38.019  14.763  -4.217  1.00 20.00     0.036 C 
HETATM    5  C5  UNL     1     -37.942  15.821  -5.311  1.00 20.00     0.168 C 
HETATM    6  C6  UNL     1     -36.579  14.550  -3.758  1.00 20.00     0.050 C 
HETATM    7  C7  UNL     1     -35.569  13.892  -4.752  1.00 20.00     0.178 C 
HETATM    8  C8  UNL     1     -35.953  15.936  -4.074  1.00 20.00     0.139 C 
HETATM    9  C9  UNL     1     -34.804  15.196  -4.743  1.00 20.00     0.016 C 
HETATM   10  O10 UNL     1     -34.911  12.791  -4.183  1.00 20.00    -0.234 OA
HETATM   11  O11 UNL     1     -36.874  16.685  -4.906  1.00 20.00    -0.385 OA
ENDROOT
TORSDOF 0
ENDMDL
MODEL 8
REMARK VINA RESULT:      -4.4      1.731      3.140
REMARK  0 active torsions:
REMARK  status: ('A' for Active; 'I' for Inactive)
ROOT
HETATM    1  C1  UNL     1     -36.648  17.305  -6.207  1.00 20.00     0.002 C 
HETATM    2  C2  UNL     1     -36.097  17.157  -4.766  1.00 20.00     0.015 C 
HETATM    3  C3  UNL     1     -37.156  15.843  -6.098  1.00 20.00     0.015 C 
HETATM    4  C4  UNL     1     -33.867  13.654  -3.688  1.00 20.00     0.036 C 
HETATM    5  C5  UNL     1     -33.200  15.025  -3.714  1.00 20.00     0.168 C 
HETATM    6  C6  UNL     1     -35.176  13.827  -4.454  1.00 20.00     0.050 C 
HETATM    7  C7  UNL     1     -36.292  14.726  -3.831  1.00 20.00     0.178 C 
HETATM    8  C8  UNL     1     -34.810  14.989  -5.418  1.00 20.00     0.139 C 
HETATM    9  C9  UNL     1     -36.114  15.659  -5.006  1.00 20.00     0.016 C 
HETATM   10  O10 UNL     1     -37.525  14.059  -3.757  1.00 20.00    -0.234 OA
HETATM   11  O11 UNL     1     -33.560  15.579  -4.984  1.00 20.00    -0.385 OA
ENDROOT
TORSDOF 0
ENDMDL
MODEL 9
REMARK VINA RESULT:      -4.3      1.744      2.396
REMARK  0 active torsions:
REMARK  status: ('A' for Active; 'I' for Inactive)
ROOT
HETATM    1  C1  UNL     1     -34.830  17.679  -2.086  1.00 20.00     0.002 C 
HETATM    2  C2  UNL     1     -34.516  17.437  -3.585  1.00 20.00     0.015 C 
HETATM    3  C3  UNL     1     -34.021  16.394  -1.770  1.00 20.00     0.015 C 
HETATM    4  C4  UNL     1     -35.014  13.517  -5.257  1.00 20.00     0.036 C 
HETATM    5  C5  UNL     1     -35.893  14.676  -5.714  1.00 20.00     0.168 C 
HETATM    6  C6  UNL     1     -34.361  13.991  -3.962  1.00 20.00     0.050 C 
HETATM    7  C7  UNL     1     -33.322  15.157  -4.033  1.00 20.00     0.178 C 
HETATM    8  C8  UNL     1     -35.422  14.999  -3.440  1.00 20.00     0.139 C 
HETATM    9  C9  UNL     1     -34.284  15.984  -3.211  1.00 20.00     0.016 C 
HETATM   10  O10 UNL     1     -32.111  14.822  -3.408  1.00 20.00    -0.234 OA
HETATM   11  O11 UNL     1     -36.370  15.269  -4.501  1.00 20.00    -0.385 OA
ENDROOT
TORSDOF 0
ENDMDL
