MODEL 1
REMARK VINA RESULT:      -4.8      0.000      0.000
REMARK  1 active torsions:
REMARK  status: ('A' for Active; 'I' for Inactive)
REMARK    1  A    between atoms: C3_3  and  C6_6 
ROOT
HETATM    1  C1  UNL     1     -32.016   7.928   2.070  1.00 20.00     0.087 C 
HETATM    2  C5  UNL     1     -32.392   7.040   3.115  1.00 20.00     0.095 C 
HETATM    3  C6  UNL     1     -33.689   6.894   3.558  1.00 20.00     0.032 C 
HETATM    4  N8  UNL     1     -31.705   8.650   1.218  1.00 20.00    -0.192 NA
ENDROOT
BRANCH   3   5
HETATM    5  C3  UNL     1     -34.148   6.049   4.589  1.00 20.00     0.031 A 
HETATM    6  C4  UNL     1     -34.047   6.177   5.958  1.00 20.00     0.048 A 
HETATM    7  C7  UNL     1     -33.399   7.287   6.688  1.00 20.00     0.072 C 
HETATM    8  N9  UNL     1     -34.610   5.159   6.703  1.00 20.00    -0.258 NA
HETATM    9  C2  UNL     1     -35.131   4.271   5.884  1.00 20.00     0.167 A 
HETATM   10  S10 UNL     1     -34.980   4.598   4.206  1.00 20.00    -0.081 SA
ENDBRANCH   3   5
TORSDOF 1
ENDMDL
MODEL 2
REMARK VINA RESULT:      -4.2     11.411     12.080
REMARK  1 active torsions:
REMARK  status: ('A' for Active; 'I' for Inactive)
REMARK    1  A    between atoms: C3_3  and  C6_6 
ROOT
HETATM    1  C1  UNL     1     -34.038  17.648  -0.008  1.00 20.00     0.087 C 
HETATM    2  C5  UNL     1     -34.705  16.682  -0.810  1.00 20.00     0.095 C 
HETATM    3  C6  UNL     1     -34.284  16.320  -2.071  1.00 20.00     0.032 C 
HETATM    4  N8  UNL     1     -33.497  18.435   0.650  1.00 20.00    -0.192 NA
ENDROOT
BRANCH   3   5
HETATM    5  C3  UNL     1     -34.886  15.382  -2.935  1.00 20.00     0.031 A 
HETATM    6  C4  UNL     1     -34.347  14.288  -3.578  1.00 20.00     0.048 A 
HETATM    7  C7  UNL     1     -32.943  13.830  -3.500  1.00 20.00     0.072 C 
HETATM    8  N9  UNL     1     -35.218  13.561  -4.366  1.00 20.00    -0.258 NA
HETATM    9  C2  UNL     1     -36.408  14.119  -4.310  1.00 20.00     0.167 A 
HETATM   10  S10 UNL     1     -36.550  15.518  -3.327  1.00 20.00    -0.081 SA
ENDBRANCH   3   5
TORSDOF 1
ENDMDL
MODEL 3
REMARK VINA RESULT:      -4.1     11.889     12.944
REMARK  1 active torsions:
REMARK  status: ('A' for Active; 'I' for Inactive)
REMARK    1  A    between atoms: C3_3  and  C6_6 
ROOT
HETATM    1  C1  UNL     1     -34.531  17.136  -0.399  1.00 20.00     0.087 C 
HETATM    2  C5  UNL     1     -34.805  16.355  -1.554  1.00 20.00     0.095 C 
HETATM    3  C6  UNL     1     -33.926  16.222  -2.608  1.00 20.00     0.032 C 
HETATM    4  N8  UNL     1     -34.311  17.772   0.546  1.00 20.00    -0.192 NA
ENDROOT
BRANCH   3   5
HETATM    5  C3  UNL     1     -34.119  15.479  -3.791  1.00 20.00     0.031 A 
HETATM    6  C4  UNL     1     -34.021  15.863  -5.111  1.00 20.00     0.048 A 
HETATM    7  C7  UNL     1     -33.673  17.212  -5.607  1.00 20.00     0.072 C 
HETATM    8  N9  UNL     1     -34.275  14.879  -6.047  1.00 20.00    -0.258 NA
HETATM    9  C2  UNL     1     -34.564  13.760  -5.419  1.00 20.00     0.167 A 
HETATM   10  S10 UNL     1     -34.548  13.820  -3.705  1.00 20.00    -0.081 SA
ENDBRANCH   3   5
TORSDOF 1
ENDMDL
MODEL 4
REMARK VINA RESULT:      -4.1     11.579     12.200
REMARK  1 active torsions:
REMARK  status: ('A' for Active; 'I' for Inactive)
REMARK    1  A    between atoms: C3_3  and  C6_6 
ROOT
HETATM    1  C1  UNL     1     -33.916  17.688  -0.410  1.00 20.00     0.087 C 
HETATM    2  C5  UNL     1     -34.498  16.586  -1.094  1.00 20.00     0.095 C 
HETATM    3  C6  UNL     1     -34.216  16.272  -2.406  1.00 20.00     0.032 C 
HETATM    4  N8  UNL     1     -33.443  18.585   0.153  1.00 20.00    -0.192 NA
ENDROOT
BRANCH   3   5
HETATM    5  C3  UNL     1     -34.750  15.209  -3.163  1.00 20.00     0.031 A 
HETATM    6  C4  UNL     1     -36.036  14.994  -3.614  1.00 20.00     0.048 A 
HETATM    7  C7  UNL     1     -37.200  15.878  -3.393  1.00 20.00     0.072 C 
HETATM    8  N9  UNL     1     -36.235  13.837  -4.340  1.00 20.00    -0.258 NA
HETATM    9  C2  UNL     1     -35.094  13.189  -4.429  1.00 20.00     0.167 A 
HETATM   10  S10 UNL     1     -33.742  13.915  -3.661  1.00 20.00    -0.081 SA
ENDBRANCH   3   5
TORSDOF 1
ENDMDL
MODEL 5
REMARK VINA RESULT:      -4.0     11.870     13.187
REMARK  1 active torsions:
REMARK  status: ('A' for Active; 'I' for Inactive)
REMARK    1  A    between atoms: C3_3  and  C6_6 
ROOT
HETATM    1  C1  UNL     1     -34.809  16.838  -0.799  1.00 20.00     0.087 C 
HETATM    2  C5  UNL     1     -35.024  16.484  -2.159  1.00 20.00     0.095 C 
HETATM    3  C6  UNL     1     -34.020  16.051  -2.999  1.00 20.00     0.032 C 
HETATM    4  N8  UNL     1     -34.638  17.127   0.311  1.00 20.00    -0.192 NA
ENDROOT
BRANCH   3   5
HETATM    5  C3  UNL     1     -34.141  15.690  -4.356  1.00 20.00     0.031 A 
HETATM    6  C4  UNL     1     -34.552  14.505  -4.930  1.00 20.00     0.048 A 
HETATM    7  C7  UNL     1     -34.978  13.286  -4.211  1.00 20.00     0.072 C 
HETATM    8  N9  UNL     1     -34.557  14.473  -6.311  1.00 20.00    -0.258 NA
HETATM    9  C2  UNL     1     -34.149  15.638  -6.765  1.00 20.00     0.167 A 
HETATM   10  S10 UNL     1     -33.742  16.817  -5.586  1.00 20.00    -0.081 SA
ENDBRANCH   3   5
TORSDOF 1
ENDMDL
MODEL 6
REMARK VINA RESULT:      -4.0     11.632     13.029
REMARK  1 active torsions:
REMARK  status: ('A' for Active; 'I' for Inactive)
REMARK    1  A    between atoms: C3_3  and  C6_6 
ROOT
HETATM    1  C1  UNL     1     -34.949  13.662  -4.136  1.00 20.00     0.087 C 
HETATM    2  C5  UNL     1     -35.128  14.919  -3.495  1.00 20.00     0.095 C 
HETATM    3  C6  UNL     1     -34.094  15.644  -2.942  1.00 20.00     0.032 C 
HETATM    4  N8  UNL     1     -34.808  12.637  -4.660  1.00 20.00    -0.192 NA
ENDROOT
BRANCH   3   5
HETATM    5  C3  UNL     1     -34.181  16.887  -2.284  1.00 20.00     0.031 A 
HETATM    6  C4  UNL     1     -33.988  18.166  -2.764  1.00 20.00     0.048 A 
HETATM    7  C7  UNL     1     -33.625  18.535  -4.148  1.00 20.00     0.072 C 
HETATM    8  N9  UNL     1     -34.151  19.186  -1.847  1.00 20.00    -0.258 NA
HETATM    9  C2  UNL     1     -34.467  18.664  -0.682  1.00 20.00     0.167 A 
HETATM   10  S10 UNL     1     -34.585  16.953  -0.618  1.00 20.00    -0.081 SA
ENDBRANCH   3   5
TORSDOF 1
ENDMDL
MODEL 7
REMARK VINA RESULT:      -3.9     11.711     13.019
REMARK  1 active torsions:
REMARK  status: ('A' for Active; 'I' for Inactive)
REMARK    1  A    between atoms: C3_3  and  C6_6 
ROOT
HETATM    1  C1  UNL     1     -34.992  17.302   0.363  1.00 20.00     0.087 C 
HETATM    2  C5  UNL     1     -34.597  17.326  -1.003  1.00 20.00     0.095 C 
HETATM    3  C6  UNL     1     -34.653  16.224  -1.829  1.00 20.00     0.032 C 
HETATM    4  N8  UNL     1     -35.314  17.287   1.477  1.00 20.00    -0.192 NA
ENDROOT
BRANCH   3   5
HETATM    5  C3  UNL     1     -34.276  16.156  -3.186  1.00 20.00     0.031 A 
HETATM    6  C4  UNL     1     -34.241  15.081  -4.049  1.00 20.00     0.048 A 
HETATM    7  C7  UNL     1     -34.610  13.687  -3.725  1.00 20.00     0.072 C 
HETATM    8  N9  UNL     1     -33.816  15.353  -5.335  1.00 20.00    -0.258 NA
HETATM    9  C2  UNL     1     -33.534  16.634  -5.428  1.00 20.00     0.167 A 
HETATM   10  S10 UNL     1     -33.757  17.570  -4.007  1.00 20.00    -0.081 SA
ENDBRANCH   3   5
TORSDOF 1
ENDMDL
MODEL 8
REMARK VINA RESULT:      -3.9     11.862     12.900
REMARK  1 active torsions:
REMARK  status: ('A' for Active; 'I' for Inactive)
REMARK    1  A    between atoms: C3_3  and  C6_6 
ROOT
HETATM    1  C1  UNL     1     -34.722  13.681  -4.331  1.00 20.00     0.087 C 
HETATM    2  C5  UNL     1     -34.369  15.031  -4.060  1.00 20.00     0.095 C 
HETATM    3  C6  UNL     1     -34.524  15.623  -2.825  1.00 20.00     0.032 C 
HETATM    4  N8  UNL     1     -35.007  12.580  -4.557  1.00 20.00    -0.192 NA
ENDROOT
BRANCH   3   5
HETATM    5  C3  UNL     1     -34.211  16.952  -2.471  1.00 20.00     0.031 A 
HETATM    6  C4  UNL     1     -34.306  17.597  -1.256  1.00 20.00     0.048 A 
HETATM    7  C7  UNL     1     -34.783  17.007   0.013  1.00 20.00     0.072 C 
HETATM    8  N9  UNL     1     -33.914  18.921  -1.243  1.00 20.00    -0.258 NA
HETATM    9  C2  UNL     1     -33.526  19.261  -2.453  1.00 20.00     0.167 A 
HETATM   10  S10 UNL     1     -33.608  18.038  -3.653  1.00 20.00    -0.081 SA
ENDBRANCH   3   5
TORSDOF 1
ENDMDL
MODEL 9
REMARK VINA RESULT:      -3.6     10.738     11.523
REMARK  1 active torsions:
REMARK  status: ('A' for Active; 'I' for Inactive)
REMARK    1  A    between atoms: C3_3  and  C6_6 
ROOT
HETATM    1  C1  UNL     1     -42.018   1.518  -3.507  1.00 20.00     0.087 C 
HETATM    2  C5  UNL     1     -41.512   2.763  -3.043  1.00 20.00     0.095 C 
HETATM    3  C6  UNL     1     -42.268   3.675  -2.339  1.00 20.00     0.032 C 
HETATM    4  N8  UNL     1     -42.426   0.501  -3.888  1.00 20.00    -0.192 NA
ENDROOT
BRANCH   3   5
HETATM    5  C3  UNL     1     -41.853   4.931  -1.850  1.00 20.00     0.031 A 
HETATM    6  C4  UNL     1     -42.162   6.203  -2.283  1.00 20.00     0.048 A 
HETATM    7  C7  UNL     1     -43.043   6.551  -3.418  1.00 20.00     0.072 C 
HETATM    8  N9  UNL     1     -41.581   7.239  -1.577  1.00 20.00    -0.258 NA
HETATM    9  C2  UNL     1     -40.839   6.734  -0.616  1.00 20.00     0.167 A 
HETATM   10  S10 UNL     1     -40.793   5.023  -0.504  1.00 20.00    -0.081 SA
ENDBRANCH   3   5
TORSDOF 1
ENDMDL
