MODEL 1
REMARK VINA RESULT:      -4.8      0.000      0.000
REMARK  2 active torsions:
REMARK  status: ('A' for Active; 'I' for Inactive)
REMARK    1  A    between atoms: C6_6  and  C7_7 
REMARK    2  A    between atoms: C7_7  and  N8_8 
ROOT
HETATM    1  C1  UNL     1     -32.036   8.256   2.223  1.00 20.00     0.157 C 
HETATM    2  N8  UNL     1     -31.812   7.469   3.070  1.00 20.00    -0.274 NA
HETATM    3  S9  UNL     1     -32.324   9.333   1.085  1.00 20.00    -0.055 SA
ENDROOT
BRANCH   2   4
HETATM    4  C7  UNL     1     -32.651   6.278   3.047  1.00 20.00     0.165 C 
BRANCH   4   5
HETATM    5  C6  UNL     1     -33.789   6.461   4.047  1.00 20.00     0.067 C 
HETATM    6  C4  UNL     1     -33.272   6.355   5.489  1.00 20.00     0.017 C 
HETATM    7  C2  UNL     1     -34.389   6.146   6.506  1.00 20.00     0.002 C 
HETATM    8  C3  UNL     1     -35.063   4.779   6.374  1.00 20.00     0.010 C 
HETATM    9  C5  UNL     1     -34.928   4.113   5.008  1.00 20.00     0.074 C 
HETATM   10  S10 UNL     1     -35.143   5.291   3.650  1.00 20.00    -0.163 SA
ENDBRANCH   4   5
ENDBRANCH   2   4
TORSDOF 2
ENDMDL
MODEL 2
REMARK VINA RESULT:      -3.9     11.413     12.150
REMARK  2 active torsions:
REMARK  status: ('A' for Active; 'I' for Inactive)
REMARK    1  A    between atoms: C6_6  and  C7_7 
REMARK    2  A    between atoms: C7_7  and  N8_8 
ROOT
HETATM    1  C1  UNL     1     -34.807  17.027  -0.193  1.00 20.00     0.157 C 
HETATM    2  N8  UNL     1     -34.537  16.476  -1.198  1.00 20.00    -0.274 NA
HETATM    3  S9  UNL     1     -35.169  17.755   1.176  1.00 20.00    -0.055 SA
ENDROOT
BRANCH   2   4
HETATM    4  C7  UNL     1     -34.595  17.305  -2.395  1.00 20.00     0.165 C 
BRANCH   4   5
HETATM    5  C6  UNL     1     -34.935  16.418  -3.589  1.00 20.00     0.067 C 
HETATM    6  C4  UNL     1     -35.952  15.336  -3.195  1.00 20.00     0.017 C 
HETATM    7  C2  UNL     1     -36.039  14.205  -4.212  1.00 20.00     0.002 C 
HETATM    8  C3  UNL     1     -34.768  13.354  -4.265  1.00 20.00     0.010 C 
HETATM    9  C5  UNL     1     -33.502  14.040  -3.761  1.00 20.00     0.074 C 
HETATM   10  S10 UNL     1     -33.388  15.759  -4.319  1.00 20.00    -0.163 SA
ENDBRANCH   4   5
ENDBRANCH   2   4
TORSDOF 2
ENDMDL
MODEL 3
REMARK VINA RESULT:      -3.9     11.612     12.784
REMARK  2 active torsions:
REMARK  status: ('A' for Active; 'I' for Inactive)
REMARK    1  A    between atoms: C6_6  and  C7_7 
REMARK    2  A    between atoms: C7_7  and  N8_8 
ROOT
HETATM    1  C1  UNL     1     -34.621  16.619  -1.132  1.00 20.00     0.157 C 
HETATM    2  N8  UNL     1     -34.403  16.027  -2.126  1.00 20.00    -0.274 NA
HETATM    3  S9  UNL     1     -34.926  17.403   0.220  1.00 20.00    -0.055 SA
ENDROOT
BRANCH   2   4
HETATM    4  C7  UNL     1     -33.661  16.768  -3.139  1.00 20.00     0.165 C 
BRANCH   4   5
HETATM    5  C6  UNL     1     -33.400  15.845  -4.326  1.00 20.00     0.067 C 
HETATM    6  C4  UNL     1     -34.116  16.357  -5.585  1.00 20.00     0.017 C 
HETATM    7  C2  UNL     1     -34.215  15.303  -6.681  1.00 20.00     0.002 C 
HETATM    8  C3  UNL     1     -35.144  14.146  -6.310  1.00 20.00     0.010 C 
HETATM    9  C5  UNL     1     -35.365  13.938  -4.815  1.00 20.00     0.074 C 
HETATM   10  S10 UNL     1     -33.833  14.124  -3.867  1.00 20.00    -0.163 SA
ENDBRANCH   4   5
ENDBRANCH   2   4
TORSDOF 2
ENDMDL
MODEL 4
REMARK VINA RESULT:      -3.9     11.542     12.780
REMARK  2 active torsions:
REMARK  status: ('A' for Active; 'I' for Inactive)
REMARK    1  A    between atoms: C6_6  and  C7_7 
REMARK    2  A    between atoms: C7_7  and  N8_8 
ROOT
HETATM    1  C1  UNL     1     -38.543  14.909  -3.657  1.00 20.00     0.157 C 
HETATM    2  N8  UNL     1     -37.527  14.404  -3.969  1.00 20.00    -0.274 NA
HETATM    3  S9  UNL     1     -39.921  15.578  -3.221  1.00 20.00    -0.055 SA
ENDROOT
BRANCH   2   4
HETATM    4  C7  UNL     1     -36.822  15.053  -5.067  1.00 20.00     0.165 C 
BRANCH   4   5
HETATM    5  C6  UNL     1     -35.419  14.461  -5.166  1.00 20.00     0.067 C 
HETATM    6  C4  UNL     1     -34.970  13.888  -3.814  1.00 20.00     0.017 C 
HETATM    7  C2  UNL     1     -33.468  13.638  -3.744  1.00 20.00     0.002 C 
HETATM    8  C3  UNL     1     -32.649  14.931  -3.761  1.00 20.00     0.010 C 
HETATM    9  C5  UNL     1     -33.351  16.141  -4.368  1.00 20.00     0.074 C 
HETATM   10  S10 UNL     1     -34.277  15.713  -5.865  1.00 20.00    -0.163 SA
ENDBRANCH   4   5
ENDBRANCH   2   4
TORSDOF 2
ENDMDL
MODEL 5
REMARK VINA RESULT:      -3.8     11.384     12.116
REMARK  2 active torsions:
REMARK  status: ('A' for Active; 'I' for Inactive)
REMARK    1  A    between atoms: C6_6  and  C7_7 
REMARK    2  A    between atoms: C7_7  and  N8_8 
ROOT
HETATM    1  C1  UNL     1     -34.319  17.435  -0.336  1.00 20.00     0.157 C 
HETATM    2  N8  UNL     1     -33.650  17.288  -1.293  1.00 20.00    -0.274 NA
HETATM    3  S9  UNL     1     -35.207  17.635   0.971  1.00 20.00    -0.055 SA
ENDROOT
BRANCH   2   4
HETATM    4  C7  UNL     1     -34.382  17.055  -2.532  1.00 20.00     0.165 C 
BRANCH   4   5
HETATM    5  C6  UNL     1     -34.579  15.552  -2.707  1.00 20.00     0.067 C 
HETATM    6  C4  UNL     1     -33.411  14.934  -3.490  1.00 20.00     0.017 C 
HETATM    7  C2  UNL     1     -33.725  13.542  -4.025  1.00 20.00     0.002 C 
HETATM    8  C3  UNL     1     -34.791  13.553  -5.122  1.00 20.00     0.010 C 
HETATM    9  C5  UNL     1     -35.715  14.767  -5.121  1.00 20.00     0.074 C 
HETATM   10  S10 UNL     1     -36.226  15.236  -3.448  1.00 20.00    -0.163 SA
ENDBRANCH   4   5
ENDBRANCH   2   4
TORSDOF 2
ENDMDL
MODEL 6
REMARK VINA RESULT:      -3.7     10.553     10.908
REMARK  2 active torsions:
REMARK  status: ('A' for Active; 'I' for Inactive)
REMARK    1  A    between atoms: C6_6  and  C7_7 
REMARK    2  A    between atoms: C7_7  and  N8_8 
ROOT
HETATM    1  C1  UNL     1     -42.317   8.444  -4.473  1.00 20.00     0.157 C 
HETATM    2  N8  UNL     1     -42.546   7.546  -3.747  1.00 20.00    -0.274 NA
HETATM    3  S9  UNL     1     -41.998   9.645  -5.469  1.00 20.00    -0.055 SA
ENDROOT
BRANCH   2   4
HETATM    4  C7  UNL     1     -43.278   7.899  -2.537  1.00 20.00     0.165 C 
BRANCH   4   5
HETATM    5  C6  UNL     1     -42.816   6.988  -1.403  1.00 20.00     0.067 C 
HETATM    6  C4  UNL     1     -41.297   7.090  -1.202  1.00 20.00     0.017 C 
HETATM    7  C2  UNL     1     -40.729   5.947  -0.369  1.00 20.00     0.002 C 
HETATM    8  C3  UNL     1     -40.803   4.597  -1.084  1.00 20.00     0.010 C 
HETATM    9  C5  UNL     1     -41.856   4.497  -2.183  1.00 20.00     0.074 C 
HETATM   10  S10 UNL     1     -43.417   5.283  -1.707  1.00 20.00    -0.163 SA
ENDBRANCH   4   5
ENDBRANCH   2   4
TORSDOF 2
ENDMDL
MODEL 7
REMARK VINA RESULT:      -3.7     10.191     11.214
REMARK  2 active torsions:
REMARK  status: ('A' for Active; 'I' for Inactive)
REMARK    1  A    between atoms: C6_6  and  C7_7 
REMARK    2  A    between atoms: C7_7  and  N8_8 
ROOT
HETATM    1  C1  UNL     1     -41.758   2.236  -3.220  1.00 20.00     0.157 C 
HETATM    2  N8  UNL     1     -41.806   3.256  -2.635  1.00 20.00    -0.274 NA
HETATM    3  S9  UNL     1     -41.675   0.861  -4.018  1.00 20.00    -0.055 SA
ENDROOT
BRANCH   2   4
HETATM    4  C7  UNL     1     -43.039   3.489  -1.892  1.00 20.00     0.165 C 
BRANCH   4   5
HETATM    5  C6  UNL     1     -43.084   4.954  -1.466  1.00 20.00     0.067 C 
HETATM    6  C4  UNL     1     -42.398   5.849  -2.509  1.00 20.00     0.017 C 
HETATM    7  C2  UNL     1     -42.071   7.239  -1.976  1.00 20.00     0.002 C 
HETATM    8  C3  UNL     1     -40.986   7.222  -0.898  1.00 20.00     0.010 C 
HETATM    9  C5  UNL     1     -40.811   5.894  -0.167  1.00 20.00     0.074 C 
HETATM   10  S10 UNL     1     -42.400   5.118   0.226  1.00 20.00    -0.163 SA
ENDBRANCH   4   5
ENDBRANCH   2   4
TORSDOF 2
ENDMDL
MODEL 8
REMARK VINA RESULT:      -3.6     11.887     12.885
REMARK  2 active torsions:
REMARK  status: ('A' for Active; 'I' for Inactive)
REMARK    1  A    between atoms: C6_6  and  C7_7 
REMARK    2  A    between atoms: C7_7  and  N8_8 
ROOT
HETATM    1  C1  UNL     1     -34.097  16.700  -2.161  1.00 20.00     0.157 C 
HETATM    2  N8  UNL     1     -33.742  16.525  -3.270  1.00 20.00    -0.274 NA
HETATM    3  S9  UNL     1     -34.581  16.956  -0.666  1.00 20.00    -0.055 SA
ENDROOT
BRANCH   2   4
HETATM    4  C7  UNL     1     -33.170  15.211  -3.538  1.00 20.00     0.165 C 
BRANCH   4   5
HETATM    5  C6  UNL     1     -33.841  14.630  -4.780  1.00 20.00     0.067 C 
HETATM    6  C4  UNL     1     -34.068  15.718  -5.839  1.00 20.00     0.017 C 
HETATM    7  C2  UNL     1     -35.060  15.298  -6.918  1.00 20.00     0.002 C 
HETATM    8  C3  UNL     1     -36.488  15.153  -6.389  1.00 20.00     0.010 C 
HETATM    9  C5  UNL     1     -36.606  14.908  -4.888  1.00 20.00     0.074 C 
HETATM   10  S10 UNL     1     -35.363  13.736  -4.287  1.00 20.00    -0.163 SA
ENDBRANCH   4   5
ENDBRANCH   2   4
TORSDOF 2
ENDMDL
MODEL 9
REMARK VINA RESULT:      -3.6     12.006     13.361
REMARK  2 active torsions:
REMARK  status: ('A' for Active; 'I' for Inactive)
REMARK    1  A    between atoms: C6_6  and  C7_7 
REMARK    2  A    between atoms: C7_7  and  N8_8 
ROOT
HETATM    1  C1  UNL     1     -38.406  14.731  -3.929  1.00 20.00     0.157 C 
HETATM    2  N8  UNL     1     -37.310  14.319  -3.807  1.00 20.00    -0.274 NA
HETATM    3  S9  UNL     1     -39.894  15.270  -4.102  1.00 20.00    -0.055 SA
ENDROOT
BRANCH   2   4
HETATM    4  C7  UNL     1     -36.354  15.259  -3.235  1.00 20.00     0.165 C 
BRANCH   4   5
HETATM    5  C6  UNL     1     -35.061  15.194  -4.044  1.00 20.00     0.067 C 
HETATM    6  C4  UNL     1     -34.912  16.433  -4.939  1.00 20.00     0.017 C 
HETATM    7  C2  UNL     1     -33.865  16.253  -6.032  1.00 20.00     0.002 C 
HETATM    8  C3  UNL     1     -34.277  15.223  -7.085  1.00 20.00     0.010 C 
HETATM    9  C5  UNL     1     -35.313  14.200  -6.629  1.00 20.00     0.074 C 
HETATM   10  S10 UNL     1     -34.988  13.603  -4.950  1.00 20.00    -0.163 SA
ENDBRANCH   4   5
ENDBRANCH   2   4
TORSDOF 2
ENDMDL
