MODEL 1
REMARK VINA RESULT:      -4.8      0.000      0.000
REMARK  2 active torsions:
REMARK  status: ('A' for Active; 'I' for Inactive)
REMARK    1  A    between atoms: C6_6  and  C7_7 
REMARK    2  A    between atoms: C7_7  and  N8_8 
ROOT
HETATM    1  C1  UNL     1     -32.074   8.069   2.256  1.00 20.00     0.157 C 
HETATM    2  N8  UNL     1     -31.956   7.276   3.119  1.00 20.00    -0.274 NA
HETATM    3  S9  UNL     1     -32.218   9.153   1.099  1.00 20.00    -0.055 SA
ENDROOT
BRANCH   2   4
HETATM    4  C7  UNL     1     -32.876   6.146   3.051  1.00 20.00     0.165 C 
BRANCH   4   5
HETATM    5  C6  UNL     1     -34.058   6.421   3.981  1.00 20.00     0.067 C 
HETATM    6  C4  UNL     1     -35.179   5.388   3.787  1.00 20.00     0.017 C 
HETATM    7  C2  UNL     1     -34.950   4.080   4.539  1.00 20.00     0.002 C 
HETATM    8  C3  UNL     1     -34.980   4.246   6.061  1.00 20.00     0.010 C 
HETATM    9  C5  UNL     1     -34.762   5.666   6.570  1.00 20.00     0.074 C 
HETATM   10  S10 UNL     1     -33.416   6.510   5.697  1.00 20.00    -0.163 SA
ENDBRANCH   4   5
ENDBRANCH   2   4
TORSDOF 2
ENDMDL
MODEL 2
REMARK VINA RESULT:      -4.0     11.284     12.111
REMARK  2 active torsions:
REMARK  status: ('A' for Active; 'I' for Inactive)
REMARK    1  A    between atoms: C6_6  and  C7_7 
REMARK    2  A    between atoms: C7_7  and  N8_8 
ROOT
HETATM    1  C1  UNL     1     -34.791  17.083  -0.126  1.00 20.00     0.157 C 
HETATM    2  N8  UNL     1     -34.759  16.383  -1.073  1.00 20.00    -0.274 NA
HETATM    3  S9  UNL     1     -34.852  18.018   1.161  1.00 20.00    -0.055 SA
ENDROOT
BRANCH   2   4
HETATM    4  C7  UNL     1     -33.752  16.735  -2.068  1.00 20.00     0.165 C 
BRANCH   4   5
HETATM    5  C6  UNL     1     -34.269  16.329  -3.449  1.00 20.00     0.067 C 
HETATM    6  C4  UNL     1     -33.299  15.367  -4.153  1.00 20.00     0.017 C 
HETATM    7  C2  UNL     1     -33.450  13.912  -3.719  1.00 20.00     0.002 C 
HETATM    8  C3  UNL     1     -34.794  13.299  -4.118  1.00 20.00     0.010 C 
HETATM    9  C5  UNL     1     -35.901  14.297  -4.437  1.00 20.00     0.074 C 
HETATM   10  S10 UNL     1     -35.963  15.659  -3.242  1.00 20.00    -0.163 SA
ENDBRANCH   4   5
ENDBRANCH   2   4
TORSDOF 2
ENDMDL
MODEL 3
REMARK VINA RESULT:      -3.9     11.235     12.419
REMARK  2 active torsions:
REMARK  status: ('A' for Active; 'I' for Inactive)
REMARK    1  A    between atoms: C6_6  and  C7_7 
REMARK    2  A    between atoms: C7_7  and  N8_8 
ROOT
HETATM    1  C1  UNL     1     -34.757  16.991  -0.386  1.00 20.00     0.157 C 
HETATM    2  N8  UNL     1     -34.430  16.402  -1.352  1.00 20.00    -0.274 NA
HETATM    3  S9  UNL     1     -35.181  17.780   0.931  1.00 20.00    -0.055 SA
ENDROOT
BRANCH   2   4
HETATM    4  C7  UNL     1     -35.340  16.520  -2.486  1.00 20.00     0.165 C 
BRANCH   4   5
HETATM    5  C6  UNL     1     -34.568  16.199  -3.767  1.00 20.00     0.067 C 
HETATM    6  C4  UNL     1     -33.539  15.081  -3.540  1.00 20.00     0.017 C 
HETATM    7  C2  UNL     1     -34.131  13.676  -3.598  1.00 20.00     0.002 C 
HETATM    8  C3  UNL     1     -34.655  13.299  -4.986  1.00 20.00     0.010 C 
HETATM    9  C5  UNL     1     -34.935  14.469  -5.921  1.00 20.00     0.074 C 
HETATM   10  S10 UNL     1     -35.791  15.829  -5.083  1.00 20.00    -0.163 SA
ENDBRANCH   4   5
ENDBRANCH   2   4
TORSDOF 2
ENDMDL
MODEL 4
REMARK VINA RESULT:      -3.7     12.136     13.175
REMARK  2 active torsions:
REMARK  status: ('A' for Active; 'I' for Inactive)
REMARK    1  A    between atoms: C6_6  and  C7_7 
REMARK    2  A    between atoms: C7_7  and  N8_8 
ROOT
HETATM    1  C1  UNL     1     -38.893  15.088  -3.453  1.00 20.00     0.157 C 
HETATM    2  N8  UNL     1     -38.030  14.356  -3.778  1.00 20.00    -0.274 NA
HETATM    3  S9  UNL     1     -40.069  16.061  -3.000  1.00 20.00    -0.055 SA
ENDROOT
BRANCH   2   4
HETATM    4  C7  UNL     1     -37.093  14.900  -4.755  1.00 20.00     0.165 C 
BRANCH   4   5
HETATM    5  C6  UNL     1     -35.681  14.442  -4.386  1.00 20.00     0.067 C 
HETATM    6  C4  UNL     1     -34.769  14.379  -5.620  1.00 20.00     0.017 C 
HETATM    7  C2  UNL     1     -34.178  15.727  -6.021  1.00 20.00     0.002 C 
HETATM    8  C3  UNL     1     -33.208  16.294  -4.982  1.00 20.00     0.010 C 
HETATM    9  C5  UNL     1     -33.334  15.710  -3.579  1.00 20.00     0.074 C 
HETATM   10  S10 UNL     1     -35.062  15.545  -3.058  1.00 20.00    -0.163 SA
ENDBRANCH   4   5
ENDBRANCH   2   4
TORSDOF 2
ENDMDL
MODEL 5
REMARK VINA RESULT:      -3.7     11.587     12.492
REMARK  2 active torsions:
REMARK  status: ('A' for Active; 'I' for Inactive)
REMARK    1  A    between atoms: C6_6  and  C7_7 
REMARK    2  A    between atoms: C7_7  and  N8_8 
ROOT
HETATM    1  C1  UNL     1     -34.769  16.891  -0.552  1.00 20.00     0.157 C 
HETATM    2  N8  UNL     1     -34.475  16.219  -1.473  1.00 20.00    -0.274 NA
HETATM    3  S9  UNL     1     -35.152  17.789   0.706  1.00 20.00    -0.055 SA
ENDROOT
BRANCH   2   4
HETATM    4  C7  UNL     1     -35.230  16.478  -2.695  1.00 20.00     0.165 C 
BRANCH   4   5
HETATM    5  C6  UNL     1     -35.711  15.144  -3.264  1.00 20.00     0.067 C 
HETATM    6  C4  UNL     1     -36.586  15.346  -4.511  1.00 20.00     0.017 C 
HETATM    7  C2  UNL     1     -35.790  15.556  -5.796  1.00 20.00     0.002 C 
HETATM    8  C3  UNL     1     -34.984  14.325  -6.215  1.00 20.00     0.010 C 
HETATM    9  C5  UNL     1     -34.724  13.305  -5.112  1.00 20.00     0.074 C 
HETATM   10  S10 UNL     1     -34.238  14.090  -3.552  1.00 20.00    -0.163 SA
ENDBRANCH   4   5
ENDBRANCH   2   4
TORSDOF 2
ENDMDL
MODEL 6
REMARK VINA RESULT:      -3.6     11.864     13.071
REMARK  2 active torsions:
REMARK  status: ('A' for Active; 'I' for Inactive)
REMARK    1  A    between atoms: C6_6  and  C7_7 
REMARK    2  A    between atoms: C7_7  and  N8_8 
ROOT
HETATM    1  C1  UNL     1     -34.087  17.106  -1.021  1.00 20.00     0.157 C 
HETATM    2  N8  UNL     1     -34.634  16.195  -1.528  1.00 20.00    -0.274 NA
HETATM    3  S9  UNL     1     -33.364  18.340  -0.320  1.00 20.00    -0.055 SA
ENDROOT
BRANCH   2   4
HETATM    4  C7  UNL     1     -34.000  15.689  -2.741  1.00 20.00     0.165 C 
BRANCH   4   5
HETATM    5  C6  UNL     1     -35.076  15.493  -3.809  1.00 20.00     0.067 C 
HETATM    6  C4  UNL     1     -35.036  16.612  -4.862  1.00 20.00     0.017 C 
HETATM    7  C2  UNL     1     -33.983  16.401  -5.946  1.00 20.00     0.002 C 
HETATM    8  C3  UNL     1     -34.268  15.188  -6.836  1.00 20.00     0.010 C 
HETATM    9  C5  UNL     1     -35.224  14.155  -6.250  1.00 20.00     0.074 C 
HETATM   10  S10 UNL     1     -34.876  13.808  -4.506  1.00 20.00    -0.163 SA
ENDBRANCH   4   5
ENDBRANCH   2   4
TORSDOF 2
ENDMDL
MODEL 7
REMARK VINA RESULT:      -3.5      9.961     11.001
REMARK  2 active torsions:
REMARK  status: ('A' for Active; 'I' for Inactive)
REMARK    1  A    between atoms: C6_6  and  C7_7 
REMARK    2  A    between atoms: C7_7  and  N8_8 
ROOT
HETATM    1  C1  UNL     1     -42.000   2.838  -3.115  1.00 20.00     0.157 C 
HETATM    2  N8  UNL     1     -42.311   3.832  -2.565  1.00 20.00    -0.274 NA
HETATM    3  S9  UNL     1     -41.572   1.506  -3.875  1.00 20.00    -0.055 SA
ENDROOT
BRANCH   2   4
HETATM    4  C7  UNL     1     -43.012   3.646  -1.299  1.00 20.00     0.165 C 
BRANCH   4   5
HETATM    5  C6  UNL     1     -43.245   5.017  -0.663  1.00 20.00     0.067 C 
HETATM    6  C4  UNL     1     -42.173   5.340   0.389  1.00 20.00     0.017 C 
HETATM    7  C2  UNL     1     -40.875   5.884  -0.200  1.00 20.00     0.002 C 
HETATM    8  C3  UNL     1     -41.040   7.253  -0.863  1.00 20.00     0.010 C 
HETATM    9  C5  UNL     1     -42.467   7.630  -1.244  1.00 20.00     0.074 C 
HETATM   10  S10 UNL     1     -43.358   6.252  -2.014  1.00 20.00    -0.163 SA
ENDBRANCH   4   5
ENDBRANCH   2   4
TORSDOF 2
ENDMDL
MODEL 8
REMARK VINA RESULT:      -3.5     11.379     12.975
REMARK  2 active torsions:
REMARK  status: ('A' for Active; 'I' for Inactive)
REMARK    1  A    between atoms: C6_6  and  C7_7 
REMARK    2  A    between atoms: C7_7  and  N8_8 
ROOT
HETATM    1  C1  UNL     1     -33.587  18.139  -5.658  1.00 20.00     0.157 C 
HETATM    2  N8  UNL     1     -33.233  17.350  -4.859  1.00 20.00    -0.274 NA
HETATM    3  S9  UNL     1     -34.054  19.196  -6.754  1.00 20.00    -0.055 SA
ENDROOT
BRANCH   2   4
HETATM    4  C7  UNL     1     -33.736  17.569  -3.507  1.00 20.00     0.165 C 
BRANCH   4   5
HETATM    5  C6  UNL     1     -33.845  16.217  -2.802  1.00 20.00     0.067 C 
HETATM    6  C4  UNL     1     -35.309  15.844  -2.521  1.00 20.00     0.017 C 
HETATM    7  C2  UNL     1     -36.029  15.227  -3.717  1.00 20.00     0.002 C 
HETATM    8  C3  UNL     1     -35.465  13.864  -4.124  1.00 20.00     0.010 C 
HETATM    9  C5  UNL     1     -34.056  13.562  -3.625  1.00 20.00     0.074 C 
HETATM   10  S10 UNL     1     -32.943  14.980  -3.811  1.00 20.00    -0.163 SA
ENDBRANCH   4   5
ENDBRANCH   2   4
TORSDOF 2
ENDMDL
MODEL 9
REMARK VINA RESULT:      -3.5     12.258     13.232
REMARK  2 active torsions:
REMARK  status: ('A' for Active; 'I' for Inactive)
REMARK    1  A    between atoms: C6_6  and  C7_7 
REMARK    2  A    between atoms: C7_7  and  N8_8 
ROOT
HETATM    1  C1  UNL     1     -38.965  14.763  -4.162  1.00 20.00     0.157 C 
HETATM    2  N8  UNL     1     -38.052  14.390  -3.518  1.00 20.00    -0.274 NA
HETATM    3  S9  UNL     1     -40.212  15.263  -5.016  1.00 20.00    -0.055 SA
ENDROOT
BRANCH   2   4
HETATM    4  C7  UNL     1     -36.767  14.387  -4.208  1.00 20.00     0.165 C 
BRANCH   4   5
HETATM    5  C6  UNL     1     -36.021  15.674  -3.856  1.00 20.00     0.067 C 
HETATM    6  C4  UNL     1     -34.916  15.419  -2.819  1.00 20.00     0.017 C 
HETATM    7  C2  UNL     1     -33.619  14.883  -3.418  1.00 20.00     0.002 C 
HETATM    8  C3  UNL     1     -32.917  15.888  -4.335  1.00 20.00     0.010 C 
HETATM    9  C5  UNL     1     -33.796  17.014  -4.867  1.00 20.00     0.074 C 
HETATM   10  S10 UNL     1     -35.416  16.419  -5.419  1.00 20.00    -0.163 SA
ENDBRANCH   4   5
ENDBRANCH   2   4
TORSDOF 2
ENDMDL
