MODEL 1
REMARK VINA RESULT:      -4.8      0.000      0.000
REMARK  2 active torsions:
REMARK  status: ('A' for Active; 'I' for Inactive)
REMARK    1  A    between atoms: C1_1  and  C7_7 
REMARK    2  A    between atoms: C3_3  and  C7_7 
ROOT
HETATM    1  C2  UNL     1     -35.797   5.399   4.256  1.00 20.00     0.015 A 
HETATM    2  C3  UNL     1     -34.369   5.510   3.792  1.00 20.00     0.004 A 
HETATM    3  C4  UNL     1     -34.671   5.111   5.227  1.00 20.00    -0.043 A 
HETATM    4  C5  UNL     1     -34.419   3.676   5.609  1.00 20.00     0.015 C 
HETATM    5  C6  UNL     1     -34.437   6.091   6.347  1.00 20.00     0.015 C 
ENDROOT
BRANCH   2   6
HETATM    6  C7  UNL     1     -33.798   6.837   3.427  1.00 20.00     0.118 C 
BRANCH   6   7
HETATM    7  C1  UNL     1     -32.311   6.851   3.019  1.00 20.00     0.172 C 
HETATM    8  O8  UNL     1     -31.866   7.956   2.604  1.00 20.00    -0.648 OA
HETATM    9  O9  UNL     1     -31.711   5.745   3.153  1.00 20.00    -0.648 OA
ENDBRANCH   6   7
ENDBRANCH   2   6
TORSDOF 2
ENDMDL
MODEL 2
REMARK VINA RESULT:      -4.6      2.429      4.155
REMARK  2 active torsions:
REMARK  status: ('A' for Active; 'I' for Inactive)
REMARK    1  A    between atoms: C1_1  and  C7_7 
REMARK    2  A    between atoms: C3_3  and  C7_7 
ROOT
HETATM    1  C2  UNL     1     -32.233   5.834   2.916  1.00 20.00     0.015 A 
HETATM    2  C3  UNL     1     -33.396   6.577   3.520  1.00 20.00     0.004 A 
HETATM    3  C4  UNL     1     -32.124   7.326   3.156  1.00 20.00    -0.043 A 
HETATM    4  C5  UNL     1     -32.183   8.238   1.958  1.00 20.00     0.015 C 
HETATM    5  C6  UNL     1     -31.193   7.800   4.240  1.00 20.00     0.015 C 
ENDROOT
BRANCH   2   6
HETATM    6  C7  UNL     1     -33.803   6.318   4.929  1.00 20.00     0.118 C 
BRANCH   6   7
HETATM    7  C1  UNL     1     -34.757   5.127   5.157  1.00 20.00     0.172 C 
HETATM    8  O8  UNL     1     -34.519   4.420   6.174  1.00 20.00    -0.648 OA
HETATM    9  O9  UNL     1     -35.671   5.004   4.291  1.00 20.00    -0.648 OA
ENDBRANCH   6   7
ENDBRANCH   2   6
TORSDOF 2
ENDMDL
MODEL 3
REMARK VINA RESULT:      -4.3     11.578     12.413
REMARK  2 active torsions:
REMARK  status: ('A' for Active; 'I' for Inactive)
REMARK    1  A    between atoms: C1_1  and  C7_7 
REMARK    2  A    between atoms: C3_3  and  C7_7 
ROOT
HETATM    1  C2  UNL     1     -35.751  15.757  -2.964  1.00 20.00     0.015 A 
HETATM    2  C3  UNL     1     -34.489  14.958  -2.780  1.00 20.00     0.004 A 
HETATM    3  C4  UNL     1     -34.547  16.402  -2.312  1.00 20.00    -0.043 A 
HETATM    4  C5  UNL     1     -34.594  16.641  -0.825  1.00 20.00     0.015 C 
HETATM    5  C6  UNL     1     -33.818  17.474  -3.079  1.00 20.00     0.015 C 
ENDROOT
BRANCH   2   6
HETATM    6  C7  UNL     1     -33.693  14.526  -3.964  1.00 20.00     0.118 C 
BRANCH   6   7
HETATM    7  C1  UNL     1     -34.452  13.723  -5.040  1.00 20.00     0.172 C 
HETATM    8  O8  UNL     1     -34.862  12.584  -4.688  1.00 20.00    -0.648 OA
HETATM    9  O9  UNL     1     -34.574  14.310  -6.154  1.00 20.00    -0.648 OA
ENDBRANCH   6   7
ENDBRANCH   2   6
TORSDOF 2
ENDMDL
MODEL 4
REMARK VINA RESULT:      -3.9     11.816     12.732
REMARK  2 active torsions:
REMARK  status: ('A' for Active; 'I' for Inactive)
REMARK    1  A    between atoms: C1_1  and  C7_7 
REMARK    2  A    between atoms: C3_3  and  C7_7 
ROOT
HETATM    1  C2  UNL     1     -33.110  15.741  -3.311  1.00 20.00     0.015 A 
HETATM    2  C3  UNL     1     -34.465  15.977  -3.923  1.00 20.00     0.004 A 
HETATM    3  C4  UNL     1     -34.066  16.716  -2.657  1.00 20.00    -0.043 A 
HETATM    4  C5  UNL     1     -33.769  18.187  -2.784  1.00 20.00     0.015 C 
HETATM    5  C6  UNL     1     -34.674  16.328  -1.334  1.00 20.00     0.015 C 
ENDROOT
BRANCH   2   6
HETATM    6  C7  UNL     1     -35.485  14.890  -3.935  1.00 20.00     0.118 C 
BRANCH   6   7
HETATM    7  C1  UNL     1     -35.204  13.701  -4.877  1.00 20.00     0.172 C 
HETATM    8  O8  UNL     1     -35.163  13.974  -6.108  1.00 20.00    -0.648 OA
HETATM    9  O9  UNL     1     -35.045  12.588  -4.297  1.00 20.00    -0.648 OA
ENDBRANCH   6   7
ENDBRANCH   2   6
TORSDOF 2
ENDMDL
MODEL 5
REMARK VINA RESULT:      -3.9     11.920     13.678
REMARK  2 active torsions:
REMARK  status: ('A' for Active; 'I' for Inactive)
REMARK    1  A    between atoms: C1_1  and  C7_7 
REMARK    2  A    between atoms: C3_3  and  C7_7 
ROOT
HETATM    1  C2  UNL     1     -34.327  15.227  -6.621  1.00 20.00     0.015 A 
HETATM    2  C3  UNL     1     -35.262  15.416  -5.456  1.00 20.00     0.004 A 
HETATM    3  C4  UNL     1     -34.572  16.619  -6.078  1.00 20.00    -0.043 A 
HETATM    4  C5  UNL     1     -35.426  17.554  -6.895  1.00 20.00     0.015 C 
HETATM    5  C6  UNL     1     -33.444  17.301  -5.350  1.00 20.00     0.015 C 
ENDROOT
BRANCH   2   6
HETATM    6  C7  UNL     1     -34.901  14.888  -4.110  1.00 20.00     0.118 C 
BRANCH   6   7
HETATM    7  C1  UNL     1     -34.338  13.452  -4.068  1.00 20.00     0.172 C 
HETATM    8  O8  UNL     1     -35.139  12.538  -4.404  1.00 20.00    -0.648 OA
HETATM    9  O9  UNL     1     -33.130  13.365  -3.702  1.00 20.00    -0.648 OA
ENDBRANCH   6   7
ENDBRANCH   2   6
TORSDOF 2
ENDMDL
MODEL 6
REMARK VINA RESULT:      -3.9     11.146     12.561
REMARK  2 active torsions:
REMARK  status: ('A' for Active; 'I' for Inactive)
REMARK    1  A    between atoms: C1_1  and  C7_7 
REMARK    2  A    between atoms: C3_3  and  C7_7 
ROOT
HETATM    1  C2  UNL     1     -33.375  16.411  -3.905  1.00 20.00     0.015 A 
HETATM    2  C3  UNL     1     -34.732  15.763  -3.826  1.00 20.00     0.004 A 
HETATM    3  C4  UNL     1     -34.409  16.958  -2.943  1.00 20.00    -0.043 A 
HETATM    4  C5  UNL     1     -35.070  18.266  -3.288  1.00 20.00     0.015 C 
HETATM    5  C6  UNL     1     -34.173  16.763  -1.468  1.00 20.00     0.015 C 
ENDROOT
BRANCH   2   6
HETATM    6  C7  UNL     1     -34.876  14.380  -3.290  1.00 20.00     0.118 C 
BRANCH   6   7
HETATM    7  C1  UNL     1     -34.131  13.270  -4.059  1.00 20.00     0.172 C 
HETATM    8  O8  UNL     1     -32.918  13.110  -3.755  1.00 20.00    -0.648 OA
HETATM    9  O9  UNL     1     -34.833  12.646  -4.906  1.00 20.00    -0.648 OA
ENDBRANCH   6   7
ENDBRANCH   2   6
TORSDOF 2
ENDMDL
MODEL 7
REMARK VINA RESULT:      -3.9     11.346     13.133
REMARK  2 active torsions:
REMARK  status: ('A' for Active; 'I' for Inactive)
REMARK    1  A    between atoms: C1_1  and  C7_7 
REMARK    2  A    between atoms: C3_3  and  C7_7 
ROOT
HETATM    1  C2  UNL     1     -33.886  17.283  -3.081  1.00 20.00     0.015 A 
HETATM    2  C3  UNL     1     -33.714  15.927  -3.714  1.00 20.00     0.004 A 
HETATM    3  C4  UNL     1     -34.372  17.052  -4.497  1.00 20.00    -0.043 A 
HETATM    4  C5  UNL     1     -33.577  17.662  -5.622  1.00 20.00     0.015 C 
HETATM    5  C6  UNL     1     -35.858  17.034  -4.738  1.00 20.00     0.015 C 
ENDROOT
BRANCH   2   6
HETATM    6  C7  UNL     1     -34.474  14.754  -3.198  1.00 20.00     0.118 C 
BRANCH   6   7
HETATM    7  C1  UNL     1     -34.124  13.387  -3.819  1.00 20.00     0.172 C 
HETATM    8  O8  UNL     1     -32.911  13.047  -3.752  1.00 20.00    -0.648 OA
HETATM    9  O9  UNL     1     -35.103  12.765  -4.324  1.00 20.00    -0.648 OA
ENDBRANCH   6   7
ENDBRANCH   2   6
TORSDOF 2
ENDMDL
MODEL 8
REMARK VINA RESULT:      -3.8     11.641     12.350
REMARK  2 active torsions:
REMARK  status: ('A' for Active; 'I' for Inactive)
REMARK    1  A    between atoms: C1_1  and  C7_7 
REMARK    2  A    between atoms: C3_3  and  C7_7 
ROOT
HETATM    1  C2  UNL     1     -33.909  16.225  -3.919  1.00 20.00     0.015 A 
HETATM    2  C3  UNL     1     -33.982  15.803  -2.475  1.00 20.00     0.004 A 
HETATM    3  C4  UNL     1     -34.395  14.833  -3.570  1.00 20.00    -0.043 A 
HETATM    4  C5  UNL     1     -33.473  13.675  -3.845  1.00 20.00     0.015 C 
HETATM    5  C6  UNL     1     -35.852  14.519  -3.788  1.00 20.00     0.015 C 
ENDROOT
BRANCH   2   6
HETATM    6  C7  UNL     1     -34.963  16.443  -1.553  1.00 20.00     0.118 C 
BRANCH   6   7
HETATM    7  C1  UNL     1     -34.370  17.251  -0.380  1.00 20.00     0.172 C 
HETATM    8  O8  UNL     1     -33.271  17.825  -0.609  1.00 20.00    -0.648 OA
HETATM    9  O9  UNL     1     -35.065  17.242   0.677  1.00 20.00    -0.648 OA
ENDBRANCH   6   7
ENDBRANCH   2   6
TORSDOF 2
ENDMDL
MODEL 9
REMARK VINA RESULT:      -3.8     12.179     12.972
REMARK  2 active torsions:
REMARK  status: ('A' for Active; 'I' for Inactive)
REMARK    1  A    between atoms: C1_1  and  C7_7 
REMARK    2  A    between atoms: C3_3  and  C7_7 
ROOT
HETATM    1  C2  UNL     1     -34.082  16.282  -2.085  1.00 20.00     0.015 A 
HETATM    2  C3  UNL     1     -34.998  15.368  -2.856  1.00 20.00     0.004 A 
HETATM    3  C4  UNL     1     -33.673  15.802  -3.462  1.00 20.00    -0.043 A 
HETATM    4  C5  UNL     1     -32.586  14.764  -3.552  1.00 20.00     0.015 C 
HETATM    5  C6  UNL     1     -33.652  16.809  -4.582  1.00 20.00     0.015 C 
ENDROOT
BRANCH   2   6
HETATM    6  C7  UNL     1     -36.312  15.864  -3.351  1.00 20.00     0.118 C 
BRANCH   6   7
HETATM    7  C1  UNL     1     -37.106  14.902  -4.260  1.00 20.00     0.172 C 
HETATM    8  O8  UNL     1     -37.980  14.199  -3.684  1.00 20.00    -0.648 OA
HETATM    9  O9  UNL     1     -36.784  14.937  -5.483  1.00 20.00    -0.648 OA
ENDBRANCH   6   7
ENDBRANCH   2   6
TORSDOF 2
ENDMDL
