MODEL 1
REMARK VINA RESULT:      -4.2      0.000      0.000
REMARK  5 active torsions:
REMARK  status: ('A' for Active; 'I' for Inactive)
REMARK    1  A    between atoms: C3_3  and  C7_7 
REMARK    2  A    between atoms: C5_5  and  C6_6 
REMARK    3  A    between atoms: C5_5  and  C7_7 
REMARK    4  A    between atoms: C6_6  and  S9_9 
REMARK    5  A    between atoms: C7_7  and  O8_8 
ROOT
HETATM    1  C7  UNL     1     -34.118   6.155   3.934  1.00 20.00     0.122 C 
ENDROOT
BRANCH   1   2
HETATM    2  C3  UNL     1     -33.863   5.419   5.216  1.00 20.00     0.014 A 
HETATM    3  C1  UNL     1     -34.447   5.920   6.508  1.00 20.00     0.007 A 
HETATM    4  C2  UNL     1     -34.974   4.658   5.884  1.00 20.00     0.007 A 
ENDBRANCH   1   2
BRANCH   1   5
HETATM    5  C5  UNL     1     -32.890   6.219   3.014  1.00 20.00     0.042 C 
BRANCH   5   6
HETATM    6  C6  UNL     1     -32.088   7.519   3.054  1.00 20.00     0.076 C 
BRANCH   6   7
HETATM    7  S9  UNL     1     -31.878   8.280   1.418  1.00 20.00    -0.173 SA
HETATM    8  C4  UNL     1     -32.643   9.878   1.772  1.00 20.00     0.089 C 
ENDBRANCH   6   7
ENDBRANCH   5   6
ENDBRANCH   1   5
BRANCH   1   9
HETATM    9  O8  UNL     1     -35.171   5.495   3.226  1.00 20.00    -0.395 OA
HETATM   10  H23 UNL     1     -35.547   6.154   2.624  1.00 20.00     0.210 HD
ENDBRANCH   1   9
TORSDOF 5
ENDMDL
MODEL 2
REMARK VINA RESULT:      -4.1      1.111      1.124
REMARK  5 active torsions:
REMARK  status: ('A' for Active; 'I' for Inactive)
REMARK    1  A    between atoms: C3_3  and  C7_7 
REMARK    2  A    between atoms: C5_5  and  C6_6 
REMARK    3  A    between atoms: C5_5  and  C7_7 
REMARK    4  A    between atoms: C6_6  and  S9_9 
REMARK    5  A    between atoms: C7_7  and  O8_8 
ROOT
HETATM    1  C7  UNL     1     -34.595   5.953   3.988  1.00 20.00     0.122 C 
ENDROOT
BRANCH   1   2
HETATM    2  C3  UNL     1     -34.117   5.256   5.227  1.00 20.00     0.014 A 
HETATM    3  C1  UNL     1     -34.498   5.777   6.585  1.00 20.00     0.007 A 
HETATM    4  C2  UNL     1     -35.086   4.488   6.083  1.00 20.00     0.007 A 
ENDBRANCH   1   2
BRANCH   1   5
HETATM    5  C5  UNL     1     -33.659   5.767   2.784  1.00 20.00     0.042 C 
BRANCH   5   6
HETATM    6  C6  UNL     1     -32.168   5.964   3.057  1.00 20.00     0.076 C 
BRANCH   6   7
HETATM    7  S9  UNL     1     -31.728   7.693   3.401  1.00 20.00    -0.173 SA
HETATM    8  C4  UNL     1     -32.027   8.372   1.754  1.00 20.00     0.089 C 
ENDBRANCH   6   7
ENDBRANCH   5   6
ENDBRANCH   1   5
BRANCH   1   9
HETATM    9  O8  UNL     1     -35.882   5.435   3.635  1.00 20.00    -0.395 OA
HETATM   10  H23 UNL     1     -35.933   4.550   4.025  1.00 20.00     0.210 HD
ENDBRANCH   1   9
TORSDOF 5
ENDMDL
MODEL 3
REMARK VINA RESULT:      -3.8     11.390     11.984
REMARK  5 active torsions:
REMARK  status: ('A' for Active; 'I' for Inactive)
REMARK    1  A    between atoms: C3_3  and  C7_7 
REMARK    2  A    between atoms: C5_5  and  C6_6 
REMARK    3  A    between atoms: C5_5  and  C7_7 
REMARK    4  A    between atoms: C6_6  and  S9_9 
REMARK    5  A    between atoms: C7_7  and  O8_8 
ROOT
HETATM    1  C7  UNL     1     -33.175  15.349  -3.403  1.00 20.00     0.122 C 
ENDROOT
BRANCH   1   2
HETATM    2  C3  UNL     1     -33.970  16.479  -2.818  1.00 20.00     0.014 A 
HETATM    3  C1  UNL     1     -34.752  16.278  -1.550  1.00 20.00     0.007 A 
HETATM    4  C2  UNL     1     -33.520  17.138  -1.544  1.00 20.00     0.007 A 
ENDBRANCH   1   2
BRANCH   1   5
HETATM    5  C5  UNL     1     -34.023  14.109  -3.724  1.00 20.00     0.042 C 
BRANCH   5   6
HETATM    6  C6  UNL     1     -34.453  13.950  -5.182  1.00 20.00     0.076 C 
BRANCH   6   7
HETATM    7  S9  UNL     1     -35.972  14.864  -5.582  1.00 20.00    -0.173 SA
HETATM    8  C4  UNL     1     -36.896  14.511  -4.070  1.00 20.00     0.089 C 
ENDBRANCH   6   7
ENDBRANCH   5   6
ENDBRANCH   1   5
BRANCH   1   9
HETATM    9  O8  UNL     1     -32.564  15.797  -4.618  1.00 20.00    -0.395 OA
HETATM   10  H23 UNL     1     -32.602  16.764  -4.598  1.00 20.00     0.210 HD
ENDBRANCH   1   9
TORSDOF 5
ENDMDL
MODEL 4
REMARK VINA RESULT:      -3.8     11.149     12.256
REMARK  5 active torsions:
REMARK  status: ('A' for Active; 'I' for Inactive)
REMARK    1  A    between atoms: C3_3  and  C7_7 
REMARK    2  A    between atoms: C5_5  and  C6_6 
REMARK    3  A    between atoms: C5_5  and  C7_7 
REMARK    4  A    between atoms: C6_6  and  S9_9 
REMARK    5  A    between atoms: C7_7  and  O8_8 
ROOT
HETATM    1  C7  UNL     1     -35.037  13.911  -4.441  1.00 20.00     0.122 C 
ENDROOT
BRANCH   1   2
HETATM    2  C3  UNL     1     -34.873  14.016  -5.929  1.00 20.00     0.014 A 
HETATM    3  C1  UNL     1     -35.844  14.825  -6.743  1.00 20.00     0.007 A 
HETATM    4  C2  UNL     1     -34.434  15.312  -6.551  1.00 20.00     0.007 A 
ENDBRANCH   1   2
BRANCH   1   5
HETATM    5  C5  UNL     1     -36.274  14.651  -3.910  1.00 20.00     0.042 C 
BRANCH   5   6
HETATM    6  C6  UNL     1     -36.003  15.930  -3.120  1.00 20.00     0.076 C 
BRANCH   6   7
HETATM    7  S9  UNL     1     -34.284  16.066  -2.549  1.00 20.00    -0.173 SA
HETATM    8  C4  UNL     1     -34.611  16.636  -0.866  1.00 20.00     0.089 C 
ENDBRANCH   6   7
ENDBRANCH   5   6
ENDBRANCH   1   5
BRANCH   1   9
HETATM    9  O8  UNL     1     -35.159  12.529  -4.088  1.00 20.00    -0.395 OA
HETATM   10  H23 UNL     1     -36.087  12.392  -3.851  1.00 20.00     0.210 HD
ENDBRANCH   1   9
TORSDOF 5
ENDMDL
MODEL 5
REMARK VINA RESULT:      -3.8      1.746      2.107
REMARK  5 active torsions:
REMARK  status: ('A' for Active; 'I' for Inactive)
REMARK    1  A    between atoms: C3_3  and  C7_7 
REMARK    2  A    between atoms: C5_5  and  C6_6 
REMARK    3  A    between atoms: C5_5  and  C7_7 
REMARK    4  A    between atoms: C6_6  and  S9_9 
REMARK    5  A    between atoms: C7_7  and  O8_8 
ROOT
HETATM    1  C7  UNL     1     -33.778   6.186   5.744  1.00 20.00     0.122 C 
ENDROOT
BRANCH   1   2
HETATM    2  C3  UNL     1     -34.779   5.123   6.089  1.00 20.00     0.014 A 
HETATM    3  C1  UNL     1     -35.441   4.324   5.000  1.00 20.00     0.007 A 
HETATM    4  C2  UNL     1     -34.433   3.671   5.905  1.00 20.00     0.007 A 
ENDBRANCH   1   2
BRANCH   1   5
HETATM    5  C5  UNL     1     -33.947   6.746   4.324  1.00 20.00     0.042 C 
BRANCH   5   6
HETATM    6  C6  UNL     1     -32.868   6.354   3.315  1.00 20.00     0.076 C 
BRANCH   6   7
HETATM    7  S9  UNL     1     -31.519   7.565   3.206  1.00 20.00    -0.173 SA
HETATM    8  C4  UNL     1     -32.101   8.477   1.760  1.00 20.00     0.089 C 
ENDBRANCH   6   7
ENDBRANCH   5   6
ENDBRANCH   1   5
BRANCH   1   9
HETATM    9  O8  UNL     1     -33.920   7.269   6.670  1.00 20.00    -0.395 OA
HETATM   10  H23 UNL     1     -33.474   6.990   7.483  1.00 20.00     0.210 HD
ENDBRANCH   1   9
TORSDOF 5
ENDMDL
MODEL 6
REMARK VINA RESULT:      -3.8     11.199     12.147
REMARK  5 active torsions:
REMARK  status: ('A' for Active; 'I' for Inactive)
REMARK    1  A    between atoms: C3_3  and  C7_7 
REMARK    2  A    between atoms: C5_5  and  C6_6 
REMARK    3  A    between atoms: C5_5  and  C7_7 
REMARK    4  A    between atoms: C6_6  and  S9_9 
REMARK    5  A    between atoms: C7_7  and  O8_8 
ROOT
HETATM    1  C7  UNL     1     -33.268  15.040  -3.808  1.00 20.00     0.122 C 
ENDROOT
BRANCH   1   2
HETATM    2  C3  UNL     1     -34.162  13.840  -3.702  1.00 20.00     0.014 A 
HETATM    3  C1  UNL     1     -35.617  13.944  -4.064  1.00 20.00     0.007 A 
HETATM    4  C2  UNL     1     -34.677  13.169  -4.945  1.00 20.00     0.007 A 
ENDBRANCH   1   2
BRANCH   1   5
HETATM    5  C5  UNL     1     -33.582  16.128  -2.770  1.00 20.00     0.042 C 
BRANCH   5   6
HETATM    6  C6  UNL     1     -33.893  17.516  -3.327  1.00 20.00     0.076 C 
BRANCH   6   7
HETATM    7  S9  UNL     1     -33.676  17.630  -5.127  1.00 20.00    -0.173 SA
HETATM    8  C4  UNL     1     -35.411  17.493  -5.610  1.00 20.00     0.089 C 
ENDBRANCH   6   7
ENDBRANCH   5   6
ENDBRANCH   1   5
BRANCH   1   9
HETATM    9  O8  UNL     1     -31.912  14.622  -3.619  1.00 20.00    -0.395 OA
HETATM   10  H23 UNL     1     -31.758  14.630  -2.663  1.00 20.00     0.210 HD
ENDBRANCH   1   9
TORSDOF 5
ENDMDL
MODEL 7
REMARK VINA RESULT:      -3.7     11.122     12.207
REMARK  5 active torsions:
REMARK  status: ('A' for Active; 'I' for Inactive)
REMARK    1  A    between atoms: C3_3  and  C7_7 
REMARK    2  A    between atoms: C5_5  and  C6_6 
REMARK    3  A    between atoms: C5_5  and  C7_7 
REMARK    4  A    between atoms: C6_6  and  S9_9 
REMARK    5  A    between atoms: C7_7  and  O8_8 
ROOT
HETATM    1  C7  UNL     1     -35.209  13.916  -4.318  1.00 20.00     0.122 C 
ENDROOT
BRANCH   1   2
HETATM    2  C3  UNL     1     -34.221  14.429  -3.312  1.00 20.00     0.014 A 
HETATM    3  C1  UNL     1     -33.411  15.662  -3.605  1.00 20.00     0.007 A 
HETATM    4  C2  UNL     1     -34.497  15.705  -2.565  1.00 20.00     0.007 A 
ENDBRANCH   1   2
BRANCH   1   5
HETATM    5  C5  UNL     1     -34.783  14.167  -5.773  1.00 20.00     0.042 C 
BRANCH   5   6
HETATM    6  C6  UNL     1     -35.831  14.817  -6.675  1.00 20.00     0.076 C 
BRANCH   6   7
HETATM    7  S9  UNL     1     -37.089  15.749  -5.753  1.00 20.00    -0.173 SA
HETATM    8  C4  UNL     1     -36.191  17.307  -5.587  1.00 20.00     0.089 C 
ENDBRANCH   6   7
ENDBRANCH   5   6
ENDBRANCH   1   5
BRANCH   1   9
HETATM    9  O8  UNL     1     -35.360  12.504  -4.136  1.00 20.00    -0.395 OA
HETATM   10  H23 UNL     1     -36.302  12.315  -4.256  1.00 20.00     0.210 HD
ENDBRANCH   1   9
TORSDOF 5
ENDMDL
MODEL 8
REMARK VINA RESULT:      -3.6     10.943     11.658
REMARK  5 active torsions:
REMARK  status: ('A' for Active; 'I' for Inactive)
REMARK    1  A    between atoms: C3_3  and  C7_7 
REMARK    2  A    between atoms: C5_5  and  C6_6 
REMARK    3  A    between atoms: C5_5  and  C7_7 
REMARK    4  A    between atoms: C6_6  and  S9_9 
REMARK    5  A    between atoms: C7_7  and  O8_8 
ROOT
HETATM    1  C7  UNL     1     -35.128  16.372  -2.570  1.00 20.00     0.122 C 
ENDROOT
BRANCH   1   2
HETATM    2  C3  UNL     1     -34.554  16.410  -1.185  1.00 20.00     0.014 A 
HETATM    3  C1  UNL     1     -33.692  17.563  -0.752  1.00 20.00     0.007 A 
HETATM    4  C2  UNL     1     -35.072  17.399  -0.178  1.00 20.00     0.007 A 
ENDBRANCH   1   2
BRANCH   1   5
HETATM    5  C5  UNL     1     -34.194  15.722  -3.601  1.00 20.00     0.042 C 
BRANCH   5   6
HETATM    6  C6  UNL     1     -34.010  14.209  -3.479  1.00 20.00     0.076 C 
BRANCH   6   7
HETATM    7  S9  UNL     1     -34.746  13.287  -4.860  1.00 20.00    -0.173 SA
HETATM    8  C4  UNL     1     -34.639  14.576  -6.122  1.00 20.00     0.089 C 
ENDBRANCH   6   7
ENDBRANCH   5   6
ENDBRANCH   1   5
BRANCH   1   9
HETATM    9  O8  UNL     1     -36.349  15.626  -2.542  1.00 20.00    -0.395 OA
HETATM   10  H23 UNL     1     -36.398  15.220  -1.664  1.00 20.00     0.210 HD
ENDBRANCH   1   9
TORSDOF 5
ENDMDL
MODEL 9
REMARK VINA RESULT:      -3.6     11.293     11.918
REMARK  5 active torsions:
REMARK  status: ('A' for Active; 'I' for Inactive)
REMARK    1  A    between atoms: C3_3  and  C7_7 
REMARK    2  A    between atoms: C5_5  and  C6_6 
REMARK    3  A    between atoms: C5_5  and  C7_7 
REMARK    4  A    between atoms: C6_6  and  S9_9 
REMARK    5  A    between atoms: C7_7  and  O8_8 
ROOT
HETATM    1  C7  UNL     1     -35.580  15.090  -3.490  1.00 20.00     0.122 C 
ENDROOT
BRANCH   1   2
HETATM    2  C3  UNL     1     -34.476  15.441  -2.536  1.00 20.00     0.014 A 
HETATM    3  C1  UNL     1     -33.881  16.822  -2.540  1.00 20.00     0.007 A 
HETATM    4  C2  UNL     1     -34.739  16.376  -1.388  1.00 20.00     0.007 A 
ENDBRANCH   1   2
BRANCH   1   5
HETATM    5  C5  UNL     1     -35.451  13.677  -4.078  1.00 20.00     0.042 C 
BRANCH   5   6
HETATM    6  C6  UNL     1     -34.659  13.562  -5.380  1.00 20.00     0.076 C 
BRANCH   6   7
HETATM    7  S9  UNL     1     -35.394  14.505  -6.748  1.00 20.00    -0.173 SA
HETATM    8  C4  UNL     1     -34.170  15.832  -6.838  1.00 20.00     0.089 C 
ENDBRANCH   6   7
ENDBRANCH   5   6
ENDBRANCH   1   5
BRANCH   1   9
HETATM    9  O8  UNL     1     -36.830  15.172  -2.798  1.00 20.00    -0.395 OA
HETATM   10  H23 UNL     1     -37.516  14.991  -3.457  1.00 20.00     0.210 HD
ENDBRANCH   1   9
TORSDOF 5
ENDMDL
