MODEL 1
REMARK VINA RESULT:      -4.5      0.000      0.000
REMARK  2 active torsions:
REMARK  status: ('A' for Active; 'I' for Inactive)
REMARK    1  A    between atoms: C4_4  and  C8_8 
REMARK    2  A    between atoms: C5_5  and  C9_9 
ROOT
HETATM    1  C1  UNL     1     -36.081  15.800  -2.906  1.00 20.00     0.032 C 
HETATM    2  C2  UNL     1     -34.025  15.571  -4.314  1.00 20.00     0.043 C 
HETATM    3  C3  UNL     1     -36.766  14.820  -3.848  1.00 20.00     0.169 C 
HETATM    4  C4  UNL     1     -34.570  15.562  -2.880  1.00 20.00     0.004 C 
HETATM    5  C5  UNL     1     -34.806  14.626  -5.247  1.00 20.00     0.057 C 
HETATM    6  C6  UNL     1     -34.507  13.147  -4.958  1.00 20.00     0.046 C 
HETATM    7  O10 UNL     1     -36.215  14.887  -5.160  1.00 20.00    -0.381 OA
ENDROOT
BRANCH   5   8
HETATM    8  C9  UNL     1     -34.414  14.918  -6.702  1.00 20.00     0.033 C 
HETATM    9  C7  UNL     1     -35.470  14.463  -7.652  1.00 20.00     0.008 C 
ENDBRANCH   5   8
BRANCH   4  10
HETATM   10  C8  UNL     1     -33.865  16.610  -2.021  1.00 20.00     0.119 C 
HETATM   11 CL11 UNL     1     -34.657  16.735  -0.441  1.00 20.00    -0.130 Cl
ENDBRANCH   4  10
TORSDOF 2
ENDMDL
MODEL 2
REMARK VINA RESULT:      -4.3      1.498      2.845
REMARK  2 active torsions:
REMARK  status: ('A' for Active; 'I' for Inactive)
REMARK    1  A    between atoms: C4_4  and  C8_8 
REMARK    2  A    between atoms: C5_5  and  C9_9 
ROOT
HETATM    1  C1  UNL     1     -34.283  14.139  -3.383  1.00 20.00     0.032 C 
HETATM    2  C2  UNL     1     -36.147  15.795  -3.176  1.00 20.00     0.043 C 
HETATM    3  C3  UNL     1     -35.171  13.344  -4.331  1.00 20.00     0.169 C 
HETATM    4  C4  UNL     1     -34.643  15.626  -3.420  1.00 20.00     0.004 C 
HETATM    5  C5  UNL     1     -36.999  14.907  -4.103  1.00 20.00     0.057 C 
HETATM    6  C6  UNL     1     -37.002  15.415  -5.552  1.00 20.00     0.046 C 
HETATM    7  O10 UNL     1     -36.552  13.545  -4.042  1.00 20.00    -0.381 OA
ENDROOT
BRANCH   5   8
HETATM    8  C9  UNL     1     -38.449  14.896  -3.596  1.00 20.00     0.033 C 
HETATM    9  C7  UNL     1     -39.417  14.770  -4.722  1.00 20.00     0.008 C 
ENDBRANCH   5   8
BRANCH   4  10
HETATM   10  C8  UNL     1     -33.829  16.411  -2.394  1.00 20.00     0.119 C 
HETATM   11 CL11 UNL     1     -34.685  16.459  -0.844  1.00 20.00    -0.130 Cl
ENDBRANCH   4  10
TORSDOF 2
ENDMDL
MODEL 3
REMARK VINA RESULT:      -4.2      2.424      4.286
REMARK  2 active torsions:
REMARK  status: ('A' for Active; 'I' for Inactive)
REMARK    1  A    between atoms: C4_4  and  C8_8 
REMARK    2  A    between atoms: C5_5  and  C9_9 
ROOT
HETATM    1  C1  UNL     1     -34.708  13.658  -5.626  1.00 20.00     0.032 C 
HETATM    2  C2  UNL     1     -34.350  15.996  -4.809  1.00 20.00     0.043 C 
HETATM    3  C3  UNL     1     -35.134  13.290  -4.212  1.00 20.00     0.169 C 
HETATM    4  C4  UNL     1     -34.984  15.136  -5.909  1.00 20.00     0.004 C 
HETATM    5  C5  UNL     1     -34.746  15.530  -3.395  1.00 20.00     0.057 C 
HETATM    6  C6  UNL     1     -36.205  15.870  -3.059  1.00 20.00     0.046 C 
HETATM    7  O10 UNL     1     -34.503  14.124  -3.244  1.00 20.00    -0.381 OA
ENDROOT
BRANCH   5   8
HETATM    8  C9  UNL     1     -33.842  16.225  -2.366  1.00 20.00     0.033 C 
HETATM    9  C7  UNL     1     -34.588  16.540  -1.113  1.00 20.00     0.008 C 
ENDBRANCH   5   8
BRANCH   4  10
HETATM   10  C8  UNL     1     -34.461  15.536  -7.287  1.00 20.00     0.119 C 
HETATM   11 CL11 UNL     1     -34.514  17.297  -7.472  1.00 20.00    -0.130 Cl
ENDBRANCH   4  10
TORSDOF 2
ENDMDL
MODEL 4
REMARK VINA RESULT:      -4.2      2.654      4.522
REMARK  2 active torsions:
REMARK  status: ('A' for Active; 'I' for Inactive)
REMARK    1  A    between atoms: C4_4  and  C8_8 
REMARK    2  A    between atoms: C5_5  and  C9_9 
ROOT
HETATM    1  C1  UNL     1     -34.319  16.612  -6.640  1.00 20.00     0.032 C 
HETATM    2  C2  UNL     1     -35.044  14.849  -5.018  1.00 20.00     0.043 C 
HETATM    3  C3  UNL     1     -33.564  17.273  -5.496  1.00 20.00     0.169 C 
HETATM    4  C4  UNL     1     -34.446  15.105  -6.408  1.00 20.00     0.004 C 
HETATM    5  C5  UNL     1     -34.295  15.607  -3.906  1.00 20.00     0.057 C 
HETATM    6  C6  UNL     1     -32.916  14.998  -3.615  1.00 20.00     0.046 C 
HETATM    7  O10 UNL     1     -34.178  16.999  -4.239  1.00 20.00    -0.381 OA
ENDROOT
BRANCH   5   8
HETATM    8  C9  UNL     1     -35.125  15.554  -2.615  1.00 20.00     0.033 C 
HETATM    9  C7  UNL     1     -34.495  16.359  -1.530  1.00 20.00     0.008 C 
ENDBRANCH   5   8
BRANCH   4  10
HETATM   10  C8  UNL     1     -35.295  14.453  -7.497  1.00 20.00     0.119 C 
HETATM   11 CL11 UNL     1     -36.953  15.071  -7.431  1.00 20.00    -0.130 Cl
ENDBRANCH   4  10
TORSDOF 2
ENDMDL
MODEL 5
REMARK VINA RESULT:      -4.2      1.797      2.561
REMARK  2 active torsions:
REMARK  status: ('A' for Active; 'I' for Inactive)
REMARK    1  A    between atoms: C4_4  and  C8_8 
REMARK    2  A    between atoms: C5_5  and  C9_9 
ROOT
HETATM    1  C1  UNL     1     -34.507  17.833  -3.221  1.00 20.00     0.032 C 
HETATM    2  C2  UNL     1     -34.722  15.492  -2.362  1.00 20.00     0.043 C 
HETATM    3  C3  UNL     1     -35.255  17.383  -4.468  1.00 20.00     0.169 C 
HETATM    4  C4  UNL     1     -34.896  16.976  -2.015  1.00 20.00     0.004 C 
HETATM    5  C5  UNL     1     -35.427  15.107  -3.676  1.00 20.00     0.057 C 
HETATM    6  C6  UNL     1     -36.955  15.069  -3.525  1.00 20.00     0.046 C 
HETATM    7  O10 UNL     1     -35.042  15.999  -4.733  1.00 20.00    -0.381 OA
ENDROOT
BRANCH   5   8
HETATM    8  C9  UNL     1     -34.954  13.712  -4.111  1.00 20.00     0.033 C 
HETATM    9  C7  UNL     1     -33.495  13.532  -3.863  1.00 20.00     0.008 C 
ENDBRANCH   5   8
BRANCH   4  10
HETATM   10  C8  UNL     1     -34.071  17.352  -0.787  1.00 20.00     0.119 C 
HETATM   11 CL11 UNL     1     -35.079  17.289   0.668  1.00 20.00    -0.130 Cl
ENDBRANCH   4  10
TORSDOF 2
ENDMDL
MODEL 6
REMARK VINA RESULT:      -4.2     11.419     12.677
REMARK  2 active torsions:
REMARK  status: ('A' for Active; 'I' for Inactive)
REMARK    1  A    between atoms: C4_4  and  C8_8 
REMARK    2  A    between atoms: C5_5  and  C9_9 
ROOT
HETATM    1  C1  UNL     1     -41.044   4.231  -1.502  1.00 20.00     0.032 C 
HETATM    2  C2  UNL     1     -42.728   5.503  -2.848  1.00 20.00     0.043 C 
HETATM    3  C3  UNL     1     -40.700   5.539  -0.803  1.00 20.00     0.169 C 
HETATM    4  C4  UNL     1     -42.491   4.246  -2.001  1.00 20.00     0.004 C 
HETATM    5  C5  UNL     1     -42.286   6.791  -2.128  1.00 20.00     0.057 C 
HETATM    6  C6  UNL     1     -43.236   7.173  -0.984  1.00 20.00     0.046 C 
HETATM    7  O10 UNL     1     -40.939   6.661  -1.649  1.00 20.00    -0.381 OA
ENDROOT
BRANCH   5   8
HETATM    8  C9  UNL     1     -42.262   7.948  -3.138  1.00 20.00     0.033 C 
HETATM    9  C7  UNL     1     -43.230   7.721  -4.248  1.00 20.00     0.008 C 
ENDBRANCH   5   8
BRANCH   4  10
HETATM   10  C8  UNL     1     -42.809   2.982  -2.796  1.00 20.00     0.119 C 
HETATM   11 CL11 UNL     1     -41.322   2.299  -3.476  1.00 20.00    -0.130 Cl
ENDBRANCH   4  10
TORSDOF 2
ENDMDL
MODEL 7
REMARK VINA RESULT:      -4.1      1.295      2.147
REMARK  2 active torsions:
REMARK  status: ('A' for Active; 'I' for Inactive)
REMARK    1  A    between atoms: C4_4  and  C8_8 
REMARK    2  A    between atoms: C5_5  and  C9_9 
ROOT
HETATM    1  C1  UNL     1     -33.973  14.225  -3.519  1.00 20.00     0.032 C 
HETATM    2  C2  UNL     1     -35.091  16.016  -4.862  1.00 20.00     0.043 C 
HETATM    3  C3  UNL     1     -34.250  13.268  -4.669  1.00 20.00     0.169 C 
HETATM    4  C4  UNL     1     -33.855  15.664  -4.025  1.00 20.00     0.004 C 
HETATM    5  C5  UNL     1     -35.377  14.972  -5.959  1.00 20.00     0.057 C 
HETATM    6  C6  UNL     1     -34.363  15.046  -7.110  1.00 20.00     0.046 C 
HETATM    7  O10 UNL     1     -35.414  13.651  -5.397  1.00 20.00    -0.381 OA
ENDROOT
BRANCH   5   8
HETATM    8  C9  UNL     1     -36.778  15.221  -6.537  1.00 20.00     0.033 C 
HETATM    9  C7  UNL     1     -37.772  15.485  -5.458  1.00 20.00     0.008 C 
ENDBRANCH   5   8
BRANCH   4  10
HETATM   10  C8  UNL     1     -33.684  16.641  -2.864  1.00 20.00     0.119 C 
HETATM   11 CL11 UNL     1     -34.690  16.143  -1.494  1.00 20.00    -0.130 Cl
ENDBRANCH   4  10
TORSDOF 2
ENDMDL
MODEL 8
REMARK VINA RESULT:      -4.1      2.507      4.058
REMARK  2 active torsions:
REMARK  status: ('A' for Active; 'I' for Inactive)
REMARK    1  A    between atoms: C4_4  and  C8_8 
REMARK    2  A    between atoms: C5_5  and  C9_9 
ROOT
HETATM    1  C1  UNL     1     -36.655  15.340  -5.660  1.00 20.00     0.032 C 
HETATM    2  C2  UNL     1     -36.091  15.203  -3.226  1.00 20.00     0.043 C 
HETATM    3  C3  UNL     1     -35.163  15.256  -5.952  1.00 20.00     0.169 C 
HETATM    4  C4  UNL     1     -36.990  14.648  -4.338  1.00 20.00     0.004 C 
HETATM    5  C5  UNL     1     -34.599  15.172  -3.604  1.00 20.00     0.057 C 
HETATM    6  C6  UNL     1     -34.026  13.748  -3.593  1.00 20.00     0.046 C 
HETATM    7  O10 UNL     1     -34.392  15.794  -4.881  1.00 20.00    -0.381 OA
ENDROOT
BRANCH   5   8
HETATM    8  C9  UNL     1     -33.806  16.016  -2.594  1.00 20.00     0.033 C 
HETATM    9  C7  UNL     1     -34.643  16.379  -1.415  1.00 20.00     0.008 C 
ENDBRANCH   5   8
BRANCH   4  10
HETATM   10  C8  UNL     1     -38.466  14.822  -3.987  1.00 20.00     0.119 C 
HETATM   11 CL11 UNL     1     -39.446  14.833  -5.463  1.00 20.00    -0.130 Cl
ENDBRANCH   4  10
TORSDOF 2
ENDMDL
MODEL 9
REMARK VINA RESULT:      -4.0      1.125      1.365
REMARK  2 active torsions:
REMARK  status: ('A' for Active; 'I' for Inactive)
REMARK    1  A    between atoms: C4_4  and  C8_8 
REMARK    2  A    between atoms: C5_5  and  C9_9 
ROOT
HETATM    1  C1  UNL     1     -36.055  16.945  -2.280  1.00 20.00     0.032 C 
HETATM    2  C2  UNL     1     -33.843  16.057  -3.042  1.00 20.00     0.043 C 
HETATM    3  C3  UNL     1     -36.701  16.133  -3.395  1.00 20.00     0.169 C 
HETATM    4  C4  UNL     1     -34.745  16.298  -1.825  1.00 20.00     0.004 C 
HETATM    5  C5  UNL     1     -34.569  15.306  -4.175  1.00 20.00     0.057 C 
HETATM    6  C6  UNL     1     -34.799  13.826  -3.836  1.00 20.00     0.046 C 
HETATM    7  O10 UNL     1     -35.809  15.955  -4.492  1.00 20.00    -0.381 OA
ENDROOT
BRANCH   5   8
HETATM    8  C9  UNL     1     -33.719  15.379  -5.452  1.00 20.00     0.033 C 
HETATM    9  C7  UNL     1     -34.505  14.975  -6.652  1.00 20.00     0.008 C 
ENDBRANCH   5   8
BRANCH   4  10
HETATM   10  C8  UNL     1     -34.040  17.164  -0.783  1.00 20.00     0.119 C 
HETATM   11 CL11 UNL     1     -35.065  17.348   0.650  1.00 20.00    -0.130 Cl
ENDBRANCH   4  10
TORSDOF 2
ENDMDL
