MODEL 1
REMARK VINA RESULT:      -4.9      0.000      0.000
REMARK  2 active torsions:
REMARK  status: ('A' for Active; 'I' for Inactive)
REMARK    1  A    between atoms: C4_4  and  C7_7 
REMARK    2  A    between atoms: C5_5  and  C8_8 
ROOT
HETATM    1  C1  UNL     1     -34.627   5.455   3.524  1.00 20.00     0.005 C 
HETATM    2  C2  UNL     1     -33.560   5.609   2.435  1.00 20.00     0.006 C 
HETATM    3  C3  UNL     1     -32.632   6.396   4.505  1.00 20.00     0.010 C 
HETATM    4  C4  UNL     1     -34.138   6.267   4.727  1.00 20.00    -0.014 C 
HETATM    5  C5  UNL     1     -32.497   6.558   2.992  1.00 20.00    -0.000 C 
ENDROOT
BRANCH   4   6
HETATM    6  C7  UNL     1     -34.490   5.631   6.062  1.00 20.00     0.000 C 
HETATM    7  C6  UNL     1     -34.947   4.215   5.904  1.00 20.00     0.005 C 
ENDBRANCH   4   6
BRANCH   5   8
HETATM    8  C8  UNL     1     -32.728   7.999   2.535  1.00 20.00     0.119 C 
HETATM    9 CL9  UNL     1     -31.696   8.377   1.143  1.00 20.00    -0.130 Cl
ENDBRANCH   5   8
TORSDOF 2
ENDMDL
MODEL 2
REMARK VINA RESULT:      -4.8      2.436      4.004
REMARK  2 active torsions:
REMARK  status: ('A' for Active; 'I' for Inactive)
REMARK    1  A    between atoms: C4_4  and  C7_7 
REMARK    2  A    between atoms: C5_5  and  C8_8 
ROOT
HETATM    1  C1  UNL     1     -32.959   5.492   2.466  1.00 20.00     0.005 C 
HETATM    2  C2  UNL     1     -34.423   5.048   2.556  1.00 20.00     0.006 C 
HETATM    3  C3  UNL     1     -34.081   6.821   4.140  1.00 20.00     0.010 C 
HETATM    4  C4  UNL     1     -32.693   6.360   3.699  1.00 20.00    -0.014 C 
HETATM    5  C5  UNL     1     -34.972   5.609   3.870  1.00 20.00    -0.000 C 
ENDROOT
BRANCH   4   6
HETATM    6  C7  UNL     1     -31.743   7.515   3.425  1.00 20.00     0.000 C 
HETATM    7  C6  UNL     1     -32.034   8.180   2.117  1.00 20.00     0.005 C 
ENDBRANCH   4   6
BRANCH   5   8
HETATM    8  C8  UNL     1     -34.913   4.577   4.996  1.00 20.00     0.119 C 
HETATM    9 CL9  UNL     1     -34.623   5.378   6.552  1.00 20.00    -0.130 Cl
ENDBRANCH   5   8
TORSDOF 2
ENDMDL
MODEL 3
REMARK VINA RESULT:      -4.1     11.393     12.040
REMARK  2 active torsions:
REMARK  status: ('A' for Active; 'I' for Inactive)
REMARK    1  A    between atoms: C4_4  and  C7_7 
REMARK    2  A    between atoms: C5_5  and  C8_8 
ROOT
HETATM    1  C1  UNL     1     -33.517  15.971  -2.851  1.00 20.00     0.005 C 
HETATM    2  C2  UNL     1     -34.023  15.798  -4.287  1.00 20.00     0.006 C 
HETATM    3  C3  UNL     1     -35.918  16.223  -2.873  1.00 20.00     0.010 C 
HETATM    4  C4  UNL     1     -34.749  15.896  -1.945  1.00 20.00    -0.014 C 
HETATM    5  C5  UNL     1     -35.532  15.560  -4.195  1.00 20.00    -0.000 C 
ENDROOT
BRANCH   4   6
HETATM    6  C7  UNL     1     -34.667  16.823  -0.743  1.00 20.00     0.000 C 
HETATM    7  C6  UNL     1     -33.507  17.764  -0.841  1.00 20.00     0.005 C 
ENDBRANCH   4   6
BRANCH   5   8
HETATM    8  C8  UNL     1     -35.875  14.070  -4.223  1.00 20.00     0.119 C 
HETATM    9 CL9  UNL     1     -34.504  13.134  -4.850  1.00 20.00    -0.130 Cl
ENDBRANCH   5   8
TORSDOF 2
ENDMDL
MODEL 4
REMARK VINA RESULT:      -4.1     11.596     12.074
REMARK  2 active torsions:
REMARK  status: ('A' for Active; 'I' for Inactive)
REMARK    1  A    between atoms: C4_4  and  C7_7 
REMARK    2  A    between atoms: C5_5  and  C8_8 
ROOT
HETATM    1  C1  UNL     1     -35.602  15.368  -3.057  1.00 20.00     0.005 C 
HETATM    2  C2  UNL     1     -35.576  14.126  -3.954  1.00 20.00     0.006 C 
HETATM    3  C3  UNL     1     -33.335  14.974  -3.789  1.00 20.00     0.010 C 
HETATM    4  C4  UNL     1     -34.254  16.069  -3.250  1.00 20.00    -0.014 C 
HETATM    5  C5  UNL     1     -34.243  14.153  -4.704  1.00 20.00    -0.000 C 
ENDROOT
BRANCH   4   6
HETATM    6  C7  UNL     1     -33.727  16.714  -1.978  1.00 20.00     0.000 C 
HETATM    7  C6  UNL     1     -34.695  16.587  -0.844  1.00 20.00     0.005 C 
ENDBRANCH   4   6
BRANCH   5   8
HETATM    8  C8  UNL     1     -34.386  14.773  -6.094  1.00 20.00     0.119 C 
HETATM    9 CL9  UNL     1     -36.082  14.733  -6.615  1.00 20.00    -0.130 Cl
ENDBRANCH   5   8
TORSDOF 2
ENDMDL
MODEL 5
REMARK VINA RESULT:      -4.0     11.383     12.962
REMARK  2 active torsions:
REMARK  status: ('A' for Active; 'I' for Inactive)
REMARK    1  A    between atoms: C4_4  and  C7_7 
REMARK    2  A    between atoms: C5_5  and  C8_8 
ROOT
HETATM    1  C1  UNL     1     -33.250  16.195  -5.179  1.00 20.00     0.005 C 
HETATM    2  C2  UNL     1     -33.029  15.676  -3.754  1.00 20.00     0.006 C 
HETATM    3  C3  UNL     1     -34.577  14.205  -4.853  1.00 20.00     0.010 C 
HETATM    4  C4  UNL     1     -34.476  15.456  -5.723  1.00 20.00    -0.014 C 
HETATM    5  C5  UNL     1     -34.164  14.691  -3.464  1.00 20.00    -0.000 C 
ENDROOT
BRANCH   4   6
HETATM    6  C7  UNL     1     -34.374  15.141  -7.207  1.00 20.00     0.000 C 
HETATM    7  C6  UNL     1     -35.588  14.426  -7.712  1.00 20.00     0.005 C 
ENDBRANCH   4   6
BRANCH   5   8
HETATM    8  C8  UNL     1     -35.315  15.357  -2.711  1.00 20.00     0.119 C 
HETATM    9 CL9  UNL     1     -34.695  16.283  -1.331  1.00 20.00    -0.130 Cl
ENDBRANCH   5   8
TORSDOF 2
ENDMDL
MODEL 6
REMARK VINA RESULT:      -3.7     11.636     12.469
REMARK  2 active torsions:
REMARK  status: ('A' for Active; 'I' for Inactive)
REMARK    1  A    between atoms: C4_4  and  C7_7 
REMARK    2  A    between atoms: C5_5  and  C8_8 
ROOT
HETATM    1  C1  UNL     1     -34.171  18.540  -2.142  1.00 20.00     0.005 C 
HETATM    2  C2  UNL     1     -34.827  17.686  -3.232  1.00 20.00     0.006 C 
HETATM    3  C3  UNL     1     -34.621  16.342  -1.252  1.00 20.00     0.010 C 
HETATM    4  C4  UNL     1     -33.747  17.574  -1.031  1.00 20.00    -0.014 C 
HETATM    5  C5  UNL     1     -34.720  16.230  -2.773  1.00 20.00    -0.000 C 
ENDROOT
BRANCH   4   6
HETATM    6  C7  UNL     1     -33.892  18.164   0.362  1.00 20.00     0.000 C 
HETATM    7  C6  UNL     1     -35.099  17.635   1.071  1.00 20.00     0.005 C 
ENDBRANCH   4   6
BRANCH   5   8
HETATM    8  C8  UNL     1     -33.508  15.529  -3.387  1.00 20.00     0.119 C 
HETATM    9 CL9  UNL     1     -33.050  16.311  -4.912  1.00 20.00    -0.130 Cl
ENDBRANCH   5   8
TORSDOF 2
ENDMDL
MODEL 7
REMARK VINA RESULT:      -3.7     11.720     12.715
REMARK  2 active torsions:
REMARK  status: ('A' for Active; 'I' for Inactive)
REMARK    1  A    between atoms: C4_4  and  C7_7 
REMARK    2  A    between atoms: C5_5  and  C8_8 
ROOT
HETATM    1  C1  UNL     1     -34.657  16.900  -0.284  1.00 20.00     0.005 C 
HETATM    2  C2  UNL     1     -34.479  18.236   0.445  1.00 20.00     0.006 C 
HETATM    3  C3  UNL     1     -33.558  18.462  -1.762  1.00 20.00     0.010 C 
HETATM    4  C4  UNL     1     -33.771  16.967  -1.531  1.00 20.00    -0.014 C 
HETATM    5  C5  UNL     1     -33.446  19.037  -0.350  1.00 20.00    -0.000 C 
ENDROOT
BRANCH   4   6
HETATM    6  C7  UNL     1     -34.377  16.261  -2.733  1.00 20.00     0.000 C 
HETATM    7  C6  UNL     1     -33.392  15.356  -3.406  1.00 20.00     0.005 C 
ENDBRANCH   4   6
BRANCH   5   8
HETATM    8  C8  UNL     1     -32.040  18.886   0.232  1.00 20.00     0.119 C 
HETATM    9 CL9  UNL     1     -32.109  18.834   2.004  1.00 20.00    -0.130 Cl
ENDBRANCH   5   8
TORSDOF 2
ENDMDL
MODEL 8
REMARK VINA RESULT:      -3.7      9.688     10.936
REMARK  2 active torsions:
REMARK  status: ('A' for Active; 'I' for Inactive)
REMARK    1  A    between atoms: C4_4  and  C7_7 
REMARK    2  A    between atoms: C5_5  and  C8_8 
ROOT
HETATM    1  C1  UNL     1     -41.681   7.322  -1.359  1.00 20.00     0.005 C 
HETATM    2  C2  UNL     1     -40.756   6.462  -0.491  1.00 20.00     0.006 C 
HETATM    3  C3  UNL     1     -41.895   5.014  -2.032  1.00 20.00     0.010 C 
HETATM    4  C4  UNL     1     -42.626   6.354  -2.075  1.00 20.00    -0.014 C 
HETATM    5  C5  UNL     1     -41.215   5.012  -0.663  1.00 20.00    -0.000 C 
ENDROOT
BRANCH   4   6
HETATM    6  C7  UNL     1     -42.976   6.794  -3.488  1.00 20.00     0.000 C 
HETATM    7  C6  UNL     1     -42.404   8.138  -3.813  1.00 20.00     0.005 C 
ENDBRANCH   4   6
BRANCH   5   8
HETATM    8  C8  UNL     1     -42.159   4.579   0.458  1.00 20.00     0.119 C 
HETATM    9 CL9  UNL     1     -43.396   3.473  -0.170  1.00 20.00    -0.130 Cl
ENDBRANCH   5   8
TORSDOF 2
ENDMDL
MODEL 9
REMARK VINA RESULT:      -3.7     11.331     12.305
REMARK  2 active torsions:
REMARK  status: ('A' for Active; 'I' for Inactive)
REMARK    1  A    between atoms: C4_4  and  C7_7 
REMARK    2  A    between atoms: C5_5  and  C8_8 
ROOT
HETATM    1  C1  UNL     1     -34.925  16.288  -4.814  1.00 20.00     0.005 C 
HETATM    2  C2  UNL     1     -33.799  17.133  -4.208  1.00 20.00     0.006 C 
HETATM    3  C3  UNL     1     -34.237  15.296  -2.723  1.00 20.00     0.010 C 
HETATM    4  C4  UNL     1     -35.406  15.349  -3.705  1.00 20.00    -0.014 C 
HETATM    5  C5  UNL     1     -33.682  16.721  -2.739  1.00 20.00    -0.000 C 
ENDROOT
BRANCH   4   6
HETATM    6  C7  UNL     1     -35.814  13.977  -4.217  1.00 20.00     0.000 C 
HETATM    7  C6  UNL     1     -34.654  13.229  -4.797  1.00 20.00     0.005 C 
ENDBRANCH   4   6
BRANCH   5   8
HETATM    8  C8  UNL     1     -34.462  17.662  -1.822  1.00 20.00     0.119 C 
HETATM    9 CL9  UNL     1     -34.771  16.884  -0.257  1.00 20.00    -0.130 Cl
ENDBRANCH   5   8
TORSDOF 2
ENDMDL
