MODEL 1
REMARK VINA RESULT:      -3.8      0.000      0.000
REMARK  4 active torsions:
REMARK  status: ('A' for Active; 'I' for Inactive)
REMARK    1  A    between atoms: C5_5  and  C7_7 
REMARK    2  A    between atoms: C5_5  and  C8_8 
REMARK    3  A    between atoms: C6_6  and  C7_7 
REMARK    4  A    between atoms: C8_8  and  O9_9 
ROOT
HETATM    1  C5  UNL     1     -35.986  15.828  -3.122  1.00 20.00     0.042 C 
ENDROOT
BRANCH   1   2
HETATM    2  C7  UNL     1     -34.590  16.011  -2.476  1.00 20.00    -0.002 C 
HETATM    3  C1  UNL     1     -33.737  16.927  -3.366  1.00 20.00     0.011 C 
BRANCH   2   4
HETATM    4  C6  UNL     1     -34.590  16.510  -1.024  1.00 20.00     0.119 C 
HETATM    5 CL10 UNL     1     -33.383  17.779  -0.704  1.00 20.00    -0.130 Cl
ENDBRANCH   2   4
ENDBRANCH   1   2
BRANCH   1   6
HETATM    6  C8  UNL     1     -36.175  14.636  -4.089  1.00 20.00     0.053 C 
HETATM    7  C2  UNL     1     -36.228  15.153  -5.533  1.00 20.00     0.045 C 
HETATM    8  C3  UNL     1     -35.067  13.591  -3.962  1.00 20.00     0.045 C 
BRANCH   6   9
HETATM    9  O9  UNL     1     -37.418  13.982  -3.833  1.00 20.00    -0.386 OA
HETATM   10  C4  UNL     1     -38.496  14.903  -3.831  1.00 20.00     0.202 C 
ENDBRANCH   6   9
ENDBRANCH   1   6
TORSDOF 4
ENDMDL
MODEL 2
REMARK VINA RESULT:      -3.8      1.953      3.466
REMARK  4 active torsions:
REMARK  status: ('A' for Active; 'I' for Inactive)
REMARK    1  A    between atoms: C5_5  and  C7_7 
REMARK    2  A    between atoms: C5_5  and  C8_8 
REMARK    3  A    between atoms: C6_6  and  C7_7 
REMARK    4  A    between atoms: C8_8  and  O9_9 
ROOT
HETATM    1  C5  UNL     1     -36.207  15.218  -5.498  1.00 20.00     0.042 C 
ENDROOT
BRANCH   1   2
HETATM    2  C7  UNL     1     -35.068  14.930  -6.508  1.00 20.00    -0.002 C 
HETATM    3  C1  UNL     1     -35.678  14.484  -7.845  1.00 20.00     0.011 C 
BRANCH   2   4
HETATM    4  C6  UNL     1     -34.064  16.071  -6.722  1.00 20.00     0.119 C 
HETATM    5 CL10 UNL     1     -33.154  16.509  -5.255  1.00 20.00    -0.130 Cl
ENDBRANCH   2   4
ENDBRANCH   1   2
BRANCH   1   6
HETATM    6  C8  UNL     1     -36.129  14.530  -4.116  1.00 20.00     0.053 C 
HETATM    7  C2  UNL     1     -35.127  13.369  -4.178  1.00 20.00     0.045 C 
HETATM    8  C3  UNL     1     -35.725  15.493  -3.000  1.00 20.00     0.045 C 
BRANCH   6   9
HETATM    9  O9  UNL     1     -37.396  13.971  -3.768  1.00 20.00    -0.386 OA
HETATM   10  C4  UNL     1     -38.457  14.851  -4.099  1.00 20.00     0.202 C 
ENDBRANCH   6   9
ENDBRANCH   1   6
TORSDOF 4
ENDMDL
MODEL 3
REMARK VINA RESULT:      -3.8      1.954      2.410
REMARK  4 active torsions:
REMARK  status: ('A' for Active; 'I' for Inactive)
REMARK    1  A    between atoms: C5_5  and  C7_7 
REMARK    2  A    between atoms: C5_5  and  C8_8 
REMARK    3  A    between atoms: C6_6  and  C7_7 
REMARK    4  A    between atoms: C8_8  and  O9_9 
ROOT
HETATM    1  C5  UNL     1     -34.942  15.485  -3.040  1.00 20.00     0.042 C 
ENDROOT
BRANCH   1   2
HETATM    2  C7  UNL     1     -34.055  16.416  -2.177  1.00 20.00    -0.002 C 
HETATM    3  C1  UNL     1     -33.816  17.731  -2.934  1.00 20.00     0.011 C 
BRANCH   2   4
HETATM    4  C6  UNL     1     -34.564  16.692  -0.755  1.00 20.00     0.119 C 
HETATM    5 CL10 UNL     1     -33.704  18.015   0.069  1.00 20.00    -0.130 Cl
ENDBRANCH   2   4
ENDBRANCH   1   2
BRANCH   1   6
HETATM    6  C8  UNL     1     -34.233  14.558  -4.053  1.00 20.00     0.053 C 
HETATM    7  C2  UNL     1     -32.814  14.247  -3.557  1.00 20.00     0.045 C 
HETATM    8  C3  UNL     1     -34.989  13.250  -4.286  1.00 20.00     0.045 C 
BRANCH   6   9
HETATM    9  O9  UNL     1     -34.101  15.211  -5.316  1.00 20.00    -0.386 OA
HETATM   10  C4  UNL     1     -34.860  14.554  -6.319  1.00 20.00     0.202 C 
ENDBRANCH   6   9
ENDBRANCH   1   6
TORSDOF 4
ENDMDL
MODEL 4
REMARK VINA RESULT:      -3.7      2.284      3.233
REMARK  4 active torsions:
REMARK  status: ('A' for Active; 'I' for Inactive)
REMARK    1  A    between atoms: C5_5  and  C7_7 
REMARK    2  A    between atoms: C5_5  and  C8_8 
REMARK    3  A    between atoms: C6_6  and  C7_7 
REMARK    4  A    between atoms: C8_8  and  O9_9 
ROOT
HETATM    1  C5  UNL     1     -33.930  15.961  -2.767  1.00 20.00     0.042 C 
ENDROOT
BRANCH   1   2
HETATM    2  C7  UNL     1     -35.054  16.687  -1.987  1.00 20.00    -0.002 C 
HETATM    3  C1  UNL     1     -34.668  16.769  -0.502  1.00 20.00     0.011 C 
BRANCH   2   4
HETATM    4  C6  UNL     1     -35.450  18.071  -2.523  1.00 20.00     0.119 C 
HETATM    5 CL10 UNL     1     -36.490  18.008  -3.966  1.00 20.00    -0.130 Cl
ENDBRANCH   2   4
ENDBRANCH   1   2
BRANCH   1   6
HETATM    6  C8  UNL     1     -34.354  14.944  -3.851  1.00 20.00     0.053 C 
HETATM    7  C2  UNL     1     -33.435  13.716  -3.787  1.00 20.00     0.045 C 
HETATM    8  C3  UNL     1     -35.809  14.500  -3.705  1.00 20.00     0.045 C 
BRANCH   6   9
HETATM    9  O9  UNL     1     -34.203  15.513  -5.152  1.00 20.00    -0.386 OA
HETATM   10  C4  UNL     1     -33.233  16.548  -5.153  1.00 20.00     0.202 C 
ENDBRANCH   6   9
ENDBRANCH   1   6
TORSDOF 4
ENDMDL
MODEL 5
REMARK VINA RESULT:      -3.7      1.874      2.281
REMARK  4 active torsions:
REMARK  status: ('A' for Active; 'I' for Inactive)
REMARK    1  A    between atoms: C5_5  and  C7_7 
REMARK    2  A    between atoms: C5_5  and  C8_8 
REMARK    3  A    between atoms: C6_6  and  C7_7 
REMARK    4  A    between atoms: C8_8  and  O9_9 
ROOT
HETATM    1  C5  UNL     1     -35.557  15.015  -2.963  1.00 20.00     0.042 C 
ENDROOT
BRANCH   1   2
HETATM    2  C7  UNL     1     -34.356  15.990  -3.049  1.00 20.00    -0.002 C 
HETATM    3  C1  UNL     1     -34.123  16.629  -1.672  1.00 20.00     0.011 C 
BRANCH   2   4
HETATM    4  C6  UNL     1     -33.053  15.394  -3.599  1.00 20.00     0.119 C 
HETATM    5 CL10 UNL     1     -33.067  13.616  -3.705  1.00 20.00    -0.130 Cl
ENDBRANCH   2   4
ENDBRANCH   1   2
BRANCH   1   6
HETATM    6  C8  UNL     1     -36.652  15.131  -4.047  1.00 20.00     0.053 C 
HETATM    7  C2  UNL     1     -37.248  16.545  -4.023  1.00 20.00     0.045 C 
HETATM    8  C3  UNL     1     -36.129  14.822  -5.450  1.00 20.00     0.045 C 
BRANCH   6   9
HETATM    9  O9  UNL     1     -37.720  14.223  -3.774  1.00 20.00    -0.386 OA
HETATM   10  C4  UNL     1     -38.982  14.855  -3.911  1.00 20.00     0.202 C 
ENDBRANCH   6   9
ENDBRANCH   1   6
TORSDOF 4
ENDMDL
MODEL 6
REMARK VINA RESULT:      -3.7     11.449     12.393
REMARK  4 active torsions:
REMARK  status: ('A' for Active; 'I' for Inactive)
REMARK    1  A    between atoms: C5_5  and  C7_7 
REMARK    2  A    between atoms: C5_5  and  C8_8 
REMARK    3  A    between atoms: C6_6  and  C7_7 
REMARK    4  A    between atoms: C8_8  and  O9_9 
ROOT
HETATM    1  C5  UNL     1     -33.904   6.863   4.312  1.00 20.00     0.042 C 
ENDROOT
BRANCH   1   2
HETATM    2  C7  UNL     1     -33.724   6.190   5.696  1.00 20.00    -0.002 C 
HETATM    3  C1  UNL     1     -33.659   7.274   6.782  1.00 20.00     0.011 C 
BRANCH   2   4
HETATM    4  C6  UNL     1     -34.766   5.121   6.056  1.00 20.00     0.119 C 
HETATM    5 CL10 UNL     1     -35.149   4.014   4.715  1.00 20.00    -0.130 Cl
ENDBRANCH   2   4
ENDBRANCH   1   2
BRANCH   1   6
HETATM    6  C8  UNL     1     -32.690   6.864   3.355  1.00 20.00     0.053 C 
HETATM    7  C2  UNL     1     -31.510   7.580   4.025  1.00 20.00     0.045 C 
HETATM    8  C3  UNL     1     -32.264   5.455   2.941  1.00 20.00     0.045 C 
BRANCH   6   9
HETATM    9  O9  UNL     1     -32.998   7.590   2.164  1.00 20.00    -0.386 OA
HETATM   10  C4  UNL     1     -31.912   8.411   1.765  1.00 20.00     0.202 C 
ENDBRANCH   6   9
ENDBRANCH   1   6
TORSDOF 4
ENDMDL
MODEL 7
REMARK VINA RESULT:      -3.6      1.780      2.933
REMARK  4 active torsions:
REMARK  status: ('A' for Active; 'I' for Inactive)
REMARK    1  A    between atoms: C5_5  and  C7_7 
REMARK    2  A    between atoms: C5_5  and  C8_8 
REMARK    3  A    between atoms: C6_6  and  C7_7 
REMARK    4  A    between atoms: C8_8  and  O9_9 
ROOT
HETATM    1  C5  UNL     1     -34.065  15.921  -2.253  1.00 20.00     0.042 C 
ENDROOT
BRANCH   1   2
HETATM    2  C7  UNL     1     -34.581  17.251  -1.649  1.00 20.00    -0.002 C 
HETATM    3  C1  UNL     1     -34.813  17.066  -0.142  1.00 20.00     0.011 C 
BRANCH   2   4
HETATM    4  C6  UNL     1     -33.709  18.486  -1.917  1.00 20.00     0.119 C 
HETATM    5 CL10 UNL     1     -32.667  18.938  -0.546  1.00 20.00    -0.130 Cl
ENDBRANCH   2   4
ENDBRANCH   1   2
BRANCH   1   6
HETATM    6  C8  UNL     1     -34.815  15.356  -3.480  1.00 20.00     0.053 C 
HETATM    7  C2  UNL     1     -34.271  13.960  -3.814  1.00 20.00     0.045 C 
HETATM    8  C3  UNL     1     -36.327  15.275  -3.262  1.00 20.00     0.045 C 
BRANCH   6   9
HETATM    9  O9  UNL     1     -34.587  16.178  -4.625  1.00 20.00    -0.386 OA
HETATM   10  C4  UNL     1     -33.203  16.289  -4.913  1.00 20.00     0.202 C 
ENDBRANCH   6   9
ENDBRANCH   1   6
TORSDOF 4
ENDMDL
MODEL 8
REMARK VINA RESULT:      -3.6     11.076     11.995
REMARK  4 active torsions:
REMARK  status: ('A' for Active; 'I' for Inactive)
REMARK    1  A    between atoms: C5_5  and  C7_7 
REMARK    2  A    between atoms: C5_5  and  C8_8 
REMARK    3  A    between atoms: C6_6  and  C7_7 
REMARK    4  A    between atoms: C8_8  and  O9_9 
ROOT
HETATM    1  C5  UNL     1     -32.827   5.993   3.379  1.00 20.00     0.042 C 
ENDROOT
BRANCH   1   2
HETATM    2  C7  UNL     1     -32.357   7.464   3.255  1.00 20.00    -0.002 C 
HETATM    3  C1  UNL     1     -31.084   7.662   4.090  1.00 20.00     0.011 C 
BRANCH   2   4
HETATM    4  C6  UNL     1     -32.154   7.978   1.822  1.00 20.00     0.119 C 
HETATM    5 CL10 UNL     1     -32.542   9.704   1.620  1.00 20.00    -0.130 Cl
ENDBRANCH   2   4
ENDBRANCH   1   2
BRANCH   1   6
HETATM    6  C8  UNL     1     -34.029   5.702   4.307  1.00 20.00     0.053 C 
HETATM    7  C2  UNL     1     -34.021   6.691   5.480  1.00 20.00     0.045 C 
HETATM    8  C3  UNL     1     -35.370   5.787   3.577  1.00 20.00     0.045 C 
BRANCH   6   9
HETATM    9  O9  UNL     1     -33.921   4.391   4.863  1.00 20.00    -0.386 OA
HETATM   10  C4  UNL     1     -34.903   4.174   5.864  1.00 20.00     0.202 C 
ENDBRANCH   6   9
ENDBRANCH   1   6
TORSDOF 4
ENDMDL
MODEL 9
REMARK VINA RESULT:      -3.6      2.454      2.948
REMARK  4 active torsions:
REMARK  status: ('A' for Active; 'I' for Inactive)
REMARK    1  A    between atoms: C5_5  and  C7_7 
REMARK    2  A    between atoms: C5_5  and  C8_8 
REMARK    3  A    between atoms: C6_6  and  C7_7 
REMARK    4  A    between atoms: C8_8  and  O9_9 
ROOT
HETATM    1  C5  UNL     1     -33.783  16.398  -2.404  1.00 20.00     0.042 C 
ENDROOT
BRANCH   1   2
HETATM    2  C7  UNL     1     -35.085  16.672  -1.611  1.00 20.00    -0.002 C 
HETATM    3  C1  UNL     1     -34.729  17.033  -0.162  1.00 20.00     0.011 C 
BRANCH   2   4
HETATM    4  C6  UNL     1     -36.026  17.723  -2.219  1.00 20.00     0.119 C 
HETATM    5 CL10 UNL     1     -37.371  17.025  -3.152  1.00 20.00    -0.130 Cl
ENDBRANCH   2   4
ENDBRANCH   1   2
BRANCH   1   6
HETATM    6  C8  UNL     1     -33.848  15.365  -3.552  1.00 20.00     0.053 C 
HETATM    7  C2  UNL     1     -33.984  16.098  -4.893  1.00 20.00     0.045 C 
HETATM    8  C3  UNL     1     -32.623  14.450  -3.592  1.00 20.00     0.045 C 
BRANCH   6   9
HETATM    9  O9  UNL     1     -35.001  14.536  -3.409  1.00 20.00    -0.386 OA
HETATM   10  C4  UNL     1     -34.913  13.383  -4.231  1.00 20.00     0.202 C 
ENDBRANCH   6   9
ENDBRANCH   1   6
TORSDOF 4
ENDMDL
