MODEL 1
REMARK VINA RESULT:      -3.8      0.000      0.000
REMARK  2 active torsions:
REMARK  status: ('A' for Active; 'I' for Inactive)
REMARK    1  A    between atoms: C5_5  and  C6_6 
REMARK    2  A    between atoms: C6_6  and  S8_8 
ROOT
HETATM    1  C1  UNL     1     -35.481   5.027   4.182  1.00 20.00     0.027 C 
HETATM    2  C2  UNL     1     -34.247   5.292   3.326  1.00 20.00     0.009 C 
HETATM    3  C3  UNL     1     -35.109   4.964   5.657  1.00 20.00     0.167 C 
HETATM    4  C4  UNL     1     -33.217   6.357   5.352  1.00 20.00     0.172 C 
HETATM    5  C5  UNL     1     -33.477   6.508   3.851  1.00 20.00     0.019 C 
HETATM    6  O7  UNL     1     -34.441   6.159   6.061  1.00 20.00    -0.391 OA
ENDROOT
BRANCH   5   7
HETATM    7  C6  UNL     1     -32.175   6.711   3.084  1.00 20.00     0.077 C 
BRANCH   7   8
HETATM    8  S8  UNL     1     -32.235   8.253   2.138  1.00 20.00    -0.182 SA
HETATM    9  H20 UNL     1     -33.572   8.318   2.048  1.00 20.00     0.101 HD
ENDBRANCH   7   8
ENDBRANCH   5   7
TORSDOF 2
ENDMDL
MODEL 2
REMARK VINA RESULT:      -3.7     11.584     11.829
REMARK  2 active torsions:
REMARK  status: ('A' for Active; 'I' for Inactive)
REMARK    1  A    between atoms: C5_5  and  C6_6 
REMARK    2  A    between atoms: C6_6  and  S8_8 
ROOT
HETATM    1  C1  UNL     1     -35.894  13.857  -4.211  1.00 20.00     0.027 C 
HETATM    2  C2  UNL     1     -35.561  15.235  -3.648  1.00 20.00     0.009 C 
HETATM    3  C3  UNL     1     -34.693  13.268  -4.938  1.00 20.00     0.167 C 
HETATM    4  C4  UNL     1     -33.155  14.517  -3.637  1.00 20.00     0.172 C 
HETATM    5  C5  UNL     1     -34.268  15.183  -2.825  1.00 20.00     0.019 C 
HETATM    6  O7  UNL     1     -33.556  13.217  -4.076  1.00 20.00    -0.391 OA
ENDROOT
BRANCH   5   7
HETATM    7  C6  UNL     1     -33.855  16.575  -2.360  1.00 20.00     0.077 C 
BRANCH   7   8
HETATM    8  S8  UNL     1     -34.578  16.939  -0.741  1.00 20.00    -0.182 SA
HETATM    9  H20 UNL     1     -34.161  15.816  -0.138  1.00 20.00     0.101 HD
ENDBRANCH   7   8
ENDBRANCH   5   7
TORSDOF 2
ENDMDL
MODEL 3
REMARK VINA RESULT:      -3.7      1.360      2.071
REMARK  2 active torsions:
REMARK  status: ('A' for Active; 'I' for Inactive)
REMARK    1  A    between atoms: C5_5  and  C6_6 
REMARK    2  A    between atoms: C6_6  and  S8_8 
ROOT
HETATM    1  C1  UNL     1     -34.198   5.065   6.580  1.00 20.00     0.027 C 
HETATM    2  C2  UNL     1     -33.949   6.289   5.704  1.00 20.00     0.009 C 
HETATM    3  C3  UNL     1     -35.345   4.231   6.025  1.00 20.00     0.167 C 
HETATM    4  C4  UNL     1     -34.974   4.995   3.813  1.00 20.00     0.172 C 
HETATM    5  C5  UNL     1     -33.797   5.878   4.235  1.00 20.00     0.019 C 
HETATM    6  O7  UNL     1     -35.088   3.859   4.671  1.00 20.00    -0.391 OA
ENDROOT
BRANCH   5   7
HETATM    7  C6  UNL     1     -33.673   7.100   3.331  1.00 20.00     0.077 C 
BRANCH   7   8
HETATM    8  S8  UNL     1     -31.943   7.365   2.867  1.00 20.00    -0.182 SA
HETATM    9  H20 UNL     1     -31.850   8.611   3.354  1.00 20.00     0.101 HD
ENDBRANCH   7   8
ENDBRANCH   5   7
TORSDOF 2
ENDMDL
MODEL 4
REMARK VINA RESULT:      -3.3     11.983     12.995
REMARK  2 active torsions:
REMARK  status: ('A' for Active; 'I' for Inactive)
REMARK    1  A    between atoms: C5_5  and  C6_6 
REMARK    2  A    between atoms: C6_6  and  S8_8 
ROOT
HETATM    1  C1  UNL     1     -33.510  13.701  -3.820  1.00 20.00     0.027 C 
HETATM    2  C2  UNL     1     -33.405  15.213  -3.643  1.00 20.00     0.009 C 
HETATM    3  C3  UNL     1     -34.727  13.341  -4.661  1.00 20.00     0.167 C 
HETATM    4  C4  UNL     1     -34.712  15.431  -5.776  1.00 20.00     0.172 C 
HETATM    5  C5  UNL     1     -33.486  15.921  -5.001  1.00 20.00     0.019 C 
HETATM    6  O7  UNL     1     -34.686  14.010  -5.921  1.00 20.00    -0.391 OA
ENDROOT
BRANCH   5   7
HETATM    7  C6  UNL     1     -33.508  17.436  -4.832  1.00 20.00     0.077 C 
BRANCH   7   8
HETATM    8  S8  UNL     1     -33.957  17.874  -3.134  1.00 20.00    -0.182 SA
HETATM    9  H20 UNL     1     -33.631  19.171  -3.226  1.00 20.00     0.101 HD
ENDBRANCH   7   8
ENDBRANCH   5   7
TORSDOF 2
ENDMDL
MODEL 5
REMARK VINA RESULT:      -3.2      9.672     10.635
REMARK  2 active torsions:
REMARK  status: ('A' for Active; 'I' for Inactive)
REMARK    1  A    between atoms: C5_5  and  C6_6 
REMARK    2  A    between atoms: C6_6  and  S8_8 
ROOT
HETATM    1  C1  UNL     1     -41.926   6.951  -2.491  1.00 20.00     0.027 C 
HETATM    2  C2  UNL     1     -42.703   5.654  -2.692  1.00 20.00     0.009 C 
HETATM    3  C3  UNL     1     -41.285   6.986  -1.110  1.00 20.00     0.167 C 
HETATM    4  C4  UNL     1     -41.190   4.623  -0.975  1.00 20.00     0.172 C 
HETATM    5  C5  UNL     1     -41.826   4.443  -2.356  1.00 20.00     0.019 C 
HETATM    6  O7  UNL     1     -40.452   5.844  -0.911  1.00 20.00    -0.391 OA
ENDROOT
BRANCH   5   7
HETATM    7  C6  UNL     1     -42.624   3.146  -2.431  1.00 20.00     0.077 C 
BRANCH   7   8
HETATM    8  S8  UNL     1     -41.793   1.957  -3.514  1.00 20.00    -0.182 SA
HETATM    9  H20 UNL     1     -42.828   1.768  -4.345  1.00 20.00     0.101 HD
ENDBRANCH   7   8
ENDBRANCH   5   7
TORSDOF 2
ENDMDL
MODEL 6
REMARK VINA RESULT:      -3.2     12.254     12.921
REMARK  2 active torsions:
REMARK  status: ('A' for Active; 'I' for Inactive)
REMARK    1  A    between atoms: C5_5  and  C6_6 
REMARK    2  A    between atoms: C6_6  and  S8_8 
ROOT
HETATM    1  C1  UNL     1     -34.396  14.511  -4.940  1.00 20.00     0.027 C 
HETATM    2  C2  UNL     1     -34.993  14.897  -3.590  1.00 20.00     0.009 C 
HETATM    3  C3  UNL     1     -33.918  15.747  -5.689  1.00 20.00     0.167 C 
HETATM    4  C4  UNL     1     -33.568  16.961  -3.685  1.00 20.00     0.172 C 
HETATM    5  C5  UNL     1     -34.025  15.792  -2.809  1.00 20.00     0.019 C 
HETATM    6  O7  UNL     1     -32.986  16.487  -4.900  1.00 20.00    -0.391 OA
ENDROOT
BRANCH   5   7
HETATM    7  C6  UNL     1     -34.657  16.288  -1.513  1.00 20.00     0.077 C 
BRANCH   7   8
HETATM    8  S8  UNL     1     -33.754  17.725  -0.882  1.00 20.00    -0.182 SA
HETATM    9  H20 UNL     1     -34.799  18.565  -0.879  1.00 20.00     0.101 HD
ENDBRANCH   7   8
ENDBRANCH   5   7
TORSDOF 2
ENDMDL
MODEL 7
REMARK VINA RESULT:      -3.2      9.637     10.534
REMARK  2 active torsions:
REMARK  status: ('A' for Active; 'I' for Inactive)
REMARK    1  A    between atoms: C5_5  and  C6_6 
REMARK    2  A    between atoms: C6_6  and  S8_8 
ROOT
HETATM    1  C1  UNL     1     -40.722   6.471  -0.425  1.00 20.00     0.027 C 
HETATM    2  C2  UNL     1     -41.731   7.367  -1.137  1.00 20.00     0.009 C 
HETATM    3  C3  UNL     1     -41.148   5.011  -0.506  1.00 20.00     0.167 C 
HETATM    4  C4  UNL     1     -42.360   5.363  -2.512  1.00 20.00     0.172 C 
HETATM    5  C5  UNL     1     -42.004   6.851  -2.554  1.00 20.00     0.019 C 
HETATM    6  O7  UNL     1     -41.330   4.614  -1.865  1.00 20.00    -0.391 OA
ENDROOT
BRANCH   5   7
HETATM    7  C6  UNL     1     -43.101   7.662  -3.234  1.00 20.00     0.077 C 
BRANCH   7   8
HETATM    8  S8  UNL     1     -42.414   8.634  -4.598  1.00 20.00    -0.182 SA
HETATM    9  H20 UNL     1     -41.166   8.705  -4.112  1.00 20.00     0.101 HD
ENDBRANCH   7   8
ENDBRANCH   5   7
TORSDOF 2
ENDMDL
MODEL 8
REMARK VINA RESULT:      -3.2     11.980     13.014
REMARK  2 active torsions:
REMARK  status: ('A' for Active; 'I' for Inactive)
REMARK    1  A    between atoms: C5_5  and  C6_6 
REMARK    2  A    between atoms: C6_6  and  S8_8 
ROOT
HETATM    1  C1  UNL     1     -33.308  15.634  -4.275  1.00 20.00     0.027 C 
HETATM    2  C2  UNL     1     -34.315  15.765  -5.414  1.00 20.00     0.009 C 
HETATM    3  C3  UNL     1     -33.682  14.479  -3.356  1.00 20.00     0.167 C 
HETATM    4  C4  UNL     1     -34.819  13.327  -5.087  1.00 20.00     0.172 C 
HETATM    5  C5  UNL     1     -34.511  14.417  -6.117  1.00 20.00     0.019 C 
HETATM    6  O7  UNL     1     -33.793  13.262  -4.095  1.00 20.00    -0.391 OA
ENDROOT
BRANCH   5   7
HETATM    7  C6  UNL     1     -35.605  14.501  -7.175  1.00 20.00     0.077 C 
BRANCH   7   8
HETATM    8  S8  UNL     1     -36.974  15.527  -6.585  1.00 20.00    -0.182 SA
HETATM    9  H20 UNL     1     -37.543  15.717  -7.784  1.00 20.00     0.101 HD
ENDBRANCH   7   8
ENDBRANCH   5   7
TORSDOF 2
ENDMDL
MODEL 9
REMARK VINA RESULT:      -3.2     12.188     13.173
REMARK  2 active torsions:
REMARK  status: ('A' for Active; 'I' for Inactive)
REMARK    1  A    between atoms: C5_5  and  C6_6 
REMARK    2  A    between atoms: C6_6  and  S8_8 
ROOT
HETATM    1  C1  UNL     1     -33.955  13.843  -3.597  1.00 20.00     0.027 C 
HETATM    2  C2  UNL     1     -34.482  13.471  -4.980  1.00 20.00     0.009 C 
HETATM    3  C3  UNL     1     -32.954  14.986  -3.693  1.00 20.00     0.167 C 
HETATM    4  C4  UNL     1     -33.924  15.813  -5.690  1.00 20.00     0.172 C 
HETATM    5  C5  UNL     1     -34.991  14.716  -5.715  1.00 20.00     0.019 C 
HETATM    6  O7  UNL     1     -33.536  16.113  -4.349  1.00 20.00    -0.391 OA
ENDROOT
BRANCH   5   7
HETATM    7  C6  UNL     1     -35.406  14.381  -7.144  1.00 20.00     0.077 C 
BRANCH   7   8
HETATM    8  S8  UNL     1     -36.986  15.170  -7.542  1.00 20.00    -0.182 SA
HETATM    9  H20 UNL     1     -37.557  14.967  -6.346  1.00 20.00     0.101 HD
ENDBRANCH   7   8
ENDBRANCH   5   7
TORSDOF 2
ENDMDL
