MODEL 1
REMARK VINA RESULT:      -5.0      0.000      0.000
REMARK  2 active torsions:
REMARK  status: ('A' for Active; 'I' for Inactive)
REMARK    1  A    between atoms: C1_1  and  C7_7 
REMARK    2  A    between atoms: C8_8  and  C12_12 
ROOT
HETATM    1  C2  UNL     1     -34.204  17.534  -4.727  1.00 20.00     0.001 C 
HETATM    2  C3  UNL     1     -33.267  16.331  -4.802  1.00 20.00     0.011 C 
HETATM    3  C4  UNL     1     -35.070  15.138  -3.339  1.00 20.00     0.012 C 
HETATM    4  C5  UNL     1     -34.405  18.122  -3.325  1.00 20.00     0.005 C 
HETATM    5  C6  UNL     1     -34.866  15.930  -2.047  1.00 20.00     0.006 C 
HETATM    6  C7  UNL     1     -33.869  15.016  -4.283  1.00 20.00     0.047 C 
HETATM    7  C8  UNL     1     -34.039  17.219  -2.137  1.00 20.00    -0.007 C 
ENDROOT
BRANCH   7   8
HETATM    8  C12 UNL     1     -34.176  18.005  -0.827  1.00 20.00    -0.048 C 
HETATM    9  C9  UNL     1     -35.025  19.263  -1.069  1.00 20.00     0.015 C 
HETATM   10  C10 UNL     1     -32.783  18.419  -0.328  1.00 20.00     0.015 C 
HETATM   11  C11 UNL     1     -34.857  17.124   0.231  1.00 20.00     0.015 C 
ENDBRANCH   7   8
BRANCH   6  12
HETATM   12  C1  UNL     1     -32.794  14.180  -3.653  1.00 20.00     0.235 C 
HETATM   13  O13 UNL     1     -32.819  12.955  -3.628  1.00 20.00    -0.306 OA
ENDBRANCH   6  12
TORSDOF 2
ENDMDL
MODEL 2
REMARK VINA RESULT:      -4.9      0.208      1.239
REMARK  2 active torsions:
REMARK  status: ('A' for Active; 'I' for Inactive)
REMARK    1  A    between atoms: C1_1  and  C7_7 
REMARK    2  A    between atoms: C8_8  and  C12_12 
ROOT
HETATM    1  C2  UNL     1     -33.934  17.688  -4.744  1.00 20.00     0.001 C 
HETATM    2  C3  UNL     1     -33.131  16.390  -4.782  1.00 20.00     0.011 C 
HETATM    3  C4  UNL     1     -35.175  15.368  -3.521  1.00 20.00     0.012 C 
HETATM    4  C5  UNL     1     -34.192  18.257  -3.343  1.00 20.00     0.005 C 
HETATM    5  C6  UNL     1     -35.001  16.098  -2.189  1.00 20.00     0.006 C 
HETATM    6  C7  UNL     1     -33.916  15.137  -4.363  1.00 20.00     0.047 C 
HETATM    7  C8  UNL     1     -34.034  17.288  -2.162  1.00 20.00    -0.007 C 
ENDROOT
BRANCH   7   8
HETATM    8  C12 UNL     1     -34.199  18.050  -0.840  1.00 20.00    -0.048 C 
HETATM    9  C9  UNL     1     -34.822  17.120   0.213  1.00 20.00     0.015 C 
HETATM   10  C10 UNL     1     -35.118  19.261  -1.058  1.00 20.00     0.015 C 
HETATM   11  C11 UNL     1     -32.826  18.531  -0.349  1.00 20.00     0.015 C 
ENDBRANCH   7   8
BRANCH   6  12
HETATM   12  C1  UNL     1     -32.998  14.171  -3.675  1.00 20.00     0.235 C 
HETATM   13  O13 UNL     1     -33.153  12.954  -3.704  1.00 20.00    -0.306 OA
ENDBRANCH   6  12
TORSDOF 2
ENDMDL
MODEL 3
REMARK VINA RESULT:      -4.8      2.117      3.026
REMARK  2 active torsions:
REMARK  status: ('A' for Active; 'I' for Inactive)
REMARK    1  A    between atoms: C1_1  and  C7_7 
REMARK    2  A    between atoms: C8_8  and  C12_12 
ROOT
HETATM    1  C2  UNL     1     -33.968  14.393  -3.697  1.00 20.00     0.001 C 
HETATM    2  C3  UNL     1     -35.386  13.918  -4.000  1.00 20.00     0.011 C 
HETATM    3  C4  UNL     1     -35.649  16.226  -5.190  1.00 20.00     0.012 C 
HETATM    4  C5  UNL     1     -33.869  15.618  -2.781  1.00 20.00     0.005 C 
HETATM    5  C6  UNL     1     -35.608  17.120  -3.951  1.00 20.00     0.006 C 
HETATM    6  C7  UNL     1     -36.155  14.792  -5.004  1.00 20.00     0.047 C 
HETATM    7  C8  UNL     1     -35.132  16.481  -2.640  1.00 20.00    -0.007 C 
ENDROOT
BRANCH   7   8
HETATM    8  C12 UNL     1     -34.897  17.579  -1.594  1.00 20.00    -0.048 C 
HETATM    9  C9  UNL     1     -33.597  18.329  -1.921  1.00 20.00     0.015 C 
HETATM   10  C10 UNL     1     -34.782  16.943  -0.200  1.00 20.00     0.015 C 
HETATM   11  C11 UNL     1     -36.075  18.564  -1.610  1.00 20.00     0.015 C 
ENDBRANCH   7   8
BRANCH   6  12
HETATM   12  C1  UNL     1     -37.615  14.796  -4.658  1.00 20.00     0.235 C 
HETATM   13  O13 UNL     1     -38.083  14.196  -3.696  1.00 20.00    -0.306 OA
ENDBRANCH   6  12
TORSDOF 2
ENDMDL
MODEL 4
REMARK VINA RESULT:      -4.7      2.229      3.327
REMARK  2 active torsions:
REMARK  status: ('A' for Active; 'I' for Inactive)
REMARK    1  A    between atoms: C1_1  and  C7_7 
REMARK    2  A    between atoms: C8_8  and  C12_12 
ROOT
HETATM    1  C2  UNL     1     -33.877  13.661  -4.122  1.00 20.00     0.001 C 
HETATM    2  C3  UNL     1     -34.950  13.590  -5.205  1.00 20.00     0.011 C 
HETATM    3  C4  UNL     1     -33.877  15.803  -6.078  1.00 20.00     0.012 C 
HETATM    4  C5  UNL     1     -33.982  14.860  -3.172  1.00 20.00     0.005 C 
HETATM    5  C6  UNL     1     -34.297  16.721  -4.930  1.00 20.00     0.006 C 
HETATM    6  C7  UNL     1     -34.762  14.585  -6.361  1.00 20.00     0.047 C 
HETATM    7  C8  UNL     1     -34.824  16.052  -3.653  1.00 20.00    -0.007 C 
ENDROOT
BRANCH   7   8
HETATM    8  C12 UNL     1     -34.929  17.098  -2.536  1.00 20.00    -0.048 C 
HETATM    9  C9  UNL     1     -33.935  18.239  -2.805  1.00 20.00     0.015 C 
HETATM   10  C10 UNL     1     -34.599  16.443  -1.187  1.00 20.00     0.015 C 
HETATM   11  C11 UNL     1     -36.356  17.663  -2.494  1.00 20.00     0.015 C 
ENDBRANCH   7   8
BRANCH   6  12
HETATM   12  C1  UNL     1     -36.101  15.022  -6.876  1.00 20.00     0.235 C 
HETATM   13  O13 UNL     1     -37.123  15.009  -6.198  1.00 20.00    -0.306 OA
ENDBRANCH   6  12
TORSDOF 2
ENDMDL
MODEL 5
REMARK VINA RESULT:      -4.7      2.049      3.982
REMARK  2 active torsions:
REMARK  status: ('A' for Active; 'I' for Inactive)
REMARK    1  A    between atoms: C1_1  and  C7_7 
REMARK    2  A    between atoms: C8_8  and  C12_12 
ROOT
HETATM    1  C2  UNL     1     -35.335  16.569  -2.643  1.00 20.00     0.001 C 
HETATM    2  C3  UNL     1     -35.394  15.103  -3.065  1.00 20.00     0.011 C 
HETATM    3  C4  UNL     1     -32.961  15.499  -3.921  1.00 20.00     0.012 C 
HETATM    4  C5  UNL     1     -35.199  17.576  -3.792  1.00 20.00     0.005 C 
HETATM    5  C6  UNL     1     -33.285  16.433  -5.087  1.00 20.00     0.006 C 
HETATM    6  C7  UNL     1     -34.046  14.505  -3.497  1.00 20.00     0.047 C 
HETATM    7  C8  UNL     1     -34.698  17.029  -5.137  1.00 20.00    -0.007 C 
ENDROOT
BRANCH   7   8
HETATM    8  C12 UNL     1     -34.747  18.136  -6.198  1.00 20.00    -0.048 C 
HETATM    9  C9  UNL     1     -34.564  17.518  -7.593  1.00 20.00     0.015 C 
HETATM   10  C10 UNL     1     -33.621  19.147  -5.937  1.00 20.00     0.015 C 
HETATM   11  C11 UNL     1     -36.104  18.852  -6.130  1.00 20.00     0.015 C 
ENDBRANCH   7   8
BRANCH   6  12
HETATM   12  C1  UNL     1     -34.267  13.483  -4.572  1.00 20.00     0.235 C 
HETATM   13  O13 UNL     1     -35.064  12.556  -4.470  1.00 20.00    -0.306 OA
ENDBRANCH   6  12
TORSDOF 2
ENDMDL
MODEL 6
REMARK VINA RESULT:      -4.6      2.279      4.805
REMARK  2 active torsions:
REMARK  status: ('A' for Active; 'I' for Inactive)
REMARK    1  A    between atoms: C1_1  and  C7_7 
REMARK    2  A    between atoms: C8_8  and  C12_12 
ROOT
HETATM    1  C2  UNL     1     -35.165  17.021  -0.228  1.00 20.00     0.001 C 
HETATM    2  C3  UNL     1     -33.936  17.756   0.300  1.00 20.00     0.011 C 
HETATM    3  C4  UNL     1     -34.179  19.217  -1.848  1.00 20.00     0.012 C 
HETATM    4  C5  UNL     1     -34.964  16.277  -1.554  1.00 20.00     0.005 C 
HETATM    5  C6  UNL     1     -33.799  18.156  -2.882  1.00 20.00     0.006 C 
HETATM    6  C7  UNL     1     -33.600  19.060  -0.439  1.00 20.00     0.047 C 
HETATM    7  C8  UNL     1     -33.758  16.697  -2.408  1.00 20.00    -0.007 C 
ENDROOT
BRANCH   7   8
HETATM    8  C12 UNL     1     -33.635  15.770  -3.624  1.00 20.00    -0.048 C 
HETATM    9  C9  UNL     1     -34.930  14.959  -3.784  1.00 20.00     0.015 C 
HETATM   10  C10 UNL     1     -32.454  14.809  -3.418  1.00 20.00     0.015 C 
HETATM   11  C11 UNL     1     -33.397  16.609  -4.888  1.00 20.00     0.015 C 
ENDBRANCH   7   8
BRANCH   6  12
HETATM   12  C1  UNL     1     -32.114  19.263  -0.460  1.00 20.00     0.235 C 
HETATM   13  O13 UNL     1     -31.411  19.212   0.543  1.00 20.00    -0.306 OA
ENDBRANCH   6  12
TORSDOF 2
ENDMDL
MODEL 7
REMARK VINA RESULT:      -4.6      2.474      4.914
REMARK  2 active torsions:
REMARK  status: ('A' for Active; 'I' for Inactive)
REMARK    1  A    between atoms: C1_1  and  C7_7 
REMARK    2  A    between atoms: C8_8  and  C12_12 
ROOT
HETATM    1  C2  UNL     1     -35.771  16.612  -3.294  1.00 20.00     0.001 C 
HETATM    2  C3  UNL     1     -34.933  15.417  -2.845  1.00 20.00     0.011 C 
HETATM    3  C4  UNL     1     -33.218  16.254  -4.625  1.00 20.00     0.012 C 
HETATM    4  C5  UNL     1     -36.257  16.562  -4.748  1.00 20.00     0.005 C 
HETATM    5  C6  UNL     1     -34.027  15.932  -5.882  1.00 20.00     0.006 C 
HETATM    6  C7  UNL     1     -33.492  15.406  -3.379  1.00 20.00     0.047 C 
HETATM    7  C8  UNL     1     -35.515  15.605  -5.694  1.00 20.00    -0.007 C 
ENDROOT
BRANCH   7   8
HETATM    8  C12 UNL     1     -36.209  15.585  -7.061  1.00 20.00    -0.048 C 
HETATM    9  C9  UNL     1     -37.715  15.352  -6.869  1.00 20.00     0.015 C 
HETATM   10  C10 UNL     1     -35.623  14.453  -7.918  1.00 20.00     0.015 C 
HETATM   11  C11 UNL     1     -35.986  16.930  -7.770  1.00 20.00     0.015 C 
ENDBRANCH   7   8
BRANCH   6  12
HETATM   12  C1  UNL     1     -33.045  13.992  -3.601  1.00 20.00     0.235 C 
HETATM   13  O13 UNL     1     -33.820  13.058  -3.777  1.00 20.00    -0.306 OA
ENDBRANCH   6  12
TORSDOF 2
ENDMDL
MODEL 8
REMARK VINA RESULT:      -4.6      2.488      4.922
REMARK  2 active torsions:
REMARK  status: ('A' for Active; 'I' for Inactive)
REMARK    1  A    between atoms: C1_1  and  C7_7 
REMARK    2  A    between atoms: C8_8  and  C12_12 
ROOT
HETATM    1  C2  UNL     1     -35.867  16.521  -3.312  1.00 20.00     0.001 C 
HETATM    2  C3  UNL     1     -34.974  15.364  -2.873  1.00 20.00     0.011 C 
HETATM    3  C4  UNL     1     -33.274  16.332  -4.599  1.00 20.00     0.012 C 
HETATM    4  C5  UNL     1     -36.322  16.478  -4.776  1.00 20.00     0.005 C 
HETATM    5  C6  UNL     1     -34.041  15.996  -5.878  1.00 20.00     0.006 C 
HETATM    6  C7  UNL     1     -33.525  15.443  -3.377  1.00 20.00     0.047 C 
HETATM    7  C8  UNL     1     -35.511  15.585  -5.727  1.00 20.00    -0.007 C 
ENDROOT
BRANCH   7   8
HETATM    8  C12 UNL     1     -36.178  15.558  -7.109  1.00 20.00    -0.048 C 
HETATM    9  C9  UNL     1     -35.635  14.370  -7.918  1.00 20.00     0.015 C 
HETATM   10  C10 UNL     1     -35.868  16.865  -7.852  1.00 20.00     0.015 C 
HETATM   11  C11 UNL     1     -37.697  15.412  -6.942  1.00 20.00     0.015 C 
ENDBRANCH   7   8
BRANCH   6  12
HETATM   12  C1  UNL     1     -32.996  14.061  -3.621  1.00 20.00     0.235 C 
HETATM   13  O13 UNL     1     -33.717  13.085  -3.804  1.00 20.00    -0.306 OA
ENDBRANCH   6  12
TORSDOF 2
ENDMDL
MODEL 9
REMARK VINA RESULT:      -4.5      2.667      5.149
REMARK  2 active torsions:
REMARK  status: ('A' for Active; 'I' for Inactive)
REMARK    1  A    between atoms: C1_1  and  C7_7 
REMARK    2  A    between atoms: C8_8  and  C12_12 
ROOT
HETATM    1  C2  UNL     1     -34.096  13.500  -4.223  1.00 20.00     0.001 C 
HETATM    2  C3  UNL     1     -33.448  14.615  -3.407  1.00 20.00     0.011 C 
HETATM    3  C4  UNL     1     -35.886  15.499  -3.120  1.00 20.00     0.012 C 
HETATM    4  C5  UNL     1     -34.788  13.950  -5.515  1.00 20.00     0.005 C 
HETATM    5  C6  UNL     1     -36.137  15.931  -4.564  1.00 20.00     0.006 C 
HETATM    6  C7  UNL     1     -34.435  15.500  -2.630  1.00 20.00     0.047 C 
HETATM    7  C8  UNL     1     -35.145  15.441  -5.627  1.00 20.00    -0.007 C 
ENDROOT
BRANCH   7   8
HETATM    8  C12 UNL     1     -35.705  15.737  -7.024  1.00 20.00    -0.048 C 
HETATM    9  C9  UNL     1     -37.198  16.086  -6.915  1.00 20.00     0.015 C 
HETATM   10  C10 UNL     1     -35.534  14.501  -7.918  1.00 20.00     0.015 C 
HETATM   11  C11 UNL     1     -34.947  16.923  -7.639  1.00 20.00     0.015 C 
ENDBRANCH   7   8
BRANCH   6  12
HETATM   12  C1  UNL     1     -33.910  16.903  -2.558  1.00 20.00     0.235 C 
HETATM   13  O13 UNL     1     -33.524  17.427  -1.519  1.00 20.00    -0.306 OA
ENDBRANCH   6  12
TORSDOF 2
ENDMDL
