MODEL 1
REMARK VINA RESULT:      -5.1      0.000      0.000
REMARK  3 active torsions:
REMARK  status: ('A' for Active; 'I' for Inactive)
REMARK    1  A    between atoms: C6_6  and  C9_9 
REMARK    2  A    between atoms: C7_7  and  C10_10 
REMARK    3  A    between atoms: C9_9  and  C11_11 
ROOT
HETATM    1  C1  UNL     1     -33.251  16.526  -5.105  1.00 20.00     0.001 C 
HETATM    2  C2  UNL     1     -32.861  15.548  -4.003  1.00 20.00     0.005 C 
HETATM    3  C3  UNL     1     -34.392  16.145  -6.049  1.00 20.00     0.005 C 
HETATM    4  C4  UNL     1     -34.669  13.764  -3.822  1.00 20.00     0.005 C 
HETATM    5  C5  UNL     1     -35.458  14.039  -5.099  1.00 20.00     0.006 C 
HETATM    6  C6  UNL     1     -33.986  14.959  -3.145  1.00 20.00    -0.014 C 
HETATM    7  C7  UNL     1     -34.644  14.646  -6.255  1.00 20.00    -0.001 C 
ENDROOT
BRANCH   6   8
HETATM    8  C9  UNL     1     -34.976  16.001  -2.628  1.00 20.00     0.004 C 
BRANCH   8   9
HETATM    9  C11 UNL     1     -34.663  16.382  -1.187  1.00 20.00    -0.004 C 
HETATM   10  C8  UNL     1     -33.716  17.569  -1.131  1.00 20.00     0.005 C 
ENDBRANCH   8   9
ENDBRANCH   6   8
BRANCH   7  11
HETATM   11  C10 UNL     1     -35.422  14.446  -7.563  1.00 20.00     0.119 C 
HETATM   12 CL12 UNL     1     -37.081  15.032  -7.373  1.00 20.00    -0.130 Cl
ENDBRANCH   7  11
TORSDOF 3
ENDMDL
MODEL 2
REMARK VINA RESULT:      -5.0      2.507      4.985
REMARK  3 active torsions:
REMARK  status: ('A' for Active; 'I' for Inactive)
REMARK    1  A    between atoms: C6_6  and  C9_9 
REMARK    2  A    between atoms: C7_7  and  C10_10 
REMARK    3  A    between atoms: C9_9  and  C11_11 
ROOT
HETATM    1  C1  UNL     1     -36.454  14.700  -3.757  1.00 20.00     0.001 C 
HETATM    2  C2  UNL     1     -35.344  13.763  -4.219  1.00 20.00     0.005 C 
HETATM    3  C3  UNL     1     -36.079  15.909  -2.900  1.00 20.00     0.005 C 
HETATM    4  C4  UNL     1     -33.100  14.884  -3.784  1.00 20.00     0.005 C 
HETATM    5  C5  UNL     1     -33.537  16.044  -2.894  1.00 20.00     0.006 C 
HETATM    6  C6  UNL     1     -34.095  14.394  -4.843  1.00 20.00    -0.014 C 
HETATM    7  C7  UNL     1     -34.803  15.787  -2.057  1.00 20.00    -0.001 C 
ENDROOT
BRANCH   6   8
HETATM    8  C9  UNL     1     -34.404  15.446  -5.907  1.00 20.00     0.004 C 
BRANCH   8   9
HETATM    9  C11 UNL     1     -34.468  14.817  -7.293  1.00 20.00    -0.004 C 
HETATM   10  C8  UNL     1     -35.906  14.691  -7.767  1.00 20.00     0.005 C 
ENDBRANCH   8   9
ENDBRANCH   6   8
BRANCH   7  11
HETATM   11  C10 UNL     1     -34.857  16.815  -0.919  1.00 20.00     0.119 C 
HETATM   12 CL12 UNL     1     -33.336  17.716  -0.847  1.00 20.00    -0.130 Cl
ENDBRANCH   7  11
TORSDOF 3
ENDMDL
MODEL 3
REMARK VINA RESULT:      -4.4      2.737      5.134
REMARK  3 active torsions:
REMARK  status: ('A' for Active; 'I' for Inactive)
REMARK    1  A    between atoms: C6_6  and  C9_9 
REMARK    2  A    between atoms: C7_7  and  C10_10 
REMARK    3  A    between atoms: C9_9  and  C11_11 
ROOT
HETATM    1  C1  UNL     1     -37.128  16.398  -3.279  1.00 20.00     0.001 C 
HETATM    2  C2  UNL     1     -36.945  14.950  -3.719  1.00 20.00     0.005 C 
HETATM    3  C3  UNL     1     -35.954  17.112  -2.610  1.00 20.00     0.005 C 
HETATM    4  C4  UNL     1     -34.466  14.377  -3.617  1.00 20.00     0.005 C 
HETATM    5  C5  UNL     1     -33.936  15.578  -2.838  1.00 20.00     0.006 C 
HETATM    6  C6  UNL     1     -35.684  14.605  -4.519  1.00 20.00    -0.014 C 
HETATM    7  C7  UNL     1     -34.941  16.228  -1.871  1.00 20.00    -0.001 C 
ENDROOT
BRANCH   6   8
HETATM    8  C9  UNL     1     -35.405  15.568  -5.672  1.00 20.00     0.004 C 
BRANCH   8   9
HETATM    9  C11 UNL     1     -34.631  14.876  -6.786  1.00 20.00    -0.004 C 
HETATM   10  C8  UNL     1     -35.561  14.445  -7.908  1.00 20.00     0.005 C 
ENDBRANCH   8   9
ENDBRANCH   6   8
BRANCH   7  11
HETATM   11  C10 UNL     1     -34.168  17.090  -0.864  1.00 20.00     0.119 C 
HETATM   12 CL12 UNL     1     -35.107  17.267   0.626  1.00 20.00    -0.130 Cl
ENDBRANCH   7  11
TORSDOF 3
ENDMDL
MODEL 4
REMARK VINA RESULT:      -4.4      2.446      4.969
REMARK  3 active torsions:
REMARK  status: ('A' for Active; 'I' for Inactive)
REMARK    1  A    between atoms: C6_6  and  C9_9 
REMARK    2  A    between atoms: C7_7  and  C10_10 
REMARK    3  A    between atoms: C9_9  and  C11_11 
ROOT
HETATM    1  C1  UNL     1     -35.067  14.171  -3.703  1.00 20.00     0.001 C 
HETATM    2  C2  UNL     1     -34.218  14.100  -4.967  1.00 20.00     0.005 C 
HETATM    3  C3  UNL     1     -35.045  15.457  -2.879  1.00 20.00     0.005 C 
HETATM    4  C4  UNL     1     -33.413  16.448  -5.537  1.00 20.00     0.005 C 
HETATM    5  C5  UNL     1     -33.773  17.184  -4.249  1.00 20.00     0.006 C 
HETATM    6  C6  UNL     1     -34.308  15.273  -5.950  1.00 20.00    -0.014 C 
HETATM    7  C7  UNL     1     -33.778  16.317  -2.978  1.00 20.00    -0.001 C 
ENDROOT
BRANCH   6   8
HETATM    8  C9  UNL     1     -35.740  15.695  -6.274  1.00 20.00     0.004 C 
BRANCH   8   9
HETATM    9  C11 UNL     1     -36.337  14.808  -7.358  1.00 20.00    -0.004 C 
HETATM   10  C8  UNL     1     -37.791  15.170  -7.617  1.00 20.00     0.005 C 
ENDBRANCH   8   9
ENDBRANCH   6   8
BRANCH   7  11
HETATM   11  C10 UNL     1     -33.704  17.239  -1.753  1.00 20.00     0.119 C 
HETATM   12 CL12 UNL     1     -34.723  16.599  -0.454  1.00 20.00    -0.130 Cl
ENDBRANCH   7  11
TORSDOF 3
ENDMDL
MODEL 5
REMARK VINA RESULT:      -4.4      1.344      1.350
REMARK  3 active torsions:
REMARK  status: ('A' for Active; 'I' for Inactive)
REMARK    1  A    between atoms: C6_6  and  C9_9 
REMARK    2  A    between atoms: C7_7  and  C10_10 
REMARK    3  A    between atoms: C9_9  and  C11_11 
ROOT
HETATM    1  C1  UNL     1     -33.619  16.901  -5.386  1.00 20.00     0.001 C 
HETATM    2  C2  UNL     1     -32.960  15.891  -4.455  1.00 20.00     0.005 C 
HETATM    3  C3  UNL     1     -35.113  16.761  -5.677  1.00 20.00     0.005 C 
HETATM    4  C4  UNL     1     -34.784  14.564  -3.274  1.00 20.00     0.005 C 
HETATM    5  C5  UNL     1     -36.002  14.974  -4.097  1.00 20.00     0.006 C 
HETATM    6  C6  UNL     1     -33.657  15.593  -3.123  1.00 20.00    -0.014 C 
HETATM    7  C7  UNL     1     -35.707  15.352  -5.560  1.00 20.00    -0.001 C 
ENDROOT
BRANCH   6   8
HETATM    8  C9  UNL     1     -34.086  16.845  -2.360  1.00 20.00     0.004 C 
BRANCH   8   9
HETATM    9  C11 UNL     1     -34.663  16.482  -0.997  1.00 20.00    -0.004 C 
HETATM   10  C8  UNL     1     -34.406  17.588   0.014  1.00 20.00     0.005 C 
ENDBRANCH   8   9
ENDBRANCH   6   8
BRANCH   7  11
HETATM   11  C10 UNL     1     -37.019  15.296  -6.356  1.00 20.00     0.119 C 
HETATM   12 CL12 UNL     1     -38.392  15.158  -5.247  1.00 20.00    -0.130 Cl
ENDBRANCH   7  11
TORSDOF 3
ENDMDL
MODEL 6
REMARK VINA RESULT:      -4.4      2.825      5.218
REMARK  3 active torsions:
REMARK  status: ('A' for Active; 'I' for Inactive)
REMARK    1  A    between atoms: C6_6  and  C9_9 
REMARK    2  A    between atoms: C7_7  and  C10_10 
REMARK    3  A    between atoms: C9_9  and  C11_11 
ROOT
HETATM    1  C1  UNL     1     -33.907  14.772  -3.407  1.00 20.00     0.001 C 
HETATM    2  C2  UNL     1     -32.937  15.602  -4.239  1.00 20.00     0.005 C 
HETATM    3  C3  UNL     1     -34.770  15.483  -2.365  1.00 20.00     0.005 C 
HETATM    4  C4  UNL     1     -33.491  18.066  -3.915  1.00 20.00     0.005 C 
HETATM    5  C5  UNL     1     -34.443  17.982  -2.725  1.00 20.00     0.006 C 
HETATM    6  C6  UNL     1     -33.474  16.882  -4.889  1.00 20.00    -0.014 C 
HETATM    7  C7  UNL     1     -34.210  16.787  -1.783  1.00 20.00    -0.001 C 
ENDROOT
BRANCH   6   8
HETATM    8  C9  UNL     1     -34.801  16.690  -5.622  1.00 20.00     0.004 C 
BRANCH   8   9
HETATM    9  C11 UNL     1     -34.572  16.414  -7.102  1.00 20.00    -0.004 C 
HETATM   10  C8  UNL     1     -34.707  14.932  -7.407  1.00 20.00     0.005 C 
ENDBRANCH   8   9
ENDBRANCH   6   8
BRANCH   7  11
HETATM   11  C10 UNL     1     -34.904  17.074  -0.444  1.00 20.00     0.119 C 
HETATM   12 CL12 UNL     1     -33.883  18.121   0.553  1.00 20.00    -0.130 Cl
ENDBRANCH   7  11
TORSDOF 3
ENDMDL
MODEL 7
REMARK VINA RESULT:      -4.3      3.262      5.392
REMARK  3 active torsions:
REMARK  status: ('A' for Active; 'I' for Inactive)
REMARK    1  A    between atoms: C6_6  and  C9_9 
REMARK    2  A    between atoms: C7_7  and  C10_10 
REMARK    3  A    between atoms: C9_9  and  C11_11 
ROOT
HETATM    1  C1  UNL     1     -33.805  18.765  -3.428  1.00 20.00     0.001 C 
HETATM    2  C2  UNL     1     -34.904  17.815  -3.885  1.00 20.00     0.005 C 
HETATM    3  C3  UNL     1     -33.331  18.689  -1.977  1.00 20.00     0.005 C 
HETATM    4  C4  UNL     1     -35.222  16.022  -2.105  1.00 20.00     0.005 C 
HETATM    5  C5  UNL     1     -34.418  16.626  -0.957  1.00 20.00     0.006 C 
HETATM    6  C6  UNL     1     -34.753  16.331  -3.533  1.00 20.00    -0.014 C 
HETATM    7  C7  UNL     1     -34.341  18.163  -0.949  1.00 20.00    -0.001 C 
ENDROOT
BRANCH   6   8
HETATM    8  C9  UNL     1     -33.370  15.762  -3.846  1.00 20.00     0.004 C 
BRANCH   8   9
HETATM    9  C11 UNL     1     -33.369  14.243  -3.743  1.00 20.00    -0.004 C 
HETATM   10  C8  UNL     1     -34.319  13.628  -4.758  1.00 20.00     0.005 C 
ENDBRANCH   8   9
ENDBRANCH   6   8
BRANCH   7  11
HETATM   11  C10 UNL     1     -33.916  18.627   0.451  1.00 20.00     0.119 C 
HETATM   12 CL12 UNL     1     -32.160  18.843   0.507  1.00 20.00    -0.130 Cl
ENDBRANCH   7  11
TORSDOF 3
ENDMDL
MODEL 8
REMARK VINA RESULT:      -4.2      1.848      2.523
REMARK  3 active torsions:
REMARK  status: ('A' for Active; 'I' for Inactive)
REMARK    1  A    between atoms: C6_6  and  C9_9 
REMARK    2  A    between atoms: C7_7  and  C10_10 
REMARK    3  A    between atoms: C9_9  and  C11_11 
ROOT
HETATM    1  C1  UNL     1     -33.123  15.226  -3.962  1.00 20.00     0.001 C 
HETATM    2  C2  UNL     1     -34.350  14.790  -3.171  1.00 20.00     0.005 C 
HETATM    3  C3  UNL     1     -33.214  16.492  -4.814  1.00 20.00     0.005 C 
HETATM    4  C4  UNL     1     -36.037  16.697  -3.170  1.00 20.00     0.005 C 
HETATM    5  C5  UNL     1     -35.432  17.603  -4.240  1.00 20.00     0.006 C 
HETATM    6  C6  UNL     1     -35.070  15.852  -2.333  1.00 20.00    -0.014 C 
HETATM    7  C7  UNL     1     -34.609  16.880  -5.321  1.00 20.00    -0.001 C 
ENDROOT
BRANCH   6   8
HETATM    8  C9  UNL     1     -34.132  16.694  -1.470  1.00 20.00     0.004 C 
BRANCH   8   9
HETATM    9  C11 UNL     1     -34.798  17.078  -0.155  1.00 20.00    -0.004 C 
HETATM   10  C8  UNL     1     -34.024  18.184   0.544  1.00 20.00     0.005 C 
ENDBRANCH   8   9
ENDBRANCH   6   8
BRANCH   7  11
HETATM   11  C10 UNL     1     -34.458  17.815  -6.530  1.00 20.00     0.119 C 
HETATM   12 CL12 UNL     1     -36.032  18.495  -6.967  1.00 20.00    -0.130 Cl
ENDBRANCH   7  11
TORSDOF 3
ENDMDL
MODEL 9
REMARK VINA RESULT:      -4.2      1.556      2.694
REMARK  3 active torsions:
REMARK  status: ('A' for Active; 'I' for Inactive)
REMARK    1  A    between atoms: C6_6  and  C9_9 
REMARK    2  A    between atoms: C7_7  and  C10_10 
REMARK    3  A    between atoms: C9_9  and  C11_11 
ROOT
HETATM    1  C1  UNL     1     -36.744  16.627  -3.070  1.00 20.00     0.001 C 
HETATM    2  C2  UNL     1     -35.621  17.641  -2.885  1.00 20.00     0.005 C 
HETATM    3  C3  UNL     1     -36.386  15.222  -3.553  1.00 20.00     0.005 C 
HETATM    4  C4  UNL     1     -33.393  16.413  -2.981  1.00 20.00     0.005 C 
HETATM    5  C5  UNL     1     -33.847  15.056  -3.513  1.00 20.00     0.006 C 
HETATM    6  C6  UNL     1     -34.380  17.192  -2.105  1.00 20.00    -0.014 C 
HETATM    7  C7  UNL     1     -35.109  15.087  -4.393  1.00 20.00    -0.001 C 
ENDROOT
BRANCH   6   8
HETATM    8  C9  UNL     1     -34.703  16.484  -0.790  1.00 20.00     0.004 C 
BRANCH   8   9
HETATM    9  C11 UNL     1     -34.879  17.489   0.341  1.00 20.00    -0.004 C 
HETATM   10  C8  UNL     1     -33.668  18.399   0.454  1.00 20.00     0.005 C 
ENDBRANCH   8   9
ENDBRANCH   6   8
BRANCH   7  11
HETATM   11  C10 UNL     1     -35.178  13.782  -5.199  1.00 20.00     0.119 C 
HETATM   12 CL12 UNL     1     -35.283  14.146  -6.928  1.00 20.00    -0.130 Cl
ENDBRANCH   7  11
TORSDOF 3
ENDMDL
