MODEL 1
REMARK VINA RESULT:      -4.2      0.000      0.000
REMARK  0 active torsions:
REMARK  status: ('A' for Active; 'I' for Inactive)
ROOT
HETATM    1  C1  UNL     1     -34.763  13.662  -3.917  1.00 20.00     0.066 C 
HETATM    2  C2  UNL     1     -33.343  16.174  -4.739  1.00 20.00     0.038 C 
HETATM    3  C3  UNL     1     -34.520  17.148  -4.812  1.00 20.00     0.273 C 
HETATM    4  C4  UNL     1     -35.787  15.847  -3.229  1.00 20.00     0.292 C 
HETATM    5  C5  UNL     1     -33.857  16.985  -2.599  1.00 20.00     0.278 C 
HETATM    6  C6  UNL     1     -34.657  14.828  -3.036  1.00 20.00     0.127 C 
HETATM    7  C7  UNL     1     -33.417  15.699  -3.283  1.00 20.00     0.035 C 
HETATM    8  N8  UNL     1     -34.847  12.738  -4.614  1.00 20.00    -0.197 NA
HETATM    9  N9  UNL     1     -35.080  17.147  -3.433  1.00 20.00     0.090 N 
ENDROOT
TORSDOF 0
ENDMDL
MODEL 2
REMARK VINA RESULT:      -4.1      0.881      1.120
REMARK  0 active torsions:
REMARK  status: ('A' for Active; 'I' for Inactive)
ROOT
HETATM    1  C1  UNL     1     -35.195  13.621  -4.192  1.00 20.00     0.066 C 
HETATM    2  C2  UNL     1     -33.341  15.783  -3.248  1.00 20.00     0.038 C 
HETATM    3  C3  UNL     1     -33.706  16.907  -4.219  1.00 20.00     0.273 C 
HETATM    4  C4  UNL     1     -35.913  15.999  -4.553  1.00 20.00     0.292 C 
HETATM    5  C5  UNL     1     -35.266  16.901  -2.507  1.00 20.00     0.278 C 
HETATM    6  C6  UNL     1     -35.680  14.851  -3.561  1.00 20.00     0.127 C 
HETATM    7  C7  UNL     1     -34.691  15.494  -2.579  1.00 20.00     0.035 C 
HETATM    8  N8  UNL     1     -34.812  12.647  -4.691  1.00 20.00    -0.197 NA
HETATM    9  N9  UNL     1     -35.154  17.147  -3.972  1.00 20.00     0.090 N 
ENDROOT
TORSDOF 0
ENDMDL
MODEL 3
REMARK VINA RESULT:      -4.1      1.941      2.568
REMARK  0 active torsions:
REMARK  status: ('A' for Active; 'I' for Inactive)
ROOT
HETATM    1  C1  UNL     1     -37.126  14.713  -3.628  1.00 20.00     0.066 C 
HETATM    2  C2  UNL     1     -34.837  13.428  -5.080  1.00 20.00     0.038 C 
HETATM    3  C3  UNL     1     -34.405  14.577  -5.992  1.00 20.00     0.273 C 
HETATM    4  C4  UNL     1     -35.302  16.216  -4.471  1.00 20.00     0.292 C 
HETATM    5  C5  UNL     1     -33.455  14.917  -3.908  1.00 20.00     0.278 C 
HETATM    6  C6  UNL     1     -35.740  15.154  -3.455  1.00 20.00     0.127 C 
HETATM    7  C7  UNL     1     -34.691  14.058  -3.689  1.00 20.00     0.035 C 
HETATM    8  N8  UNL     1     -38.224  14.364  -3.764  1.00 20.00    -0.197 NA
HETATM    9  N9  UNL     1     -34.038  15.671  -5.052  1.00 20.00     0.090 N 
ENDROOT
TORSDOF 0
ENDMDL
MODEL 4
REMARK VINA RESULT:      -3.9      1.084      2.112
REMARK  0 active torsions:
REMARK  status: ('A' for Active; 'I' for Inactive)
ROOT
HETATM    1  C1  UNL     1     -34.493  13.701  -4.804  1.00 20.00     0.066 C 
HETATM    2  C2  UNL     1     -35.804  15.719  -3.013  1.00 20.00     0.038 C 
HETATM    3  C3  UNL     1     -34.649  16.039  -2.062  1.00 20.00     0.273 C 
HETATM    4  C4  UNL     1     -33.016  15.416  -3.720  1.00 20.00     0.292 C 
HETATM    5  C5  UNL     1     -34.364  17.295  -3.987  1.00 20.00     0.278 C 
HETATM    6  C6  UNL     1     -34.085  15.108  -4.776  1.00 20.00     0.127 C 
HETATM    7  C7  UNL     1     -35.200  16.084  -4.374  1.00 20.00     0.035 C 
HETATM    8  N8  UNL     1     -34.815  12.587  -4.827  1.00 20.00    -0.197 NA
HETATM    9  N9  UNL     1     -33.580  16.567  -2.951  1.00 20.00     0.090 N 
ENDROOT
TORSDOF 0
ENDMDL
MODEL 5
REMARK VINA RESULT:      -3.8      1.322      3.377
REMARK  0 active torsions:
REMARK  status: ('A' for Active; 'I' for Inactive)
ROOT
HETATM    1  C1  UNL     1     -33.447  17.373  -4.862  1.00 20.00     0.066 C 
HETATM    2  C2  UNL     1     -34.580  15.599  -2.723  1.00 20.00     0.038 C 
HETATM    3  C3  UNL     1     -35.602  14.802  -3.535  1.00 20.00     0.273 C 
HETATM    4  C4  UNL     1     -34.361  15.145  -5.571  1.00 20.00     0.292 C 
HETATM    5  C5  UNL     1     -33.523  13.829  -3.843  1.00 20.00     0.278 C 
HETATM    6  C6  UNL     1     -33.246  15.921  -4.857  1.00 20.00     0.127 C 
HETATM    7  C7  UNL     1     -33.274  15.281  -3.463  1.00 20.00     0.035 C 
HETATM    8  N8  UNL     1     -33.606  18.522  -4.866  1.00 20.00    -0.197 NA
HETATM    9  N9  UNL     1     -34.788  14.116  -4.575  1.00 20.00     0.090 N 
ENDROOT
TORSDOF 0
ENDMDL
MODEL 6
REMARK VINA RESULT:      -3.8      1.611      3.228
REMARK  0 active torsions:
REMARK  status: ('A' for Active; 'I' for Inactive)
ROOT
HETATM    1  C1  UNL     1     -34.412  15.766  -2.288  1.00 20.00     0.066 C 
HETATM    2  C2  UNL     1     -36.383  14.399  -4.090  1.00 20.00     0.038 C 
HETATM    3  C3  UNL     1     -36.118  15.136  -5.404  1.00 20.00     0.273 C 
HETATM    4  C4  UNL     1     -33.864  15.665  -4.735  1.00 20.00     0.292 C 
HETATM    5  C5  UNL     1     -34.520  13.475  -5.177  1.00 20.00     0.278 C 
HETATM    6  C6  UNL     1     -33.995  14.913  -3.405  1.00 20.00     0.127 C 
HETATM    7  C7  UNL     1     -35.001  13.814  -3.774  1.00 20.00     0.035 C 
HETATM    8  N8  UNL     1     -34.741  16.441  -1.405  1.00 20.00    -0.197 NA
HETATM    9  N9  UNL     1     -34.684  14.862  -5.693  1.00 20.00     0.090 N 
ENDROOT
TORSDOF 0
ENDMDL
MODEL 7
REMARK VINA RESULT:      -3.8      1.739      2.411
REMARK  0 active torsions:
REMARK  status: ('A' for Active; 'I' for Inactive)
ROOT
HETATM    1  C1  UNL     1     -36.643  14.487  -4.093  1.00 20.00     0.066 C 
HETATM    2  C2  UNL     1     -35.059  16.908  -3.302  1.00 20.00     0.038 C 
HETATM    3  C3  UNL     1     -33.979  16.263  -2.432  1.00 20.00     0.273 C 
HETATM    4  C4  UNL     1     -34.208  14.159  -3.584  1.00 20.00     0.292 C 
HETATM    5  C5  UNL     1     -33.346  16.041  -4.648  1.00 20.00     0.278 C 
HETATM    6  C6  UNL     1     -35.268  14.708  -4.547  1.00 20.00     0.127 C 
HETATM    7  C7  UNL     1     -34.860  16.185  -4.639  1.00 20.00     0.035 C 
HETATM    8  N8  UNL     1     -37.732  14.311  -3.734  1.00 20.00    -0.197 NA
HETATM    9  N9  UNL     1     -33.290  15.315  -3.349  1.00 20.00     0.090 N 
ENDROOT
TORSDOF 0
ENDMDL
MODEL 8
REMARK VINA RESULT:      -3.7     11.809     13.107
REMARK  0 active torsions:
REMARK  status: ('A' for Active; 'I' for Inactive)
ROOT
HETATM    1  C1  UNL     1     -42.626   7.720  -0.914  1.00 20.00     0.066 C 
HETATM    2  C2  UNL     1     -42.414   5.056   0.449  1.00 20.00     0.038 C 
HETATM    3  C3  UNL     1     -42.860   4.128  -0.683  1.00 20.00     0.273 C 
HETATM    4  C4  UNL     1     -42.169   5.718  -2.355  1.00 20.00     0.292 C 
HETATM    5  C5  UNL     1     -40.621   4.627  -1.002  1.00 20.00     0.278 C 
HETATM    6  C6  UNL     1     -41.642   6.711  -1.312  1.00 20.00     0.127 C 
HETATM    7  C7  UNL     1     -41.210   5.765  -0.183  1.00 20.00     0.035 C 
HETATM    8  N8  UNL     1     -43.406   8.520  -0.599  1.00 20.00    -0.197 NA
HETATM    9  N9  UNL     1     -41.873   4.376  -1.768  1.00 20.00     0.090 N 
ENDROOT
TORSDOF 0
ENDMDL
MODEL 9
REMARK VINA RESULT:      -3.7      1.571      3.024
REMARK  0 active torsions:
REMARK  status: ('A' for Active; 'I' for Inactive)
ROOT
HETATM    1  C1  UNL     1     -34.542  16.434  -1.938  1.00 20.00     0.066 C 
HETATM    2  C2  UNL     1     -34.254  13.882  -3.490  1.00 20.00     0.038 C 
HETATM    3  C3  UNL     1     -35.578  13.870  -4.254  1.00 20.00     0.273 C 
HETATM    4  C4  UNL     1     -35.755  16.269  -4.128  1.00 20.00     0.292 C 
HETATM    5  C5  UNL     1     -34.100  15.237  -5.398  1.00 20.00     0.278 C 
HETATM    6  C6  UNL     1     -34.414  16.412  -3.397  1.00 20.00     0.127 C 
HETATM    7  C7  UNL     1     -33.638  15.209  -3.949  1.00 20.00     0.035 C 
HETATM    8  N8  UNL     1     -34.642  16.451  -0.783  1.00 20.00    -0.197 NA
HETATM    9  N9  UNL     1     -35.546  15.120  -5.061  1.00 20.00     0.090 N 
ENDROOT
TORSDOF 0
ENDMDL
