MODEL 1
REMARK VINA RESULT:      -5.2      0.000      0.000
REMARK  2 active torsions:
REMARK  status: ('A' for Active; 'I' for Inactive)
REMARK    1  A    between atoms: C1_1  and  C7_7 
REMARK    2  A    between atoms: C8_8  and  C12_12 
ROOT
HETATM    1  C2  UNL     1     -36.728  15.779  -3.058  1.00 20.00     0.001 C 
HETATM    2  C3  UNL     1     -35.936  14.908  -4.028  1.00 20.00     0.011 C 
HETATM    3  C4  UNL     1     -33.545  15.575  -3.494  1.00 20.00     0.012 C 
HETATM    4  C5  UNL     1     -36.010  17.034  -2.558  1.00 20.00     0.005 C 
HETATM    5  C6  UNL     1     -33.532  16.417  -2.218  1.00 20.00     0.006 C 
HETATM    6  C7  UNL     1     -34.573  14.444  -3.511  1.00 20.00     0.047 C 
HETATM    7  C8  UNL     1     -34.886  16.721  -1.559  1.00 20.00    -0.007 C 
ENDROOT
BRANCH   7   8
HETATM    8  C12 UNL     1     -34.711  17.886  -0.576  1.00 20.00    -0.048 C 
HETATM    9  C9  UNL     1     -33.225  18.266  -0.491  1.00 20.00     0.015 C 
HETATM   10  C10 UNL     1     -35.210  17.465   0.813  1.00 20.00     0.015 C 
HETATM   11  C11 UNL     1     -35.520  19.097  -1.065  1.00 20.00     0.015 C 
ENDBRANCH   7   8
BRANCH   6  12
HETATM   12  C1  UNL     1     -34.080  13.362  -4.428  1.00 20.00     0.235 C 
HETATM   13  O13 UNL     1     -34.809  12.507  -4.918  1.00 20.00    -0.306 OA
ENDBRANCH   6  12
TORSDOF 2
ENDMDL
MODEL 2
REMARK VINA RESULT:      -5.1      2.861      5.097
REMARK  2 active torsions:
REMARK  status: ('A' for Active; 'I' for Inactive)
REMARK    1  A    between atoms: C1_1  and  C7_7 
REMARK    2  A    between atoms: C8_8  and  C12_12 
ROOT
HETATM    1  C2  UNL     1     -33.771  18.713  -3.681  1.00 20.00     0.001 C 
HETATM    2  C3  UNL     1     -33.508  19.255  -2.281  1.00 20.00     0.011 C 
HETATM    3  C4  UNL     1     -34.259  17.317  -0.821  1.00 20.00     0.012 C 
HETATM    4  C5  UNL     1     -34.806  17.589  -3.773  1.00 20.00     0.005 C 
HETATM    5  C6  UNL     1     -34.495  16.090  -1.701  1.00 20.00     0.006 C 
HETATM    6  C7  UNL     1     -33.090  18.204  -1.251  1.00 20.00     0.047 C 
HETATM    7  C8  UNL     1     -34.289  16.254  -3.215  1.00 20.00    -0.007 C 
ENDROOT
BRANCH   7   8
HETATM    8  C12 UNL     1     -34.961  15.081  -3.940  1.00 20.00    -0.048 C 
HETATM    9  C9  UNL     1     -36.425  14.968  -3.486  1.00 20.00     0.015 C 
HETATM   10  C10 UNL     1     -34.221  13.779  -3.604  1.00 20.00     0.015 C 
HETATM   11  C11 UNL     1     -34.914  15.320  -5.456  1.00 20.00     0.015 C 
ENDBRANCH   7   8
BRANCH   6  12
HETATM   12  C1  UNL     1     -32.569  18.928  -0.043  1.00 20.00     0.235 C 
HETATM   13  O13 UNL     1     -31.397  19.263   0.091  1.00 20.00    -0.306 OA
ENDBRANCH   6  12
TORSDOF 2
ENDMDL
MODEL 3
REMARK VINA RESULT:      -5.0      2.851      5.106
REMARK  2 active torsions:
REMARK  status: ('A' for Active; 'I' for Inactive)
REMARK    1  A    between atoms: C1_1  and  C7_7 
REMARK    2  A    between atoms: C8_8  and  C12_12 
ROOT
HETATM    1  C2  UNL     1     -33.813  18.604  -3.843  1.00 20.00     0.001 C 
HETATM    2  C3  UNL     1     -33.578  19.166  -2.445  1.00 20.00     0.011 C 
HETATM    3  C4  UNL     1     -34.271  17.213  -0.975  1.00 20.00     0.012 C 
HETATM    4  C5  UNL     1     -34.807  17.444  -3.933  1.00 20.00     0.005 C 
HETATM    5  C6  UNL     1     -34.458  15.972  -1.848  1.00 20.00     0.006 C 
HETATM    6  C7  UNL     1     -33.130  18.137  -1.404  1.00 20.00     0.047 C 
HETATM    7  C8  UNL     1     -34.248  16.132  -3.361  1.00 20.00    -0.007 C 
ENDROOT
BRANCH   7   8
HETATM    8  C12 UNL     1     -34.873  14.931  -4.081  1.00 20.00    -0.048 C 
HETATM    9  C9  UNL     1     -34.772  15.135  -5.601  1.00 20.00     0.015 C 
HETATM   10  C10 UNL     1     -36.350  14.804  -3.681  1.00 20.00     0.015 C 
HETATM   11  C11 UNL     1     -34.124  13.649  -3.687  1.00 20.00     0.015 C 
ENDBRANCH   7   8
BRANCH   6  12
HETATM   12  C1  UNL     1     -32.643  18.888  -0.198  1.00 20.00     0.235 C 
HETATM   13  O13 UNL     1     -31.484  19.262  -0.058  1.00 20.00    -0.306 OA
ENDBRANCH   6  12
TORSDOF 2
ENDMDL
MODEL 4
REMARK VINA RESULT:      -5.0      2.877      5.144
REMARK  2 active torsions:
REMARK  status: ('A' for Active; 'I' for Inactive)
REMARK    1  A    between atoms: C1_1  and  C7_7 
REMARK    2  A    between atoms: C8_8  and  C12_12 
ROOT
HETATM    1  C2  UNL     1     -33.675  18.584  -3.967  1.00 20.00     0.001 C 
HETATM    2  C3  UNL     1     -33.527  19.178  -2.570  1.00 20.00     0.011 C 
HETATM    3  C4  UNL     1     -34.298  17.255  -1.101  1.00 20.00     0.012 C 
HETATM    4  C5  UNL     1     -34.658  17.417  -4.089  1.00 20.00     0.005 C 
HETATM    5  C6  UNL     1     -34.428  15.993  -1.954  1.00 20.00     0.006 C 
HETATM    6  C7  UNL     1     -33.138  18.175  -1.481  1.00 20.00     0.047 C 
HETATM    7  C8  UNL     1     -34.128  16.121  -3.456  1.00 20.00    -0.007 C 
ENDROOT
BRANCH   7   8
HETATM    8  C12 UNL     1     -34.705  14.900  -4.185  1.00 20.00    -0.048 C 
HETATM    9  C9  UNL     1     -33.906  13.647  -3.797  1.00 20.00     0.015 C 
HETATM   10  C10 UNL     1     -34.610  15.117  -5.701  1.00 20.00     0.015 C 
HETATM   11  C11 UNL     1     -36.176  14.711  -3.785  1.00 20.00     0.015 C 
ENDBRANCH   7   8
BRANCH   6  12
HETATM   12  C1  UNL     1     -32.727  18.955  -0.266  1.00 20.00     0.235 C 
HETATM   13  O13 UNL     1     -31.565  19.263  -0.022  1.00 20.00    -0.306 OA
ENDBRANCH   6  12
TORSDOF 2
ENDMDL
MODEL 5
REMARK VINA RESULT:      -4.9      1.352      2.135
REMARK  2 active torsions:
REMARK  status: ('A' for Active; 'I' for Inactive)
REMARK    1  A    between atoms: C1_1  and  C7_7 
REMARK    2  A    between atoms: C8_8  and  C12_12 
ROOT
HETATM    1  C2  UNL     1     -34.099  17.368  -5.134  1.00 20.00     0.001 C 
HETATM    2  C3  UNL     1     -33.991  15.916  -5.590  1.00 20.00     0.011 C 
HETATM    3  C4  UNL     1     -34.050  14.670  -3.378  1.00 20.00     0.012 C 
HETATM    4  C5  UNL     1     -33.668  17.643  -3.692  1.00 20.00     0.005 C 
HETATM    5  C6  UNL     1     -34.441  15.643  -2.265  1.00 20.00     0.006 C 
HETATM    6  C7  UNL     1     -34.745  14.910  -4.718  1.00 20.00     0.047 C 
HETATM    7  C8  UNL     1     -34.670  17.111  -2.657  1.00 20.00    -0.007 C 
ENDROOT
BRANCH   7   8
HETATM    8  C12 UNL     1     -34.635  17.976  -1.390  1.00 20.00    -0.048 C 
HETATM    9  C9  UNL     1     -35.784  18.994  -1.434  1.00 20.00     0.015 C 
HETATM   10  C10 UNL     1     -33.295  18.721  -1.315  1.00 20.00     0.015 C 
HETATM   11  C11 UNL     1     -34.792  17.081  -0.152  1.00 20.00     0.015 C 
ENDBRANCH   7   8
BRANCH   6  12
HETATM   12  C1  UNL     1     -34.804  13.610  -5.467  1.00 20.00     0.235 C 
HETATM   13  O13 UNL     1     -34.792  12.513  -4.919  1.00 20.00    -0.306 OA
ENDBRANCH   6  12
TORSDOF 2
ENDMDL
MODEL 6
REMARK VINA RESULT:      -4.7      1.898      2.824
REMARK  2 active torsions:
REMARK  status: ('A' for Active; 'I' for Inactive)
REMARK    1  A    between atoms: C1_1  and  C7_7 
REMARK    2  A    between atoms: C8_8  and  C12_12 
ROOT
HETATM    1  C2  UNL     1     -33.931  14.099  -3.674  1.00 20.00     0.001 C 
HETATM    2  C3  UNL     1     -34.393  13.906  -5.114  1.00 20.00     0.011 C 
HETATM    3  C4  UNL     1     -35.658  16.064  -5.550  1.00 20.00     0.012 C 
HETATM    4  C5  UNL     1     -34.742  15.098  -2.846  1.00 20.00     0.005 C 
HETATM    5  C6  UNL     1     -35.387  17.043  -4.407  1.00 20.00     0.006 C 
HETATM    6  C7  UNL     1     -34.468  15.188  -5.945  1.00 20.00     0.047 C 
HETATM    7  C8  UNL     1     -34.492  16.557  -3.257  1.00 20.00    -0.007 C 
ENDROOT
BRANCH   7   8
HETATM    8  C12 UNL     1     -34.680  17.488  -2.052  1.00 20.00    -0.048 C 
HETATM    9  C9  UNL     1     -36.064  18.150  -2.127  1.00 20.00     0.015 C 
HETATM   10  C10 UNL     1     -33.594  18.572  -2.066  1.00 20.00     0.015 C 
HETATM   11  C11 UNL     1     -34.574  16.674  -0.753  1.00 20.00     0.015 C 
ENDBRANCH   7   8
BRANCH   6  12
HETATM   12  C1  UNL     1     -34.621  14.793  -7.385  1.00 20.00     0.235 C 
HETATM   13  O13 UNL     1     -35.641  14.288  -7.842  1.00 20.00    -0.306 OA
ENDBRANCH   6  12
TORSDOF 2
ENDMDL
MODEL 7
REMARK VINA RESULT:      -4.5      3.908      6.401
REMARK  2 active torsions:
REMARK  status: ('A' for Active; 'I' for Inactive)
REMARK    1  A    between atoms: C1_1  and  C7_7 
REMARK    2  A    between atoms: C8_8  and  C12_12 
ROOT
HETATM    1  C2  UNL     1     -31.707  18.983   0.644  1.00 20.00     0.001 C 
HETATM    2  C3  UNL     1     -31.948  19.263   2.123  1.00 20.00     0.011 C 
HETATM    3  C4  UNL     1     -34.438  18.816   2.340  1.00 20.00     0.012 C 
HETATM    4  C5  UNL     1     -32.937  19.089  -0.260  1.00 20.00     0.005 C 
HETATM    5  C6  UNL     1     -34.941  18.149   1.059  1.00 20.00     0.006 C 
HETATM    6  C7  UNL     1     -33.032  18.402   2.774  1.00 20.00     0.047 C 
HETATM    7  C8  UNL     1     -33.922  17.925  -0.068  1.00 20.00    -0.007 C 
ENDROOT
BRANCH   7   8
HETATM    8  C12 UNL     1     -34.676  17.649  -1.375  1.00 20.00    -0.048 C 
HETATM    9  C9  UNL     1     -33.970  18.366  -2.536  1.00 20.00     0.015 C 
HETATM   10  C10 UNL     1     -36.116  18.168  -1.256  1.00 20.00     0.015 C 
HETATM   11  C11 UNL     1     -34.698  16.137  -1.646  1.00 20.00     0.015 C 
ENDBRANCH   7   8
BRANCH   6  12
HETATM   12  C1  UNL     1     -32.921  18.572   4.262  1.00 20.00     0.235 C 
HETATM   13  O13 UNL     1     -31.868  18.828   4.836  1.00 20.00    -0.306 OA
ENDBRANCH   6  12
TORSDOF 2
ENDMDL
MODEL 8
REMARK VINA RESULT:      -4.5      2.604      5.017
REMARK  2 active torsions:
REMARK  status: ('A' for Active; 'I' for Inactive)
REMARK    1  A    between atoms: C1_1  and  C7_7 
REMARK    2  A    between atoms: C8_8  and  C12_12 
ROOT
HETATM    1  C2  UNL     1     -35.154  18.444  -3.828  1.00 20.00     0.001 C 
HETATM    2  C3  UNL     1     -34.747  18.674  -2.376  1.00 20.00     0.011 C 
HETATM    3  C4  UNL     1     -34.578  16.296  -1.499  1.00 20.00     0.012 C 
HETATM    4  C5  UNL     1     -35.826  17.101  -4.122  1.00 20.00     0.005 C 
HETATM    5  C6  UNL     1     -34.652  15.322  -2.675  1.00 20.00     0.006 C 
HETATM    6  C7  UNL     1     -33.831  17.599  -1.786  1.00 20.00     0.047 C 
HETATM    7  C8  UNL     1     -34.845  15.920  -4.077  1.00 20.00    -0.007 C 
ENDROOT
BRANCH   7   8
HETATM    8  C12 UNL     1     -35.305  14.811  -5.032  1.00 20.00    -0.048 C 
HETATM    9  C9  UNL     1     -34.455  14.850  -6.311  1.00 20.00     0.015 C 
HETATM   10  C10 UNL     1     -36.782  15.026  -5.394  1.00 20.00     0.015 C 
HETATM   11  C11 UNL     1     -35.139  13.444  -4.351  1.00 20.00     0.015 C 
ENDBRANCH   7   8
BRANCH   6  12
HETATM   12  C1  UNL     1     -33.277  18.128  -0.495  1.00 20.00     0.235 C 
HETATM   13  O13 UNL     1     -33.889  18.094   0.568  1.00 20.00    -0.306 OA
ENDBRANCH   6  12
TORSDOF 2
ENDMDL
MODEL 9
REMARK VINA RESULT:      -4.4      2.883      5.343
REMARK  2 active torsions:
REMARK  status: ('A' for Active; 'I' for Inactive)
REMARK    1  A    between atoms: C1_1  and  C7_7 
REMARK    2  A    between atoms: C8_8  and  C12_12 
ROOT
HETATM    1  C2  UNL     1     -34.715  15.624  -2.217  1.00 20.00     0.001 C 
HETATM    2  C3  UNL     1     -33.926  16.889  -1.895  1.00 20.00     0.011 C 
HETATM    3  C4  UNL     1     -33.275  17.700  -4.212  1.00 20.00     0.012 C 
HETATM    4  C5  UNL     1     -34.417  14.985  -3.575  1.00 20.00     0.005 C 
HETATM    5  C6  UNL     1     -34.048  16.899  -5.259  1.00 20.00     0.006 C 
HETATM    6  C7  UNL     1     -34.052  18.008  -2.932  1.00 20.00     0.047 C 
HETATM    7  C8  UNL     1     -34.985  15.792  -4.753  1.00 20.00    -0.007 C 
ENDROOT
BRANCH   7   8
HETATM    8  C12 UNL     1     -35.329  14.857  -5.919  1.00 20.00    -0.048 C 
HETATM    9  C9  UNL     1     -36.794  15.066  -6.329  1.00 20.00     0.015 C 
HETATM   10  C10 UNL     1     -35.123  13.399  -5.486  1.00 20.00     0.015 C 
HETATM   11  C11 UNL     1     -34.415  15.169  -7.114  1.00 20.00     0.015 C 
ENDBRANCH   7   8
BRANCH   6  12
HETATM   12  C1  UNL     1     -33.494  19.261  -2.322  1.00 20.00     0.235 C 
HETATM   13  O13 UNL     1     -32.704  19.263  -1.384  1.00 20.00    -0.306 OA
ENDBRANCH   6  12
TORSDOF 2
ENDMDL
