MODEL 1
REMARK VINA RESULT:      -4.7      0.000      0.000
REMARK  2 active torsions:
REMARK  status: ('A' for Active; 'I' for Inactive)
REMARK    1  A    between atoms: C1_1  and  C5_5 
REMARK    2  A    between atoms: C6_6  and  C8_8 
ROOT
HETATM    1  C2  UNL     1     -34.090   6.272   6.274  1.00 20.00     0.012 C 
HETATM    2  C3  UNL     1     -33.183   7.001   5.286  1.00 20.00     0.005 C 
HETATM    3  C4  UNL     1     -34.652   5.667   3.969  1.00 20.00     0.016 C 
HETATM    4  C5  UNL     1     -35.080   5.478   5.422  1.00 20.00     0.047 C 
HETATM    5  C6  UNL     1     -33.190   6.104   4.054  1.00 20.00    -0.014 C 
ENDROOT
BRANCH   4   6
HETATM    6  C1  UNL     1     -34.972   4.005   5.774  1.00 20.00     0.235 C 
HETATM    7  O9  UNL     1     -34.921   3.112   4.935  1.00 20.00    -0.306 OA
ENDBRANCH   4   6
BRANCH   5   8
HETATM    8  C8  UNL     1     -32.702   6.807   2.799  1.00 20.00     0.000 C 
HETATM    9  C7  UNL     1     -31.626   7.804   3.099  1.00 20.00     0.005 C 
ENDBRANCH   5   8
TORSDOF 2
ENDMDL
MODEL 2
REMARK VINA RESULT:      -4.7      2.523      4.138
REMARK  2 active torsions:
REMARK  status: ('A' for Active; 'I' for Inactive)
REMARK    1  A    between atoms: C1_1  and  C5_5 
REMARK    2  A    between atoms: C6_6  and  C8_8 
ROOT
HETATM    1  C2  UNL     1     -32.385   7.284   4.623  1.00 20.00     0.012 C 
HETATM    2  C3  UNL     1     -33.501   6.443   5.236  1.00 20.00     0.005 C 
HETATM    3  C4  UNL     1     -33.347   5.767   2.958  1.00 20.00     0.016 C 
HETATM    4  C5  UNL     1     -32.238   6.793   3.183  1.00 20.00     0.047 C 
HETATM    5  C6  UNL     1     -34.377   6.072   4.045  1.00 20.00    -0.014 C 
ENDROOT
BRANCH   4   6
HETATM    6  C1  UNL     1     -32.453   7.959   2.234  1.00 20.00     0.235 C 
HETATM    7  O9  UNL     1     -31.625   8.312   1.400  1.00 20.00    -0.306 OA
ENDBRANCH   4   6
BRANCH   5   8
HETATM    8  C8  UNL     1     -35.310   4.907   4.328  1.00 20.00     0.000 C 
HETATM    9  C7  UNL     1     -34.979   4.225   5.618  1.00 20.00     0.005 C 
ENDBRANCH   5   8
TORSDOF 2
ENDMDL
MODEL 3
REMARK VINA RESULT:      -4.4     11.861     12.639
REMARK  2 active torsions:
REMARK  status: ('A' for Active; 'I' for Inactive)
REMARK    1  A    between atoms: C1_1  and  C5_5 
REMARK    2  A    between atoms: C6_6  and  C8_8 
ROOT
HETATM    1  C2  UNL     1     -35.756  15.298  -4.160  1.00 20.00     0.012 C 
HETATM    2  C3  UNL     1     -35.731  16.294  -3.003  1.00 20.00     0.005 C 
HETATM    3  C4  UNL     1     -33.467  15.653  -3.367  1.00 20.00     0.016 C 
HETATM    4  C5  UNL     1     -34.295  14.949  -4.439  1.00 20.00     0.047 C 
HETATM    5  C6  UNL     1     -34.461  15.937  -2.241  1.00 20.00    -0.014 C 
ENDROOT
BRANCH   4   6
HETATM    6  C1  UNL     1     -34.104  13.449  -4.296  1.00 20.00     0.235 C 
HETATM    7  O9  UNL     1     -34.966  12.627  -4.586  1.00 20.00    -0.306 OA
ENDBRANCH   4   6
BRANCH   5   8
HETATM    8  C8  UNL     1     -33.999  17.037  -1.299  1.00 20.00     0.000 C 
HETATM    9  C7  UNL     1     -34.844  17.108  -0.066  1.00 20.00     0.005 C 
ENDBRANCH   5   8
TORSDOF 2
ENDMDL
MODEL 4
REMARK VINA RESULT:      -4.2     12.012     12.899
REMARK  2 active torsions:
REMARK  status: ('A' for Active; 'I' for Inactive)
REMARK    1  A    between atoms: C1_1  and  C5_5 
REMARK    2  A    between atoms: C6_6  and  C8_8 
ROOT
HETATM    1  C2  UNL     1     -34.909  16.132  -5.052  1.00 20.00     0.012 C 
HETATM    2  C3  UNL     1     -35.056  16.896  -3.738  1.00 20.00     0.005 C 
HETATM    3  C4  UNL     1     -33.889  14.890  -3.204  1.00 20.00     0.016 C 
HETATM    4  C5  UNL     1     -34.093  14.884  -4.718  1.00 20.00     0.047 C 
HETATM    5  C6  UNL     1     -34.990  15.807  -2.673  1.00 20.00    -0.014 C 
ENDROOT
BRANCH   4   6
HETATM    6  C1  UNL     1     -34.890  13.649  -5.097  1.00 20.00     0.235 C 
HETATM    7  O9  UNL     1     -34.993  12.663  -4.375  1.00 20.00    -0.306 OA
ENDBRANCH   4   6
BRANCH   5   8
HETATM    8  C8  UNL     1     -34.700  16.347  -1.283  1.00 20.00     0.000 C 
HETATM    9  C7  UNL     1     -33.646  17.408  -1.304  1.00 20.00     0.005 C 
ENDBRANCH   5   8
TORSDOF 2
ENDMDL
MODEL 5
REMARK VINA RESULT:      -4.1      1.717      2.224
REMARK  2 active torsions:
REMARK  status: ('A' for Active; 'I' for Inactive)
REMARK    1  A    between atoms: C1_1  and  C5_5 
REMARK    2  A    between atoms: C6_6  and  C8_8 
ROOT
HETATM    1  C2  UNL     1     -35.331   5.161   4.167  1.00 20.00     0.012 C 
HETATM    2  C3  UNL     1     -34.580   5.679   2.943  1.00 20.00     0.005 C 
HETATM    3  C4  UNL     1     -32.960   5.499   4.679  1.00 20.00     0.016 C 
HETATM    4  C5  UNL     1     -34.274   4.974   5.254  1.00 20.00     0.047 C 
HETATM    5  C6  UNL     1     -33.384   6.417   3.533  1.00 20.00    -0.014 C 
ENDROOT
BRANCH   4   6
HETATM    6  C1  UNL     1     -34.646   5.814   6.463  1.00 20.00     0.235 C 
HETATM    7  O9  UNL     1     -34.073   6.856   6.764  1.00 20.00    -0.306 OA
ENDBRANCH   4   6
BRANCH   5   8
HETATM    8  C8  UNL     1     -32.276   6.664   2.523  1.00 20.00     0.000 C 
HETATM    9  C7  UNL     1     -32.128   8.117   2.198  1.00 20.00     0.005 C 
ENDBRANCH   5   8
TORSDOF 2
ENDMDL
MODEL 6
REMARK VINA RESULT:      -4.0     11.830     13.442
REMARK  2 active torsions:
REMARK  status: ('A' for Active; 'I' for Inactive)
REMARK    1  A    between atoms: C1_1  and  C5_5 
REMARK    2  A    between atoms: C6_6  and  C8_8 
ROOT
HETATM    1  C2  UNL     1     -34.027  13.917  -3.562  1.00 20.00     0.012 C 
HETATM    2  C3  UNL     1     -34.382  13.725  -5.035  1.00 20.00     0.005 C 
HETATM    3  C4  UNL     1     -33.290  15.837  -4.893  1.00 20.00     0.016 C 
HETATM    4  C5  UNL     1     -33.260  15.236  -3.489  1.00 20.00     0.047 C 
HETATM    5  C6  UNL     1     -34.468  15.146  -5.579  1.00 20.00    -0.014 C 
ENDROOT
BRANCH   4   6
HETATM    6  C1  UNL     1     -33.977  16.180  -2.540  1.00 20.00     0.235 C 
HETATM    7  O9  UNL     1     -35.066  15.930  -2.033  1.00 20.00    -0.306 OA
ENDBRANCH   4   6
BRANCH   5   8
HETATM    8  C8  UNL     1     -34.400  15.211  -7.095  1.00 20.00     0.000 C 
HETATM    9  C7  UNL     1     -35.532  14.474  -7.738  1.00 20.00     0.005 C 
ENDBRANCH   5   8
TORSDOF 2
ENDMDL
MODEL 7
REMARK VINA RESULT:      -3.9     11.967     12.848
REMARK  2 active torsions:
REMARK  status: ('A' for Active; 'I' for Inactive)
REMARK    1  A    between atoms: C1_1  and  C5_5 
REMARK    2  A    between atoms: C6_6  and  C8_8 
ROOT
HETATM    1  C2  UNL     1     -33.702  17.380  -3.466  1.00 20.00     0.012 C 
HETATM    2  C3  UNL     1     -33.340  16.151  -4.296  1.00 20.00     0.005 C 
HETATM    3  C4  UNL     1     -34.821  15.384  -2.596  1.00 20.00     0.016 C 
HETATM    4  C5  UNL     1     -34.711  16.898  -2.426  1.00 20.00     0.047 C 
HETATM    5  C6  UNL     1     -33.542  14.987  -3.332  1.00 20.00    -0.014 C 
ENDROOT
BRANCH   4   6
HETATM    6  C1  UNL     1     -34.177  17.194  -1.036  1.00 20.00     0.235 C 
HETATM    7  O9  UNL     1     -34.779  16.911  -0.006  1.00 20.00    -0.306 OA
ENDBRANCH   4   6
BRANCH   5   8
HETATM    8  C8  UNL     1     -33.646  13.642  -4.031  1.00 20.00     0.000 C 
HETATM    9  C7  UNL     1     -35.057  13.311  -4.399  1.00 20.00     0.005 C 
ENDBRANCH   5   8
TORSDOF 2
ENDMDL
MODEL 8
REMARK VINA RESULT:      -3.9      2.202      4.179
REMARK  2 active torsions:
REMARK  status: ('A' for Active; 'I' for Inactive)
REMARK    1  A    between atoms: C1_1  and  C5_5 
REMARK    2  A    between atoms: C6_6  and  C8_8 
ROOT
HETATM    1  C2  UNL     1     -34.096   5.534   2.739  1.00 20.00     0.012 C 
HETATM    2  C3  UNL     1     -34.777   4.925   3.962  1.00 20.00     0.005 C 
HETATM    3  C4  UNL     1     -33.763   6.945   4.713  1.00 20.00     0.016 C 
HETATM    4  C5  UNL     1     -33.514   6.866   3.208  1.00 20.00     0.047 C 
HETATM    5  C6  UNL     1     -33.994   5.495   5.139  1.00 20.00    -0.014 C 
ENDROOT
BRANCH   4   6
HETATM    6  C1  UNL     1     -32.016   6.871   2.962  1.00 20.00     0.235 C 
HETATM    7  O9  UNL     1     -31.238   7.626   3.537  1.00 20.00    -0.306 OA
ENDBRANCH   4   6
BRANCH   5   8
HETATM    8  C8  UNL     1     -34.727   5.370   6.463  1.00 20.00     0.000 C 
HETATM    9  C7  UNL     1     -35.394   4.039   6.610  1.00 20.00     0.005 C 
ENDBRANCH   5   8
TORSDOF 2
ENDMDL
MODEL 9
REMARK VINA RESULT:      -3.8     12.461     12.934
REMARK  2 active torsions:
REMARK  status: ('A' for Active; 'I' for Inactive)
REMARK    1  A    between atoms: C1_1  and  C5_5 
REMARK    2  A    between atoms: C6_6  and  C8_8 
ROOT
HETATM    1  C2  UNL     1     -34.084  14.108  -4.435  1.00 20.00     0.012 C 
HETATM    2  C3  UNL     1     -33.235  14.961  -3.497  1.00 20.00     0.005 C 
HETATM    3  C4  UNL     1     -35.500  15.374  -2.890  1.00 20.00     0.016 C 
HETATM    4  C5  UNL     1     -35.531  14.317  -3.991  1.00 20.00     0.047 C 
HETATM    5  C6  UNL     1     -34.167  16.095  -3.089  1.00 20.00    -0.014 C 
ENDROOT
BRANCH   4   6
HETATM    6  C1  UNL     1     -36.339  14.855  -5.159  1.00 20.00     0.235 C 
HETATM    7  O9  UNL     1     -37.238  15.681  -5.036  1.00 20.00    -0.306 OA
ENDBRANCH   4   6
BRANCH   5   8
HETATM    8  C8  UNL     1     -33.698  16.839  -1.850  1.00 20.00     0.000 C 
HETATM    9  C7  UNL     1     -34.667  16.706  -0.718  1.00 20.00     0.005 C 
ENDBRANCH   5   8
TORSDOF 2
ENDMDL
