MODEL 1
REMARK VINA RESULT:      -4.5      0.000      0.000
REMARK  2 active torsions:
REMARK  status: ('A' for Active; 'I' for Inactive)
REMARK    1  A    between atoms: C4_4  and  C8_8 
REMARK    2  A    between atoms: C5_5  and  C9_9 
ROOT
HETATM    1  C1  UNL     1     -33.608  17.409  -4.015  1.00 20.00     0.032 C 
HETATM    2  C2  UNL     1     -34.737  15.579  -2.735  1.00 20.00     0.043 C 
HETATM    3  C3  UNL     1     -33.394  16.410  -5.144  1.00 20.00     0.169 C 
HETATM    4  C4  UNL     1     -33.686  16.694  -2.664  1.00 20.00     0.004 C 
HETATM    5  C5  UNL     1     -34.526  14.645  -3.941  1.00 20.00     0.057 C 
HETATM    6  C6  UNL     1     -33.309  13.724  -3.759  1.00 20.00     0.046 C 
HETATM    7  O10 UNL     1     -34.409  15.409  -5.152  1.00 20.00    -0.381 OA
ENDROOT
BRANCH   5   8
HETATM    8  C9  UNL     1     -35.772  13.765  -4.120  1.00 20.00     0.033 C 
HETATM    9  C7  UNL     1     -37.023  14.567  -4.012  1.00 20.00     0.008 C 
ENDBRANCH   5   8
BRANCH   4  10
HETATM   10  C8  UNL     1     -34.007  17.679  -1.542  1.00 20.00     0.119 C 
HETATM   11 CL11 UNL     1     -34.795  16.834  -0.197  1.00 20.00    -0.130 Cl
ENDBRANCH   4  10
TORSDOF 2
ENDMDL
MODEL 2
REMARK VINA RESULT:      -4.3      1.694      3.049
REMARK  2 active torsions:
REMARK  status: ('A' for Active; 'I' for Inactive)
REMARK    1  A    between atoms: C4_4  and  C8_8 
REMARK    2  A    between atoms: C5_5  and  C9_9 
ROOT
HETATM    1  C1  UNL     1     -34.231  14.023  -3.435  1.00 20.00     0.032 C 
HETATM    2  C2  UNL     1     -34.460  16.022  -4.921  1.00 20.00     0.043 C 
HETATM    3  C3  UNL     1     -34.985  13.224  -4.488  1.00 20.00     0.169 C 
HETATM    4  C4  UNL     1     -34.625  15.501  -3.489  1.00 20.00     0.004 C 
HETATM    5  C5  UNL     1     -35.171  15.133  -5.959  1.00 20.00     0.057 C 
HETATM    6  C6  UNL     1     -36.700  15.276  -5.898  1.00 20.00     0.046 C 
HETATM    7  O10 UNL     1     -34.782  13.760  -5.793  1.00 20.00    -0.381 OA
ENDROOT
BRANCH   5   8
HETATM    8  C9  UNL     1     -34.707  15.533  -7.367  1.00 20.00     0.033 C 
HETATM    9  C7  UNL     1     -34.588  17.013  -7.500  1.00 20.00     0.008 C 
ENDBRANCH   5   8
BRANCH   4  10
HETATM   10  C8  UNL     1     -33.794  16.324  -2.507  1.00 20.00     0.119 C 
HETATM   11 CL11 UNL     1     -34.635  16.445  -0.951  1.00 20.00    -0.130 Cl
ENDBRANCH   4  10
TORSDOF 2
ENDMDL
MODEL 3
REMARK VINA RESULT:      -4.2      1.462      1.924
REMARK  2 active torsions:
REMARK  status: ('A' for Active; 'I' for Inactive)
REMARK    1  A    between atoms: C4_4  and  C8_8 
REMARK    2  A    between atoms: C5_5  and  C9_9 
ROOT
HETATM    1  C1  UNL     1     -33.494  16.238  -2.776  1.00 20.00     0.032 C 
HETATM    2  C2  UNL     1     -35.742  15.792  -3.781  1.00 20.00     0.043 C 
HETATM    3  C3  UNL     1     -32.927  15.183  -3.716  1.00 20.00     0.169 C 
HETATM    4  C4  UNL     1     -34.967  15.957  -2.468  1.00 20.00     0.004 C 
HETATM    5  C5  UNL     1     -35.082  14.776  -4.733  1.00 20.00     0.057 C 
HETATM    6  C6  UNL     1     -35.254  13.328  -4.248  1.00 20.00     0.046 C 
HETATM    7  O10 UNL     1     -33.692  15.089  -4.915  1.00 20.00    -0.381 OA
ENDROOT
BRANCH   5   8
HETATM    8  C9  UNL     1     -35.725  14.897  -6.122  1.00 20.00     0.033 C 
HETATM    9  C7  UNL     1     -34.696  14.882  -7.200  1.00 20.00     0.008 C 
ENDBRANCH   5   8
BRANCH   4  10
HETATM   10  C8  UNL     1     -35.568  17.069  -1.612  1.00 20.00     0.119 C 
HETATM   11 CL11 UNL     1     -34.866  17.032   0.015  1.00 20.00    -0.130 Cl
ENDBRANCH   4  10
TORSDOF 2
ENDMDL
MODEL 4
REMARK VINA RESULT:      -4.2      2.283      3.918
REMARK  2 active torsions:
REMARK  status: ('A' for Active; 'I' for Inactive)
REMARK    1  A    between atoms: C4_4  and  C8_8 
REMARK    2  A    between atoms: C5_5  and  C9_9 
ROOT
HETATM    1  C1  UNL     1     -35.421  13.630  -4.186  1.00 20.00     0.032 C 
HETATM    2  C2  UNL     1     -35.687  15.892  -3.149  1.00 20.00     0.043 C 
HETATM    3  C3  UNL     1     -33.926  13.904  -4.263  1.00 20.00     0.169 C 
HETATM    4  C4  UNL     1     -36.216  14.938  -4.227  1.00 20.00     0.004 C 
HETATM    5  C5  UNL     1     -34.158  16.071  -3.217  1.00 20.00     0.057 C 
HETATM    6  C6  UNL     1     -33.724  16.916  -4.425  1.00 20.00     0.046 C 
HETATM    7  O10 UNL     1     -33.505  14.792  -3.230  1.00 20.00    -0.381 OA
ENDROOT
BRANCH   5   8
HETATM    8  C9  UNL     1     -33.677  16.775  -1.940  1.00 20.00     0.033 C 
HETATM    9  C7  UNL     1     -34.656  16.612  -0.828  1.00 20.00     0.008 C 
ENDBRANCH   5   8
BRANCH   4  10
HETATM   10  C8  UNL     1     -37.709  14.676  -4.042  1.00 20.00     0.119 C 
HETATM   11 CL11 UNL     1     -38.597  15.169  -5.496  1.00 20.00    -0.130 Cl
ENDBRANCH   4  10
TORSDOF 2
ENDMDL
MODEL 5
REMARK VINA RESULT:      -4.2      2.465      3.965
REMARK  2 active torsions:
REMARK  status: ('A' for Active; 'I' for Inactive)
REMARK    1  A    between atoms: C4_4  and  C8_8 
REMARK    2  A    between atoms: C5_5  and  C9_9 
ROOT
HETATM    1  C1  UNL     1     -33.286  16.244  -4.647  1.00 20.00     0.032 C 
HETATM    2  C2  UNL     1     -34.087  15.861  -2.308  1.00 20.00     0.043 C 
HETATM    3  C3  UNL     1     -33.659  17.710  -4.475  1.00 20.00     0.169 C 
HETATM    4  C4  UNL     1     -34.152  15.354  -3.753  1.00 20.00     0.004 C 
HETATM    5  C5  UNL     1     -34.390  17.367  -2.196  1.00 20.00     0.057 C 
HETATM    6  C6  UNL     1     -35.878  17.679  -2.422  1.00 20.00     0.046 C 
HETATM    7  O10 UNL     1     -33.570  18.113  -3.110  1.00 20.00    -0.381 OA
ENDROOT
BRANCH   5   8
HETATM    8  C9  UNL     1     -34.004  17.856  -0.793  1.00 20.00     0.033 C 
HETATM    9  C7  UNL     1     -34.908  17.288   0.247  1.00 20.00     0.008 C 
ENDBRANCH   5   8
BRANCH   4  10
HETATM   10  C8  UNL     1     -33.711  13.894  -3.843  1.00 20.00     0.119 C 
HETATM   11 CL11 UNL     1     -34.725  13.022  -5.007  1.00 20.00    -0.130 Cl
ENDBRANCH   4  10
TORSDOF 2
ENDMDL
MODEL 6
REMARK VINA RESULT:      -4.1      2.700      3.979
REMARK  2 active torsions:
REMARK  status: ('A' for Active; 'I' for Inactive)
REMARK    1  A    between atoms: C4_4  and  C8_8 
REMARK    2  A    between atoms: C5_5  and  C9_9 
ROOT
HETATM    1  C1  UNL     1     -35.132  14.055  -6.208  1.00 20.00     0.032 C 
HETATM    2  C2  UNL     1     -34.732  16.140  -4.884  1.00 20.00     0.043 C 
HETATM    3  C3  UNL     1     -34.699  13.262  -4.983  1.00 20.00     0.169 C 
HETATM    4  C4  UNL     1     -34.474  15.437  -6.221  1.00 20.00     0.004 C 
HETATM    5  C5  UNL     1     -34.356  15.265  -3.673  1.00 20.00     0.057 C 
HETATM    6  C6  UNL     1     -32.834  15.128  -3.505  1.00 20.00     0.046 C 
HETATM    7  O10 UNL     1     -34.974  13.972  -3.778  1.00 20.00    -0.381 OA
ENDROOT
BRANCH   5   8
HETATM    8  C9  UNL     1     -34.925  15.899  -2.396  1.00 20.00     0.033 C 
HETATM    9  C7  UNL     1     -33.904  16.737  -1.705  1.00 20.00     0.008 C 
ENDBRANCH   5   8
BRANCH   4  10
HETATM   10  C8  UNL     1     -34.987  16.276  -7.390  1.00 20.00     0.119 C 
HETATM   11 CL11 UNL     1     -34.286  17.903  -7.325  1.00 20.00    -0.130 Cl
ENDBRANCH   4  10
TORSDOF 2
ENDMDL
MODEL 7
REMARK VINA RESULT:      -4.1      2.458      4.344
REMARK  2 active torsions:
REMARK  status: ('A' for Active; 'I' for Inactive)
REMARK    1  A    between atoms: C4_4  and  C8_8 
REMARK    2  A    between atoms: C5_5  and  C9_9 
ROOT
HETATM    1  C1  UNL     1     -35.743  15.266  -3.730  1.00 20.00     0.032 C 
HETATM    2  C2  UNL     1     -33.585  16.048  -2.733  1.00 20.00     0.043 C 
HETATM    3  C3  UNL     1     -36.440  16.368  -2.944  1.00 20.00     0.169 C 
HETATM    4  C4  UNL     1     -34.460  14.822  -3.024  1.00 20.00     0.004 C 
HETATM    5  C5  UNL     1     -34.359  17.168  -2.011  1.00 20.00     0.057 C 
HETATM    6  C6  UNL     1     -34.656  16.816  -0.544  1.00 20.00     0.046 C 
HETATM    7  O10 UNL     1     -35.571  17.475  -2.716  1.00 20.00    -0.381 OA
ENDROOT
BRANCH   5   8
HETATM    8  C9  UNL     1     -33.521  18.454  -2.036  1.00 20.00     0.033 C 
HETATM    9  C7  UNL     1     -32.989  18.783  -0.683  1.00 20.00     0.008 C 
ENDBRANCH   5   8
BRANCH   4  10
HETATM   10  C8  UNL     1     -33.703  13.794  -3.861  1.00 20.00     0.119 C 
HETATM   11 CL11 UNL     1     -34.729  13.213  -5.185  1.00 20.00    -0.130 Cl
ENDBRANCH   4  10
TORSDOF 2
ENDMDL
MODEL 8
REMARK VINA RESULT:      -4.1      1.182      1.877
REMARK  2 active torsions:
REMARK  status: ('A' for Active; 'I' for Inactive)
REMARK    1  A    between atoms: C4_4  and  C8_8 
REMARK    2  A    between atoms: C5_5  and  C9_9 
ROOT
HETATM    1  C1  UNL     1     -35.571  17.550  -2.519  1.00 20.00     0.032 C 
HETATM    2  C2  UNL     1     -33.608  16.007  -2.687  1.00 20.00     0.043 C 
HETATM    3  C3  UNL     1     -35.953  17.125  -3.930  1.00 20.00     0.169 C 
HETATM    4  C4  UNL     1     -34.061  17.421  -2.303  1.00 20.00     0.004 C 
HETATM    5  C5  UNL     1     -34.091  15.592  -4.090  1.00 20.00     0.057 C 
HETATM    6  C6  UNL     1     -33.332  16.326  -5.206  1.00 20.00     0.046 C 
HETATM    7  O10 UNL     1     -35.506  15.802  -4.215  1.00 20.00    -0.381 OA
ENDROOT
BRANCH   5   8
HETATM    8  C9  UNL     1     -33.872  14.084  -4.272  1.00 20.00     0.033 C 
HETATM    9  C7  UNL     1     -35.167  13.345  -4.286  1.00 20.00     0.008 C 
ENDBRANCH   5   8
BRANCH   4  10
HETATM   10  C8  UNL     1     -33.686  17.744  -0.858  1.00 20.00     0.119 C 
HETATM   11 CL11 UNL     1     -34.930  17.130   0.245  1.00 20.00    -0.130 Cl
ENDBRANCH   4  10
TORSDOF 2
ENDMDL
MODEL 9
REMARK VINA RESULT:      -4.1      2.619      3.985
REMARK  2 active torsions:
REMARK  status: ('A' for Active; 'I' for Inactive)
REMARK    1  A    between atoms: C4_4  and  C8_8 
REMARK    2  A    between atoms: C5_5  and  C9_9 
ROOT
HETATM    1  C1  UNL     1     -36.381  15.056  -5.713  1.00 20.00     0.032 C 
HETATM    2  C2  UNL     1     -34.087  15.830  -5.081  1.00 20.00     0.043 C 
HETATM    3  C3  UNL     1     -36.481  14.413  -4.337  1.00 20.00     0.169 C 
HETATM    4  C4  UNL     1     -34.921  15.142  -6.167  1.00 20.00     0.004 C 
HETATM    5  C5  UNL     1     -34.288  15.196  -3.691  1.00 20.00     0.057 C 
HETATM    6  C6  UNL     1     -33.616  13.818  -3.578  1.00 20.00     0.046 C 
HETATM    7  O10 UNL     1     -35.687  15.107  -3.378  1.00 20.00    -0.381 OA
ENDROOT
BRANCH   5   8
HETATM    8  C9  UNL     1     -33.677  16.117  -2.625  1.00 20.00     0.033 C 
HETATM    9  C7  UNL     1     -34.619  16.334  -1.491  1.00 20.00     0.008 C 
ENDBRANCH   5   8
BRANCH   4  10
HETATM   10  C8  UNL     1     -34.805  15.881  -7.498  1.00 20.00     0.119 C 
HETATM   11 CL11 UNL     1     -34.406  17.585  -7.215  1.00 20.00    -0.130 Cl
ENDBRANCH   4  10
TORSDOF 2
ENDMDL
