MODEL 1
REMARK VINA RESULT:      -5.1      0.000      0.000
REMARK  2 active torsions:
REMARK  status: ('A' for Active; 'I' for Inactive)
REMARK    1  A    between atoms: C1_1  and  C7_7 
REMARK    2  A    between atoms: C8_8  and  C11_11 
ROOT
HETATM    1  C2  UNL     1     -33.401  13.866  -3.911  1.00 20.00     0.001 C 
HETATM    2  C3  UNL     1     -33.475  15.198  -3.169  1.00 20.00     0.011 C 
HETATM    3  C4  UNL     1     -36.064  15.559  -3.186  1.00 20.00     0.012 C 
HETATM    4  C5  UNL     1     -34.694  13.376  -4.554  1.00 20.00     0.005 C 
HETATM    5  C6  UNL     1     -35.874  15.691  -4.697  1.00 20.00     0.005 C 
HETATM    6  C7  UNL     1     -34.762  15.427  -2.369  1.00 20.00     0.047 C 
HETATM    7  C8  UNL     1     -35.460  14.391  -5.414  1.00 20.00    -0.011 C 
ENDROOT
BRANCH   7   8
HETATM    8  C11 UNL     1     -34.708  14.717  -6.706  1.00 20.00    -0.019 C 
HETATM    9  C9  UNL     1     -35.589  14.436  -7.918  1.00 20.00     0.010 C 
HETATM   10  C10 UNL     1     -34.243  16.169  -6.697  1.00 20.00     0.010 C 
ENDBRANCH   7   8
BRANCH   6  11
HETATM   11  C1  UNL     1     -34.583  16.678  -1.557  1.00 20.00     0.235 C 
HETATM   12  O12 UNL     1     -34.689  16.712  -0.335  1.00 20.00    -0.306 OA
ENDBRANCH   6  11
TORSDOF 2
ENDMDL
MODEL 2
REMARK VINA RESULT:      -4.9      2.345      4.565
REMARK  2 active torsions:
REMARK  status: ('A' for Active; 'I' for Inactive)
REMARK    1  A    between atoms: C1_1  and  C7_7 
REMARK    2  A    between atoms: C8_8  and  C11_11 
ROOT
HETATM    1  C2  UNL     1     -34.122  13.483  -4.191  1.00 20.00     0.001 C 
HETATM    2  C3  UNL     1     -35.039  13.867  -5.350  1.00 20.00     0.011 C 
HETATM    3  C4  UNL     1     -33.921  16.121  -6.058  1.00 20.00     0.012 C 
HETATM    4  C5  UNL     1     -33.128  14.545  -3.734  1.00 20.00     0.005 C 
HETATM    5  C6  UNL     1     -34.401  16.604  -4.689  1.00 20.00     0.005 C 
HETATM    6  C7  UNL     1     -34.381  14.703  -6.452  1.00 20.00     0.047 C 
HETATM    7  C8  UNL     1     -33.691  15.952  -3.486  1.00 20.00    -0.011 C 
ENDROOT
BRANCH   7   8
HETATM    8  C11 UNL     1     -34.599  15.986  -2.254  1.00 20.00    -0.019 C 
HETATM    9  C9  UNL     1     -34.036  16.942  -1.209  1.00 20.00     0.010 C 
HETATM   10  C10 UNL     1     -36.015  16.388  -2.651  1.00 20.00     0.010 C 
ENDBRANCH   7   8
BRANCH   6  11
HETATM   11  C1  UNL     1     -35.359  14.819  -7.587  1.00 20.00     0.235 C 
HETATM   12  O12 UNL     1     -36.575  14.741  -7.442  1.00 20.00    -0.306 OA
ENDBRANCH   6  11
TORSDOF 2
ENDMDL
MODEL 3
REMARK VINA RESULT:      -4.7      2.413      4.611
REMARK  2 active torsions:
REMARK  status: ('A' for Active; 'I' for Inactive)
REMARK    1  A    between atoms: C1_1  and  C7_7 
REMARK    2  A    between atoms: C8_8  and  C11_11 
ROOT
HETATM    1  C2  UNL     1     -35.202  13.969  -4.167  1.00 20.00     0.001 C 
HETATM    2  C3  UNL     1     -35.489  14.832  -5.393  1.00 20.00     0.011 C 
HETATM    3  C4  UNL     1     -33.357  16.345  -5.365  1.00 20.00     0.012 C 
HETATM    4  C5  UNL     1     -34.025  14.397  -3.297  1.00 20.00     0.005 C 
HETATM    5  C6  UNL     1     -33.953  16.884  -4.063  1.00 20.00     0.005 C 
HETATM    6  C7  UNL     1     -34.249  15.347  -6.131  1.00 20.00     0.047 C 
HETATM    7  C8  UNL     1     -33.972  15.879  -2.895  1.00 20.00    -0.011 C 
ENDROOT
BRANCH   7   8
HETATM    8  C11 UNL     1     -35.087  16.235  -1.909  1.00 20.00    -0.019 C 
HETATM    9  C9  UNL     1     -34.496  16.810  -0.627  1.00 20.00     0.010 C 
HETATM   10  C10 UNL     1     -36.062  17.219  -2.546  1.00 20.00     0.010 C 
ENDBRANCH   7   8
BRANCH   6  11
HETATM   11  C1  UNL     1     -34.709  16.002  -7.403  1.00 20.00     0.235 C 
HETATM   12  O12 UNL     1     -34.455  17.166  -7.694  1.00 20.00    -0.306 OA
ENDBRANCH   6  11
TORSDOF 2
ENDMDL
MODEL 4
REMARK VINA RESULT:      -4.6      2.234      4.654
REMARK  2 active torsions:
REMARK  status: ('A' for Active; 'I' for Inactive)
REMARK    1  A    between atoms: C1_1  and  C7_7 
REMARK    2  A    between atoms: C8_8  and  C11_11 
ROOT
HETATM    1  C2  UNL     1     -33.301  16.913  -4.592  1.00 20.00     0.001 C 
HETATM    2  C3  UNL     1     -33.510  15.403  -4.668  1.00 20.00     0.011 C 
HETATM    3  C4  UNL     1     -36.030  15.280  -3.986  1.00 20.00     0.012 C 
HETATM    4  C5  UNL     1     -34.437  17.723  -3.976  1.00 20.00     0.005 C 
HETATM    5  C6  UNL     1     -35.523  15.777  -2.633  1.00 20.00     0.005 C 
HETATM    6  C7  UNL     1     -34.933  14.959  -5.022  1.00 20.00     0.047 C 
HETATM    7  C8  UNL     1     -34.987  17.222  -2.633  1.00 20.00    -0.011 C 
ENDROOT
BRANCH   7   8
HETATM    8  C11 UNL     1     -33.973  17.410  -1.502  1.00 20.00    -0.019 C 
HETATM    9  C9  UNL     1     -33.413  18.828  -1.523  1.00 20.00     0.010 C 
HETATM   10  C10 UNL     1     -34.617  17.100  -0.156  1.00 20.00     0.010 C 
ENDBRANCH   7   8
BRANCH   6  11
HETATM   11  C1  UNL     1     -34.910  13.473  -5.244  1.00 20.00     0.235 C 
HETATM   12  O12 UNL     1     -35.012  12.653  -4.337  1.00 20.00    -0.306 OA
ENDBRANCH   6  11
TORSDOF 2
ENDMDL
MODEL 5
REMARK VINA RESULT:      -4.4      1.782      3.006
REMARK  2 active torsions:
REMARK  status: ('A' for Active; 'I' for Inactive)
REMARK    1  A    between atoms: C1_1  and  C7_7 
REMARK    2  A    between atoms: C8_8  and  C11_11 
ROOT
HETATM    1  C2  UNL     1     -33.445  17.219  -4.696  1.00 20.00     0.001 C 
HETATM    2  C3  UNL     1     -34.265  18.141  -3.797  1.00 20.00     0.011 C 
HETATM    3  C4  UNL     1     -34.016  16.866  -1.529  1.00 20.00     0.012 C 
HETATM    4  C5  UNL     1     -33.012  15.889  -4.088  1.00 20.00     0.005 C 
HETATM    5  C6  UNL     1     -34.833  15.782  -2.232  1.00 20.00     0.005 C 
HETATM    6  C7  UNL     1     -33.832  18.173  -2.328  1.00 20.00     0.047 C 
HETATM    7  C8  UNL     1     -34.104  15.068  -3.387  1.00 20.00    -0.011 C 
ENDROOT
BRANCH   7   8
HETATM    8  C11 UNL     1     -35.119  14.509  -4.387  1.00 20.00    -0.019 C 
HETATM    9  C9  UNL     1     -34.772  13.068  -4.744  1.00 20.00     0.010 C 
HETATM   10  C10 UNL     1     -36.530  14.603  -3.818  1.00 20.00     0.010 C 
ENDBRANCH   7   8
BRANCH   6  11
HETATM   11  C1  UNL     1     -34.608  19.261  -1.642  1.00 20.00     0.235 C 
HETATM   12  O12 UNL     1     -35.304  19.073  -0.650  1.00 20.00    -0.306 OA
ENDBRANCH   6  11
TORSDOF 2
ENDMDL
MODEL 6
REMARK VINA RESULT:      -4.4      1.373      2.081
REMARK  2 active torsions:
REMARK  status: ('A' for Active; 'I' for Inactive)
REMARK    1  A    between atoms: C1_1  and  C7_7 
REMARK    2  A    between atoms: C8_8  and  C11_11 
ROOT
HETATM    1  C2  UNL     1     -33.728  17.628  -4.721  1.00 20.00     0.001 C 
HETATM    2  C3  UNL     1     -34.488  17.448  -3.410  1.00 20.00     0.011 C 
HETATM    3  C4  UNL     1     -34.071  14.898  -3.016  1.00 20.00     0.012 C 
HETATM    4  C5  UNL     1     -33.246  16.354  -5.406  1.00 20.00     0.005 C 
HETATM    5  C6  UNL     1     -34.930  14.727  -4.269  1.00 20.00     0.005 C 
HETATM    6  C7  UNL     1     -33.952  16.344  -2.493  1.00 20.00     0.047 C 
HETATM    7  C8  UNL     1     -34.281  15.231  -5.573  1.00 20.00    -0.011 C 
ENDROOT
BRANCH   7   8
HETATM    8  C11 UNL     1     -35.361  15.607  -6.590  1.00 20.00    -0.019 C 
HETATM    9  C9  UNL     1     -35.282  14.693  -7.808  1.00 20.00     0.010 C 
HETATM   10  C10 UNL     1     -36.741  15.537  -5.947  1.00 20.00     0.010 C 
ENDBRANCH   7   8
BRANCH   6  11
HETATM   11  C1  UNL     1     -34.683  16.437  -1.184  1.00 20.00     0.235 C 
HETATM   12  O12 UNL     1     -34.324  17.158  -0.259  1.00 20.00    -0.306 OA
ENDBRANCH   6  11
TORSDOF 2
ENDMDL
MODEL 7
REMARK VINA RESULT:      -4.4      2.840      4.948
REMARK  2 active torsions:
REMARK  status: ('A' for Active; 'I' for Inactive)
REMARK    1  A    between atoms: C1_1  and  C7_7 
REMARK    2  A    between atoms: C8_8  and  C11_11 
ROOT
HETATM    1  C2  UNL     1     -34.178  15.354  -3.149  1.00 20.00     0.001 C 
HETATM    2  C3  UNL     1     -35.662  15.007  -3.064  1.00 20.00     0.011 C 
HETATM    3  C4  UNL     1     -36.684  17.393  -3.366  1.00 20.00     0.012 C 
HETATM    4  C5  UNL     1     -33.829  16.838  -3.137  1.00 20.00     0.005 C 
HETATM    5  C6  UNL     1     -36.024  17.672  -2.015  1.00 20.00     0.005 C 
HETATM    6  C7  UNL     1     -36.595  15.932  -3.851  1.00 20.00     0.047 C 
HETATM    7  C8  UNL     1     -34.483  17.688  -2.038  1.00 20.00    -0.011 C 
ENDROOT
BRANCH   7   8
HETATM    8  C11 UNL     1     -33.930  17.342  -0.653  1.00 20.00    -0.019 C 
HETATM    9  C9  UNL     1     -32.835  18.327  -0.259  1.00 20.00     0.010 C 
HETATM   10  C10 UNL     1     -35.052  17.336   0.379  1.00 20.00     0.010 C 
ENDBRANCH   7   8
BRANCH   6  11
HETATM   11  C1  UNL     1     -37.973  15.336  -3.816  1.00 20.00     0.235 C 
HETATM   12  O12 UNL     1     -38.187  14.128  -3.793  1.00 20.00    -0.306 OA
ENDBRANCH   6  11
TORSDOF 2
ENDMDL
MODEL 8
REMARK VINA RESULT:      -4.2      2.298      4.701
REMARK  2 active torsions:
REMARK  status: ('A' for Active; 'I' for Inactive)
REMARK    1  A    between atoms: C1_1  and  C7_7 
REMARK    2  A    between atoms: C8_8  and  C11_11 
ROOT
HETATM    1  C2  UNL     1     -37.032  16.115  -4.414  1.00 20.00     0.001 C 
HETATM    2  C3  UNL     1     -36.082  15.946  -5.597  1.00 20.00     0.011 C 
HETATM    3  C4  UNL     1     -34.632  13.962  -4.706  1.00 20.00     0.012 C 
HETATM    4  C5  UNL     1     -36.695  15.323  -3.155  1.00 20.00     0.005 C 
HETATM    5  C6  UNL     1     -34.166  14.980  -3.665  1.00 20.00     0.005 C 
HETATM    6  C7  UNL     1     -35.552  14.524  -5.809  1.00 20.00     0.047 C 
HETATM    7  C8  UNL     1     -35.246  15.415  -2.655  1.00 20.00    -0.011 C 
ENDROOT
BRANCH   7   8
HETATM    8  C11 UNL     1     -34.926  16.807  -2.105  1.00 20.00    -0.019 C 
HETATM    9  C9  UNL     1     -34.593  16.726  -0.620  1.00 20.00     0.010 C 
HETATM   10  C10 UNL     1     -33.777  17.434  -2.887  1.00 20.00     0.010 C 
ENDBRANCH   7   8
BRANCH   6  11
HETATM   11  C1  UNL     1     -34.802  14.501  -7.110  1.00 20.00     0.235 C 
HETATM   12  O12 UNL     1     -34.085  15.420  -7.493  1.00 20.00    -0.306 OA
ENDBRANCH   6  11
TORSDOF 2
ENDMDL
MODEL 9
REMARK VINA RESULT:      -4.1      1.149      2.549
REMARK  2 active torsions:
REMARK  status: ('A' for Active; 'I' for Inactive)
REMARK    1  A    between atoms: C1_1  and  C7_7 
REMARK    2  A    between atoms: C8_8  and  C11_11 
ROOT
HETATM    1  C2  UNL     1     -36.118  17.216  -4.115  1.00 20.00     0.001 C 
HETATM    2  C3  UNL     1     -35.970  16.741  -2.672  1.00 20.00     0.011 C 
HETATM    3  C4  UNL     1     -33.388  16.335  -2.613  1.00 20.00     0.012 C 
HETATM    4  C5  UNL     1     -34.887  17.074  -5.004  1.00 20.00     0.005 C 
HETATM    5  C6  UNL     1     -33.702  15.221  -3.612  1.00 20.00     0.005 C 
HETATM    6  C7  UNL     1     -34.619  17.051  -2.019  1.00 20.00     0.047 C 
HETATM    7  C8  UNL     1     -34.186  15.707  -4.993  1.00 20.00    -0.011 C 
ENDROOT
BRANCH   7   8
HETATM    8  C11 UNL     1     -35.041  14.629  -5.662  1.00 20.00    -0.019 C 
HETATM    9  C9  UNL     1     -34.779  14.602  -7.164  1.00 20.00     0.010 C 
HETATM   10  C10 UNL     1     -34.761  13.267  -5.037  1.00 20.00     0.010 C 
ENDBRANCH   7   8
BRANCH   6  11
HETATM   11  C1  UNL     1     -34.718  16.695  -0.563  1.00 20.00     0.235 C 
HETATM   12  O12 UNL     1     -34.993  17.508   0.314  1.00 20.00    -0.306 OA
ENDBRANCH   6  11
TORSDOF 2
ENDMDL
