MODEL 1
REMARK VINA RESULT:      -4.5      0.000      0.000
REMARK  2 active torsions:
REMARK  status: ('A' for Active; 'I' for Inactive)
REMARK    1  A    between atoms: C5_5  and  C8_8 
REMARK    2  A    between atoms: C6_6  and  C9_9 
ROOT
HETATM    1  C1  UNL     1     -34.232   5.467   2.438  1.00 20.00     0.001 C 
HETATM    2  C2  UNL     1     -34.580   5.267   3.912  1.00 20.00     0.005 C 
HETATM    3  C3  UNL     1     -32.731   5.660   2.234  1.00 20.00     0.005 C 
HETATM    4  C4  UNL     1     -32.534   6.596   4.575  1.00 20.00     0.010 C 
HETATM    5  C5  UNL     1     -34.045   6.408   4.785  1.00 20.00    -0.014 C 
HETATM    6  C6  UNL     1     -32.146   6.784   3.101  1.00 20.00    -0.000 C 
ENDROOT
BRANCH   5   7
HETATM    7  C8  UNL     1     -34.352   6.144   6.259  1.00 20.00     0.000 C 
HETATM    8  C7  UNL     1     -34.881   4.764   6.473  1.00 20.00     0.005 C 
ENDBRANCH   5   7
BRANCH   6   9
HETATM    9  C9  UNL     1     -32.549   8.167   2.580  1.00 20.00     0.119 C 
HETATM   10 CL10 UNL     1     -31.701   8.514   1.064  1.00 20.00    -0.130 Cl
ENDBRANCH   6   9
TORSDOF 2
ENDMDL
MODEL 2
REMARK VINA RESULT:      -4.4     11.491     11.960
REMARK  2 active torsions:
REMARK  status: ('A' for Active; 'I' for Inactive)
REMARK    1  A    between atoms: C5_5  and  C8_8 
REMARK    2  A    between atoms: C6_6  and  C9_9 
ROOT
HETATM    1  C1  UNL     1     -36.404  14.709  -3.788  1.00 20.00     0.001 C 
HETATM    2  C2  UNL     1     -35.746  15.456  -2.630  1.00 20.00     0.005 C 
HETATM    3  C3  UNL     1     -35.457  13.686  -4.411  1.00 20.00     0.005 C 
HETATM    4  C4  UNL     1     -33.475  15.075  -3.675  1.00 20.00     0.010 C 
HETATM    5  C5  UNL     1     -34.425  16.110  -3.050  1.00 20.00    -0.014 C 
HETATM    6  C6  UNL     1     -34.111  14.292  -4.834  1.00 20.00    -0.000 C 
ENDROOT
BRANCH   5   7
HETATM    7  C8  UNL     1     -33.761  16.792  -1.854  1.00 20.00     0.000 C 
HETATM    8  C7  UNL     1     -34.643  16.774  -0.649  1.00 20.00     0.005 C 
ENDBRANCH   5   7
BRANCH   6   9
HETATM    9  C9  UNL     1     -34.251  15.155  -6.092  1.00 20.00     0.119 C 
HETATM   10 CL10 UNL     1     -35.270  14.330  -7.282  1.00 20.00    -0.130 Cl
ENDBRANCH   6   9
TORSDOF 2
ENDMDL
MODEL 3
REMARK VINA RESULT:      -4.3     10.819     12.158
REMARK  2 active torsions:
REMARK  status: ('A' for Active; 'I' for Inactive)
REMARK    1  A    between atoms: C5_5  and  C8_8 
REMARK    2  A    between atoms: C6_6  and  C9_9 
ROOT
HETATM    1  C1  UNL     1     -33.823  16.942  -4.584  1.00 20.00     0.001 C 
HETATM    2  C2  UNL     1     -33.712  17.713  -3.271  1.00 20.00     0.005 C 
HETATM    3  C3  UNL     1     -35.079  16.075  -4.624  1.00 20.00     0.005 C 
HETATM    4  C4  UNL     1     -35.048  15.913  -2.101  1.00 20.00     0.010 C 
HETATM    5  C5  UNL     1     -33.781  16.782  -2.054  1.00 20.00    -0.014 C 
HETATM    6  C6  UNL     1     -35.200  15.135  -3.417  1.00 20.00    -0.000 C 
ENDROOT
BRANCH   5   7
HETATM    7  C8  UNL     1     -33.734  17.590  -0.758  1.00 20.00     0.000 C 
HETATM    8  C7  UNL     1     -34.871  17.248   0.147  1.00 20.00     0.005 C 
ENDBRANCH   5   7
BRANCH   6   9
HETATM    9  C9  UNL     1     -34.209  13.970  -3.505  1.00 20.00     0.119 C 
HETATM   10 CL10 UNL     1     -34.481  13.055  -4.996  1.00 20.00    -0.130 Cl
ENDBRANCH   6   9
TORSDOF 2
ENDMDL
MODEL 4
REMARK VINA RESULT:      -4.2     11.410     13.003
REMARK  2 active torsions:
REMARK  status: ('A' for Active; 'I' for Inactive)
REMARK    1  A    between atoms: C5_5  and  C8_8 
REMARK    2  A    between atoms: C6_6  and  C9_9 
ROOT
HETATM    1  C1  UNL     1     -33.197  16.364  -4.796  1.00 20.00     0.001 C 
HETATM    2  C2  UNL     1     -34.017  15.822  -5.965  1.00 20.00     0.005 C 
HETATM    3  C3  UNL     1     -33.218  15.411  -3.603  1.00 20.00     0.005 C 
HETATM    4  C4  UNL     1     -35.468  14.528  -4.348  1.00 20.00     0.010 C 
HETATM    5  C5  UNL     1     -35.454  15.488  -5.548  1.00 20.00    -0.014 C 
HETATM    6  C6  UNL     1     -34.638  15.035  -3.158  1.00 20.00    -0.000 C 
ENDROOT
BRANCH   5   7
HETATM    7  C8  UNL     1     -36.227  14.889  -6.722  1.00 20.00     0.000 C 
HETATM    8  C7  UNL     1     -35.330  14.594  -7.879  1.00 20.00     0.005 C 
ENDBRANCH   5   7
BRANCH   6   9
HETATM    9  C9  UNL     1     -35.330  16.196  -2.436  1.00 20.00     0.119 C 
HETATM   10 CL10 UNL     1     -34.542  16.496  -0.879  1.00 20.00    -0.130 Cl
ENDBRANCH   6   9
TORSDOF 2
ENDMDL
MODEL 5
REMARK VINA RESULT:      -4.2      2.582      4.174
REMARK  2 active torsions:
REMARK  status: ('A' for Active; 'I' for Inactive)
REMARK    1  A    between atoms: C5_5  and  C8_8 
REMARK    2  A    between atoms: C6_6  and  C9_9 
ROOT
HETATM    1  C1  UNL     1     -34.447   4.968   2.985  1.00 20.00     0.001 C 
HETATM    2  C2  UNL     1     -33.364   5.947   2.538  1.00 20.00     0.005 C 
HETATM    3  C3  UNL     1     -35.371   5.588   4.031  1.00 20.00     0.005 C 
HETATM    4  C4  UNL     1     -33.501   7.121   4.774  1.00 20.00     0.010 C 
HETATM    5  C5  UNL     1     -32.566   6.497   3.726  1.00 20.00    -0.014 C 
HETATM    6  C6  UNL     1     -34.614   6.168   5.235  1.00 20.00    -0.000 C 
ENDROOT
BRANCH   5   7
HETATM    7  C8  UNL     1     -31.536   7.522   3.250  1.00 20.00     0.000 C 
HETATM    8  C7  UNL     1     -31.983   8.216   2.006  1.00 20.00     0.005 C 
ENDBRANCH   5   7
BRANCH   6   9
HETATM    9  C9  UNL     1     -34.073   5.062   6.147  1.00 20.00     0.119 C 
HETATM   10 CL10 UNL     1     -35.102   3.626   6.034  1.00 20.00    -0.130 Cl
ENDBRANCH   6   9
TORSDOF 2
ENDMDL
MODEL 6
REMARK VINA RESULT:      -4.1     11.210     12.339
REMARK  2 active torsions:
REMARK  status: ('A' for Active; 'I' for Inactive)
REMARK    1  A    between atoms: C5_5  and  C8_8 
REMARK    2  A    between atoms: C6_6  and  C9_9 
ROOT
HETATM    1  C1  UNL     1     -34.837  13.270  -4.542  1.00 20.00     0.001 C 
HETATM    2  C2  UNL     1     -34.066  14.070  -3.495  1.00 20.00     0.005 C 
HETATM    3  C3  UNL     1     -34.964  14.036  -5.856  1.00 20.00     0.005 C 
HETATM    4  C4  UNL     1     -34.803  16.223  -4.597  1.00 20.00     0.010 C 
HETATM    5  C5  UNL     1     -34.680  15.457  -3.270  1.00 20.00    -0.014 C 
HETATM    6  C6  UNL     1     -35.560  15.439  -5.680  1.00 20.00    -0.000 C 
ENDROOT
BRANCH   5   7
HETATM    7  C8  UNL     1     -33.848  16.256  -2.267  1.00 20.00     0.000 C 
HETATM    8  C7  UNL     1     -34.621  16.556  -1.025  1.00 20.00     0.005 C 
ENDBRANCH   5   7
BRANCH   6   9
HETATM    9  C9  UNL     1     -37.064  15.382  -5.393  1.00 20.00     0.119 C 
HETATM   10 CL10 UNL     1     -37.619  16.938  -4.757  1.00 20.00    -0.130 Cl
ENDBRANCH   6   9
TORSDOF 2
ENDMDL
MODEL 7
REMARK VINA RESULT:      -4.1     10.969     12.956
REMARK  2 active torsions:
REMARK  status: ('A' for Active; 'I' for Inactive)
REMARK    1  A    between atoms: C5_5  and  C8_8 
REMARK    2  A    between atoms: C6_6  and  C9_9 
ROOT
HETATM    1  C1  UNL     1     -34.401  13.979  -3.596  1.00 20.00     0.001 C 
HETATM    2  C2  UNL     1     -34.468  13.877  -5.118  1.00 20.00     0.005 C 
HETATM    3  C3  UNL     1     -35.347  15.052  -3.061  1.00 20.00     0.005 C 
HETATM    4  C4  UNL     1     -35.166  16.304  -5.251  1.00 20.00     0.010 C 
HETATM    5  C5  UNL     1     -34.211  15.229  -5.794  1.00 20.00    -0.014 C 
HETATM    6  C6  UNL     1     -35.136  16.422  -3.719  1.00 20.00    -0.000 C 
ENDROOT
BRANCH   5   7
HETATM    7  C8  UNL     1     -34.350  15.105  -7.311  1.00 20.00     0.000 C 
HETATM    8  C7  UNL     1     -35.613  14.407  -7.693  1.00 20.00     0.005 C 
ENDBRANCH   5   7
BRANCH   6   9
HETATM    9  C9  UNL     1     -33.850  17.094  -3.227  1.00 20.00     0.119 C 
HETATM   10 CL10 UNL     1     -33.720  16.937  -1.468  1.00 20.00    -0.130 Cl
ENDBRANCH   6   9
TORSDOF 2
ENDMDL
MODEL 8
REMARK VINA RESULT:      -4.0     11.154     12.380
REMARK  2 active torsions:
REMARK  status: ('A' for Active; 'I' for Inactive)
REMARK    1  A    between atoms: C5_5  and  C8_8 
REMARK    2  A    between atoms: C6_6  and  C9_9 
ROOT
HETATM    1  C1  UNL     1     -35.416  18.012  -3.473  1.00 20.00     0.001 C 
HETATM    2  C2  UNL     1     -35.871  16.765  -4.228  1.00 20.00     0.005 C 
HETATM    3  C3  UNL     1     -34.023  17.831  -2.874  1.00 20.00     0.005 C 
HETATM    4  C4  UNL     1     -34.399  15.333  -2.752  1.00 20.00     0.010 C 
HETATM    5  C5  UNL     1     -35.804  15.509  -3.350  1.00 20.00    -0.014 C 
HETATM    6  C6  UNL     1     -33.902  16.576  -1.998  1.00 20.00    -0.000 C 
ENDROOT
BRANCH   5   7
HETATM    7  C8  UNL     1     -36.202  14.272  -4.154  1.00 20.00     0.000 C 
HETATM    8  C7  UNL     1     -35.056  13.329  -4.319  1.00 20.00     0.005 C 
ENDBRANCH   5   7
BRANCH   6   9
HETATM    9  C9  UNL     1     -34.622  16.752  -0.657  1.00 20.00     0.119 C 
HETATM   10 CL10 UNL     1     -33.851  18.042   0.279  1.00 20.00    -0.130 Cl
ENDBRANCH   6   9
TORSDOF 2
ENDMDL
MODEL 9
REMARK VINA RESULT:      -4.0     11.767     12.690
REMARK  2 active torsions:
REMARK  status: ('A' for Active; 'I' for Inactive)
REMARK    1  A    between atoms: C5_5  and  C8_8 
REMARK    2  A    between atoms: C6_6  and  C9_9 
ROOT
HETATM    1  C1  UNL     1     -35.728  14.876  -4.966  1.00 20.00     0.001 C 
HETATM    2  C2  UNL     1     -35.614  14.978  -3.447  1.00 20.00     0.005 C 
HETATM    3  C3  UNL     1     -34.357  14.924  -5.639  1.00 20.00     0.005 C 
HETATM    4  C4  UNL     1     -33.451  16.264  -3.695  1.00 20.00     0.010 C 
HETATM    5  C5  UNL     1     -34.829  16.222  -3.016  1.00 20.00    -0.014 C 
HETATM    6  C6  UNL     1     -33.527  16.146  -5.225  1.00 20.00    -0.000 C 
ENDROOT
BRANCH   5   7
HETATM    7  C8  UNL     1     -34.677  16.260  -1.495  1.00 20.00     0.000 C 
HETATM    8  C7  UNL     1     -33.763  17.357  -1.059  1.00 20.00     0.005 C 
ENDBRANCH   5   7
BRANCH   6   9
HETATM    9  C9  UNL     1     -34.056  17.433  -5.868  1.00 20.00     0.119 C 
HETATM   10 CL10 UNL     1     -33.399  18.845  -5.025  1.00 20.00    -0.130 Cl
ENDBRANCH   6   9
TORSDOF 2
ENDMDL
