MODEL 1
REMARK VINA RESULT:      -4.5      0.000      0.000
REMARK  1 active torsions:
REMARK  status: ('A' for Active; 'I' for Inactive)
REMARK    1  A    between atoms: C1_1  and  C7_7 
ROOT
HETATM    1  C2  UNL     1     -33.716  17.214  -4.470  1.00 20.00     0.001 C 
HETATM    2  C3  UNL     1     -33.715  15.804  -5.061  1.00 20.00     0.011 C 
HETATM    3  C4  UNL     1     -35.441  14.878  -3.378  1.00 20.00     0.012 C 
HETATM    4  C5  UNL     1     -33.613  17.212  -2.945  1.00 20.00     0.008 C 
HETATM    5  C6  UNL     1     -35.996  16.189  -2.817  1.00 20.00     0.009 C 
HETATM    6  C7  UNL     1     -35.001  15.007  -4.840  1.00 20.00     0.047 C 
HETATM    7  C8  UNL     1     -34.956  17.141  -2.181  1.00 20.00    -0.048 C 
HETATM    8  C9  UNL     1     -35.582  18.551  -2.106  1.00 20.00     0.015 C 
HETATM    9  C10 UNL     1     -34.660  16.689  -0.734  1.00 20.00     0.015 C 
ENDROOT
BRANCH   6  10
HETATM   10  C1  UNL     1     -34.807  13.626  -5.397  1.00 20.00     0.235 C 
HETATM   11  O11 UNL     1     -34.821  12.611  -4.708  1.00 20.00    -0.306 OA
ENDBRANCH   6  10
TORSDOF 1
ENDMDL
MODEL 2
REMARK VINA RESULT:      -4.4      1.319      2.686
REMARK  1 active torsions:
REMARK  status: ('A' for Active; 'I' for Inactive)
REMARK    1  A    between atoms: C1_1  and  C7_7 
ROOT
HETATM    1  C2  UNL     1     -34.326  16.482  -2.489  1.00 20.00     0.001 C 
HETATM    2  C3  UNL     1     -34.507  15.046  -2.983  1.00 20.00     0.011 C 
HETATM    3  C4  UNL     1     -34.116  15.635  -5.466  1.00 20.00     0.012 C 
HETATM    4  C5  UNL     1     -35.099  17.496  -3.333  1.00 20.00     0.008 C 
HETATM    5  C6  UNL     1     -33.489  17.023  -5.316  1.00 20.00     0.009 C 
HETATM    6  C7  UNL     1     -33.785  14.713  -4.287  1.00 20.00     0.047 C 
HETATM    7  C8  UNL     1     -34.343  18.066  -4.557  1.00 20.00    -0.048 C 
HETATM    8  C9  UNL     1     -33.408  19.207  -4.099  1.00 20.00     0.015 C 
HETATM    9  C10 UNL     1     -35.384  18.679  -5.519  1.00 20.00     0.015 C 
ENDROOT
BRANCH   6  10
HETATM   10  C1  UNL     1     -34.133  13.305  -4.678  1.00 20.00     0.235 C 
HETATM   11  O11 UNL     1     -35.134  12.721  -4.277  1.00 20.00    -0.306 OA
ENDBRANCH   6  10
TORSDOF 1
ENDMDL
MODEL 3
REMARK VINA RESULT:      -4.3      1.300      2.074
REMARK  1 active torsions:
REMARK  status: ('A' for Active; 'I' for Inactive)
REMARK    1  A    between atoms: C1_1  and  C7_7 
ROOT
HETATM    1  C2  UNL     1     -36.739  16.163  -3.371  1.00 20.00     0.001 C 
HETATM    2  C3  UNL     1     -36.019  15.024  -4.093  1.00 20.00     0.011 C 
HETATM    3  C4  UNL     1     -33.709  15.566  -3.075  1.00 20.00     0.012 C 
HETATM    4  C5  UNL     1     -35.977  17.486  -3.456  1.00 20.00     0.008 C 
HETATM    5  C6  UNL     1     -34.132  16.484  -1.927  1.00 20.00     0.009 C 
HETATM    6  C7  UNL     1     -34.765  14.502  -3.393  1.00 20.00     0.047 C 
HETATM    7  C8  UNL     1     -34.942  17.738  -2.334  1.00 20.00    -0.048 C 
HETATM    8  C9  UNL     1     -35.664  18.269  -1.076  1.00 20.00     0.015 C 
HETATM    9  C10 UNL     1     -33.975  18.843  -2.814  1.00 20.00     0.015 C 
ENDROOT
BRANCH   6  10
HETATM   10  C1  UNL     1     -34.132  13.456  -4.266  1.00 20.00     0.235 C 
HETATM   11  O11 UNL     1     -34.769  12.578  -4.838  1.00 20.00    -0.306 OA
ENDBRANCH   6  10
TORSDOF 1
ENDMDL
MODEL 4
REMARK VINA RESULT:      -4.3      2.149      4.241
REMARK  1 active torsions:
REMARK  status: ('A' for Active; 'I' for Inactive)
REMARK    1  A    between atoms: C1_1  and  C7_7 
ROOT
HETATM    1  C2  UNL     1     -35.971  16.911  -4.402  1.00 20.00     0.001 C 
HETATM    2  C3  UNL     1     -35.629  17.202  -2.940  1.00 20.00     0.011 C 
HETATM    3  C4  UNL     1     -33.620  15.581  -2.876  1.00 20.00     0.012 C 
HETATM    4  C5  UNL     1     -35.978  15.415  -4.717  1.00 20.00     0.008 C 
HETATM    5  C6  UNL     1     -33.404  15.364  -4.374  1.00 20.00     0.009 C 
HETATM    6  C7  UNL     1     -34.166  16.978  -2.559  1.00 20.00     0.047 C 
HETATM    7  C8  UNL     1     -34.622  14.815  -5.156  1.00 20.00    -0.048 C 
HETATM    8  C9  UNL     1     -34.393  15.099  -6.657  1.00 20.00     0.015 C 
HETATM    9  C10 UNL     1     -34.697  13.282  -4.981  1.00 20.00     0.015 C 
ENDROOT
BRANCH   6  10
HETATM   10  C1  UNL     1     -34.016  17.220  -1.085  1.00 20.00     0.235 C 
HETATM   11  O11 UNL     1     -34.739  16.704  -0.238  1.00 20.00    -0.306 OA
ENDBRANCH   6  10
TORSDOF 1
ENDMDL
MODEL 5
REMARK VINA RESULT:      -4.3      2.135      3.997
REMARK  1 active torsions:
REMARK  status: ('A' for Active; 'I' for Inactive)
REMARK    1  A    between atoms: C1_1  and  C7_7 
ROOT
HETATM    1  C2  UNL     1     -33.618  17.033  -4.964  1.00 20.00     0.001 C 
HETATM    2  C3  UNL     1     -33.647  17.517  -3.514  1.00 20.00     0.011 C 
HETATM    3  C4  UNL     1     -35.205  15.625  -2.700  1.00 20.00     0.012 C 
HETATM    4  C5  UNL     1     -35.009  16.686  -5.495  1.00 20.00     0.008 C 
HETATM    5  C6  UNL     1     -35.086  14.656  -3.877  1.00 20.00     0.009 C 
HETATM    6  C7  UNL     1     -33.921  16.432  -2.473  1.00 20.00     0.047 C 
HETATM    7  C8  UNL     1     -35.474  15.229  -5.261  1.00 20.00    -0.048 C 
HETATM    8  C9  UNL     1     -34.865  14.313  -6.345  1.00 20.00     0.015 C 
HETATM    9  C10 UNL     1     -37.009  15.184  -5.425  1.00 20.00     0.015 C 
ENDROOT
BRANCH   6  10
HETATM   10  C1  UNL     1     -34.005  17.079  -1.121  1.00 20.00     0.235 C 
HETATM   11  O11 UNL     1     -34.758  16.694  -0.232  1.00 20.00    -0.306 OA
ENDBRANCH   6  10
TORSDOF 1
ENDMDL
MODEL 6
REMARK VINA RESULT:      -4.3      2.297      4.325
REMARK  1 active torsions:
REMARK  status: ('A' for Active; 'I' for Inactive)
REMARK    1  A    between atoms: C1_1  and  C7_7 
ROOT
HETATM    1  C2  UNL     1     -35.011  13.748  -4.510  1.00 20.00     0.001 C 
HETATM    2  C3  UNL     1     -34.417  14.440  -3.282  1.00 20.00     0.011 C 
HETATM    3  C4  UNL     1     -34.927  16.826  -4.125  1.00 20.00     0.012 C 
HETATM    4  C5  UNL     1     -34.551  14.385  -5.821  1.00 20.00     0.008 C 
HETATM    5  C6  UNL     1     -35.928  16.508  -5.238  1.00 20.00     0.009 C 
HETATM    6  C7  UNL     1     -34.995  15.820  -2.971  1.00 20.00     0.047 C 
HETATM    7  C8  UNL     1     -35.422  15.552  -6.344  1.00 20.00    -0.048 C 
HETATM    8  C9  UNL     1     -36.652  14.985  -7.086  1.00 20.00     0.015 C 
HETATM    9  C10 UNL     1     -34.587  16.349  -7.371  1.00 20.00     0.015 C 
ENDROOT
BRANCH   6  10
HETATM   10  C1  UNL     1     -34.251  16.395  -1.801  1.00 20.00     0.235 C 
HETATM   11  O11 UNL     1     -34.695  16.407  -0.657  1.00 20.00    -0.306 OA
ENDBRANCH   6  10
TORSDOF 1
ENDMDL
MODEL 7
REMARK VINA RESULT:      -4.2      1.587      2.543
REMARK  1 active torsions:
REMARK  status: ('A' for Active; 'I' for Inactive)
REMARK    1  A    between atoms: C1_1  and  C7_7 
ROOT
HETATM    1  C2  UNL     1     -34.561  14.141  -3.661  1.00 20.00     0.001 C 
HETATM    2  C3  UNL     1     -34.798  14.036  -5.168  1.00 20.00     0.011 C 
HETATM    3  C4  UNL     1     -34.733  16.586  -5.562  1.00 20.00     0.012 C 
HETATM    4  C5  UNL     1     -35.441  15.203  -3.001  1.00 20.00     0.008 C 
HETATM    5  C6  UNL     1     -34.099  17.044  -4.248  1.00 20.00     0.009 C 
HETATM    6  C7  UNL     1     -34.249  15.198  -5.994  1.00 20.00     0.047 C 
HETATM    7  C8  UNL     1     -34.852  16.633  -2.960  1.00 20.00    -0.048 C 
HETATM    8  C9  UNL     1     -33.871  16.753  -1.774  1.00 20.00     0.015 C 
HETATM    9  C10 UNL     1     -36.012  17.621  -2.704  1.00 20.00     0.015 C 
ENDROOT
BRANCH   6  10
HETATM   10  C1  UNL     1     -34.639  14.988  -7.429  1.00 20.00     0.235 C 
HETATM   11  O11 UNL     1     -35.491  14.181  -7.787  1.00 20.00    -0.306 OA
ENDBRANCH   6  10
TORSDOF 1
ENDMDL
MODEL 8
REMARK VINA RESULT:      -4.2      4.051      6.187
REMARK  1 active torsions:
REMARK  status: ('A' for Active; 'I' for Inactive)
REMARK    1  A    between atoms: C1_1  and  C7_7 
ROOT
HETATM    1  C2  UNL     1     -35.171  18.020   1.014  1.00 20.00     0.001 C 
HETATM    2  C3  UNL     1     -33.953  18.285   1.899  1.00 20.00     0.011 C 
HETATM    3  C4  UNL     1     -32.335  18.630  -0.084  1.00 20.00     0.012 C 
HETATM    4  C5  UNL     1     -34.873  17.038  -0.118  1.00 20.00     0.008 C 
HETATM    5  C6  UNL     1     -33.341  18.823  -1.219  1.00 20.00     0.009 C 
HETATM    6  C7  UNL     1     -32.862  19.144   1.260  1.00 20.00     0.047 C 
HETATM    7  C8  UNL     1     -34.346  17.666  -1.431  1.00 20.00    -0.048 C 
HETATM    8  C9  UNL     1     -35.534  18.209  -2.256  1.00 20.00     0.015 C 
HETATM    9  C10 UNL     1     -33.678  16.548  -2.261  1.00 20.00     0.015 C 
ENDROOT
BRANCH   6  10
HETATM   10  C1  UNL     1     -31.707  19.235   2.215  1.00 20.00     0.235 C 
HETATM   11  O11 UNL     1     -31.670  18.644   3.290  1.00 20.00    -0.306 OA
ENDBRANCH   6  10
TORSDOF 1
ENDMDL
MODEL 9
REMARK VINA RESULT:      -4.1      2.735      4.025
REMARK  1 active torsions:
REMARK  status: ('A' for Active; 'I' for Inactive)
REMARK    1  A    between atoms: C1_1  and  C7_7 
ROOT
HETATM    1  C2  UNL     1     -35.068  14.105  -6.154  1.00 20.00     0.001 C 
HETATM    2  C3  UNL     1     -35.360  15.311  -7.047  1.00 20.00     0.011 C 
HETATM    3  C4  UNL     1     -33.986  16.962  -5.616  1.00 20.00     0.012 C 
HETATM    4  C5  UNL     1     -35.250  14.416  -4.669  1.00 20.00     0.008 C 
HETATM    5  C6  UNL     1     -33.175  15.975  -4.774  1.00 20.00     0.009 C 
HETATM    6  C7  UNL     1     -34.306  16.416  -7.012  1.00 20.00     0.047 C 
HETATM    7  C8  UNL     1     -34.002  14.967  -3.940  1.00 20.00    -0.048 C 
HETATM    8  C9  UNL     1     -33.074  13.796  -3.549  1.00 20.00     0.015 C 
HETATM    9  C10 UNL     1     -34.470  15.643  -2.632  1.00 20.00     0.015 C 
ENDROOT
BRANCH   6  10
HETATM   10  C1  UNL     1     -34.781  17.556  -7.866  1.00 20.00     0.235 C 
HETATM   11  O11 UNL     1     -34.216  18.643  -7.917  1.00 20.00    -0.306 OA
ENDBRANCH   6  10
TORSDOF 1
ENDMDL
