MODEL 1
REMARK VINA RESULT:      -5.3      0.000      0.000
REMARK  2 active torsions:
REMARK  status: ('A' for Active; 'I' for Inactive)
REMARK    1  A    between atoms: C5_5  and  C7_7 
REMARK    2  A    between atoms: C6_6  and  C8_8 
ROOT
HETATM    1  C1  UNL     1     -34.557   5.261   2.519  1.00 20.00     0.001 C 
HETATM    2  C2  UNL     1     -33.636   6.459   2.306  1.00 20.00     0.005 C 
HETATM    3  C3  UNL     1     -35.095   5.212   3.946  1.00 20.00     0.013 C 
HETATM    4  C4  UNL     1     -33.041   6.436   4.761  1.00 20.00     0.019 C 
HETATM    5  C5  UNL     1     -32.493   6.483   3.327  1.00 20.00    -0.000 C 
HETATM    6  C6  UNL     1     -33.962   5.228   4.979  1.00 20.00     0.094 C 
ENDROOT
BRANCH   6   7
HETATM    7  C8  UNL     1     -34.525   5.229   6.399  1.00 20.00     0.391 C 
HETATM    8  F9  UNL     1     -34.586   6.485   6.869  1.00 20.00    -0.171 F 
HETATM    9  F10 UNL     1     -35.759   4.703   6.404  1.00 20.00    -0.171 F 
HETATM   10  F11 UNL     1     -33.739   4.501   7.206  1.00 20.00    -0.171 F 
ENDBRANCH   6   7
BRANCH   5  11
HETATM   11  C7  UNL     1     -31.615   7.717   3.125  1.00 20.00     0.119 C 
HETATM   12 CL12 UNL     1     -32.104   8.577   1.655  1.00 20.00    -0.130 Cl
ENDBRANCH   5  11
TORSDOF 2
ENDMDL
MODEL 2
REMARK VINA RESULT:      -5.0     11.707     13.055
REMARK  2 active torsions:
REMARK  status: ('A' for Active; 'I' for Inactive)
REMARK    1  A    between atoms: C5_5  and  C7_7 
REMARK    2  A    between atoms: C6_6  and  C8_8 
ROOT
HETATM    1  C1  UNL     1     -33.564  17.597  -5.121  1.00 20.00     0.001 C 
HETATM    2  C2  UNL     1     -34.161  18.231  -3.868  1.00 20.00     0.005 C 
HETATM    3  C3  UNL     1     -33.825  16.094  -5.170  1.00 20.00     0.013 C 
HETATM    4  C4  UNL     1     -33.929  16.031  -2.646  1.00 20.00     0.019 C 
HETATM    5  C5  UNL     1     -33.661  17.543  -2.592  1.00 20.00    -0.000 C 
HETATM    6  C6  UNL     1     -33.323  15.391  -3.903  1.00 20.00     0.094 C 
ENDROOT
BRANCH   6   7
HETATM    7  C8  UNL     1     -33.640  13.898  -3.953  1.00 20.00     0.391 C 
HETATM    8  F9  UNL     1     -32.564  13.186  -3.583  1.00 20.00    -0.171 F 
HETATM    9  F10 UNL     1     -34.655  13.615  -3.123  1.00 20.00    -0.171 F 
HETATM   10  F11 UNL     1     -33.987  13.543  -5.200  1.00 20.00    -0.171 F 
ENDBRANCH   6   7
BRANCH   5  11
HETATM   11  C7  UNL     1     -34.311  18.161  -1.355  1.00 20.00     0.119 C 
HETATM   12 CL12 UNL     1     -34.744  16.892  -0.197  1.00 20.00    -0.130 Cl
ENDBRANCH   5  11
TORSDOF 2
ENDMDL
MODEL 3
REMARK VINA RESULT:      -4.9     12.043     13.019
REMARK  2 active torsions:
REMARK  status: ('A' for Active; 'I' for Inactive)
REMARK    1  A    between atoms: C5_5  and  C7_7 
REMARK    2  A    between atoms: C6_6  and  C8_8 
ROOT
HETATM    1  C1  UNL     1     -33.525  17.289  -4.646  1.00 20.00     0.001 C 
HETATM    2  C2  UNL     1     -34.053  17.601  -3.250  1.00 20.00     0.005 C 
HETATM    3  C3  UNL     1     -34.204  16.060  -5.244  1.00 20.00     0.013 C 
HETATM    4  C4  UNL     1     -34.615  15.160  -2.919  1.00 20.00     0.019 C 
HETATM    5  C5  UNL     1     -33.928  16.393  -2.314  1.00 20.00    -0.000 C 
HETATM    6  C6  UNL     1     -34.080  14.841  -4.322  1.00 20.00     0.094 C 
ENDROOT
BRANCH   6   7
HETATM    7  C8  UNL     1     -34.809  13.638  -4.916  1.00 20.00     0.391 C 
HETATM    8  F9  UNL     1     -35.243  13.928  -6.152  1.00 20.00    -0.171 F 
HETATM    9  F10 UNL     1     -33.982  12.585  -4.982  1.00 20.00    -0.171 F 
HETATM   10  F11 UNL     1     -35.863  13.316  -4.150  1.00 20.00    -0.171 F 
ENDBRANCH   6   7
BRANCH   5  11
HETATM   11  C7  UNL     1     -34.509  16.713  -0.938  1.00 20.00     0.119 C 
HETATM   12 CL12 UNL     1     -33.555  17.986  -0.156  1.00 20.00    -0.130 Cl
ENDBRANCH   5  11
TORSDOF 2
ENDMDL
MODEL 4
REMARK VINA RESULT:      -4.6     12.324     13.491
REMARK  2 active torsions:
REMARK  status: ('A' for Active; 'I' for Inactive)
REMARK    1  A    between atoms: C5_5  and  C7_7 
REMARK    2  A    between atoms: C6_6  and  C8_8 
ROOT
HETATM    1  C1  UNL     1     -34.564  15.491  -7.229  1.00 20.00     0.001 C 
HETATM    2  C2  UNL     1     -34.584  16.954  -6.799  1.00 20.00     0.005 C 
HETATM    3  C3  UNL     1     -34.767  14.552  -6.043  1.00 20.00     0.013 C 
HETATM    4  C4  UNL     1     -33.768  16.288  -4.502  1.00 20.00     0.019 C 
HETATM    5  C5  UNL     1     -33.558  17.233  -5.694  1.00 20.00    -0.000 C 
HETATM    6  C6  UNL     1     -33.742  14.815  -4.933  1.00 20.00     0.094 C 
ENDROOT
BRANCH   6   7
HETATM    7  C8  UNL     1     -33.995  13.900  -3.736  1.00 20.00     0.391 C 
HETATM    8  F9  UNL     1     -34.350  14.628  -2.667  1.00 20.00    -0.171 F 
HETATM    9  F10 UNL     1     -34.981  13.035  -4.020  1.00 20.00    -0.171 F 
HETATM   10  F11 UNL     1     -32.882  13.210  -3.442  1.00 20.00    -0.171 F 
ENDBRANCH   6   7
BRANCH   5  11
HETATM   11  C7  UNL     1     -33.631  18.692  -5.246  1.00 20.00     0.119 C 
HETATM   12 CL12 UNL     1     -33.689  18.781  -3.477  1.00 20.00    -0.130 Cl
ENDBRANCH   5  11
TORSDOF 2
ENDMDL
MODEL 5
REMARK VINA RESULT:      -4.6     11.803     12.862
REMARK  2 active torsions:
REMARK  status: ('A' for Active; 'I' for Inactive)
REMARK    1  A    between atoms: C5_5  and  C7_7 
REMARK    2  A    between atoms: C6_6  and  C8_8 
ROOT
HETATM    1  C1  UNL     1     -35.183  17.591  -4.194  1.00 20.00     0.001 C 
HETATM    2  C2  UNL     1     -35.465  17.704  -2.699  1.00 20.00     0.005 C 
HETATM    3  C3  UNL     1     -35.106  16.134  -4.644  1.00 20.00     0.013 C 
HETATM    4  C4  UNL     1     -34.367  15.459  -2.324  1.00 20.00     0.019 C 
HETATM    5  C5  UNL     1     -34.438  16.924  -1.868  1.00 20.00    -0.000 C 
HETATM    6  C6  UNL     1     -34.077  15.344  -3.827  1.00 20.00     0.094 C 
ENDROOT
BRANCH   6   7
HETATM    7  C8  UNL     1     -34.054  13.879  -4.260  1.00 20.00     0.391 C 
HETATM    8  F9  UNL     1     -34.154  13.793  -5.596  1.00 20.00    -0.171 F 
HETATM    9  F10 UNL     1     -32.906  13.303  -3.873  1.00 20.00    -0.171 F 
HETATM   10  F11 UNL     1     -35.081  13.220  -3.704  1.00 20.00    -0.171 F 
ENDBRANCH   6   7
BRANCH   5  11
HETATM   11  C7  UNL     1     -34.770  17.011  -0.380  1.00 20.00     0.119 C 
HETATM   12 CL12 UNL     1     -33.682  18.158   0.420  1.00 20.00    -0.130 Cl
ENDBRANCH   5  11
TORSDOF 2
ENDMDL
MODEL 6
REMARK VINA RESULT:      -4.5     12.016     13.286
REMARK  2 active torsions:
REMARK  status: ('A' for Active; 'I' for Inactive)
REMARK    1  A    between atoms: C5_5  and  C7_7 
REMARK    2  A    between atoms: C6_6  and  C8_8 
ROOT
HETATM    1  C1  UNL     1     -34.051  13.687  -4.320  1.00 20.00     0.001 C 
HETATM    2  C2  UNL     1     -34.509  14.401  -5.588  1.00 20.00     0.005 C 
HETATM    3  C3  UNL     1     -34.384  14.494  -3.067  1.00 20.00     0.013 C 
HETATM    4  C4  UNL     1     -34.275  16.628  -4.415  1.00 20.00     0.019 C 
HETATM    5  C5  UNL     1     -33.934  15.820  -5.677  1.00 20.00    -0.000 C 
HETATM    6  C6  UNL     1     -33.809  15.913  -3.139  1.00 20.00     0.094 C 
ENDROOT
BRANCH   6   7
HETATM    7  C8  UNL     1     -34.198  16.716  -1.900  1.00 20.00     0.391 C 
HETATM    8  F9  UNL     1     -34.824  15.924  -1.016  1.00 20.00    -0.171 F 
HETATM    9  F10 UNL     1     -33.102  17.231  -1.322  1.00 20.00    -0.171 F 
HETATM   10  F11 UNL     1     -35.021  17.720  -2.242  1.00 20.00    -0.171 F 
ENDBRANCH   6   7
BRANCH   5  11
HETATM   11  C7  UNL     1     -34.445  16.532  -6.928  1.00 20.00     0.119 C 
HETATM   12 CL12 UNL     1     -34.098  18.267  -6.825  1.00 20.00    -0.130 Cl
ENDBRANCH   5  11
TORSDOF 2
ENDMDL
MODEL 7
REMARK VINA RESULT:      -4.5     11.636     13.007
REMARK  2 active torsions:
REMARK  status: ('A' for Active; 'I' for Inactive)
REMARK    1  A    between atoms: C5_5  and  C7_7 
REMARK    2  A    between atoms: C6_6  and  C8_8 
ROOT
HETATM    1  C1  UNL     1     -33.734  17.781  -4.409  1.00 20.00     0.001 C 
HETATM    2  C2  UNL     1     -33.296  16.334  -4.614  1.00 20.00     0.005 C 
HETATM    3  C3  UNL     1     -33.701  18.175  -2.934  1.00 20.00     0.013 C 
HETATM    4  C4  UNL     1     -34.089  15.765  -2.283  1.00 20.00     0.019 C 
HETATM    5  C5  UNL     1     -34.128  15.365  -3.766  1.00 20.00    -0.000 C 
HETATM    6  C6  UNL     1     -34.536  17.219  -2.075  1.00 20.00     0.094 C 
ENDROOT
BRANCH   6   7
HETATM    7  C8  UNL     1     -34.447  17.603  -0.599  1.00 20.00     0.391 C 
HETATM    8  F9  UNL     1     -34.921  16.606   0.165  1.00 20.00    -0.171 F 
HETATM    9  F10 UNL     1     -33.171  17.839  -0.261  1.00 20.00    -0.171 F 
HETATM   10  F11 UNL     1     -35.171  18.709  -0.368  1.00 20.00    -0.171 F 
ENDBRANCH   6   7
BRANCH   5  11
HETATM   11  C7  UNL     1     -33.639  13.930  -3.950  1.00 20.00     0.119 C 
HETATM   12 CL12 UNL     1     -34.755  13.036  -4.997  1.00 20.00    -0.130 Cl
ENDBRANCH   5  11
TORSDOF 2
ENDMDL
MODEL 8
REMARK VINA RESULT:      -4.4     12.121     12.852
REMARK  2 active torsions:
REMARK  status: ('A' for Active; 'I' for Inactive)
REMARK    1  A    between atoms: C5_5  and  C7_7 
REMARK    2  A    between atoms: C6_6  and  C8_8 
ROOT
HETATM    1  C1  UNL     1     -34.152  13.750  -4.172  1.00 20.00     0.001 C 
HETATM    2  C2  UNL     1     -33.538  14.962  -3.480  1.00 20.00     0.005 C 
HETATM    3  C3  UNL     1     -35.509  14.081  -4.788  1.00 20.00     0.013 C 
HETATM    4  C4  UNL     1     -35.849  15.894  -3.061  1.00 20.00     0.019 C 
HETATM    5  C5  UNL     1     -34.487  15.560  -2.434  1.00 20.00    -0.000 C 
HETATM    6  C6  UNL     1     -36.472  14.673  -3.752  1.00 20.00     0.094 C 
ENDROOT
BRANCH   6   7
HETATM    7  C8  UNL     1     -37.804  15.043  -4.402  1.00 20.00     0.391 C 
HETATM    8  F9  UNL     1     -38.789  14.287  -3.895  1.00 20.00    -0.171 F 
HETATM    9  F10 UNL     1     -38.084  16.334  -4.173  1.00 20.00    -0.171 F 
HETATM   10  F11 UNL     1     -37.740  14.840  -5.727  1.00 20.00    -0.171 F 
ENDBRANCH   6   7
BRANCH   5  11
HETATM   11  C7  UNL     1     -33.871  16.801  -1.792  1.00 20.00     0.119 C 
HETATM   12 CL12 UNL     1     -34.577  17.070  -0.189  1.00 20.00    -0.130 Cl
ENDBRANCH   5  11
TORSDOF 2
ENDMDL
MODEL 9
REMARK VINA RESULT:      -4.4     11.632     12.742
REMARK  2 active torsions:
REMARK  status: ('A' for Active; 'I' for Inactive)
REMARK    1  A    between atoms: C5_5  and  C7_7 
REMARK    2  A    between atoms: C6_6  and  C8_8 
ROOT
HETATM    1  C1  UNL     1     -36.601  16.962  -4.264  1.00 20.00     0.001 C 
HETATM    2  C2  UNL     1     -35.907  15.733  -4.843  1.00 20.00     0.005 C 
HETATM    3  C3  UNL     1     -35.779  17.598  -3.146  1.00 20.00     0.013 C 
HETATM    4  C4  UNL     1     -34.740  15.352  -2.635  1.00 20.00     0.019 C 
HETATM    5  C5  UNL     1     -35.570  14.707  -3.755  1.00 20.00    -0.000 C 
HETATM    6  C6  UNL     1     -35.441  16.585  -2.046  1.00 20.00     0.094 C 
ENDROOT
BRANCH   6   7
HETATM    7  C8  UNL     1     -34.575  17.230  -0.965  1.00 20.00     0.391 C 
HETATM    8  F9  UNL     1     -34.806  18.551  -0.919  1.00 20.00    -0.171 F 
HETATM    9  F10 UNL     1     -34.861  16.697   0.232  1.00 20.00    -0.171 F 
HETATM   10  F11 UNL     1     -33.277  17.025  -1.233  1.00 20.00    -0.171 F 
ENDBRANCH   6   7
BRANCH   5  11
HETATM   11  C7  UNL     1     -34.832  13.510  -4.352  1.00 20.00     0.119 C 
HETATM   12 CL12 UNL     1     -33.158  13.478  -3.773  1.00 20.00    -0.130 Cl
ENDBRANCH   5  11
TORSDOF 2
ENDMDL
