MODEL 1
REMARK VINA RESULT:      -5.0      0.000      0.000
REMARK  2 active torsions:
REMARK  status: ('A' for Active; 'I' for Inactive)
REMARK    1  A    between atoms: C1_1  and  C5_5 
REMARK    2  A    between atoms: C6_6  and  C8_8 
ROOT
HETATM    1  C2  UNL     1     -32.469   5.477   2.792  1.00 20.00     0.012 C 
HETATM    2  C3  UNL     1     -33.973   5.315   2.608  1.00 20.00     0.005 C 
HETATM    3  C4  UNL     1     -33.501   6.707   4.574  1.00 20.00     0.016 C 
HETATM    4  C5  UNL     1     -32.326   6.769   3.592  1.00 20.00     0.047 C 
HETATM    5  C6  UNL     1     -34.591   5.886   3.881  1.00 20.00    -0.014 C 
ENDROOT
BRANCH   4   6
HETATM    6  C1  UNL     1     -32.390   8.011   2.704  1.00 20.00     0.235 C 
HETATM    7  O9  UNL     1     -31.756   8.129   1.661  1.00 20.00    -0.306 OA
ENDBRANCH   4   6
BRANCH   5   8
HETATM    8  C8  UNL     1     -34.991   4.734   4.783  1.00 20.00     0.000 C 
HETATM    9  C7  UNL     1     -34.752   5.045   6.228  1.00 20.00     0.005 C 
ENDBRANCH   5   8
TORSDOF 2
ENDMDL
MODEL 2
REMARK VINA RESULT:      -4.7      2.435      3.953
REMARK  2 active torsions:
REMARK  status: ('A' for Active; 'I' for Inactive)
REMARK    1  A    between atoms: C1_1  and  C5_5 
REMARK    2  A    between atoms: C6_6  and  C8_8 
ROOT
HETATM    1  C2  UNL     1     -35.321   5.642   3.685  1.00 20.00     0.012 C 
HETATM    2  C3  UNL     1     -34.091   5.261   2.871  1.00 20.00     0.005 C 
HETATM    3  C4  UNL     1     -33.420   6.353   4.964  1.00 20.00     0.016 C 
HETATM    4  C5  UNL     1     -34.810   5.725   5.120  1.00 20.00     0.047 C 
HETATM    5  C6  UNL     1     -32.923   5.943   3.577  1.00 20.00    -0.014 C 
ENDROOT
BRANCH   4   6
HETATM    6  C1  UNL     1     -34.742   4.354   5.792  1.00 20.00     0.235 C 
HETATM    7  O9  UNL     1     -35.114   3.318   5.251  1.00 20.00    -0.306 OA
ENDBRANCH   4   6
BRANCH   5   8
HETATM    8  C8  UNL     1     -32.546   7.189   2.797  1.00 20.00     0.000 C 
HETATM    9  C7  UNL     1     -31.433   7.945   3.453  1.00 20.00     0.005 C 
ENDBRANCH   5   8
TORSDOF 2
ENDMDL
MODEL 3
REMARK VINA RESULT:      -4.4     11.327     12.115
REMARK  2 active torsions:
REMARK  status: ('A' for Active; 'I' for Inactive)
REMARK    1  A    between atoms: C1_1  and  C5_5 
REMARK    2  A    between atoms: C6_6  and  C8_8 
ROOT
HETATM    1  C2  UNL     1     -34.565  16.186  -5.167  1.00 20.00     0.012 C 
HETATM    2  C3  UNL     1     -33.258  16.224  -4.385  1.00 20.00     0.005 C 
HETATM    3  C4  UNL     1     -34.979  15.026  -3.108  1.00 20.00     0.016 C 
HETATM    4  C5  UNL     1     -35.303  14.974  -4.606  1.00 20.00     0.047 C 
HETATM    5  C6  UNL     1     -33.615  15.710  -2.993  1.00 20.00    -0.014 C 
ENDROOT
BRANCH   4   6
HETATM    6  C1  UNL     1     -34.838  13.665  -5.244  1.00 20.00     0.235 C 
HETATM    7  O9  UNL     1     -34.853  12.587  -4.661  1.00 20.00    -0.306 OA
ENDBRANCH   4   6
BRANCH   5   8
HETATM    8  C8  UNL     1     -33.735  16.896  -2.054  1.00 20.00     0.000 C 
HETATM    9  C7  UNL     1     -34.659  16.615  -0.911  1.00 20.00     0.005 C 
ENDBRANCH   5   8
TORSDOF 2
ENDMDL
MODEL 4
REMARK VINA RESULT:      -3.9     10.989     12.111
REMARK  2 active torsions:
REMARK  status: ('A' for Active; 'I' for Inactive)
REMARK    1  A    between atoms: C1_1  and  C5_5 
REMARK    2  A    between atoms: C6_6  and  C8_8 
ROOT
HETATM    1  C2  UNL     1     -35.550  14.908  -5.872  1.00 20.00     0.012 C 
HETATM    2  C3  UNL     1     -35.061  13.526  -5.458  1.00 20.00     0.005 C 
HETATM    3  C4  UNL     1     -35.473  14.912  -3.475  1.00 20.00     0.016 C 
HETATM    4  C5  UNL     1     -36.314  15.417  -4.653  1.00 20.00     0.047 C 
HETATM    5  C6  UNL     1     -34.781  13.637  -3.962  1.00 20.00    -0.014 C 
ENDROOT
BRANCH   4   6
HETATM    6  C1  UNL     1     -37.745  14.883  -4.601  1.00 20.00     0.235 C 
HETATM    7  O9  UNL     1     -38.198  14.256  -3.650  1.00 20.00    -0.306 OA
ENDBRANCH   4   6
BRANCH   5   8
HETATM    8  C8  UNL     1     -33.285  13.778  -3.758  1.00 20.00     0.000 C 
HETATM    9  C7  UNL     1     -32.878  15.204  -3.556  1.00 20.00     0.005 C 
ENDBRANCH   5   8
TORSDOF 2
ENDMDL
MODEL 5
REMARK VINA RESULT:      -3.9     11.491     12.495
REMARK  2 active torsions:
REMARK  status: ('A' for Active; 'I' for Inactive)
REMARK    1  A    between atoms: C1_1  and  C5_5 
REMARK    2  A    between atoms: C6_6  and  C8_8 
ROOT
HETATM    1  C2  UNL     1     -33.166  15.121  -3.782  1.00 20.00     0.012 C 
HETATM    2  C3  UNL     1     -34.493  14.936  -3.057  1.00 20.00     0.005 C 
HETATM    3  C4  UNL     1     -34.035  17.323  -3.398  1.00 20.00     0.016 C 
HETATM    4  C5  UNL     1     -33.288  16.490  -4.445  1.00 20.00     0.047 C 
HETATM    5  C6  UNL     1     -34.895  16.337  -2.604  1.00 20.00    -0.014 C 
ENDROOT
BRANCH   4   6
HETATM    6  C1  UNL     1     -34.048  16.427  -5.770  1.00 20.00     0.235 C 
HETATM    7  O9  UNL     1     -33.896  15.531  -6.594  1.00 20.00    -0.306 OA
ENDBRANCH   4   6
BRANCH   5   8
HETATM    8  C8  UNL     1     -34.576  16.479  -1.128  1.00 20.00     0.000 C 
HETATM    9  C7  UNL     1     -33.635  17.613  -0.865  1.00 20.00     0.005 C 
ENDBRANCH   5   8
TORSDOF 2
ENDMDL
MODEL 6
REMARK VINA RESULT:      -3.9      2.024      3.850
REMARK  2 active torsions:
REMARK  status: ('A' for Active; 'I' for Inactive)
REMARK    1  A    between atoms: C1_1  and  C5_5 
REMARK    2  A    between atoms: C6_6  and  C8_8 
ROOT
HETATM    1  C2  UNL     1     -33.734   5.314   2.938  1.00 20.00     0.012 C 
HETATM    2  C3  UNL     1     -32.258   5.689   2.963  1.00 20.00     0.005 C 
HETATM    3  C4  UNL     1     -33.626   7.570   3.747  1.00 20.00     0.016 C 
HETATM    4  C5  UNL     1     -34.376   6.250   3.959  1.00 20.00     0.047 C 
HETATM    5  C6  UNL     1     -32.236   7.191   3.234  1.00 20.00    -0.014 C 
ENDROOT
BRANCH   4   6
HETATM    6  C1  UNL     1     -34.229   5.735   5.390  1.00 20.00     0.235 C 
HETATM    7  O9  UNL     1     -34.055   6.469   6.358  1.00 20.00    -0.306 OA
ENDBRANCH   4   6
BRANCH   5   8
HETATM    8  C8  UNL     1     -31.977   7.916   1.926  1.00 20.00     0.000 C 
HETATM    9  C7  UNL     1     -32.522   9.309   1.940  1.00 20.00     0.005 C 
ENDBRANCH   5   8
TORSDOF 2
ENDMDL
MODEL 7
REMARK VINA RESULT:      -3.8     11.397     12.785
REMARK  2 active torsions:
REMARK  status: ('A' for Active; 'I' for Inactive)
REMARK    1  A    between atoms: C1_1  and  C5_5 
REMARK    2  A    between atoms: C6_6  and  C8_8 
ROOT
HETATM    1  C2  UNL     1     -33.063  15.291  -3.719  1.00 20.00     0.012 C 
HETATM    2  C3  UNL     1     -33.259  16.297  -4.846  1.00 20.00     0.005 C 
HETATM    3  C4  UNL     1     -35.283  14.939  -4.557  1.00 20.00     0.016 C 
HETATM    4  C5  UNL     1     -34.480  14.971  -3.252  1.00 20.00     0.047 C 
HETATM    5  C6  UNL     1     -34.566  15.886  -5.520  1.00 20.00    -0.014 C 
ENDROOT
BRANCH   4   6
HETATM    6  C1  UNL     1     -35.019  16.016  -2.276  1.00 20.00     0.235 C 
HETATM    7  O9  UNL     1     -34.519  16.237  -1.178  1.00 20.00    -0.306 OA
ENDBRANCH   4   6
BRANCH   5   8
HETATM    8  C8  UNL     1     -34.237  15.138  -6.798  1.00 20.00     0.000 C 
HETATM    9  C7  UNL     1     -35.438  14.451  -7.370  1.00 20.00     0.005 C 
ENDBRANCH   5   8
TORSDOF 2
ENDMDL
MODEL 8
REMARK VINA RESULT:      -3.7     10.996     13.231
REMARK  2 active torsions:
REMARK  status: ('A' for Active; 'I' for Inactive)
REMARK    1  A    between atoms: C1_1  and  C5_5 
REMARK    2  A    between atoms: C6_6  and  C8_8 
ROOT
HETATM    1  C2  UNL     1     -35.506  15.352  -4.991  1.00 20.00     0.012 C 
HETATM    2  C3  UNL     1     -34.392  15.844  -5.905  1.00 20.00     0.005 C 
HETATM    3  C4  UNL     1     -33.671  15.935  -3.561  1.00 20.00     0.016 C 
HETATM    4  C5  UNL     1     -34.780  14.891  -3.730  1.00 20.00     0.047 C 
HETATM    5  C6  UNL     1     -33.345  16.440  -4.968  1.00 20.00    -0.014 C 
ENDROOT
BRANCH   4   6
HETATM    6  C1  UNL     1     -34.217  13.478  -3.868  1.00 20.00     0.235 C 
HETATM    7  O9  UNL     1     -34.722  12.616  -4.580  1.00 20.00    -0.306 OA
ENDBRANCH   4   6
BRANCH   5   8
HETATM    8  C8  UNL     1     -33.476  17.951  -4.994  1.00 20.00     0.000 C 
HETATM    9  C7  UNL     1     -33.786  18.464  -6.365  1.00 20.00     0.005 C 
ENDBRANCH   5   8
TORSDOF 2
ENDMDL
MODEL 9
REMARK VINA RESULT:      -3.7     11.181     12.494
REMARK  2 active torsions:
REMARK  status: ('A' for Active; 'I' for Inactive)
REMARK    1  A    between atoms: C1_1  and  C5_5 
REMARK    2  A    between atoms: C6_6  and  C8_8 
ROOT
HETATM    1  C2  UNL     1     -33.185  16.283  -4.569  1.00 20.00     0.012 C 
HETATM    2  C3  UNL     1     -34.572  16.220  -5.195  1.00 20.00     0.005 C 
HETATM    3  C4  UNL     1     -34.304  14.428  -3.540  1.00 20.00     0.016 C 
HETATM    4  C5  UNL     1     -33.349  15.584  -3.223  1.00 20.00     0.047 C 
HETATM    5  C6  UNL     1     -35.163  14.897  -4.716  1.00 20.00    -0.014 C 
ENDROOT
BRANCH   4   6
HETATM    6  C1  UNL     1     -33.917  16.515  -2.152  1.00 20.00     0.235 C 
HETATM    7  O9  UNL     1     -34.710  16.149  -1.291  1.00 20.00    -0.306 OA
ENDBRANCH   4   6
BRANCH   5   8
HETATM    8  C8  UNL     1     -35.058  13.884  -5.840  1.00 20.00     0.000 C 
HETATM    9  C7  UNL     1     -35.197  14.524  -7.186  1.00 20.00     0.005 C 
ENDBRANCH   5   8
TORSDOF 2
ENDMDL
