MODEL 1
REMARK VINA RESULT:      -4.8      0.000      0.000
REMARK  2 active torsions:
REMARK  status: ('A' for Active; 'I' for Inactive)
REMARK    1  A    between atoms: C1_1  and  C7_7 
REMARK    2  A    between atoms: C8_8  and  C10_10 
ROOT
HETATM    1  C2  UNL     1     -33.406  17.235  -5.010  1.00 20.00     0.001 C 
HETATM    2  C3  UNL     1     -34.008  15.981  -5.640  1.00 20.00     0.011 C 
HETATM    3  C4  UNL     1     -33.787  14.699  -3.419  1.00 20.00     0.012 C 
HETATM    4  C5  UNL     1     -34.144  17.772  -3.788  1.00 20.00     0.004 C 
HETATM    5  C6  UNL     1     -34.150  15.669  -2.292  1.00 20.00     0.005 C 
HETATM    6  C7  UNL     1     -34.610  14.932  -4.693  1.00 20.00     0.047 C 
HETATM    7  C8  UNL     1     -33.680  17.110  -2.488  1.00 20.00    -0.015 C 
ENDROOT
BRANCH   6   8
HETATM    8  C1  UNL     1     -34.787  13.614  -5.458  1.00 20.00     0.235 C 
HETATM    9  O11 UNL     1     -34.791  12.513  -4.918  1.00 20.00    -0.306 OA
ENDBRANCH   6   8
BRANCH   7  10
HETATM   10  C10 UNL     1     -34.182  17.921  -1.328  1.00 20.00     0.000 C 
HETATM   11  C9  UNL     1     -34.793  17.054  -0.280  1.00 20.00     0.005 C 
ENDBRANCH   7  10
TORSDOF 2
ENDMDL
MODEL 2
REMARK VINA RESULT:      -4.7      2.196      4.764
REMARK  2 active torsions:
REMARK  status: ('A' for Active; 'I' for Inactive)
REMARK    1  A    between atoms: C1_1  and  C7_7 
REMARK    2  A    between atoms: C8_8  and  C10_10 
ROOT
HETATM    1  C2  UNL     1     -34.237  13.376  -4.583  1.00 20.00     0.001 C 
HETATM    2  C3  UNL     1     -34.257  14.244  -3.327  1.00 20.00     0.011 C 
HETATM    3  C4  UNL     1     -33.397  16.273  -4.657  1.00 20.00     0.012 C 
HETATM    4  C5  UNL     1     -35.079  13.888  -5.747  1.00 20.00     0.004 C 
HETATM    5  C6  UNL     1     -34.097  16.259  -6.019  1.00 20.00     0.005 C 
HETATM    6  C7  UNL     1     -34.296  15.768  -3.520  1.00 20.00     0.047 C 
HETATM    7  C8  UNL     1     -34.313  14.876  -6.631  1.00 20.00    -0.015 C 
ENDROOT
BRANCH   6   8
HETATM    8  C1  UNL     1     -33.913  16.447  -2.199  1.00 20.00     0.235 C 
HETATM    9  O11 UNL     1     -34.527  16.281  -1.151  1.00 20.00    -0.306 OA
ENDBRANCH   6   8
BRANCH   7  10
HETATM   10  C10 UNL     1     -35.066  15.053  -7.918  1.00 20.00     0.000 C 
HETATM   11  C9  UNL     1     -36.540  15.010  -7.697  1.00 20.00     0.005 C 
ENDBRANCH   7  10
TORSDOF 2
ENDMDL
MODEL 3
REMARK VINA RESULT:      -4.6      1.551      2.529
REMARK  2 active torsions:
REMARK  status: ('A' for Active; 'I' for Inactive)
REMARK    1  A    between atoms: C1_1  and  C7_7 
REMARK    2  A    between atoms: C8_8  and  C10_10 
ROOT
HETATM    1  C2  UNL     1     -34.675  13.593  -3.803  1.00 20.00     0.001 C 
HETATM    2  C3  UNL     1     -34.575  13.651  -5.326  1.00 20.00     0.011 C 
HETATM    3  C4  UNL     1     -35.398  16.090  -5.335  1.00 20.00     0.012 C 
HETATM    4  C5  UNL     1     -33.855  14.636  -3.052  1.00 20.00     0.004 C 
HETATM    5  C6  UNL     1     -34.748  16.798  -4.143  1.00 20.00     0.005 C 
HETATM    6  C7  UNL     1     -34.480  15.040  -5.976  1.00 20.00     0.047 C 
HETATM    7  C8  UNL     1     -34.611  15.956  -2.875  1.00 20.00    -0.015 C 
ENDROOT
BRANCH   6   8
HETATM    8  C1  UNL     1     -34.788  14.910  -7.473  1.00 20.00     0.235 C 
HETATM    9  O11 UNL     1     -35.726  14.257  -7.917  1.00 20.00    -0.306 OA
ENDBRANCH   6   8
BRANCH   7  10
HETATM   10  C10 UNL     1     -33.897  16.785  -1.846  1.00 20.00     0.000 C 
HETATM   11  C9  UNL     1     -34.639  16.808  -0.554  1.00 20.00     0.005 C 
ENDBRANCH   7  10
TORSDOF 2
ENDMDL
MODEL 4
REMARK VINA RESULT:      -4.5      1.388      1.526
REMARK  2 active torsions:
REMARK  status: ('A' for Active; 'I' for Inactive)
REMARK    1  A    between atoms: C1_1  and  C7_7 
REMARK    2  A    between atoms: C8_8  and  C10_10 
ROOT
HETATM    1  C2  UNL     1     -33.339  16.997  -4.943  1.00 20.00     0.001 C 
HETATM    2  C3  UNL     1     -34.019  16.179  -6.039  1.00 20.00     0.011 C 
HETATM    3  C4  UNL     1     -34.281  14.174  -4.445  1.00 20.00     0.012 C 
HETATM    4  C5  UNL     1     -34.152  17.187  -3.667  1.00 20.00     0.004 C 
HETATM    5  C6  UNL     1     -34.654  14.728  -3.068  1.00 20.00     0.005 C 
HETATM    6  C7  UNL     1     -34.884  14.988  -5.598  1.00 20.00     0.047 C 
HETATM    7  C8  UNL     1     -33.964  16.035  -2.677  1.00 20.00    -0.015 C 
ENDROOT
BRANCH   6   8
HETATM    8  C1  UNL     1     -35.139  14.083  -6.810  1.00 20.00     0.235 C 
HETATM    9  O11 UNL     1     -35.454  14.508  -7.917  1.00 20.00    -0.306 OA
ENDBRANCH   6   8
BRANCH   7  10
HETATM   10  C10 UNL     1     -34.499  16.457  -1.340  1.00 20.00     0.000 C 
HETATM   11  C9  UNL     1     -33.734  17.610  -0.786  1.00 20.00     0.005 C 
ENDBRANCH   7  10
TORSDOF 2
ENDMDL
MODEL 5
REMARK VINA RESULT:      -4.4      1.511      1.737
REMARK  2 active torsions:
REMARK  status: ('A' for Active; 'I' for Inactive)
REMARK    1  A    between atoms: C1_1  and  C7_7 
REMARK    2  A    between atoms: C8_8  and  C10_10 
ROOT
HETATM    1  C2  UNL     1     -36.305  16.781  -4.206  1.00 20.00     0.001 C 
HETATM    2  C3  UNL     1     -35.831  15.364  -4.525  1.00 20.00     0.011 C 
HETATM    3  C4  UNL     1     -33.786  15.651  -2.988  1.00 20.00     0.012 C 
HETATM    4  C5  UNL     1     -36.545  17.075  -2.729  1.00 20.00     0.004 C 
HETATM    5  C6  UNL     1     -34.247  16.425  -1.751  1.00 20.00     0.005 C 
HETATM    6  C7  UNL     1     -34.863  14.702  -3.533  1.00 20.00     0.047 C 
HETATM    7  C8  UNL     1     -35.271  17.529  -2.010  1.00 20.00    -0.015 C 
ENDROOT
BRANCH   6   8
HETATM    8  C1  UNL     1     -34.210  13.490  -4.208  1.00 20.00     0.235 C 
HETATM    9  O11 UNL     1     -34.846  12.598  -4.758  1.00 20.00    -0.306 OA
ENDBRANCH   6   8
BRANCH   7  10
HETATM   10  C10 UNL     1     -35.653  18.125  -0.686  1.00 20.00     0.000 C 
HETATM   11  C9  UNL     1     -35.024  17.387   0.446  1.00 20.00     0.005 C 
ENDBRANCH   7  10
TORSDOF 2
ENDMDL
MODEL 6
REMARK VINA RESULT:      -4.4      3.048      4.832
REMARK  2 active torsions:
REMARK  status: ('A' for Active; 'I' for Inactive)
REMARK    1  A    between atoms: C1_1  and  C7_7 
REMARK    2  A    between atoms: C8_8  and  C10_10 
ROOT
HETATM    1  C2  UNL     1     -34.142  18.745  -3.376  1.00 20.00     0.001 C 
HETATM    2  C3  UNL     1     -33.248  19.181  -2.216  1.00 20.00     0.011 C 
HETATM    3  C4  UNL     1     -34.327  17.432  -0.665  1.00 20.00     0.012 C 
HETATM    4  C5  UNL     1     -34.042  17.274  -3.763  1.00 20.00     0.004 C 
HETATM    5  C6  UNL     1     -34.549  16.162  -1.491  1.00 20.00     0.005 C 
HETATM    6  C7  UNL     1     -33.049  18.185  -1.064  1.00 20.00     0.047 C 
HETATM    7  C8  UNL     1     -34.979  16.388  -2.939  1.00 20.00    -0.015 C 
ENDROOT
BRANCH   6   8
HETATM    8  C1  UNL     1     -32.475  18.933   0.146  1.00 20.00     0.235 C 
HETATM    9  O11 UNL     1     -31.297  19.261   0.242  1.00 20.00    -0.306 OA
ENDBRANCH   6   8
BRANCH   7  10
HETATM   10  C10 UNL     1     -35.081  15.046  -3.605  1.00 20.00     0.000 C 
HETATM   11  C9  UNL     1     -33.753  14.373  -3.682  1.00 20.00     0.005 C 
ENDBRANCH   7  10
TORSDOF 2
ENDMDL
MODEL 7
REMARK VINA RESULT:      -4.4      1.676      1.693
REMARK  2 active torsions:
REMARK  status: ('A' for Active; 'I' for Inactive)
REMARK    1  A    between atoms: C1_1  and  C7_7 
REMARK    2  A    between atoms: C8_8  and  C10_10 
ROOT
HETATM    1  C2  UNL     1     -33.765  17.270  -4.451  1.00 20.00     0.001 C 
HETATM    2  C3  UNL     1     -35.026  16.530  -4.895  1.00 20.00     0.011 C 
HETATM    3  C4  UNL     1     -35.098  15.225  -2.677  1.00 20.00     0.012 C 
HETATM    4  C5  UNL     1     -33.890  18.057  -3.151  1.00 20.00     0.004 C 
HETATM    5  C6  UNL     1     -34.705  16.196  -1.561  1.00 20.00     0.005 C 
HETATM    6  C7  UNL     1     -35.899  15.901  -3.799  1.00 20.00     0.047 C 
HETATM    7  C8  UNL     1     -33.607  17.196  -1.917  1.00 20.00    -0.015 C 
ENDROOT
BRANCH   6   8
HETATM    8  C1  UNL     1     -36.861  14.896  -4.445  1.00 20.00     0.235 C 
HETATM    9  O11 UNL     1     -37.636  14.193  -3.805  1.00 20.00    -0.306 OA
ENDBRANCH   6   8
BRANCH   7  10
HETATM   10  C10 UNL     1     -33.405  18.101  -0.736  1.00 20.00     0.000 C 
HETATM   11  C9  UNL     1     -34.395  17.818   0.342  1.00 20.00     0.005 C 
ENDBRANCH   7  10
TORSDOF 2
ENDMDL
MODEL 8
REMARK VINA RESULT:      -4.3      4.788      7.201
REMARK  2 active torsions:
REMARK  status: ('A' for Active; 'I' for Inactive)
REMARK    1  A    between atoms: C1_1  and  C7_7 
REMARK    2  A    between atoms: C8_8  and  C10_10 
ROOT
HETATM    1  C2  UNL     1     -32.015  19.263   0.414  1.00 20.00     0.001 C 
HETATM    2  C3  UNL     1     -31.530  19.216   1.861  1.00 20.00     0.011 C 
HETATM    3  C4  UNL     1     -33.938  18.887   2.709  1.00 20.00     0.012 C 
HETATM    4  C5  UNL     1     -32.788  18.036  -0.058  1.00 20.00     0.004 C 
HETATM    5  C6  UNL     1     -34.642  17.939   1.734  1.00 20.00     0.005 C 
HETATM    6  C7  UNL     1     -32.451  18.552   2.895  1.00 20.00     0.047 C 
HETATM    7  C8  UNL     1     -34.282  18.128   0.261  1.00 20.00    -0.015 C 
ENDROOT
BRANCH   6   8
HETATM    8  C1  UNL     1     -31.990  18.952   4.302  1.00 20.00     0.235 C 
HETATM    9  O11 UNL     1     -32.700  18.862   5.298  1.00 20.00    -0.306 OA
ENDBRANCH   6   8
BRANCH   7  10
HETATM   10  C10 UNL     1     -35.008  17.078  -0.530  1.00 20.00     0.000 C 
HETATM   11  C9  UNL     1     -34.180  16.579  -1.665  1.00 20.00     0.005 C 
ENDBRANCH   7  10
TORSDOF 2
ENDMDL
MODEL 9
REMARK VINA RESULT:      -4.2      2.260      4.554
REMARK  2 active torsions:
REMARK  status: ('A' for Active; 'I' for Inactive)
REMARK    1  A    between atoms: C1_1  and  C7_7 
REMARK    2  A    between atoms: C8_8  and  C10_10 
ROOT
HETATM    1  C2  UNL     1     -35.861  14.412  -4.028  1.00 20.00     0.001 C 
HETATM    2  C3  UNL     1     -35.537  15.270  -2.806  1.00 20.00     0.011 C 
HETATM    3  C4  UNL     1     -33.234  15.876  -3.782  1.00 20.00     0.012 C 
HETATM    4  C5  UNL     1     -35.810  15.136  -5.369  1.00 20.00     0.004 C 
HETATM    5  C6  UNL     1     -33.416  16.094  -5.287  1.00 20.00     0.005 C 
HETATM    6  C7  UNL     1     -34.446  16.340  -2.962  1.00 20.00     0.047 C 
HETATM    7  C8  UNL     1     -34.403  15.151  -5.972  1.00 20.00    -0.015 C 
ENDROOT
BRANCH   6   8
HETATM    8  C1  UNL     1     -33.999  16.801  -1.569  1.00 20.00     0.235 C 
HETATM    9  O11 UNL     1     -34.621  16.552  -0.542  1.00 20.00    -0.306 OA
ENDBRANCH   6   8
BRANCH   7  10
HETATM   10  C10 UNL     1     -34.502  15.555  -7.415  1.00 20.00     0.000 C 
HETATM   11  C9  UNL     1     -34.724  17.023  -7.555  1.00 20.00     0.005 C 
ENDBRANCH   7  10
TORSDOF 2
ENDMDL
