MODEL 1
REMARK VINA RESULT:      -4.7      0.000      0.000
REMARK  2 active torsions:
REMARK  status: ('A' for Active; 'I' for Inactive)
REMARK    1  A    between atoms: C1_1  and  C7_7 
REMARK    2  A    between atoms: C8_8  and  C10_10 
ROOT
HETATM    1  C2  UNL     1     -36.132  17.059  -4.121  1.00 20.00     0.001 C 
HETATM    2  C3  UNL     1     -36.089  15.644  -4.696  1.00 20.00     0.011 C 
HETATM    3  C4  UNL     1     -34.113  14.879  -3.220  1.00 20.00     0.012 C 
HETATM    4  C5  UNL     1     -36.064  17.077  -2.596  1.00 20.00     0.004 C 
HETATM    5  C6  UNL     1     -33.608  16.239  -2.735  1.00 20.00     0.005 C 
HETATM    6  C7  UNL     1     -34.732  14.942  -4.621  1.00 20.00     0.047 C 
HETATM    7  C8  UNL     1     -34.646  17.109  -2.011  1.00 20.00    -0.015 C 
ENDROOT
BRANCH   6   8
HETATM    8  C1  UNL     1     -34.884  13.544  -5.155  1.00 20.00     0.235 C 
HETATM    9  O11 UNL     1     -34.986  12.554  -4.439  1.00 20.00    -0.306 OA
ENDBRANCH   6   8
BRANCH   7  10
HETATM   10  C10 UNL     1     -34.701  16.764  -0.518  1.00 20.00     0.000 C 
HETATM   11  C9  UNL     1     -34.244  17.907   0.324  1.00 20.00     0.005 C 
ENDBRANCH   7  10
TORSDOF 2
ENDMDL
MODEL 2
REMARK VINA RESULT:      -4.6      1.888      2.344
REMARK  2 active torsions:
REMARK  status: ('A' for Active; 'I' for Inactive)
REMARK    1  A    between atoms: C1_1  and  C7_7 
REMARK    2  A    between atoms: C8_8  and  C10_10 
ROOT
HETATM    1  C2  UNL     1     -33.284  16.909  -5.254  1.00 20.00     0.001 C 
HETATM    2  C3  UNL     1     -34.196  16.281  -6.307  1.00 20.00     0.011 C 
HETATM    3  C4  UNL     1     -35.025  14.386  -4.759  1.00 20.00     0.012 C 
HETATM    4  C5  UNL     1     -33.967  17.064  -3.898  1.00 20.00     0.004 C 
HETATM    5  C6  UNL     1     -33.974  14.476  -3.651  1.00 20.00     0.005 C 
HETATM    6  C7  UNL     1     -34.474  14.787  -6.133  1.00 20.00     0.047 C 
HETATM    7  C8  UNL     1     -33.848  15.847  -2.970  1.00 20.00    -0.015 C 
ENDROOT
BRANCH   6   8
HETATM    8  C1  UNL     1     -35.442  14.350  -7.198  1.00 20.00     0.235 C 
HETATM    9  O11 UNL     1     -36.586  14.781  -7.289  1.00 20.00    -0.306 OA
ENDBRANCH   6   8
BRANCH   7  10
HETATM   10  C10 UNL     1     -34.855  15.980  -1.821  1.00 20.00     0.000 C 
HETATM   11  C9  UNL     1     -34.366  16.922  -0.774  1.00 20.00     0.005 C 
ENDBRANCH   7  10
TORSDOF 2
ENDMDL
MODEL 3
REMARK VINA RESULT:      -4.6      1.204      1.429
REMARK  2 active torsions:
REMARK  status: ('A' for Active; 'I' for Inactive)
REMARK    1  A    between atoms: C1_1  and  C7_7 
REMARK    2  A    between atoms: C8_8  and  C10_10 
ROOT
HETATM    1  C2  UNL     1     -33.606  17.312  -5.101  1.00 20.00     0.001 C 
HETATM    2  C3  UNL     1     -34.232  16.013  -5.606  1.00 20.00     0.011 C 
HETATM    3  C4  UNL     1     -34.527  14.997  -3.250  1.00 20.00     0.012 C 
HETATM    4  C5  UNL     1     -34.373  17.919  -3.930  1.00 20.00     0.004 C 
HETATM    5  C6  UNL     1     -33.611  15.924  -2.449  1.00 20.00     0.005 C 
HETATM    6  C7  UNL     1     -34.053  14.797  -4.694  1.00 20.00     0.047 C 
HETATM    7  C8  UNL     1     -33.940  17.421  -2.544  1.00 20.00    -0.015 C 
ENDROOT
BRANCH   6   8
HETATM    8  C1  UNL     1     -34.789  13.632  -5.297  1.00 20.00     0.235 C 
HETATM    9  O11 UNL     1     -34.915  12.549  -4.736  1.00 20.00    -0.306 OA
ENDBRANCH   6   8
BRANCH   7  10
HETATM   10  C10 UNL     1     -34.998  17.815  -1.506  1.00 20.00     0.000 C 
HETATM   11  C9  UNL     1     -34.791  17.095  -0.217  1.00 20.00     0.005 C 
ENDBRANCH   7  10
TORSDOF 2
ENDMDL
MODEL 4
REMARK VINA RESULT:      -4.5      1.670      2.730
REMARK  2 active torsions:
REMARK  status: ('A' for Active; 'I' for Inactive)
REMARK    1  A    between atoms: C1_1  and  C7_7 
REMARK    2  A    between atoms: C8_8  and  C10_10 
ROOT
HETATM    1  C2  UNL     1     -33.952  13.622  -4.254  1.00 20.00     0.001 C 
HETATM    2  C3  UNL     1     -34.560  14.038  -5.592  1.00 20.00     0.011 C 
HETATM    3  C4  UNL     1     -36.054  15.883  -4.575  1.00 20.00     0.012 C 
HETATM    4  C5  UNL     1     -33.496  14.814  -3.418  1.00 20.00     0.004 C 
HETATM    5  C6  UNL     1     -35.985  15.491  -3.098  1.00 20.00     0.005 C 
HETATM    6  C7  UNL     1     -35.949  14.677  -5.515  1.00 20.00     0.047 C 
HETATM    7  C8  UNL     1     -34.572  15.411  -2.501  1.00 20.00    -0.015 C 
ENDROOT
BRANCH   6   8
HETATM    8  C1  UNL     1     -36.363  15.094  -6.900  1.00 20.00     0.235 C 
HETATM    9  O11 UNL     1     -35.988  14.524  -7.918  1.00 20.00    -0.306 OA
ENDBRANCH   6   8
BRANCH   7  10
HETATM   10  C10 UNL     1     -34.113  16.788  -2.003  1.00 20.00     0.000 C 
HETATM   11  C9  UNL     1     -34.460  16.991  -0.567  1.00 20.00     0.005 C 
ENDBRANCH   7  10
TORSDOF 2
ENDMDL
MODEL 5
REMARK VINA RESULT:      -4.5      2.157      4.718
REMARK  2 active torsions:
REMARK  status: ('A' for Active; 'I' for Inactive)
REMARK    1  A    between atoms: C1_1  and  C7_7 
REMARK    2  A    between atoms: C8_8  and  C10_10 
ROOT
HETATM    1  C2  UNL     1     -34.024  13.580  -4.425  1.00 20.00     0.001 C 
HETATM    2  C3  UNL     1     -34.202  14.470  -3.196  1.00 20.00     0.011 C 
HETATM    3  C4  UNL     1     -34.224  16.676  -4.539  1.00 20.00     0.012 C 
HETATM    4  C5  UNL     1     -34.970  13.952  -5.564  1.00 20.00     0.004 C 
HETATM    5  C6  UNL     1     -33.661  16.177  -5.871  1.00 20.00     0.005 C 
HETATM    6  C7  UNL     1     -33.676  15.900  -3.335  1.00 20.00     0.047 C 
HETATM    7  C8  UNL     1     -34.436  15.024  -6.525  1.00 20.00    -0.015 C 
ENDROOT
BRANCH   6   8
HETATM    8  C1  UNL     1     -33.998  16.656  -2.075  1.00 20.00     0.235 C 
HETATM    9  O11 UNL     1     -34.675  16.193  -1.164  1.00 20.00    -0.306 OA
ENDBRANCH   6   8
BRANCH   7  10
HETATM   10  C10 UNL     1     -35.589  15.559  -7.383  1.00 20.00     0.000 C 
HETATM   11  C9  UNL     1     -36.913  15.242  -6.776  1.00 20.00     0.005 C 
ENDBRANCH   7  10
TORSDOF 2
ENDMDL
MODEL 6
REMARK VINA RESULT:      -4.3      2.245      4.471
REMARK  2 active torsions:
REMARK  status: ('A' for Active; 'I' for Inactive)
REMARK    1  A    between atoms: C1_1  and  C7_7 
REMARK    2  A    between atoms: C8_8  and  C10_10 
ROOT
HETATM    1  C2  UNL     1     -36.921  14.714  -4.164  1.00 20.00     0.001 C 
HETATM    2  C3  UNL     1     -36.365  15.678  -3.117  1.00 20.00     0.011 C 
HETATM    3  C4  UNL     1     -33.917  15.454  -3.907  1.00 20.00     0.012 C 
HETATM    4  C5  UNL     1     -36.379  14.990  -5.564  1.00 20.00     0.004 C 
HETATM    5  C6  UNL     1     -34.035  14.197  -4.770  1.00 20.00     0.005 C 
HETATM    6  C7  UNL     1     -34.900  15.462  -2.731  1.00 20.00     0.047 C 
HETATM    7  C8  UNL     1     -35.068  14.269  -5.905  1.00 20.00    -0.015 C 
ENDROOT
BRANCH   6   8
HETATM    8  C1  UNL     1     -34.496  16.534  -1.757  1.00 20.00     0.235 C 
HETATM    9  O11 UNL     1     -34.677  16.452  -0.548  1.00 20.00    -0.306 OA
ENDBRANCH   6   8
BRANCH   7  10
HETATM   10  C10 UNL     1     -34.453  14.895  -7.163  1.00 20.00     0.000 C 
HETATM   11  C9  UNL     1     -34.957  16.281  -7.384  1.00 20.00     0.005 C 
ENDBRANCH   7  10
TORSDOF 2
ENDMDL
MODEL 7
REMARK VINA RESULT:      -4.3      3.834      6.420
REMARK  2 active torsions:
REMARK  status: ('A' for Active; 'I' for Inactive)
REMARK    1  A    between atoms: C1_1  and  C7_7 
REMARK    2  A    between atoms: C8_8  and  C10_10 
ROOT
HETATM    1  C2  UNL     1     -32.911  19.184   0.463  1.00 20.00     0.001 C 
HETATM    2  C3  UNL     1     -33.049  18.827   1.942  1.00 20.00     0.011 C 
HETATM    3  C4  UNL     1     -35.247  17.505   1.630  1.00 20.00     0.012 C 
HETATM    4  C5  UNL     1     -33.140  17.988  -0.456  1.00 20.00     0.004 C 
HETATM    5  C6  UNL     1     -35.646  17.987   0.235  1.00 20.00     0.005 C 
HETATM    6  C7  UNL     1     -34.477  18.566   2.427  1.00 20.00     0.047 C 
HETATM    7  C8  UNL     1     -34.601  17.757  -0.867  1.00 20.00    -0.015 C 
ENDROOT
BRANCH   6   8
HETATM    8  C1  UNL     1     -34.426  18.155   3.873  1.00 20.00     0.235 C 
HETATM    9  O11 UNL     1     -33.382  17.998   4.495  1.00 20.00    -0.306 OA
ENDBRANCH   6   8
BRANCH   7  10
HETATM   10  C10 UNL     1     -34.746  16.355  -1.472  1.00 20.00     0.000 C 
HETATM   11  C9  UNL     1     -33.754  16.126  -2.562  1.00 20.00     0.005 C 
ENDBRANCH   7  10
TORSDOF 2
ENDMDL
MODEL 8
REMARK VINA RESULT:      -4.1      1.708      2.210
REMARK  2 active torsions:
REMARK  status: ('A' for Active; 'I' for Inactive)
REMARK    1  A    between atoms: C1_1  and  C7_7 
REMARK    2  A    between atoms: C8_8  and  C10_10 
ROOT
HETATM    1  C2  UNL     1     -34.074  16.240  -5.366  1.00 20.00     0.001 C 
HETATM    2  C3  UNL     1     -35.547  15.854  -5.485  1.00 20.00     0.011 C 
HETATM    3  C4  UNL     1     -35.933  15.721  -2.934  1.00 20.00     0.012 C 
HETATM    4  C5  UNL     1     -33.835  17.347  -4.342  1.00 20.00     0.004 C 
HETATM    5  C6  UNL     1     -34.482  15.684  -2.452  1.00 20.00     0.005 C 
HETATM    6  C7  UNL     1     -36.119  15.063  -4.306  1.00 20.00     0.047 C 
HETATM    7  C8  UNL     1     -33.605  16.861  -2.905  1.00 20.00    -0.015 C 
ENDROOT
BRANCH   6   8
HETATM    8  C1  UNL     1     -37.586  14.834  -4.548  1.00 20.00     0.235 C 
HETATM    9  O11 UNL     1     -38.303  14.189  -3.792  1.00 20.00    -0.306 OA
ENDBRANCH   6   8
BRANCH   7  10
HETATM   10  C10 UNL     1     -33.740  18.045  -1.938  1.00 20.00     0.000 C 
HETATM   11  C9  UNL     1     -33.923  17.582  -0.533  1.00 20.00     0.005 C 
ENDBRANCH   7  10
TORSDOF 2
ENDMDL
MODEL 9
REMARK VINA RESULT:      -4.1      2.652      4.093
REMARK  2 active torsions:
REMARK  status: ('A' for Active; 'I' for Inactive)
REMARK    1  A    between atoms: C1_1  and  C7_7 
REMARK    2  A    between atoms: C8_8  and  C10_10 
ROOT
HETATM    1  C2  UNL     1     -34.536  17.103  -2.126  1.00 20.00     0.001 C 
HETATM    2  C3  UNL     1     -34.548  18.138  -3.250  1.00 20.00     0.011 C 
HETATM    3  C4  UNL     1     -33.461  16.568  -4.989  1.00 20.00     0.012 C 
HETATM    4  C5  UNL     1     -35.048  15.737  -2.578  1.00 20.00     0.004 C 
HETATM    5  C6  UNL     1     -32.929  15.477  -4.060  1.00 20.00     0.005 C 
HETATM    6  C7  UNL     1     -33.480  17.952  -4.330  1.00 20.00     0.047 C 
HETATM    7  C8  UNL     1     -33.978  14.805  -3.161  1.00 20.00    -0.015 C 
ENDROOT
BRANCH   6   8
HETATM    8  C1  UNL     1     -33.681  19.001  -5.390  1.00 20.00     0.235 C 
HETATM    9  O11 UNL     1     -33.650  18.761  -6.591  1.00 20.00    -0.306 OA
ENDBRANCH   6   8
BRANCH   7  10
HETATM   10  C10 UNL     1     -34.659  13.642  -3.894  1.00 20.00     0.000 C 
HETATM   11  C9  UNL     1     -36.060  13.982  -4.273  1.00 20.00     0.005 C 
ENDBRANCH   7  10
TORSDOF 2
ENDMDL
