MODEL 1
REMARK VINA RESULT:      -4.8      0.000      0.000
REMARK  1 active torsions:
REMARK  status: ('A' for Active; 'I' for Inactive)
REMARK    1  A    between atoms: C6_6  and  C10_10 
ROOT
HETATM    1  C1  UNL     1     -34.866  13.510  -4.069  1.00 20.00     0.001 C 
HETATM    2  C2  UNL     1     -33.876  14.462  -3.399  1.00 20.00     0.005 C 
HETATM    3  C3  UNL     1     -34.223  16.712  -4.630  1.00 20.00     0.006 C 
HETATM    4  C4  UNL     1     -34.879  13.551  -5.594  1.00 20.00     0.008 C 
HETATM    5  C5  UNL     1     -34.158  15.969  -5.965  1.00 20.00     0.009 C 
HETATM    6  C6  UNL     1     -34.387  15.904  -3.335  1.00 20.00    -0.001 C 
HETATM    7  C7  UNL     1     -35.226  14.896  -6.275  1.00 20.00    -0.048 C 
HETATM    8  C8  UNL     1     -35.193  14.641  -7.804  1.00 20.00     0.015 C 
HETATM    9  C9  UNL     1     -36.647  15.365  -5.921  1.00 20.00     0.015 C 
ENDROOT
BRANCH   6  10
HETATM   10  C10 UNL     1     -33.703  16.654  -2.182  1.00 20.00     0.119 C 
HETATM   11 CL11 UNL     1     -34.684  16.525  -0.716  1.00 20.00    -0.130 Cl
ENDBRANCH   6  10
TORSDOF 1
ENDMDL
MODEL 2
REMARK VINA RESULT:      -4.8      1.538      2.893
REMARK  1 active torsions:
REMARK  status: ('A' for Active; 'I' for Inactive)
REMARK    1  A    between atoms: C6_6  and  C10_10 
ROOT
HETATM    1  C1  UNL     1     -33.305  16.771  -4.955  1.00 20.00     0.001 C 
HETATM    2  C2  UNL     1     -33.990  17.643  -3.904  1.00 20.00     0.005 C 
HETATM    3  C3  UNL     1     -34.659  15.981  -2.036  1.00 20.00     0.006 C 
HETATM    4  C4  UNL     1     -34.037  15.481  -5.308  1.00 20.00     0.008 C 
HETATM    5  C5  UNL     1     -35.236  15.047  -3.100  1.00 20.00     0.009 C 
HETATM    6  C6  UNL     1     -33.758  17.145  -2.475  1.00 20.00    -0.001 C 
HETATM    7  C7  UNL     1     -34.290  14.462  -4.173  1.00 20.00    -0.048 C 
HETATM    8  C8  UNL     1     -35.015  13.252  -4.815  1.00 20.00     0.015 C 
HETATM    9  C9  UNL     1     -32.975  13.940  -3.571  1.00 20.00     0.015 C 
ENDROOT
BRANCH   6  10
HETATM   10  C10 UNL     1     -33.914  18.305  -1.481  1.00 20.00     0.119 C 
HETATM   11 CL11 UNL     1     -34.227  17.670   0.140  1.00 20.00    -0.130 Cl
ENDBRANCH   6  10
TORSDOF 1
ENDMDL
MODEL 3
REMARK VINA RESULT:      -4.8      1.198      2.135
REMARK  1 active torsions:
REMARK  status: ('A' for Active; 'I' for Inactive)
REMARK    1  A    between atoms: C6_6  and  C10_10 
ROOT
HETATM    1  C1  UNL     1     -33.023  16.022  -4.524  1.00 20.00     0.001 C 
HETATM    2  C2  UNL     1     -33.717  16.762  -3.381  1.00 20.00     0.005 C 
HETATM    3  C3  UNL     1     -35.932  15.467  -3.039  1.00 20.00     0.006 C 
HETATM    4  C4  UNL     1     -33.908  15.697  -5.722  1.00 20.00     0.008 C 
HETATM    5  C5  UNL     1     -36.165  15.505  -4.550  1.00 20.00     0.009 C 
HETATM    6  C6  UNL     1     -34.546  15.834  -2.489  1.00 20.00    -0.001 C 
HETATM    7  C7  UNL     1     -35.148  14.804  -5.479  1.00 20.00    -0.048 C 
HETATM    8  C8  UNL     1     -35.836  14.616  -6.855  1.00 20.00     0.015 C 
HETATM    9  C9  UNL     1     -34.755  13.408  -4.970  1.00 20.00     0.015 C 
ENDROOT
BRANCH   6  10
HETATM   10  C10 UNL     1     -34.705  16.450  -1.091  1.00 20.00     0.119 C 
HETATM   11 CL11 UNL     1     -33.446  17.663  -0.823  1.00 20.00    -0.130 Cl
ENDBRANCH   6  10
TORSDOF 1
ENDMDL
MODEL 4
REMARK VINA RESULT:      -4.4      2.528      4.591
REMARK  1 active torsions:
REMARK  status: ('A' for Active; 'I' for Inactive)
REMARK    1  A    between atoms: C6_6  and  C10_10 
ROOT
HETATM    1  C1  UNL     1     -33.740  17.811  -4.563  1.00 20.00     0.001 C 
HETATM    2  C2  UNL     1     -33.420  16.573  -5.398  1.00 20.00     0.005 C 
HETATM    3  C3  UNL     1     -34.934  14.725  -4.402  1.00 20.00     0.006 C 
HETATM    4  C4  UNL     1     -33.779  17.588  -3.055  1.00 20.00     0.008 C 
HETATM    5  C5  UNL     1     -34.483  15.138  -3.001  1.00 20.00     0.009 C 
HETATM    6  C6  UNL     1     -34.629  15.653  -5.587  1.00 20.00    -0.001 C 
HETATM    7  C7  UNL     1     -34.801  16.566  -2.505  1.00 20.00    -0.048 C 
HETATM    8  C8  UNL     1     -34.641  16.564  -0.963  1.00 20.00     0.015 C 
HETATM    9  C9  UNL     1     -36.248  16.984  -2.813  1.00 20.00     0.015 C 
ENDROOT
BRANCH   6  10
HETATM   10  C10 UNL     1     -34.456  14.809  -6.858  1.00 20.00     0.119 C 
HETATM   11 CL11 UNL     1     -36.018  14.604  -7.661  1.00 20.00    -0.130 Cl
ENDBRANCH   6  10
TORSDOF 1
ENDMDL
MODEL 5
REMARK VINA RESULT:      -4.4      2.633      5.000
REMARK  1 active torsions:
REMARK  status: ('A' for Active; 'I' for Inactive)
REMARK    1  A    between atoms: C6_6  and  C10_10 
ROOT
HETATM    1  C1  UNL     1     -36.592  17.956  -2.573  1.00 20.00     0.001 C 
HETATM    2  C2  UNL     1     -36.393  16.897  -3.656  1.00 20.00     0.005 C 
HETATM    3  C3  UNL     1     -34.492  15.399  -2.737  1.00 20.00     0.006 C 
HETATM    4  C4  UNL     1     -35.313  18.590  -2.038  1.00 20.00     0.008 C 
HETATM    5  C5  UNL     1     -33.691  16.656  -2.399  1.00 20.00     0.009 C 
HETATM    6  C6  UNL     1     -35.981  15.535  -3.088  1.00 20.00    -0.001 C 
HETATM    7  C7  UNL     1     -34.271  17.658  -1.376  1.00 20.00    -0.048 C 
HETATM    8  C8  UNL     1     -33.102  18.563  -0.906  1.00 20.00     0.015 C 
HETATM    9  C9  UNL     1     -34.838  16.961  -0.130  1.00 20.00     0.015 C 
ENDROOT
BRANCH   6  10
HETATM   10  C10 UNL     1     -36.374  14.417  -4.064  1.00 20.00     0.119 C 
HETATM   11 CL11 UNL     1     -35.050  13.254  -4.210  1.00 20.00    -0.130 Cl
ENDBRANCH   6  10
TORSDOF 1
ENDMDL
MODEL 6
REMARK VINA RESULT:      -4.3      2.409      4.243
REMARK  1 active torsions:
REMARK  status: ('A' for Active; 'I' for Inactive)
REMARK    1  A    between atoms: C6_6  and  C10_10 
ROOT
HETATM    1  C1  UNL     1     -35.345  13.722  -4.155  1.00 20.00     0.001 C 
HETATM    2  C2  UNL     1     -35.839  14.338  -5.463  1.00 20.00     0.005 C 
HETATM    3  C3  UNL     1     -34.140  16.227  -5.957  1.00 20.00     0.006 C 
HETATM    4  C4  UNL     1     -34.977  14.720  -3.063  1.00 20.00     0.008 C 
HETATM    5  C5  UNL     1     -34.273  16.699  -4.509  1.00 20.00     0.009 C 
HETATM    6  C6  UNL     1     -34.698  14.851  -6.347  1.00 20.00    -0.001 C 
HETATM    7  C7  UNL     1     -33.857  15.742  -3.370  1.00 20.00    -0.048 C 
HETATM    8  C8  UNL     1     -33.675  16.599  -2.091  1.00 20.00     0.015 C 
HETATM    9  C9  UNL     1     -32.513  15.049  -3.649  1.00 20.00     0.015 C 
ENDROOT
BRANCH   6  10
HETATM   10  C10 UNL     1     -35.144  14.885  -7.816  1.00 20.00     0.119 C 
HETATM   11 CL11 UNL     1     -36.836  15.392  -7.918  1.00 20.00    -0.130 Cl
ENDBRANCH   6  10
TORSDOF 1
ENDMDL
MODEL 7
REMARK VINA RESULT:      -4.2      2.214      4.694
REMARK  1 active torsions:
REMARK  status: ('A' for Active; 'I' for Inactive)
REMARK    1  A    between atoms: C6_6  and  C10_10 
ROOT
HETATM    1  C1  UNL     1     -33.723  18.089  -4.043  1.00 20.00     0.001 C 
HETATM    2  C2  UNL     1     -33.448  16.699  -4.615  1.00 20.00     0.005 C 
HETATM    3  C3  UNL     1     -35.000  15.135  -3.257  1.00 20.00     0.006 C 
HETATM    4  C4  UNL     1     -33.748  18.174  -2.521  1.00 20.00     0.008 C 
HETATM    5  C5  UNL     1     -34.519  15.807  -1.971  1.00 20.00     0.009 C 
HETATM    6  C6  UNL     1     -34.685  15.797  -4.607  1.00 20.00    -0.001 C 
HETATM    7  C7  UNL     1     -34.791  17.315  -1.770  1.00 20.00    -0.048 C 
HETATM    8  C8  UNL     1     -34.611  17.617  -0.260  1.00 20.00     0.015 C 
HETATM    9  C9  UNL     1     -36.230  17.705  -2.145  1.00 20.00     0.015 C 
ENDROOT
BRANCH   6  10
HETATM   10  C10 UNL     1     -34.552  14.710  -5.684  1.00 20.00     0.119 C 
HETATM   11 CL11 UNL     1     -34.531  13.112  -4.925  1.00 20.00    -0.130 Cl
ENDBRANCH   6  10
TORSDOF 1
ENDMDL
MODEL 8
REMARK VINA RESULT:      -4.2      1.176      2.265
REMARK  1 active torsions:
REMARK  status: ('A' for Active; 'I' for Inactive)
REMARK    1  A    between atoms: C6_6  and  C10_10 
ROOT
HETATM    1  C1  UNL     1     -36.270  17.053  -4.033  1.00 20.00     0.001 C 
HETATM    2  C2  UNL     1     -35.662  16.848  -2.646  1.00 20.00     0.005 C 
HETATM    3  C3  UNL     1     -33.402  15.676  -3.111  1.00 20.00     0.006 C 
HETATM    4  C4  UNL     1     -36.216  15.839  -4.954  1.00 20.00     0.008 C 
HETATM    5  C5  UNL     1     -34.120  14.705  -4.048  1.00 20.00     0.009 C 
HETATM    6  C6  UNL     1     -34.134  16.944  -2.647  1.00 20.00    -0.001 C 
HETATM    7  C7  UNL     1     -34.824  15.264  -5.305  1.00 20.00    -0.048 C 
HETATM    8  C8  UNL     1     -35.066  14.071  -6.265  1.00 20.00     0.015 C 
HETATM    9  C9  UNL     1     -33.956  16.286  -6.056  1.00 20.00     0.015 C 
ENDROOT
BRANCH   6  10
HETATM   10  C10 UNL     1     -33.630  17.335  -1.250  1.00 20.00     0.119 C 
HETATM   11 CL11 UNL     1     -34.868  16.970  -0.041  1.00 20.00    -0.130 Cl
ENDBRANCH   6  10
TORSDOF 1
ENDMDL
MODEL 9
REMARK VINA RESULT:      -4.2     12.356     13.925
REMARK  1 active torsions:
REMARK  status: ('A' for Active; 'I' for Inactive)
REMARK    1  A    between atoms: C6_6  and  C10_10 
ROOT
HETATM    1  C1  UNL     1     -42.655   4.436   0.400  1.00 20.00     0.001 C 
HETATM    2  C2  UNL     1     -43.228   3.551  -0.706  1.00 20.00     0.005 C 
HETATM    3  C3  UNL     1     -42.796   4.891  -2.878  1.00 20.00     0.006 C 
HETATM    4  C4  UNL     1     -43.042   5.909   0.323  1.00 20.00     0.008 C 
HETATM    5  C5  UNL     1     -43.356   6.140  -2.197  1.00 20.00     0.009 C 
HETATM    6  C6  UNL     1     -42.451   3.664  -2.020  1.00 20.00    -0.001 C 
HETATM    7  C7  UNL     1     -42.636   6.694  -0.946  1.00 20.00    -0.048 C 
HETATM    8  C8  UNL     1     -43.125   8.151  -0.742  1.00 20.00     0.015 C 
HETATM    9  C9  UNL     1     -41.110   6.744  -1.123  1.00 20.00     0.015 C 
ENDROOT
BRANCH   6  10
HETATM   10  C10 UNL     1     -42.645   2.392  -2.858  1.00 20.00     0.119 C 
HETATM   11 CL11 UNL     1     -41.166   2.035  -3.761  1.00 20.00    -0.130 Cl
ENDBRANCH   6  10
TORSDOF 1
ENDMDL
