MODEL 1
REMARK VINA RESULT:      -4.3      0.000      0.000
REMARK  2 active torsions:
REMARK  status: ('A' for Active; 'I' for Inactive)
REMARK    1  A    between atoms: C5_5  and  C6_6 
REMARK    2  A    between atoms: C6_6  and  S8_8 
ROOT
HETATM    1  C1  UNL     1     -33.996   5.095   6.367  1.00 20.00     0.027 C 
HETATM    2  C2  UNL     1     -34.068   6.484   5.738  1.00 20.00     0.009 C 
HETATM    3  C3  UNL     1     -35.116   4.205   5.844  1.00 20.00     0.167 C 
HETATM    4  C4  UNL     1     -35.322   5.438   3.833  1.00 20.00     0.172 C 
HETATM    5  C5  UNL     1     -34.208   6.419   4.212  1.00 20.00     0.019 C 
HETATM    6  O7  UNL     1     -35.103   4.153   4.418  1.00 20.00    -0.391 OA
ENDROOT
BRANCH   5   7
HETATM    7  C6  UNL     1     -32.885   6.025   3.549  1.00 20.00     0.077 C 
BRANCH   7   8
HETATM    8  S8  UNL     1     -32.132   7.461   2.742  1.00 20.00    -0.182 SA
HETATM    9  H20 UNL     1     -32.099   8.241   3.833  1.00 20.00     0.101 HD
ENDBRANCH   7   8
ENDBRANCH   5   7
TORSDOF 2
ENDMDL
MODEL 2
REMARK VINA RESULT:      -3.4     12.435     12.943
REMARK  2 active torsions:
REMARK  status: ('A' for Active; 'I' for Inactive)
REMARK    1  A    between atoms: C5_5  and  C6_6 
REMARK    2  A    between atoms: C6_6  and  S8_8 
ROOT
HETATM    1  C1  UNL     1     -34.374  13.336  -4.694  1.00 20.00     0.027 C 
HETATM    2  C2  UNL     1     -33.299  13.890  -3.764  1.00 20.00     0.009 C 
HETATM    3  C3  UNL     1     -35.766  13.681  -4.181  1.00 20.00     0.167 C 
HETATM    4  C4  UNL     1     -34.989  15.575  -2.991  1.00 20.00     0.172 C 
HETATM    5  C5  UNL     1     -33.535  15.368  -3.426  1.00 20.00     0.019 C 
HETATM    6  O7  UNL     1     -35.900  15.087  -3.977  1.00 20.00    -0.391 OA
ENDROOT
BRANCH   5   7
HETATM    7  C6  UNL     1     -33.185  16.272  -4.611  1.00 20.00     0.077 C 
BRANCH   7   8
HETATM    8  S8  UNL     1     -33.777  17.958  -4.313  1.00 20.00    -0.182 SA
HETATM    9  H20 UNL     1     -32.755  18.334  -3.530  1.00 20.00     0.101 HD
ENDBRANCH   7   8
ENDBRANCH   5   7
TORSDOF 2
ENDMDL
MODEL 3
REMARK VINA RESULT:      -3.3     11.772     12.791
REMARK  2 active torsions:
REMARK  status: ('A' for Active; 'I' for Inactive)
REMARK    1  A    between atoms: C5_5  and  C6_6 
REMARK    2  A    between atoms: C6_6  and  S8_8 
ROOT
HETATM    1  C1  UNL     1     -35.112  14.758  -5.754  1.00 20.00     0.027 C 
HETATM    2  C2  UNL     1     -34.075  15.620  -5.041  1.00 20.00     0.009 C 
HETATM    3  C3  UNL     1     -34.792  13.278  -5.593  1.00 20.00     0.167 C 
HETATM    4  C4  UNL     1     -33.585  13.634  -3.588  1.00 20.00     0.172 C 
HETATM    5  C5  UNL     1     -33.823  15.147  -3.603  1.00 20.00     0.019 C 
HETATM    6  O7  UNL     1     -34.659  12.932  -4.215  1.00 20.00    -0.391 OA
ENDROOT
BRANCH   5   7
HETATM    7  C6  UNL     1     -34.987  15.525  -2.682  1.00 20.00     0.077 C 
BRANCH   7   8
HETATM    8  S8  UNL     1     -34.418  16.639  -1.373  1.00 20.00    -0.182 SA
HETATM    9  H20 UNL     1     -34.454  17.760  -2.109  1.00 20.00     0.101 HD
ENDBRANCH   7   8
ENDBRANCH   5   7
TORSDOF 2
ENDMDL
MODEL 4
REMARK VINA RESULT:      -3.2     12.706     13.510
REMARK  2 active torsions:
REMARK  status: ('A' for Active; 'I' for Inactive)
REMARK    1  A    between atoms: C5_5  and  C6_6 
REMARK    2  A    between atoms: C6_6  and  S8_8 
ROOT
HETATM    1  C1  UNL     1     -33.840  13.738  -3.749  1.00 20.00     0.027 C 
HETATM    2  C2  UNL     1     -34.430  15.003  -3.134  1.00 20.00     0.009 C 
HETATM    3  C3  UNL     1     -34.646  13.297  -4.963  1.00 20.00     0.167 C 
HETATM    4  C4  UNL     1     -35.448  15.486  -5.376  1.00 20.00     0.172 C 
HETATM    5  C5  UNL     1     -34.692  16.088  -4.188  1.00 20.00     0.019 C 
HETATM    6  O7  UNL     1     -34.758  14.357  -5.913  1.00 20.00    -0.391 OA
ENDROOT
BRANCH   5   7
HETATM    7  C6  UNL     1     -33.385  16.742  -4.647  1.00 20.00     0.077 C 
BRANCH   7   8
HETATM    8  S8  UNL     1     -33.735  18.168  -5.708  1.00 20.00    -0.182 SA
HETATM    9  H20 UNL     1     -33.774  19.077  -4.723  1.00 20.00     0.101 HD
ENDBRANCH   7   8
ENDBRANCH   5   7
TORSDOF 2
ENDMDL
MODEL 5
REMARK VINA RESULT:      -3.2     12.433     13.324
REMARK  2 active torsions:
REMARK  status: ('A' for Active; 'I' for Inactive)
REMARK    1  A    between atoms: C5_5  and  C6_6 
REMARK    2  A    between atoms: C6_6  and  S8_8 
ROOT
HETATM    1  C1  UNL     1     -33.380  15.576  -4.360  1.00 20.00     0.027 C 
HETATM    2  C2  UNL     1     -34.873  15.782  -4.599  1.00 20.00     0.009 C 
HETATM    3  C3  UNL     1     -33.126  14.284  -3.596  1.00 20.00     0.167 C 
HETATM    4  C4  UNL     1     -35.145  13.301  -4.347  1.00 20.00     0.172 C 
HETATM    5  C5  UNL     1     -35.544  14.528  -5.174  1.00 20.00     0.019 C 
HETATM    6  O7  UNL     1     -33.725  13.172  -4.261  1.00 20.00    -0.391 OA
ENDROOT
BRANCH   5   7
HETATM    7  C6  UNL     1     -35.184  14.332  -6.649  1.00 20.00     0.077 C 
BRANCH   7   8
HETATM    8  S8  UNL     1     -36.495  14.993  -7.710  1.00 20.00    -0.182 SA
HETATM    9  H20 UNL     1     -36.995  13.805  -8.081  1.00 20.00     0.101 HD
ENDBRANCH   7   8
ENDBRANCH   5   7
TORSDOF 2
ENDMDL
MODEL 6
REMARK VINA RESULT:      -3.2     12.412     13.182
REMARK  2 active torsions:
REMARK  status: ('A' for Active; 'I' for Inactive)
REMARK    1  A    between atoms: C5_5  and  C6_6 
REMARK    2  A    between atoms: C6_6  and  S8_8 
ROOT
HETATM    1  C1  UNL     1     -34.767  14.368  -5.991  1.00 20.00     0.027 C 
HETATM    2  C2  UNL     1     -34.410  13.603  -4.720  1.00 20.00     0.009 C 
HETATM    3  C3  UNL     1     -36.169  14.954  -5.896  1.00 20.00     0.167 C 
HETATM    4  C4  UNL     1     -36.120  15.001  -3.529  1.00 20.00     0.172 C 
HETATM    5  C5  UNL     1     -34.704  14.420  -3.454  1.00 20.00     0.019 C 
HETATM    6  O7  UNL     1     -36.307  15.759  -4.725  1.00 20.00    -0.391 OA
ENDROOT
BRANCH   5   7
HETATM    7  C6  UNL     1     -33.668  15.530  -3.256  1.00 20.00     0.077 C 
BRANCH   7   8
HETATM    8  S8  UNL     1     -34.176  16.632  -1.911  1.00 20.00    -0.182 SA
HETATM    9  H20 UNL     1     -33.456  17.691  -2.310  1.00 20.00     0.101 HD
ENDBRANCH   7   8
ENDBRANCH   5   7
TORSDOF 2
ENDMDL
MODEL 7
REMARK VINA RESULT:      -3.2     12.601     13.434
REMARK  2 active torsions:
REMARK  status: ('A' for Active; 'I' for Inactive)
REMARK    1  A    between atoms: C5_5  and  C6_6 
REMARK    2  A    between atoms: C6_6  and  S8_8 
ROOT
HETATM    1  C1  UNL     1     -34.907  17.544  -2.696  1.00 20.00     0.027 C 
HETATM    2  C2  UNL     1     -34.583  16.249  -1.956  1.00 20.00     0.009 C 
HETATM    3  C3  UNL     1     -33.797  17.902  -3.675  1.00 20.00     0.167 C 
HETATM    4  C4  UNL     1     -33.088  15.652  -3.881  1.00 20.00     0.172 C 
HETATM    5  C5  UNL     1     -34.155  15.130  -2.915  1.00 20.00     0.019 C 
HETATM    6  O7  UNL     1     -33.538  16.820  -4.570  1.00 20.00    -0.391 OA
ENDROOT
BRANCH   5   7
HETATM    7  C6  UNL     1     -35.356  14.566  -3.681  1.00 20.00     0.077 C 
BRANCH   7   8
HETATM    8  S8  UNL     1     -34.806  13.354  -4.909  1.00 20.00    -0.182 SA
HETATM    9  H20 UNL     1     -33.680  13.000  -4.271  1.00 20.00     0.101 HD
ENDBRANCH   7   8
ENDBRANCH   5   7
TORSDOF 2
ENDMDL
MODEL 8
REMARK VINA RESULT:      -3.1     12.466     13.046
REMARK  2 active torsions:
REMARK  status: ('A' for Active; 'I' for Inactive)
REMARK    1  A    between atoms: C5_5  and  C6_6 
REMARK    2  A    between atoms: C6_6  and  S8_8 
ROOT
HETATM    1  C1  UNL     1     -35.864  15.557  -3.437  1.00 20.00     0.027 C 
HETATM    2  C2  UNL     1     -36.022  14.245  -4.200  1.00 20.00     0.009 C 
HETATM    3  C3  UNL     1     -34.634  15.517  -2.539  1.00 20.00     0.167 C 
HETATM    4  C4  UNL     1     -33.560  13.888  -3.880  1.00 20.00     0.172 C 
HETATM    5  C5  UNL     1     -34.717  13.813  -4.881  1.00 20.00     0.019 C 
HETATM    6  O7  UNL     1     -33.466  15.185  -3.290  1.00 20.00    -0.391 OA
ENDROOT
BRANCH   5   7
HETATM    7  C6  UNL     1     -34.426  14.670  -6.117  1.00 20.00     0.077 C 
BRANCH   7   8
HETATM    8  S8  UNL     1     -35.856  14.680  -7.227  1.00 20.00    -0.182 SA
HETATM    9  H20 UNL     1     -35.978  16.014  -7.297  1.00 20.00     0.101 HD
ENDBRANCH   7   8
ENDBRANCH   5   7
TORSDOF 2
ENDMDL
MODEL 9
REMARK VINA RESULT:      -3.1      9.354     10.182
REMARK  2 active torsions:
REMARK  status: ('A' for Active; 'I' for Inactive)
REMARK    1  A    between atoms: C5_5  and  C6_6 
REMARK    2  A    between atoms: C6_6  and  S8_8 
ROOT
HETATM    1  C1  UNL     1     -42.871   7.012  -0.470  1.00 20.00     0.027 C 
HETATM    2  C2  UNL     1     -42.881   5.691   0.294  1.00 20.00     0.009 C 
HETATM    3  C3  UNL     1     -41.465   7.353  -0.945  1.00 20.00     0.167 C 
HETATM    4  C4  UNL     1     -40.784   5.086  -0.942  1.00 20.00     0.172 C 
HETATM    5  C5  UNL     1     -42.149   4.579  -0.468  1.00 20.00     0.019 C 
HETATM    6  O7  UNL     1     -40.912   6.283  -1.710  1.00 20.00    -0.391 OA
ENDROOT
BRANCH   5   7
HETATM    7  C6  UNL     1     -42.984   4.073  -1.649  1.00 20.00     0.077 C 
BRANCH   7   8
HETATM    8  S8  UNL     1     -41.964   3.061  -2.752  1.00 20.00    -0.182 SA
HETATM    9  H20 UNL     1     -42.636   1.916  -2.563  1.00 20.00     0.101 HD
ENDBRANCH   7   8
ENDBRANCH   5   7
TORSDOF 2
ENDMDL
