MODEL 1
REMARK VINA RESULT:      -3.8      0.000      0.000
REMARK  4 active torsions:
REMARK  status: ('A' for Active; 'I' for Inactive)
REMARK    1  A    between atoms: C3_3  and  C6_6 
REMARK    2  A    between atoms: C4_4  and  C6_6 
REMARK    3  A    between atoms: C4_4  and  O7_7 
REMARK    4  A    between atoms: C5_5  and  C6_6 
ROOT
HETATM    1  C6  UNL     1     -34.147   6.207   4.316  1.00 20.00     0.023 C 
ENDROOT
BRANCH   1   2
HETATM    2  C3  UNL     1     -33.393   6.152   5.664  1.00 20.00     0.003 C 
HETATM    3  C1  UNL     1     -33.860   7.194   6.671  1.00 20.00     0.005 C 
ENDBRANCH   1   2
BRANCH   1   4
HETATM    4  C4  UNL     1     -33.155   6.172   3.142  1.00 20.00     0.172 C 
BRANCH   4   5
HETATM    5  O7  UNL     1     -32.140   7.149   3.337  1.00 20.00    -0.396 OA
HETATM    6  C2  UNL     1     -32.064   8.048   2.240  1.00 20.00     0.201 C 
ENDBRANCH   4   5
ENDBRANCH   1   4
BRANCH   1   7
HETATM    7  C5  UNL     1     -35.229   5.126   4.156  1.00 20.00     0.121 C 
HETATM    8 CL8  UNL     1     -35.121   3.827   5.368  1.00 20.00    -0.130 Cl
ENDBRANCH   1   7
TORSDOF 4
ENDMDL
MODEL 2
REMARK VINA RESULT:      -3.5      1.456      2.282
REMARK  4 active torsions:
REMARK  status: ('A' for Active; 'I' for Inactive)
REMARK    1  A    between atoms: C3_3  and  C6_6 
REMARK    2  A    between atoms: C4_4  and  C6_6 
REMARK    3  A    between atoms: C4_4  and  O7_7 
REMARK    4  A    between atoms: C5_5  and  C6_6 
ROOT
HETATM    1  C6  UNL     1     -33.358   5.923   4.106  1.00 20.00     0.023 C 
ENDROOT
BRANCH   1   2
HETATM    2  C3  UNL     1     -34.794   5.452   3.782  1.00 20.00     0.003 C 
HETATM    3  C1  UNL     1     -35.269   4.293   4.647  1.00 20.00     0.005 C 
ENDBRANCH   1   2
BRANCH   1   4
HETATM    4  C4  UNL     1     -32.610   6.296   2.815  1.00 20.00     0.172 C 
BRANCH   4   5
HETATM    5  O7  UNL     1     -31.931   7.534   2.989  1.00 20.00    -0.396 OA
HETATM    6  C2  UNL     1     -32.033   8.351   1.832  1.00 20.00     0.201 C 
ENDBRANCH   4   5
ENDBRANCH   1   4
BRANCH   1   7
HETATM    7  C5  UNL     1     -33.284   7.062   5.135  1.00 20.00     0.121 C 
HETATM    8 CL8  UNL     1     -34.030   6.655   6.699  1.00 20.00    -0.130 Cl
ENDBRANCH   1   7
TORSDOF 4
ENDMDL
MODEL 3
REMARK VINA RESULT:      -3.5     11.995     12.507
REMARK  4 active torsions:
REMARK  status: ('A' for Active; 'I' for Inactive)
REMARK    1  A    between atoms: C3_3  and  C6_6 
REMARK    2  A    between atoms: C4_4  and  C6_6 
REMARK    3  A    between atoms: C4_4  and  O7_7 
REMARK    4  A    between atoms: C5_5  and  C6_6 
ROOT
HETATM    1  C6  UNL     1     -33.559  16.035  -3.011  1.00 20.00     0.023 C 
ENDROOT
BRANCH   1   2
HETATM    2  C3  UNL     1     -34.770  15.934  -2.057  1.00 20.00     0.003 C 
HETATM    3  C1  UNL     1     -34.590  16.698  -0.753  1.00 20.00     0.005 C 
ENDBRANCH   1   2
BRANCH   1   4
HETATM    4  C4  UNL     1     -33.265  14.671  -3.657  1.00 20.00     0.172 C 
BRANCH   4   5
HETATM    5  O7  UNL     1     -34.366  13.793  -3.456  1.00 20.00    -0.396 OA
HETATM    6  C2  UNL     1     -34.821  13.239  -4.682  1.00 20.00     0.201 C 
ENDBRANCH   4   5
ENDBRANCH   1   4
BRANCH   1   7
HETATM    7  C5  UNL     1     -33.688  17.135  -4.079  1.00 20.00     0.121 C 
HETATM    8 CL8  UNL     1     -33.587  16.520  -5.746  1.00 20.00    -0.130 Cl
ENDBRANCH   1   7
TORSDOF 4
ENDMDL
MODEL 4
REMARK VINA RESULT:      -3.4     11.778     12.751
REMARK  4 active torsions:
REMARK  status: ('A' for Active; 'I' for Inactive)
REMARK    1  A    between atoms: C3_3  and  C6_6 
REMARK    2  A    between atoms: C4_4  and  C6_6 
REMARK    3  A    between atoms: C4_4  and  O7_7 
REMARK    4  A    between atoms: C5_5  and  C6_6 
ROOT
HETATM    1  C6  UNL     1     -33.560  15.237  -3.379  1.00 20.00     0.023 C 
ENDROOT
BRANCH   1   2
HETATM    2  C3  UNL     1     -33.549  13.757  -3.824  1.00 20.00     0.003 C 
HETATM    3  C1  UNL     1     -34.857  13.295  -4.450  1.00 20.00     0.005 C 
ENDBRANCH   1   2
BRANCH   1   4
HETATM    4  C4  UNL     1     -33.219  16.158  -4.563  1.00 20.00     0.172 C 
BRANCH   4   5
HETATM    5  O7  UNL     1     -33.494  17.511  -4.219  1.00 20.00    -0.396 OA
HETATM    6  C2  UNL     1     -33.580  18.335  -5.372  1.00 20.00     0.201 C 
ENDBRANCH   4   5
ENDBRANCH   1   4
BRANCH   1   7
HETATM    7  C5  UNL     1     -34.863  15.679  -2.694  1.00 20.00     0.121 C 
HETATM    8 CL8  UNL     1     -34.610  16.399  -1.085  1.00 20.00    -0.130 Cl
ENDBRANCH   1   7
TORSDOF 4
ENDMDL
MODEL 5
REMARK VINA RESULT:      -3.4     12.015     12.466
REMARK  4 active torsions:
REMARK  status: ('A' for Active; 'I' for Inactive)
REMARK    1  A    between atoms: C3_3  and  C6_6 
REMARK    2  A    between atoms: C4_4  and  C6_6 
REMARK    3  A    between atoms: C4_4  and  O7_7 
REMARK    4  A    between atoms: C5_5  and  C6_6 
ROOT
HETATM    1  C6  UNL     1     -34.856  14.096  -3.742  1.00 20.00     0.023 C 
ENDROOT
BRANCH   1   2
HETATM    2  C3  UNL     1     -33.634  14.971  -3.384  1.00 20.00     0.003 C 
HETATM    3  C1  UNL     1     -33.971  16.166  -2.503  1.00 20.00     0.005 C 
ENDBRANCH   1   2
BRANCH   1   4
HETATM    4  C4  UNL     1     -36.156  14.909  -3.618  1.00 20.00     0.172 C 
BRANCH   4   5
HETATM    5  O7  UNL     1     -37.280  14.054  -3.788  1.00 20.00    -0.396 OA
HETATM    6  C2  UNL     1     -38.480  14.796  -3.949  1.00 20.00     0.201 C 
ENDBRANCH   4   5
ENDBRANCH   1   4
BRANCH   1   7
HETATM    7  C5  UNL     1     -34.761  13.413  -5.116  1.00 20.00     0.121 C 
HETATM    8 CL8  UNL     1     -34.551  14.557  -6.464  1.00 20.00    -0.130 Cl
ENDBRANCH   1   7
TORSDOF 4
ENDMDL
MODEL 6
REMARK VINA RESULT:      -3.4      2.716      3.566
REMARK  4 active torsions:
REMARK  status: ('A' for Active; 'I' for Inactive)
REMARK    1  A    between atoms: C3_3  and  C6_6 
REMARK    2  A    between atoms: C4_4  and  C6_6 
REMARK    3  A    between atoms: C4_4  and  O7_7 
REMARK    4  A    between atoms: C5_5  and  C6_6 
ROOT
HETATM    1  C6  UNL     1     -33.437   5.893   4.176  1.00 20.00     0.023 C 
ENDROOT
BRANCH   1   2
HETATM    2  C3  UNL     1     -33.692   7.138   5.056  1.00 20.00     0.003 C 
HETATM    3  C1  UNL     1     -33.688   6.844   6.550  1.00 20.00     0.005 C 
ENDBRANCH   1   2
BRANCH   1   4
HETATM    4  C4  UNL     1     -34.742   5.429   3.508  1.00 20.00     0.172 C 
BRANCH   4   5
HETATM    5  O7  UNL     1     -35.627   4.900   4.489  1.00 20.00    -0.396 OA
HETATM    6  C2  UNL     1     -35.016   3.856   5.232  1.00 20.00     0.201 C 
ENDBRANCH   4   5
ENDBRANCH   1   4
BRANCH   1   7
HETATM    7  C5  UNL     1     -32.319   6.075   3.136  1.00 20.00     0.121 C 
HETATM    8 CL8  UNL     1     -32.156   7.749   2.554  1.00 20.00    -0.130 Cl
ENDBRANCH   1   7
TORSDOF 4
ENDMDL
MODEL 7
REMARK VINA RESULT:      -3.3     11.475     12.702
REMARK  4 active torsions:
REMARK  status: ('A' for Active; 'I' for Inactive)
REMARK    1  A    between atoms: C3_3  and  C6_6 
REMARK    2  A    between atoms: C4_4  and  C6_6 
REMARK    3  A    between atoms: C4_4  and  O7_7 
REMARK    4  A    between atoms: C5_5  and  C6_6 
ROOT
HETATM    1  C6  UNL     1     -33.770  15.717  -3.891  1.00 20.00     0.023 C 
ENDROOT
BRANCH   1   2
HETATM    2  C3  UNL     1     -33.284  16.435  -5.170  1.00 20.00     0.003 C 
HETATM    3  C1  UNL     1     -34.086  16.082  -6.415  1.00 20.00     0.005 C 
ENDBRANCH   1   2
BRANCH   1   4
HETATM    4  C4  UNL     1     -33.126  14.325  -3.777  1.00 20.00     0.172 C 
BRANCH   4   5
HETATM    5  O7  UNL     1     -34.106  13.368  -3.391  1.00 20.00    -0.396 OA
HETATM    6  C2  UNL     1     -35.233  13.399  -4.255  1.00 20.00     0.201 C 
ENDBRANCH   4   5
ENDBRANCH   1   4
BRANCH   1   7
HETATM    7  C5  UNL     1     -33.568  16.525  -2.599  1.00 20.00     0.121 C 
HETATM    8 CL8  UNL     1     -34.792  16.187  -1.352  1.00 20.00    -0.130 Cl
ENDBRANCH   1   7
TORSDOF 4
ENDMDL
MODEL 8
REMARK VINA RESULT:      -3.3     11.814     12.177
REMARK  4 active torsions:
REMARK  status: ('A' for Active; 'I' for Inactive)
REMARK    1  A    between atoms: C3_3  and  C6_6 
REMARK    2  A    between atoms: C4_4  and  C6_6 
REMARK    3  A    between atoms: C4_4  and  O7_7 
REMARK    4  A    between atoms: C5_5  and  C6_6 
ROOT
HETATM    1  C6  UNL     1     -34.396  15.817  -2.401  1.00 20.00     0.023 C 
ENDROOT
BRANCH   1   2
HETATM    2  C3  UNL     1     -33.942  16.950  -1.454  1.00 20.00     0.003 C 
HETATM    3  C1  UNL     1     -34.772  17.058  -0.182  1.00 20.00     0.005 C 
ENDBRANCH   1   2
BRANCH   1   4
HETATM    4  C4  UNL     1     -35.732  16.179  -3.072  1.00 20.00     0.172 C 
BRANCH   4   5
HETATM    5  O7  UNL     1     -36.537  15.014  -3.207  1.00 20.00    -0.396 OA
HETATM    6  C2  UNL     1     -36.916  14.796  -4.559  1.00 20.00     0.201 C 
ENDBRANCH   4   5
ENDBRANCH   1   4
BRANCH   1   7
HETATM    7  C5  UNL     1     -33.345  15.410  -3.446  1.00 20.00     0.121 C 
HETATM    8 CL8  UNL     1     -33.345  13.668  -3.811  1.00 20.00    -0.130 Cl
ENDBRANCH   1   7
TORSDOF 4
ENDMDL
MODEL 9
REMARK VINA RESULT:      -3.3     11.916     12.360
REMARK  4 active torsions:
REMARK  status: ('A' for Active; 'I' for Inactive)
REMARK    1  A    between atoms: C3_3  and  C6_6 
REMARK    2  A    between atoms: C4_4  and  C6_6 
REMARK    3  A    between atoms: C4_4  and  O7_7 
REMARK    4  A    between atoms: C5_5  and  C6_6 
ROOT
HETATM    1  C6  UNL     1     -34.701  15.869  -3.124  1.00 20.00     0.023 C 
ENDROOT
BRANCH   1   2
HETATM    2  C3  UNL     1     -34.625  16.191  -1.614  1.00 20.00     0.003 C 
HETATM    3  C1  UNL     1     -33.714  17.365  -1.282  1.00 20.00     0.005 C 
ENDBRANCH   1   2
BRANCH   1   4
HETATM    4  C4  UNL     1     -33.326  15.424  -3.650  1.00 20.00     0.172 C 
BRANCH   4   5
HETATM    5  O7  UNL     1     -32.818  16.393  -4.559  1.00 20.00    -0.396 OA
HETATM    6  C2  UNL     1     -33.605  16.463  -5.739  1.00 20.00     0.201 C 
ENDBRANCH   4   5
ENDBRANCH   1   4
BRANCH   1   7
HETATM    7  C5  UNL     1     -35.791  14.850  -3.497  1.00 20.00     0.121 C 
HETATM    8 CL8  UNL     1     -35.144  13.327  -4.153  1.00 20.00    -0.130 Cl
ENDBRANCH   1   7
TORSDOF 4
ENDMDL
