MODEL 1
REMARK VINA RESULT:      -4.4      0.000      0.000
REMARK  4 active torsions:
REMARK  status: ('A' for Active; 'I' for Inactive)
REMARK    1  A    between atoms: C5_5  and  C7_7 
REMARK    2  A    between atoms: C5_5  and  C8_8 
REMARK    3  A    between atoms: C6_6  and  C8_8 
REMARK    4  A    between atoms: C6_6  and  C9_9 
ROOT
HETATM    1  C3  UNL     1     -32.628   5.595   2.157  1.00 20.00     0.010 C 
HETATM    2  C8  UNL     1     -32.380   6.453   3.401  1.00 20.00    -0.017 C 
ENDROOT
BRANCH   2   3
HETATM    3  C5  UNL     1     -33.678   6.666   4.217  1.00 20.00     0.008 C 
BRANCH   3   4
HETATM    4  C7  UNL     1     -34.142   5.482   5.089  1.00 20.00    -0.023 C 
HETATM    5  C1  UNL     1     -35.404   4.812   4.547  1.00 20.00     0.009 C 
HETATM    6  C2  UNL     1     -34.390   5.965   6.522  1.00 20.00     0.009 C 
ENDBRANCH   3   4
ENDBRANCH   2   3
BRANCH   2   7
HETATM    7  C6  UNL     1     -31.800   7.842   3.031  1.00 20.00     0.024 C 
BRANCH   7   8
HETATM    8  C9  UNL     1     -32.404   8.523   1.793  1.00 20.00     0.078 C 
HETATM    9  C4  UNL     1     -32.748   9.980   2.088  1.00 20.00     0.026 C 
HETATM   10 CL10 UNL     1     -31.273   8.468   0.408  1.00 20.00    -0.125 Cl
ENDBRANCH   7   8
ENDBRANCH   2   7
TORSDOF 4
ENDMDL
MODEL 2
REMARK VINA RESULT:      -4.3      2.454      4.887
REMARK  4 active torsions:
REMARK  status: ('A' for Active; 'I' for Inactive)
REMARK    1  A    between atoms: C5_5  and  C7_7 
REMARK    2  A    between atoms: C5_5  and  C8_8 
REMARK    3  A    between atoms: C6_6  and  C8_8 
REMARK    4  A    between atoms: C6_6  and  C9_9 
ROOT
HETATM    1  C3  UNL     1     -31.999   5.333   3.135  1.00 20.00     0.010 C 
HETATM    2  C8  UNL     1     -32.973   6.479   2.845  1.00 20.00    -0.017 C 
ENDROOT
BRANCH   2   3
HETATM    3  C5  UNL     1     -32.247   7.845   2.787  1.00 20.00     0.008 C 
BRANCH   3   4
HETATM    4  C7  UNL     1     -32.515   8.711   1.539  1.00 20.00    -0.023 C 
HETATM    5  C1  UNL     1     -31.402   8.599   0.497  1.00 20.00     0.009 C 
HETATM    6  C2  UNL     1     -32.685  10.175   1.957  1.00 20.00     0.009 C 
ENDBRANCH   3   4
ENDBRANCH   2   3
BRANCH   2   7
HETATM    7  C6  UNL     1     -34.091   6.563   3.915  1.00 20.00     0.024 C 
BRANCH   7   8
HETATM    8  C9  UNL     1     -33.956   5.615   5.117  1.00 20.00     0.078 C 
HETATM    9  C4  UNL     1     -34.115   6.377   6.429  1.00 20.00     0.026 C 
HETATM   10 CL10 UNL     1     -35.180   4.313   5.054  1.00 20.00    -0.125 Cl
ENDBRANCH   7   8
ENDBRANCH   2   7
TORSDOF 4
ENDMDL
MODEL 3
REMARK VINA RESULT:      -4.3      1.355      1.835
REMARK  4 active torsions:
REMARK  status: ('A' for Active; 'I' for Inactive)
REMARK    1  A    between atoms: C5_5  and  C7_7 
REMARK    2  A    between atoms: C5_5  and  C8_8 
REMARK    3  A    between atoms: C6_6  and  C8_8 
REMARK    4  A    between atoms: C6_6  and  C9_9 
ROOT
HETATM    1  C3  UNL     1     -31.876   5.739   3.268  1.00 20.00     0.010 C 
HETATM    2  C8  UNL     1     -33.086   6.628   3.573  1.00 20.00    -0.017 C 
ENDROOT
BRANCH   2   3
HETATM    3  C5  UNL     1     -34.368   5.790   3.799  1.00 20.00     0.008 C 
BRANCH   3   4
HETATM    4  C7  UNL     1     -34.827   5.621   5.262  1.00 20.00    -0.023 C 
HETATM    5  C1  UNL     1     -33.941   6.383   6.247  1.00 20.00     0.009 C 
HETATM    6  C2  UNL     1     -34.842   4.133   5.626  1.00 20.00     0.009 C 
ENDBRANCH   3   4
ENDBRANCH   2   3
BRANCH   2   7
HETATM    7  C6  UNL     1     -33.356   7.638   2.429  1.00 20.00     0.024 C 
BRANCH   7   8
HETATM    8  C9  UNL     1     -32.207   8.600   2.086  1.00 20.00     0.078 C 
HETATM    9  C4  UNL     1     -31.675   8.330   0.682  1.00 20.00     0.026 C 
HETATM   10 CL10 UNL     1     -32.741  10.304   2.182  1.00 20.00    -0.125 Cl
ENDBRANCH   7   8
ENDBRANCH   2   7
TORSDOF 4
ENDMDL
MODEL 4
REMARK VINA RESULT:      -4.3      1.374      2.040
REMARK  4 active torsions:
REMARK  status: ('A' for Active; 'I' for Inactive)
REMARK    1  A    between atoms: C5_5  and  C7_7 
REMARK    2  A    between atoms: C5_5  and  C8_8 
REMARK    3  A    between atoms: C6_6  and  C8_8 
REMARK    4  A    between atoms: C6_6  and  C9_9 
ROOT
HETATM    1  C3  UNL     1     -34.487   5.005   2.146  1.00 20.00     0.010 C 
HETATM    2  C8  UNL     1     -33.680   5.395   3.389  1.00 20.00    -0.017 C 
ENDROOT
BRANCH   2   3
HETATM    3  C5  UNL     1     -34.446   6.409   4.273  1.00 20.00     0.008 C 
BRANCH   3   4
HETATM    4  C7  UNL     1     -34.606   6.038   5.761  1.00 20.00    -0.023 C 
HETATM    5  C1  UNL     1     -33.639   6.802   6.664  1.00 20.00     0.009 C 
HETATM    6  C2  UNL     1     -34.396   4.530   5.939  1.00 20.00     0.009 C 
ENDBRANCH   3   4
ENDBRANCH   2   3
BRANCH   2   7
HETATM    7  C6  UNL     1     -32.309   6.012   3.010  1.00 20.00     0.024 C 
BRANCH   7   8
HETATM    8  C9  UNL     1     -32.188   7.538   3.149  1.00 20.00     0.078 C 
HETATM    9  C4  UNL     1     -31.072   7.907   4.121  1.00 20.00     0.026 C 
HETATM   10 CL10 UNL     1     -31.854   8.307   1.569  1.00 20.00    -0.125 Cl
ENDBRANCH   7   8
ENDBRANCH   2   7
TORSDOF 4
ENDMDL
MODEL 5
REMARK VINA RESULT:      -4.2     10.577     11.861
REMARK  4 active torsions:
REMARK  status: ('A' for Active; 'I' for Inactive)
REMARK    1  A    between atoms: C5_5  and  C7_7 
REMARK    2  A    between atoms: C5_5  and  C8_8 
REMARK    3  A    between atoms: C6_6  and  C8_8 
REMARK    4  A    between atoms: C6_6  and  C9_9 
ROOT
HETATM    1  C3  UNL     1     -34.676  13.850  -3.737  1.00 20.00     0.010 C 
HETATM    2  C8  UNL     1     -33.852  15.041  -3.240  1.00 20.00    -0.017 C 
ENDROOT
BRANCH   2   3
HETATM    3  C5  UNL     1     -34.725  16.054  -2.460  1.00 20.00     0.008 C 
BRANCH   3   4
HETATM    4  C7  UNL     1     -33.996  16.931  -1.421  1.00 20.00    -0.023 C 
HETATM    5  C1  UNL     1     -34.761  17.038  -0.103  1.00 20.00     0.009 C 
HETATM    6  C2  UNL     1     -33.768  18.331  -2.001  1.00 20.00     0.009 C 
ENDBRANCH   3   4
ENDBRANCH   2   3
BRANCH   2   7
HETATM    7  C6  UNL     1     -33.162  15.787  -4.410  1.00 20.00     0.024 C 
BRANCH   7   8
HETATM    8  C9  UNL     1     -34.094  16.447  -5.439  1.00 20.00     0.078 C 
HETATM    9  C4  UNL     1     -33.646  17.875  -5.738  1.00 20.00     0.026 C 
HETATM   10 CL10 UNL     1     -34.126  15.521  -6.968  1.00 20.00    -0.125 Cl
ENDBRANCH   7   8
ENDBRANCH   2   7
TORSDOF 4
ENDMDL
MODEL 6
REMARK VINA RESULT:      -4.1     10.286     11.841
REMARK  4 active torsions:
REMARK  status: ('A' for Active; 'I' for Inactive)
REMARK    1  A    between atoms: C5_5  and  C7_7 
REMARK    2  A    between atoms: C5_5  and  C8_8 
REMARK    3  A    between atoms: C6_6  and  C8_8 
REMARK    4  A    between atoms: C6_6  and  C9_9 
ROOT
HETATM    1  C3  UNL     1     -32.969  13.973  -3.633  1.00 20.00     0.010 C 
HETATM    2  C8  UNL     1     -34.499  13.924  -3.609  1.00 20.00    -0.017 C 
ENDROOT
BRANCH   2   3
HETATM    3  C5  UNL     1     -35.087  13.748  -5.031  1.00 20.00     0.008 C 
BRANCH   3   4
HETATM    4  C7  UNL     1     -35.282  15.037  -5.856  1.00 20.00    -0.023 C 
HETATM    5  C1  UNL     1     -36.718  15.208  -6.348  1.00 20.00     0.009 C 
HETATM    6  C2  UNL     1     -34.324  15.029  -7.053  1.00 20.00     0.009 C 
ENDBRANCH   3   4
ENDBRANCH   2   3
BRANCH   2   7
HETATM    7  C6  UNL     1     -35.103  15.207  -2.984  1.00 20.00     0.024 C 
BRANCH   7   8
HETATM    8  C9  UNL     1     -34.105  16.190  -2.352  1.00 20.00     0.078 C 
HETATM    9  C4  UNL     1     -34.019  17.476  -3.168  1.00 20.00     0.026 C 
HETATM   10 CL10 UNL     1     -34.577  16.601  -0.676  1.00 20.00    -0.125 Cl
ENDBRANCH   7   8
ENDBRANCH   2   7
TORSDOF 4
ENDMDL
MODEL 7
REMARK VINA RESULT:      -4.1      2.357      4.939
REMARK  4 active torsions:
REMARK  status: ('A' for Active; 'I' for Inactive)
REMARK    1  A    between atoms: C5_5  and  C7_7 
REMARK    2  A    between atoms: C5_5  and  C8_8 
REMARK    3  A    between atoms: C6_6  and  C8_8 
REMARK    4  A    between atoms: C6_6  and  C9_9 
ROOT
HETATM    1  C3  UNL     1     -31.214   7.723   4.135  1.00 20.00     0.010 C 
HETATM    2  C8  UNL     1     -31.930   6.886   3.071  1.00 20.00    -0.017 C 
ENDROOT
BRANCH   2   3
HETATM    3  C5  UNL     1     -32.817   7.764   2.155  1.00 20.00     0.008 C 
BRANCH   3   4
HETATM    4  C7  UNL     1     -32.112   8.929   1.430  1.00 20.00    -0.023 C 
HETATM    5  C1  UNL     1     -32.662  10.295   1.839  1.00 20.00     0.009 C 
HETATM    6  C2  UNL     1     -32.251   8.749  -0.086  1.00 20.00     0.009 C 
ENDBRANCH   3   4
ENDBRANCH   2   3
BRANCH   2   7
HETATM    7  C6  UNL     1     -32.820   5.790   3.710  1.00 20.00     0.024 C 
BRANCH   7   8
HETATM    8  C9  UNL     1     -34.141   6.265   4.336  1.00 20.00     0.078 C 
HETATM    9  C4  UNL     1     -35.271   5.288   4.025  1.00 20.00     0.026 C 
HETATM   10 CL10 UNL     1     -33.993   6.428   6.111  1.00 20.00    -0.125 Cl
ENDBRANCH   7   8
ENDBRANCH   2   7
TORSDOF 4
ENDMDL
MODEL 8
REMARK VINA RESULT:      -4.1     10.813     11.828
REMARK  4 active torsions:
REMARK  status: ('A' for Active; 'I' for Inactive)
REMARK    1  A    between atoms: C5_5  and  C7_7 
REMARK    2  A    between atoms: C5_5  and  C8_8 
REMARK    3  A    between atoms: C6_6  and  C8_8 
REMARK    4  A    between atoms: C6_6  and  C9_9 
ROOT
HETATM    1  C3  UNL     1     -38.156  14.798  -3.724  1.00 20.00     0.010 C 
HETATM    2  C8  UNL     1     -36.662  14.964  -4.016  1.00 20.00    -0.017 C 
ENDROOT
BRANCH   2   3
HETATM    3  C5  UNL     1     -36.038  16.101  -3.171  1.00 20.00     0.008 C 
BRANCH   3   4
HETATM    4  C7  UNL     1     -34.793  15.731  -2.338  1.00 20.00    -0.023 C 
HETATM    5  C1  UNL     1     -34.699  16.528  -1.037  1.00 20.00     0.009 C 
HETATM    6  C2  UNL     1     -33.529  15.959  -3.175  1.00 20.00     0.009 C 
ENDBRANCH   3   4
ENDBRANCH   2   3
BRANCH   2   7
HETATM    7  C6  UNL     1     -36.404  15.268  -5.514  1.00 20.00     0.024 C 
BRANCH   7   8
HETATM    8  C9  UNL     1     -35.407  14.346  -6.233  1.00 20.00     0.078 C 
HETATM    9  C4  UNL     1     -34.275  15.154  -6.860  1.00 20.00     0.026 C 
HETATM   10 CL10 UNL     1     -34.703  13.150  -5.104  1.00 20.00    -0.125 Cl
ENDBRANCH   7   8
ENDBRANCH   2   7
TORSDOF 4
ENDMDL
MODEL 9
REMARK VINA RESULT:      -4.1      2.706      4.605
REMARK  4 active torsions:
REMARK  status: ('A' for Active; 'I' for Inactive)
REMARK    1  A    between atoms: C5_5  and  C7_7 
REMARK    2  A    between atoms: C5_5  and  C8_8 
REMARK    3  A    between atoms: C6_6  and  C8_8 
REMARK    4  A    between atoms: C6_6  and  C9_9 
ROOT
HETATM    1  C3  UNL     1     -34.362   4.932   2.184  1.00 20.00     0.010 C 
HETATM    2  C8  UNL     1     -33.834   6.168   2.919  1.00 20.00    -0.017 C 
ENDROOT
BRANCH   2   3
HETATM    3  C5  UNL     1     -32.325   6.041   3.239  1.00 20.00     0.008 C 
BRANCH   3   4
HETATM    4  C7  UNL     1     -31.478   7.319   3.066  1.00 20.00    -0.023 C 
HETATM    5  C1  UNL     1     -31.245   8.052   4.386  1.00 20.00     0.009 C 
HETATM    6  C2  UNL     1     -32.163   8.258   2.068  1.00 20.00     0.009 C 
ENDBRANCH   3   4
ENDBRANCH   2   3
BRANCH   2   7
HETATM    7  C6  UNL     1     -34.597   6.413   4.246  1.00 20.00     0.024 C 
BRANCH   7   8
HETATM    8  C9  UNL     1     -34.015   5.741   5.499  1.00 20.00     0.078 C 
HETATM    9  C4  UNL     1     -33.918   6.735   6.652  1.00 20.00     0.026 C 
HETATM   10 CL10 UNL     1     -35.021   4.355   6.016  1.00 20.00    -0.125 Cl
ENDBRANCH   7   8
ENDBRANCH   2   7
TORSDOF 4
ENDMDL
