MODEL 1
REMARK VINA RESULT:      -4.6      0.000      0.000
REMARK  4 active torsions:
REMARK  status: ('A' for Active; 'I' for Inactive)
REMARK    1  A    between atoms: C2_2  and  C8_8 
REMARK    2  A    between atoms: C5_5  and  C9_9 
REMARK    3  A    between atoms: C8_8  and  N10_10 
REMARK    4  A    between atoms: C9_9  and  N10_10 
ROOT
HETATM    1  C1  UNL     1     -32.170   8.757   1.244  1.00 20.00    -0.109 C 
HETATM    2  C2  UNL     1     -31.875   8.169   2.248  1.00 20.00    -0.077 C 
HETATM    3  C7  UNL     1     -32.531   9.474   0.020  1.00 20.00     0.112 C 
ENDROOT
BRANCH   2   4
HETATM    4  C8  UNL     1     -31.516   7.457   3.478  1.00 20.00     0.362 C 
BRANCH   4   5
HETATM    5  N10 UNL     1     -32.109   6.115   3.498  1.00 20.00     0.094 N 
HETATM    6  H25 UNL     1     -31.475   5.483   2.990  1.00 20.00     0.317 HD
BRANCH   5   7
HETATM    7  C9  UNL     1     -33.413   6.098   2.917  1.00 20.00     0.275 C 
BRANCH   7   8
HETATM    8  C5  UNL     1     -34.470   6.061   4.000  1.00 20.00     0.018 C 
HETATM    9  C3  UNL     1     -35.169   4.695   4.247  1.00 20.00     0.041 C 
HETATM   10  C6  UNL     1     -35.191   5.069   5.749  1.00 20.00     0.161 C 
HETATM   11  C4  UNL     1     -33.964   5.968   5.466  1.00 20.00     0.041 C 
HETATM   12  O11 UNL     1     -34.906   3.988   6.594  1.00 20.00    -0.235 OA
ENDBRANCH   7   8
ENDBRANCH   5   7
ENDBRANCH   4   5
ENDBRANCH   2   4
TORSDOF 4
ENDMDL
MODEL 2
REMARK VINA RESULT:      -4.6     10.841     12.594
REMARK  4 active torsions:
REMARK  status: ('A' for Active; 'I' for Inactive)
REMARK    1  A    between atoms: C2_2  and  C8_8 
REMARK    2  A    between atoms: C5_5  and  C9_9 
REMARK    3  A    between atoms: C8_8  and  N10_10 
REMARK    4  A    between atoms: C9_9  and  N10_10 
ROOT
HETATM    1  C1  UNL     1     -34.995  15.556  -7.181  1.00 20.00    -0.109 C 
HETATM    2  C2  UNL     1     -34.499  16.468  -6.579  1.00 20.00    -0.077 C 
HETATM    3  C7  UNL     1     -35.599  14.444  -7.916  1.00 20.00     0.112 C 
ENDROOT
BRANCH   2   4
HETATM    4  C8  UNL     1     -33.887  17.581  -5.847  1.00 20.00     0.362 C 
BRANCH   4   5
HETATM    5  N10 UNL     1     -33.201  17.101  -4.641  1.00 20.00     0.094 N 
HETATM    6  H25 UNL     1     -32.784  16.186  -4.859  1.00 20.00     0.317 HD
BRANCH   5   7
HETATM    7  C9  UNL     1     -34.088  17.000  -3.527  1.00 20.00     0.275 C 
BRANCH   7   8
HETATM    8  C5  UNL     1     -34.170  15.565  -3.050  1.00 20.00     0.018 C 
HETATM    9  C3  UNL     1     -35.390  14.736  -3.539  1.00 20.00     0.041 C 
HETATM   10  C6  UNL     1     -34.436  13.519  -3.604  1.00 20.00     0.161 C 
HETATM   11  C4  UNL     1     -33.280  14.531  -3.794  1.00 20.00     0.041 C 
HETATM   12  O11 UNL     1     -34.651  12.705  -4.724  1.00 20.00    -0.235 OA
ENDBRANCH   7   8
ENDBRANCH   5   7
ENDBRANCH   4   5
ENDBRANCH   2   4
TORSDOF 4
ENDMDL
MODEL 3
REMARK VINA RESULT:      -4.5     10.828     11.906
REMARK  4 active torsions:
REMARK  status: ('A' for Active; 'I' for Inactive)
REMARK    1  A    between atoms: C2_2  and  C8_8 
REMARK    2  A    between atoms: C5_5  and  C9_9 
REMARK    3  A    between atoms: C8_8  and  N10_10 
REMARK    4  A    between atoms: C9_9  and  N10_10 
ROOT
HETATM    1  C1  UNL     1     -32.927  18.423   0.065  1.00 20.00    -0.109 C 
HETATM    2  C2  UNL     1     -33.856  17.832  -0.414  1.00 20.00    -0.077 C 
HETATM    3  C7  UNL     1     -31.795  19.144   0.648  1.00 20.00     0.112 C 
ENDROOT
BRANCH   2   4
HETATM    4  C8  UNL     1     -34.993  17.115  -0.998  1.00 20.00     0.362 C 
BRANCH   4   5
HETATM    5  N10 UNL     1     -34.536  16.001  -1.836  1.00 20.00     0.094 N 
HETATM    6  H25 UNL     1     -34.117  15.292  -1.218  1.00 20.00     0.317 HD
BRANCH   5   7
HETATM    7  C9  UNL     1     -33.599  16.426  -2.826  1.00 20.00     0.275 C 
BRANCH   7   8
HETATM    8  C5  UNL     1     -33.619  15.480  -4.008  1.00 20.00     0.018 C 
HETATM    9  C3  UNL     1     -33.279  13.992  -3.717  1.00 20.00     0.041 C 
HETATM   10  C6  UNL     1     -34.332  13.625  -4.790  1.00 20.00     0.161 C 
HETATM   11  C4  UNL     1     -35.012  14.980  -4.478  1.00 20.00     0.041 C 
HETATM   12  O11 UNL     1     -35.116  12.516  -4.443  1.00 20.00    -0.235 OA
ENDBRANCH   7   8
ENDBRANCH   5   7
ENDBRANCH   4   5
ENDBRANCH   2   4
TORSDOF 4
ENDMDL
MODEL 4
REMARK VINA RESULT:      -4.5     10.946     11.948
REMARK  4 active torsions:
REMARK  status: ('A' for Active; 'I' for Inactive)
REMARK    1  A    between atoms: C2_2  and  C8_8 
REMARK    2  A    between atoms: C5_5  and  C9_9 
REMARK    3  A    between atoms: C8_8  and  N10_10 
REMARK    4  A    between atoms: C9_9  and  N10_10 
ROOT
HETATM    1  C1  UNL     1     -34.628  17.713   0.725  1.00 20.00    -0.109 C 
HETATM    2  C2  UNL     1     -34.783  17.207  -0.353  1.00 20.00    -0.077 C 
HETATM    3  C7  UNL     1     -34.440  18.329   2.039  1.00 20.00     0.112 C 
ENDROOT
BRANCH   2   4
HETATM    4  C8  UNL     1     -34.967  16.584  -1.666  1.00 20.00     0.362 C 
BRANCH   4   5
HETATM    5  N10 UNL     1     -33.673  16.285  -2.291  1.00 20.00     0.094 N 
HETATM    6  H25 UNL     1     -32.945  16.786  -1.764  1.00 20.00     0.317 HD
BRANCH   5   7
HETATM    7  C9  UNL     1     -33.647  16.658  -3.669  1.00 20.00     0.275 C 
BRANCH   7   8
HETATM    8  C5  UNL     1     -33.631  15.425  -4.547  1.00 20.00     0.018 C 
HETATM    9  C3  UNL     1     -33.443  14.059  -3.830  1.00 20.00     0.041 C 
HETATM   10  C6  UNL     1     -34.416  13.466  -4.877  1.00 20.00     0.161 C 
HETATM   11  C4  UNL     1     -35.010  14.888  -5.021  1.00 20.00     0.041 C 
HETATM   12  O11 UNL     1     -35.317  12.539  -4.335  1.00 20.00    -0.235 OA
ENDBRANCH   7   8
ENDBRANCH   5   7
ENDBRANCH   4   5
ENDBRANCH   2   4
TORSDOF 4
ENDMDL
MODEL 5
REMARK VINA RESULT:      -4.4     11.593     12.599
REMARK  4 active torsions:
REMARK  status: ('A' for Active; 'I' for Inactive)
REMARK    1  A    between atoms: C2_2  and  C8_8 
REMARK    2  A    between atoms: C5_5  and  C9_9 
REMARK    3  A    between atoms: C8_8  and  N10_10 
REMARK    4  A    between atoms: C9_9  and  N10_10 
ROOT
HETATM    1  C1  UNL     1     -34.266  16.354  -1.665  1.00 20.00    -0.109 C 
HETATM    2  C2  UNL     1     -33.860  15.760  -2.626  1.00 20.00    -0.077 C 
HETATM    3  C7  UNL     1     -34.760  17.078  -0.494  1.00 20.00     0.112 C 
ENDROOT
BRANCH   2   4
HETATM    4  C8  UNL     1     -33.362  15.041  -3.802  1.00 20.00     0.362 C 
BRANCH   4   5
HETATM    5  N10 UNL     1     -33.733  13.622  -3.745  1.00 20.00     0.094 N 
HETATM    6  H25 UNL     1     -32.866  13.068  -3.770  1.00 20.00     0.317 HD
BRANCH   5   7
HETATM    7  C9  UNL     1     -34.599  13.253  -4.819  1.00 20.00     0.275 C 
BRANCH   7   8
HETATM    8  C5  UNL     1     -35.031  14.481  -5.591  1.00 20.00     0.018 C 
HETATM    9  C3  UNL     1     -35.314  14.290  -7.107  1.00 20.00     0.041 C 
HETATM   10  C6  UNL     1     -36.455  15.322  -6.943  1.00 20.00     0.161 C 
HETATM   11  C4  UNL     1     -36.521  14.902  -5.455  1.00 20.00     0.041 C 
HETATM   12  O11 UNL     1     -37.610  14.994  -7.665  1.00 20.00    -0.235 OA
ENDBRANCH   7   8
ENDBRANCH   5   7
ENDBRANCH   4   5
ENDBRANCH   2   4
TORSDOF 4
ENDMDL
MODEL 6
REMARK VINA RESULT:      -4.3     11.585     12.514
REMARK  4 active torsions:
REMARK  status: ('A' for Active; 'I' for Inactive)
REMARK    1  A    between atoms: C2_2  and  C8_8 
REMARK    2  A    between atoms: C5_5  and  C9_9 
REMARK    3  A    between atoms: C8_8  and  N10_10 
REMARK    4  A    between atoms: C9_9  and  N10_10 
ROOT
HETATM    1  C1  UNL     1     -34.104  16.709  -2.270  1.00 20.00    -0.109 C 
HETATM    2  C2  UNL     1     -33.731  16.723  -3.411  1.00 20.00    -0.077 C 
HETATM    3  C7  UNL     1     -34.558  16.692  -0.879  1.00 20.00     0.112 C 
ENDROOT
BRANCH   2   4
HETATM    4  C8  UNL     1     -33.269  16.743  -4.802  1.00 20.00     0.362 C 
BRANCH   4   5
HETATM    5  N10 UNL     1     -33.376  15.412  -5.409  1.00 20.00     0.094 N 
HETATM    6  H25 UNL     1     -32.440  15.142  -5.744  1.00 20.00     0.317 HD
BRANCH   5   7
HETATM    7  C9  UNL     1     -34.321  15.386  -6.479  1.00 20.00     0.275 C 
BRANCH   7   8
HETATM    8  C5  UNL     1     -35.612  14.739  -6.023  1.00 20.00     0.018 C 
HETATM    9  C3  UNL     1     -35.575  13.988  -4.663  1.00 20.00     0.041 C 
HETATM   10  C6  UNL     1     -37.017  14.499  -4.433  1.00 20.00     0.161 C 
HETATM   11  C4  UNL     1     -36.672  15.674  -5.379  1.00 20.00     0.041 C 
HETATM   12  O11 UNL     1     -37.259  14.902  -3.113  1.00 20.00    -0.235 OA
ENDBRANCH   7   8
ENDBRANCH   5   7
ENDBRANCH   4   5
ENDBRANCH   2   4
TORSDOF 4
ENDMDL
MODEL 7
REMARK VINA RESULT:      -4.3     11.206     12.677
REMARK  4 active torsions:
REMARK  status: ('A' for Active; 'I' for Inactive)
REMARK    1  A    between atoms: C2_2  and  C8_8 
REMARK    2  A    between atoms: C5_5  and  C9_9 
REMARK    3  A    between atoms: C8_8  and  N10_10 
REMARK    4  A    between atoms: C9_9  and  N10_10 
ROOT
HETATM    1  C1  UNL     1     -34.380  16.984  -6.739  1.00 20.00    -0.109 C 
HETATM    2  C2  UNL     1     -34.682  15.823  -6.777  1.00 20.00    -0.077 C 
HETATM    3  C7  UNL     1     -34.011  18.399  -6.692  1.00 20.00     0.112 C 
ENDROOT
BRANCH   2   4
HETATM    4  C8  UNL     1     -35.047  14.404  -6.818  1.00 20.00     0.362 C 
BRANCH   4   5
HETATM    5  N10 UNL     1     -35.484  13.936  -5.498  1.00 20.00     0.094 N 
HETATM    6  H25 UNL     1     -35.831  14.751  -4.973  1.00 20.00     0.317 HD
BRANCH   5   7
HETATM    7  C9  UNL     1     -34.429  13.289  -4.785  1.00 20.00     0.275 C 
BRANCH   7   8
HETATM    8  C5  UNL     1     -34.082  14.072  -3.536  1.00 20.00     0.018 C 
HETATM    9  C3  UNL     1     -32.944  15.122  -3.663  1.00 20.00     0.041 C 
HETATM   10  C6  UNL     1     -33.753  16.000  -2.679  1.00 20.00     0.161 C 
HETATM   11  C4  UNL     1     -35.018  15.258  -3.174  1.00 20.00     0.041 C 
HETATM   12  O11 UNL     1     -33.742  17.361  -3.012  1.00 20.00    -0.235 OA
ENDBRANCH   7   8
ENDBRANCH   5   7
ENDBRANCH   4   5
ENDBRANCH   2   4
TORSDOF 4
ENDMDL
MODEL 8
REMARK VINA RESULT:      -4.2     11.558     13.296
REMARK  4 active torsions:
REMARK  status: ('A' for Active; 'I' for Inactive)
REMARK    1  A    between atoms: C2_2  and  C8_8 
REMARK    2  A    between atoms: C5_5  and  C9_9 
REMARK    3  A    between atoms: C8_8  and  N10_10 
REMARK    4  A    between atoms: C9_9  and  N10_10 
ROOT
HETATM    1  C1  UNL     1     -34.725  15.682  -2.180  1.00 20.00    -0.109 C 
HETATM    2  C2  UNL     1     -34.821  14.818  -3.008  1.00 20.00    -0.077 C 
HETATM    3  C7  UNL     1     -34.607  16.735  -1.170  1.00 20.00     0.112 C 
ENDROOT
BRANCH   2   4
HETATM    4  C8  UNL     1     -34.941  13.769  -4.024  1.00 20.00     0.362 C 
BRANCH   4   5
HETATM    5  N10 UNL     1     -34.090  14.061  -5.184  1.00 20.00     0.094 N 
HETATM    6  H25 UNL     1     -33.302  14.639  -4.859  1.00 20.00     0.317 HD
BRANCH   5   7
HETATM    7  C9  UNL     1     -34.811  14.728  -6.220  1.00 20.00     0.275 C 
BRANCH   7   8
HETATM    8  C5  UNL     1     -34.283  16.134  -6.407  1.00 20.00     0.018 C 
HETATM    9  C3  UNL     1     -35.137  17.286  -5.807  1.00 20.00     0.041 C 
HETATM   10  C6  UNL     1     -33.802  17.992  -5.470  1.00 20.00     0.161 C 
HETATM   11  C4  UNL     1     -33.152  16.588  -5.444  1.00 20.00     0.041 C 
HETATM   12  O11 UNL     1     -33.808  18.625  -4.220  1.00 20.00    -0.235 OA
ENDBRANCH   7   8
ENDBRANCH   5   7
ENDBRANCH   4   5
ENDBRANCH   2   4
TORSDOF 4
ENDMDL
MODEL 9
REMARK VINA RESULT:      -4.2     11.631     12.591
REMARK  4 active torsions:
REMARK  status: ('A' for Active; 'I' for Inactive)
REMARK    1  A    between atoms: C2_2  and  C8_8 
REMARK    2  A    between atoms: C5_5  and  C9_9 
REMARK    3  A    between atoms: C8_8  and  N10_10 
REMARK    4  A    between atoms: C9_9  and  N10_10 
ROOT
HETATM    1  C1  UNL     1     -34.722  17.046  -0.253  1.00 20.00    -0.109 C 
HETATM    2  C2  UNL     1     -34.315  16.649  -1.311  1.00 20.00    -0.077 C 
HETATM    3  C7  UNL     1     -35.217  17.530   1.036  1.00 20.00     0.112 C 
ENDROOT
BRANCH   2   4
HETATM    4  C8  UNL     1     -33.813  16.169  -2.601  1.00 20.00     0.362 C 
BRANCH   4   5
HETATM    5  N10 UNL     1     -34.507  14.942  -3.010  1.00 20.00     0.094 N 
HETATM    6  H25 UNL     1     -34.639  14.360  -2.171  1.00 20.00     0.317 HD
BRANCH   5   7
HETATM    7  C9  UNL     1     -33.782  14.227  -4.011  1.00 20.00     0.275 C 
BRANCH   7   8
HETATM    8  C5  UNL     1     -34.660  13.980  -5.219  1.00 20.00     0.018 C 
HETATM    9  C3  UNL     1     -36.091  14.586  -5.178  1.00 20.00     0.041 C 
HETATM   10  C6  UNL     1     -35.938  14.846  -6.696  1.00 20.00     0.161 C 
HETATM   11  C4  UNL     1     -34.409  14.882  -6.460  1.00 20.00     0.041 C 
HETATM   12  O11 UNL     1     -36.466  16.079  -7.104  1.00 20.00    -0.235 OA
ENDBRANCH   7   8
ENDBRANCH   5   7
ENDBRANCH   4   5
ENDBRANCH   2   4
TORSDOF 4
ENDMDL
