MODEL 1
REMARK VINA RESULT:      -5.1      0.000      0.000
REMARK  3 active torsions:
REMARK  status: ('A' for Active; 'I' for Inactive)
REMARK    1  A    between atoms: C3_3  and  N7_7 
REMARK    2  A    between atoms: C5_5  and  C6_6 
REMARK    3  A    between atoms: C5_5  and  N7_7 
ROOT
HETATM    1  N7  UNL     1     -32.419   6.487   2.994  1.00 20.00     0.093 N 
HETATM    2  H20 UNL     1     -31.840   5.874   3.567  1.00 20.00     0.316 HD
ENDROOT
BRANCH   1   3
HETATM    3  C3  UNL     1     -33.739   6.598   3.598  1.00 20.00     0.223 C 
HETATM    4  C1  UNL     1     -34.480   5.250   3.454  1.00 20.00     0.055 C 
HETATM    5  C4  UNL     1     -34.922   5.440   4.929  1.00 20.00     0.086 C 
HETATM    6  C2  UNL     1     -33.636   6.291   5.108  1.00 20.00     0.055 C 
HETATM    7 CL10 UNL     1     -35.147   3.998   5.954  1.00 20.00    -0.125 Cl
ENDBRANCH   1   3
BRANCH   1   8
HETATM    8  C5  UNL     1     -31.781   7.792   2.894  1.00 20.00     0.340 C 
BRANCH   8   9
HETATM    9  C6  UNL     1     -32.233   8.511   1.639  1.00 20.00     0.381 C 
HETATM   10  F8  UNL     1     -31.240   8.494   0.715  1.00 20.00    -0.213 F 
HETATM   11  F9  UNL     1     -32.464   9.815   1.932  1.00 20.00    -0.213 F 
ENDBRANCH   8   9
ENDBRANCH   1   8
TORSDOF 3
ENDMDL
MODEL 2
REMARK VINA RESULT:      -4.6      4.170      5.128
REMARK  3 active torsions:
REMARK  status: ('A' for Active; 'I' for Inactive)
REMARK    1  A    between atoms: C3_3  and  N7_7 
REMARK    2  A    between atoms: C5_5  and  C6_6 
REMARK    3  A    between atoms: C5_5  and  N7_7 
ROOT
HETATM    1  N7  UNL     1     -34.375   5.177   3.489  1.00 20.00     0.093 N 
HETATM    2  H20 UNL     1     -34.804   5.495   2.621  1.00 20.00     0.316 HD
ENDROOT
BRANCH   1   3
HETATM    3  C3  UNL     1     -33.284   6.075   3.840  1.00 20.00     0.223 C 
HETATM    4  C1  UNL     1     -32.192   6.001   2.750  1.00 20.00     0.055 C 
HETATM    5  C4  UNL     1     -32.125   7.548   2.842  1.00 20.00     0.086 C 
HETATM    6  C2  UNL     1     -33.602   7.492   3.316  1.00 20.00     0.055 C 
HETATM    7 CL10 UNL     1     -31.728   8.482   1.376  1.00 20.00    -0.125 Cl
ENDBRANCH   1   3
BRANCH   1   8
HETATM    8  C5  UNL     1     -35.384   5.147   4.539  1.00 20.00     0.340 C 
BRANCH   8   9
HETATM    9  C6  UNL     1     -34.748   4.851   5.882  1.00 20.00     0.381 C 
HETATM   10  F8  UNL     1     -35.413   3.839   6.494  1.00 20.00    -0.213 F 
HETATM   11  F9  UNL     1     -34.875   5.937   6.684  1.00 20.00    -0.213 F 
ENDBRANCH   8   9
ENDBRANCH   1   8
TORSDOF 3
ENDMDL
MODEL 3
REMARK VINA RESULT:      -4.3      1.377      1.950
REMARK  3 active torsions:
REMARK  status: ('A' for Active; 'I' for Inactive)
REMARK    1  A    between atoms: C3_3  and  N7_7 
REMARK    2  A    between atoms: C5_5  and  C6_6 
REMARK    3  A    between atoms: C5_5  and  N7_7 
ROOT
HETATM    1  N7  UNL     1     -31.903   7.908   3.080  1.00 20.00     0.093 N 
HETATM    2  H20 UNL     1     -32.540   8.593   3.486  1.00 20.00     0.316 HD
ENDROOT
BRANCH   1   3
HETATM    3  C3  UNL     1     -32.237   6.585   3.586  1.00 20.00     0.223 C 
HETATM    4  C1  UNL     1     -33.359   6.711   4.641  1.00 20.00     0.055 C 
HETATM    5  C4  UNL     1     -34.016   5.485   3.954  1.00 20.00     0.086 C 
HETATM    6  C2  UNL     1     -33.288   5.935   2.660  1.00 20.00     0.055 C 
HETATM    7 CL10 UNL     1     -35.795   5.356   3.939  1.00 20.00    -0.125 Cl
ENDBRANCH   1   3
BRANCH   1   8
HETATM    8  C5  UNL     1     -32.014   7.953   1.629  1.00 20.00     0.340 C 
BRANCH   8   9
HETATM    9  C6  UNL     1     -32.230   9.375   1.154  1.00 20.00     0.381 C 
HETATM   10  F8  UNL     1     -33.082  10.017   1.993  1.00 20.00    -0.213 F 
HETATM   11  F9  UNL     1     -32.830   9.352  -0.062  1.00 20.00    -0.213 F 
ENDBRANCH   8   9
ENDBRANCH   1   8
TORSDOF 3
ENDMDL
MODEL 4
REMARK VINA RESULT:      -4.1     11.139     11.802
REMARK  3 active torsions:
REMARK  status: ('A' for Active; 'I' for Inactive)
REMARK    1  A    between atoms: C3_3  and  N7_7 
REMARK    2  A    between atoms: C5_5  and  C6_6 
REMARK    3  A    between atoms: C5_5  and  N7_7 
ROOT
HETATM    1  N7  UNL     1     -33.650  15.225  -5.732  1.00 20.00     0.093 N 
HETATM    2  H20 UNL     1     -33.492  15.577  -6.676  1.00 20.00     0.316 HD
ENDROOT
BRANCH   1   3
HETATM    3  C3  UNL     1     -33.335  16.273  -4.772  1.00 20.00     0.223 C 
HETATM    4  C1  UNL     1     -34.637  16.745  -4.088  1.00 20.00     0.055 C 
HETATM    5  C4  UNL     1     -33.841  16.712  -2.757  1.00 20.00     0.086 C 
HETATM    6  C2  UNL     1     -32.952  15.628  -3.422  1.00 20.00     0.055 C 
HETATM    7 CL10 UNL     1     -34.701  16.310  -1.248  1.00 20.00    -0.125 Cl
ENDBRANCH   1   3
BRANCH   1   8
HETATM    8  C5  UNL     1     -35.039  14.803  -5.606  1.00 20.00     0.340 C 
BRANCH   8   9
HETATM    9  C6  UNL     1     -35.118  13.352  -5.180  1.00 20.00     0.381 C 
HETATM   10  F8  UNL     1     -35.848  13.244  -4.042  1.00 20.00    -0.213 F 
HETATM   11  F9  UNL     1     -33.871  12.907  -4.883  1.00 20.00    -0.213 F 
ENDBRANCH   8   9
ENDBRANCH   1   8
TORSDOF 3
ENDMDL
MODEL 5
REMARK VINA RESULT:      -4.0     10.728     11.395
REMARK  3 active torsions:
REMARK  status: ('A' for Active; 'I' for Inactive)
REMARK    1  A    between atoms: C3_3  and  N7_7 
REMARK    2  A    between atoms: C5_5  and  C6_6 
REMARK    3  A    between atoms: C5_5  and  N7_7 
ROOT
HETATM    1  N7  UNL     1     -34.898  15.444  -2.445  1.00 20.00     0.093 N 
HETATM    2  H20 UNL     1     -34.762  14.821  -1.649  1.00 20.00     0.316 HD
ENDROOT
BRANCH   1   3
HETATM    3  C3  UNL     1     -35.055  16.808  -1.964  1.00 20.00     0.223 C 
HETATM    4  C1  UNL     1     -34.638  16.876  -0.478  1.00 20.00     0.055 C 
HETATM    5  C4  UNL     1     -33.890  18.185  -0.842  1.00 20.00     0.086 C 
HETATM    6  C2  UNL     1     -33.773  17.610  -2.279  1.00 20.00     0.055 C 
HETATM    7 CL10 UNL     1     -32.398  18.599   0.041  1.00 20.00    -0.125 Cl
ENDBRANCH   1   3
BRANCH   1   8
HETATM    8  C5  UNL     1     -33.754  15.335  -3.339  1.00 20.00     0.340 C 
BRANCH   8   9
HETATM    9  C6  UNL     1     -33.720  13.971  -3.998  1.00 20.00     0.381 C 
HETATM   10  F8  UNL     1     -34.791  13.240  -3.601  1.00 20.00    -0.213 F 
HETATM   11  F9  UNL     1     -32.618  13.301  -3.577  1.00 20.00    -0.213 F 
ENDBRANCH   8   9
ENDBRANCH   1   8
TORSDOF 3
ENDMDL
MODEL 6
REMARK VINA RESULT:      -4.0     11.369     11.910
REMARK  3 active torsions:
REMARK  status: ('A' for Active; 'I' for Inactive)
REMARK    1  A    between atoms: C3_3  and  N7_7 
REMARK    2  A    between atoms: C5_5  and  C6_6 
REMARK    3  A    between atoms: C5_5  and  N7_7 
ROOT
HETATM    1  N7  UNL     1     -36.330  15.469  -2.635  1.00 20.00     0.093 N 
HETATM    2  H20 UNL     1     -37.180  15.688  -2.115  1.00 20.00     0.316 HD
ENDROOT
BRANCH   1   3
HETATM    3  C3  UNL     1     -36.691  14.894  -3.922  1.00 20.00     0.223 C 
HETATM    4  C1  UNL     1     -36.308  15.882  -5.047  1.00 20.00     0.055 C 
HETATM    5  C4  UNL     1     -35.755  14.652  -5.813  1.00 20.00     0.086 C 
HETATM    6  C2  UNL     1     -35.536  13.999  -4.422  1.00 20.00     0.055 C 
HETATM    7 CL10 UNL     1     -34.351  14.869  -6.891  1.00 20.00    -0.125 Cl
ENDBRANCH   1   3
BRANCH   1   8
HETATM    8  C5  UNL     1     -35.548  16.686  -2.808  1.00 20.00     0.340 C 
BRANCH   8   9
HETATM    9  C6  UNL     1     -34.315  16.658  -1.929  1.00 20.00     0.381 C 
HETATM   10  F8  UNL     1     -33.389  15.821  -2.460  1.00 20.00    -0.213 F 
HETATM   11  F9  UNL     1     -34.645  16.148  -0.716  1.00 20.00    -0.213 F 
ENDBRANCH   8   9
ENDBRANCH   1   8
TORSDOF 3
ENDMDL
MODEL 7
REMARK VINA RESULT:      -3.9     10.476     11.346
REMARK  3 active torsions:
REMARK  status: ('A' for Active; 'I' for Inactive)
REMARK    1  A    between atoms: C3_3  and  N7_7 
REMARK    2  A    between atoms: C5_5  and  C6_6 
REMARK    3  A    between atoms: C5_5  and  N7_7 
ROOT
HETATM    1  N7  UNL     1     -33.342  15.935  -3.085  1.00 20.00     0.093 N 
HETATM    2  H20 UNL     1     -32.532  16.436  -3.448  1.00 20.00     0.316 HD
ENDROOT
BRANCH   1   3
HETATM    3  C3  UNL     1     -34.283  16.892  -2.522  1.00 20.00     0.223 C 
HETATM    4  C1  UNL     1     -34.731  16.405  -1.126  1.00 20.00     0.055 C 
HETATM    5  C4  UNL     1     -34.547  17.872  -0.656  1.00 20.00     0.086 C 
HETATM    6  C2  UNL     1     -33.502  18.009  -1.795  1.00 20.00     0.055 C 
HETATM    7 CL10 UNL     1     -34.033  18.180   1.023  1.00 20.00    -0.125 Cl
ENDBRANCH   1   3
BRANCH   1   8
HETATM    8  C5  UNL     1     -33.957  15.173  -4.163  1.00 20.00     0.340 C 
BRANCH   8   9
HETATM    9  C6  UNL     1     -33.905  13.689  -3.863  1.00 20.00     0.381 C 
HETATM   10  F8  UNL     1     -32.634  13.322  -3.562  1.00 20.00    -0.213 F 
HETATM   11  F9  UNL     1     -34.252  12.998  -4.978  1.00 20.00    -0.213 F 
ENDBRANCH   8   9
ENDBRANCH   1   8
TORSDOF 3
ENDMDL
MODEL 8
REMARK VINA RESULT:      -3.9     11.384     11.917
REMARK  3 active torsions:
REMARK  status: ('A' for Active; 'I' for Inactive)
REMARK    1  A    between atoms: C3_3  and  N7_7 
REMARK    2  A    between atoms: C5_5  and  C6_6 
REMARK    3  A    between atoms: C5_5  and  N7_7 
ROOT
HETATM    1  N7  UNL     1     -33.625  17.783  -3.271  1.00 20.00     0.093 N 
HETATM    2  H20 UNL     1     -32.807  17.602  -2.689  1.00 20.00     0.316 HD
ENDROOT
BRANCH   1   3
HETATM    3  C3  UNL     1     -33.636  16.845  -4.384  1.00 20.00     0.223 C 
HETATM    4  C1  UNL     1     -33.081  15.484  -3.910  1.00 20.00     0.055 C 
HETATM    5  C4  UNL     1     -34.252  14.837  -4.695  1.00 20.00     0.086 C 
HETATM    6  C2  UNL     1     -35.021  16.165  -4.463  1.00 20.00     0.055 C 
HETATM    7 CL10 UNL     1     -34.961  13.317  -4.087  1.00 20.00    -0.125 Cl
ENDBRANCH   1   3
BRANCH   1   8
HETATM    8  C5  UNL     1     -34.828  17.646  -2.462  1.00 20.00     0.340 C 
BRANCH   8   9
HETATM    9  C6  UNL     1     -34.471  17.313  -1.028  1.00 20.00     0.381 C 
HETATM   10  F8  UNL     1     -33.137  17.465  -0.837  1.00 20.00    -0.213 F 
HETATM   11  F9  UNL     1     -34.748  16.006  -0.792  1.00 20.00    -0.213 F 
ENDBRANCH   8   9
ENDBRANCH   1   8
TORSDOF 3
ENDMDL
MODEL 9
REMARK VINA RESULT:      -3.9     11.482     11.863
REMARK  3 active torsions:
REMARK  status: ('A' for Active; 'I' for Inactive)
REMARK    1  A    between atoms: C3_3  and  N7_7 
REMARK    2  A    between atoms: C5_5  and  C6_6 
REMARK    3  A    between atoms: C5_5  and  N7_7 
ROOT
HETATM    1  N7  UNL     1     -33.980  14.083  -4.540  1.00 20.00     0.093 N 
HETATM    2  H20 UNL     1     -33.017  14.074  -4.874  1.00 20.00     0.316 HD
ENDROOT
BRANCH   1   3
HETATM    3  C3  UNL     1     -34.349  15.444  -4.180  1.00 20.00     0.223 C 
HETATM    4  C1  UNL     1     -35.453  15.404  -3.101  1.00 20.00     0.055 C 
HETATM    5  C4  UNL     1     -34.661  16.525  -2.379  1.00 20.00     0.086 C 
HETATM    6  C2  UNL     1     -33.397  15.954  -3.075  1.00 20.00     0.055 C 
HETATM    7 CL10 UNL     1     -34.701  16.598  -0.597  1.00 20.00    -0.125 Cl
ENDBRANCH   1   3
BRANCH   1   8
HETATM    8  C5  UNL     1     -34.854  13.567  -5.585  1.00 20.00     0.340 C 
BRANCH   8   9
HETATM    9  C6  UNL     1     -35.068  14.607  -6.664  1.00 20.00     0.381 C 
HETATM   10  F8  UNL     1     -36.054  14.204  -7.505  1.00 20.00    -0.213 F 
HETATM   11  F9  UNL     1     -33.941  14.710  -7.413  1.00 20.00    -0.213 F 
ENDBRANCH   8   9
ENDBRANCH   1   8
TORSDOF 3
ENDMDL
