MODEL 1
REMARK VINA RESULT:      -4.4      0.000      0.000
REMARK  3 active torsions:
REMARK  status: ('A' for Active; 'I' for Inactive)
REMARK    1  A    between atoms: C6_6  and  C8_8 
REMARK    2  A    between atoms: C6_6  and  C9_9 
REMARK    3  A    between atoms: C7_7  and  C9_9 
ROOT
HETATM    1  C4  UNL     1     -35.887   5.898   3.562  1.00 20.00     0.015 C 
HETATM    2  C5  UNL     1     -33.835   4.743   2.781  1.00 20.00     0.015 C 
HETATM    3  C9  UNL     1     -34.361   5.772   3.805  1.00 20.00    -0.043 C 
ENDROOT
BRANCH   3   4
HETATM    4  C6  UNL     1     -33.751   7.188   3.518  1.00 20.00     0.029 C 
BRANCH   4   5
HETATM    5  C8  UNL     1     -32.352   7.278   2.876  1.00 20.00     0.079 C 
HETATM    6  C3  UNL     1     -31.293   7.563   3.940  1.00 20.00     0.026 C 
HETATM    7 CL10 UNL     1     -32.258   8.574   1.649  1.00 20.00    -0.125 Cl
ENDBRANCH   4   5
ENDBRANCH   3   4
BRANCH   3   8
HETATM    8  C7  UNL     1     -34.056   5.273   5.268  1.00 20.00    -0.015 C 
HETATM    9  C1  UNL     1     -34.059   6.392   6.321  1.00 20.00     0.010 C 
HETATM   10  C2  UNL     1     -34.990   4.153   5.756  1.00 20.00     0.010 C 
ENDBRANCH   3   8
TORSDOF 3
ENDMDL
MODEL 2
REMARK VINA RESULT:      -4.1     11.213     12.667
REMARK  3 active torsions:
REMARK  status: ('A' for Active; 'I' for Inactive)
REMARK    1  A    between atoms: C6_6  and  C8_8 
REMARK    2  A    between atoms: C6_6  and  C9_9 
REMARK    3  A    between atoms: C7_7  and  C9_9 
ROOT
HETATM    1  C4  UNL     1     -32.708  15.033  -3.641  1.00 20.00     0.015 C 
HETATM    2  C5  UNL     1     -34.667  13.536  -3.915  1.00 20.00     0.015 C 
HETATM    3  C9  UNL     1     -34.231  15.017  -3.924  1.00 20.00    -0.043 C 
ENDROOT
BRANCH   3   4
HETATM    4  C6  UNL     1     -34.907  15.791  -2.737  1.00 20.00     0.029 C 
BRANCH   4   5
HETATM    5  C8  UNL     1     -34.025  16.656  -1.816  1.00 20.00     0.079 C 
HETATM    6  C3  UNL     1     -34.674  16.805  -0.441  1.00 20.00     0.026 C 
HETATM    7 CL10 UNL     1     -33.765  18.295  -2.480  1.00 20.00    -0.125 Cl
ENDBRANCH   4   5
ENDBRANCH   3   4
BRANCH   3   8
HETATM    8  C7  UNL     1     -34.559  15.662  -5.323  1.00 20.00    -0.015 C 
HETATM    9  C1  UNL     1     -33.605  16.796  -5.726  1.00 20.00     0.010 C 
HETATM   10  C2  UNL     1     -34.618  14.651  -6.480  1.00 20.00     0.010 C 
ENDBRANCH   3   8
TORSDOF 3
ENDMDL
MODEL 3
REMARK VINA RESULT:      -4.0     11.534     12.887
REMARK  3 active torsions:
REMARK  status: ('A' for Active; 'I' for Inactive)
REMARK    1  A    between atoms: C6_6  and  C8_8 
REMARK    2  A    between atoms: C6_6  and  C9_9 
REMARK    3  A    between atoms: C7_7  and  C9_9 
ROOT
HETATM    1  C4  UNL     1     -32.930  15.131  -3.576  1.00 20.00     0.015 C 
HETATM    2  C5  UNL     1     -34.542  16.044  -1.925  1.00 20.00     0.015 C 
HETATM    3  C9  UNL     1     -34.405  15.566  -3.388  1.00 20.00    -0.043 C 
ENDROOT
BRANCH   3   4
HETATM    4  C6  UNL     1     -34.640  16.762  -4.376  1.00 20.00     0.029 C 
BRANCH   4   5
HETATM    5  C8  UNL     1     -33.691  16.931  -5.578  1.00 20.00     0.079 C 
HETATM    6  C3  UNL     1     -33.681  18.383  -6.052  1.00 20.00     0.026 C 
HETATM    7 CL10 UNL     1     -34.173  15.907  -6.962  1.00 20.00    -0.125 Cl
ENDBRANCH   4   5
ENDBRANCH   3   4
BRANCH   3   8
HETATM    8  C7  UNL     1     -35.392  14.367  -3.652  1.00 20.00    -0.015 C 
HETATM    9  C1  UNL     1     -36.739  14.790  -4.258  1.00 20.00     0.010 C 
HETATM   10  C2  UNL     1     -34.801  13.251  -4.529  1.00 20.00     0.010 C 
ENDBRANCH   3   8
TORSDOF 3
ENDMDL
MODEL 4
REMARK VINA RESULT:      -4.0     11.333     12.655
REMARK  3 active torsions:
REMARK  status: ('A' for Active; 'I' for Inactive)
REMARK    1  A    between atoms: C6_6  and  C8_8 
REMARK    2  A    between atoms: C6_6  and  C9_9 
REMARK    3  A    between atoms: C7_7  and  C9_9 
ROOT
HETATM    1  C4  UNL     1     -33.320  16.647  -5.290  1.00 20.00     0.015 C 
HETATM    2  C5  UNL     1     -32.783  14.892  -3.621  1.00 20.00     0.015 C 
HETATM    3  C9  UNL     1     -33.948  15.690  -4.245  1.00 20.00    -0.043 C 
ENDROOT
BRANCH   3   4
HETATM    4  C6  UNL     1     -34.625  16.603  -3.163  1.00 20.00     0.029 C 
BRANCH   4   5
HETATM    5  C8  UNL     1     -33.828  16.970  -1.896  1.00 20.00     0.079 C 
HETATM    6  C3  UNL     1     -34.662  16.704  -0.644  1.00 20.00     0.026 C 
HETATM    7 CL10 UNL     1     -33.347  18.691  -1.879  1.00 20.00    -0.125 Cl
ENDBRANCH   4   5
ENDBRANCH   3   4
BRANCH   3   8
HETATM    8  C7  UNL     1     -34.972  14.701  -4.920  1.00 20.00    -0.015 C 
HETATM    9  C1  UNL     1     -34.780  14.543  -6.436  1.00 20.00     0.010 C 
HETATM   10  C2  UNL     1     -34.995  13.298  -4.290  1.00 20.00     0.010 C 
ENDBRANCH   3   8
TORSDOF 3
ENDMDL
MODEL 5
REMARK VINA RESULT:      -3.9     11.355     12.724
REMARK  3 active torsions:
REMARK  status: ('A' for Active; 'I' for Inactive)
REMARK    1  A    between atoms: C6_6  and  C8_8 
REMARK    2  A    between atoms: C6_6  and  C9_9 
REMARK    3  A    between atoms: C7_7  and  C9_9 
ROOT
HETATM    1  C4  UNL     1     -34.610  16.164  -1.742  1.00 20.00     0.015 C 
HETATM    2  C5  UNL     1     -36.253  15.935  -3.587  1.00 20.00     0.015 C 
HETATM    3  C9  UNL     1     -34.782  15.669  -3.201  1.00 20.00    -0.043 C 
ENDROOT
BRANCH   3   4
HETATM    4  C6  UNL     1     -33.821  16.544  -4.080  1.00 20.00     0.029 C 
BRANCH   4   5
HETATM    5  C8  UNL     1     -34.325  17.063  -5.441  1.00 20.00     0.079 C 
HETATM    6  C3  UNL     1     -34.028  16.047  -6.543  1.00 20.00     0.026 C 
HETATM    7 CL10 UNL     1     -33.554  18.609  -5.898  1.00 20.00    -0.125 Cl
ENDBRANCH   4   5
ENDBRANCH   3   4
BRANCH   3   8
HETATM    8  C7  UNL     1     -34.468  14.129  -3.321  1.00 20.00    -0.015 C 
HETATM    9  C1  UNL     1     -35.349  13.391  -4.339  1.00 20.00     0.010 C 
HETATM   10  C2  UNL     1     -32.997  13.813  -3.641  1.00 20.00     0.010 C 
ENDBRANCH   3   8
TORSDOF 3
ENDMDL
MODEL 6
REMARK VINA RESULT:      -3.9     11.219     12.675
REMARK  3 active torsions:
REMARK  status: ('A' for Active; 'I' for Inactive)
REMARK    1  A    between atoms: C6_6  and  C8_8 
REMARK    2  A    between atoms: C6_6  and  C9_9 
REMARK    3  A    between atoms: C7_7  and  C9_9 
ROOT
HETATM    1  C4  UNL     1     -33.228  16.074  -4.416  1.00 20.00     0.015 C 
HETATM    2  C5  UNL     1     -33.318  13.679  -3.773  1.00 20.00     0.015 C 
HETATM    3  C9  UNL     1     -34.195  14.891  -4.154  1.00 20.00    -0.043 C 
ENDROOT
BRANCH   3   4
HETATM    4  C6  UNL     1     -35.092  15.318  -2.939  1.00 20.00     0.029 C 
BRANCH   4   5
HETATM    5  C8  UNL     1     -34.916  16.729  -2.344  1.00 20.00     0.079 C 
HETATM    6  C3  UNL     1     -34.590  16.644  -0.854  1.00 20.00     0.026 C 
HETATM    7 CL10 UNL     1     -36.389  17.724  -2.527  1.00 20.00    -0.125 Cl
ENDBRANCH   4   5
ENDBRANCH   3   4
BRANCH   3   8
HETATM    8  C7  UNL     1     -35.046  14.554  -5.437  1.00 20.00    -0.015 C 
HETATM    9  C1  UNL     1     -36.478  15.107  -5.399  1.00 20.00     0.010 C 
HETATM   10  C2  UNL     1     -34.393  15.001  -6.756  1.00 20.00     0.010 C 
ENDBRANCH   3   8
TORSDOF 3
ENDMDL
MODEL 7
REMARK VINA RESULT:      -3.9     11.070     12.688
REMARK  3 active torsions:
REMARK  status: ('A' for Active; 'I' for Inactive)
REMARK    1  A    between atoms: C6_6  and  C8_8 
REMARK    2  A    between atoms: C6_6  and  C9_9 
REMARK    3  A    between atoms: C7_7  and  C9_9 
ROOT
HETATM    1  C4  UNL     1     -34.527  13.439  -3.983  1.00 20.00     0.015 C 
HETATM    2  C5  UNL     1     -36.442  14.959  -3.563  1.00 20.00     0.015 C 
HETATM    3  C9  UNL     1     -34.971  14.923  -4.030  1.00 20.00    -0.043 C 
ENDROOT
BRANCH   3   4
HETATM    4  C6  UNL     1     -34.056  15.689  -3.011  1.00 20.00     0.029 C 
BRANCH   4   5
HETATM    5  C8  UNL     1     -34.643  16.890  -2.243  1.00 20.00     0.079 C 
HETATM    6  C3  UNL     1     -33.804  18.143  -2.490  1.00 20.00     0.026 C 
HETATM    7 CL10 UNL     1     -34.692  16.601  -0.480  1.00 20.00    -0.125 Cl
ENDBRANCH   4   5
ENDBRANCH   3   4
BRANCH   3   8
HETATM    8  C7  UNL     1     -34.860  15.506  -5.490  1.00 20.00    -0.015 C 
HETATM    9  C1  UNL     1     -33.579  16.315  -5.742  1.00 20.00     0.010 C 
HETATM   10  C2  UNL     1     -34.984  14.447  -6.598  1.00 20.00     0.010 C 
ENDBRANCH   3   8
TORSDOF 3
ENDMDL
MODEL 8
REMARK VINA RESULT:      -3.9     11.227     12.638
REMARK  3 active torsions:
REMARK  status: ('A' for Active; 'I' for Inactive)
REMARK    1  A    between atoms: C6_6  and  C8_8 
REMARK    2  A    between atoms: C6_6  and  C9_9 
REMARK    3  A    between atoms: C7_7  and  C9_9 
ROOT
HETATM    1  C4  UNL     1     -34.663  13.428  -3.914  1.00 20.00     0.015 C 
HETATM    2  C5  UNL     1     -32.631  14.828  -3.657  1.00 20.00     0.015 C 
HETATM    3  C9  UNL     1     -34.163  14.893  -3.843  1.00 20.00    -0.043 C 
ENDROOT
BRANCH   3   4
HETATM    4  C6  UNL     1     -34.517  15.547  -5.225  1.00 20.00     0.029 C 
BRANCH   4   5
HETATM    5  C8  UNL     1     -35.302  14.717  -6.260  1.00 20.00     0.079 C 
HETATM    6  C3  UNL     1     -34.711  14.908  -7.656  1.00 20.00     0.026 C 
HETATM    7 CL10 UNL     1     -37.026  15.184  -6.326  1.00 20.00    -0.125 Cl
ENDBRANCH   4   5
ENDBRANCH   3   4
BRANCH   3   8
HETATM    8  C7  UNL     1     -34.816  15.660  -2.632  1.00 20.00    -0.015 C 
HETATM    9  C1  UNL     1     -33.863  16.635  -1.924  1.00 20.00     0.010 C 
HETATM   10  C2  UNL     1     -36.101  16.424  -2.995  1.00 20.00     0.010 C 
ENDBRANCH   3   8
TORSDOF 3
ENDMDL
MODEL 9
REMARK VINA RESULT:      -3.8     11.444     12.786
REMARK  3 active torsions:
REMARK  status: ('A' for Active; 'I' for Inactive)
REMARK    1  A    between atoms: C6_6  and  C8_8 
REMARK    2  A    between atoms: C6_6  and  C9_9 
REMARK    3  A    between atoms: C7_7  and  C9_9 
ROOT
HETATM    1  C4  UNL     1     -35.227  17.496  -3.507  1.00 20.00     0.015 C 
HETATM    2  C5  UNL     1     -34.599  16.340  -1.404  1.00 20.00     0.015 C 
HETATM    3  C9  UNL     1     -34.810  16.125  -2.918  1.00 20.00    -0.043 C 
ENDROOT
BRANCH   3   4
HETATM    4  C6  UNL     1     -36.018  15.154  -3.167  1.00 20.00     0.029 C 
BRANCH   4   5
HETATM    5  C8  UNL     1     -36.996  15.464  -4.316  1.00 20.00     0.079 C 
HETATM    6  C3  UNL     1     -38.338  14.772  -4.078  1.00 20.00     0.026 C 
HETATM    7 CL10 UNL     1     -36.370  14.916  -5.898  1.00 20.00    -0.125 Cl
ENDBRANCH   4   5
ENDBRANCH   3   4
BRANCH   3   8
HETATM    8  C7  UNL     1     -33.477  15.603  -3.574  1.00 20.00    -0.015 C 
HETATM    9  C1  UNL     1     -33.440  14.082  -3.787  1.00 20.00     0.010 C 
HETATM   10  C2  UNL     1     -33.128  16.282  -4.909  1.00 20.00     0.010 C 
ENDBRANCH   3   8
TORSDOF 3
ENDMDL
