MODEL 1
REMARK VINA RESULT:      -5.1      0.000      0.000
REMARK  2 active torsions:
REMARK  status: ('A' for Active; 'I' for Inactive)
REMARK    1  A    between atoms: C5_5  and  C6_6 
REMARK    2  A    between atoms: C6_6  and  C7_7 
ROOT
HETATM    1  C1  UNL     1     -31.979   8.329   1.793  1.00 20.00     0.012 C 
HETATM    2  C2  UNL     1     -32.237   7.553   2.673  1.00 20.00    -0.117 C 
HETATM    3  C5  UNL     1     -32.548   6.597   3.749  1.00 20.00     0.098 C 
ENDROOT
BRANCH   3   4
HETATM    4  C6  UNL     1     -34.069   6.406   3.932  1.00 20.00     0.006 C 
HETATM    5  C3  UNL     1     -34.563   5.210   3.098  1.00 20.00     0.012 C 
BRANCH   4   6
HETATM    6  C7  UNL     1     -34.493   6.222   5.406  1.00 20.00     0.058 C 
HETATM    7  C4  UNL     1     -33.528   6.773   6.447  1.00 20.00     0.022 C 
HETATM    8 BR8  UNL     1     -34.781   4.312   5.780  1.00 20.00    -0.091 Br
ENDBRANCH   4   6
ENDBRANCH   3   4
TORSDOF 2
ENDMDL
MODEL 2
REMARK VINA RESULT:      -4.9      1.288      1.505
REMARK  2 active torsions:
REMARK  status: ('A' for Active; 'I' for Inactive)
REMARK    1  A    between atoms: C5_5  and  C6_6 
REMARK    2  A    between atoms: C6_6  and  C7_7 
ROOT
HETATM    1  C1  UNL     1     -32.103   8.623   1.753  1.00 20.00     0.012 C 
HETATM    2  C2  UNL     1     -32.186   7.669   2.479  1.00 20.00    -0.117 C 
HETATM    3  C5  UNL     1     -32.283   6.497   3.366  1.00 20.00     0.098 C 
ENDROOT
BRANCH   3   4
HETATM    4  C6  UNL     1     -33.745   6.174   3.741  1.00 20.00     0.006 C 
HETATM    5  C3  UNL     1     -34.397   5.297   2.657  1.00 20.00     0.012 C 
BRANCH   4   6
HETATM    6  C7  UNL     1     -33.889   5.490   5.119  1.00 20.00     0.058 C 
HETATM    7  C4  UNL     1     -35.147   4.655   5.317  1.00 20.00     0.022 C 
HETATM    8 BR8  UNL     1     -33.815   6.845   6.543  1.00 20.00    -0.091 Br
ENDBRANCH   4   6
ENDBRANCH   3   4
TORSDOF 2
ENDMDL
MODEL 3
REMARK VINA RESULT:      -4.1     11.464     12.661
REMARK  2 active torsions:
REMARK  status: ('A' for Active; 'I' for Inactive)
REMARK    1  A    between atoms: C5_5  and  C6_6 
REMARK    2  A    between atoms: C6_6  and  C7_7 
ROOT
HETATM    1  C1  UNL     1     -34.556  16.933  -0.456  1.00 20.00     0.012 C 
HETATM    2  C2  UNL     1     -34.680  16.337  -1.491  1.00 20.00    -0.117 C 
HETATM    3  C5  UNL     1     -34.837  15.603  -2.758  1.00 20.00     0.098 C 
ENDROOT
BRANCH   3   4
HETATM    4  C6  UNL     1     -33.480  15.341  -3.448  1.00 20.00     0.006 C 
HETATM    5  C3  UNL     1     -33.307  13.840  -3.738  1.00 20.00     0.012 C 
BRANCH   4   6
HETATM    6  C7  UNL     1     -33.288  16.148  -4.752  1.00 20.00     0.058 C 
HETATM    7  C4  UNL     1     -33.603  17.635  -4.664  1.00 20.00     0.022 C 
HETATM    8 BR8  UNL     1     -34.388  15.366  -6.183  1.00 20.00    -0.091 Br
ENDBRANCH   4   6
ENDBRANCH   3   4
TORSDOF 2
ENDMDL
MODEL 4
REMARK VINA RESULT:      -4.0      2.363      3.659
REMARK  2 active torsions:
REMARK  status: ('A' for Active; 'I' for Inactive)
REMARK    1  A    between atoms: C5_5  and  C6_6 
REMARK    2  A    between atoms: C6_6  and  C7_7 
ROOT
HETATM    1  C1  UNL     1     -33.243   7.770   7.098  1.00 20.00     0.012 C 
HETATM    2  C2  UNL     1     -33.870   6.787   6.810  1.00 20.00    -0.117 C 
HETATM    3  C5  UNL     1     -34.639   5.580   6.464  1.00 20.00     0.098 C 
ENDROOT
BRANCH   3   4
HETATM    4  C6  UNL     1     -34.211   4.991   5.102  1.00 20.00     0.006 C 
HETATM    5  C3  UNL     1     -35.100   3.789   4.734  1.00 20.00     0.012 C 
BRANCH   4   6
HETATM    6  C7  UNL     1     -34.232   6.024   3.953  1.00 20.00     0.058 C 
HETATM    7  C4  UNL     1     -35.069   5.647   2.738  1.00 20.00     0.022 C 
HETATM    8 BR8  UNL     1     -32.393   6.382   3.351  1.00 20.00    -0.091 Br
ENDBRANCH   4   6
ENDBRANCH   3   4
TORSDOF 2
ENDMDL
MODEL 5
REMARK VINA RESULT:      -3.9     11.181     11.984
REMARK  2 active torsions:
REMARK  status: ('A' for Active; 'I' for Inactive)
REMARK    1  A    between atoms: C5_5  and  C6_6 
REMARK    2  A    between atoms: C6_6  and  C7_7 
ROOT
HETATM    1  C1  UNL     1     -34.811  17.093  -0.120  1.00 20.00     0.012 C 
HETATM    2  C2  UNL     1     -34.520  16.630  -1.190  1.00 20.00    -0.117 C 
HETATM    3  C5  UNL     1     -34.160  16.068  -2.503  1.00 20.00     0.098 C 
ENDROOT
BRANCH   3   4
HETATM    4  C6  UNL     1     -35.272  15.159  -3.069  1.00 20.00     0.006 C 
HETATM    5  C3  UNL     1     -36.255  15.982  -3.920  1.00 20.00     0.012 C 
BRANCH   4   6
HETATM    6  C7  UNL     1     -34.732  13.972  -3.898  1.00 20.00     0.058 C 
HETATM    7  C4  UNL     1     -33.256  13.648  -3.709  1.00 20.00     0.022 C 
HETATM    8 BR8  UNL     1     -35.055  14.299  -5.811  1.00 20.00    -0.091 Br
ENDBRANCH   4   6
ENDBRANCH   3   4
TORSDOF 2
ENDMDL
MODEL 6
REMARK VINA RESULT:      -3.9      1.057      1.357
REMARK  2 active torsions:
REMARK  status: ('A' for Active; 'I' for Inactive)
REMARK    1  A    between atoms: C5_5  and  C6_6 
REMARK    2  A    between atoms: C6_6  and  C7_7 
ROOT
HETATM    1  C1  UNL     1     -32.116   9.119   0.978  1.00 20.00     0.012 C 
HETATM    2  C2  UNL     1     -32.092   8.444   1.971  1.00 20.00    -0.117 C 
HETATM    3  C5  UNL     1     -32.056   7.617   3.189  1.00 20.00     0.098 C 
ENDROOT
BRANCH   3   4
HETATM    4  C6  UNL     1     -33.099   6.479   3.147  1.00 20.00     0.006 C 
HETATM    5  C3  UNL     1     -32.397   5.111   3.065  1.00 20.00     0.012 C 
BRANCH   4   6
HETATM    6  C7  UNL     1     -34.072   6.493   4.346  1.00 20.00     0.058 C 
HETATM    7  C4  UNL     1     -33.435   6.685   5.716  1.00 20.00     0.022 C 
HETATM    8 BR8  UNL     1     -35.112   4.822   4.376  1.00 20.00    -0.091 Br
ENDBRANCH   4   6
ENDBRANCH   3   4
TORSDOF 2
ENDMDL
MODEL 7
REMARK VINA RESULT:      -3.8      2.450      4.210
REMARK  2 active torsions:
REMARK  status: ('A' for Active; 'I' for Inactive)
REMARK    1  A    between atoms: C5_5  and  C6_6 
REMARK    2  A    between atoms: C6_6  and  C7_7 
ROOT
HETATM    1  C1  UNL     1     -35.073   3.991   5.938  1.00 20.00     0.012 C 
HETATM    2  C2  UNL     1     -35.115   4.681   4.957  1.00 20.00    -0.117 C 
HETATM    3  C5  UNL     1     -35.168   5.523   3.749  1.00 20.00     0.098 C 
ENDROOT
BRANCH   3   4
HETATM    4  C6  UNL     1     -34.108   6.644   3.777  1.00 20.00     0.006 C 
HETATM    5  C3  UNL     1     -33.515   6.787   5.191  1.00 20.00     0.012 C 
BRANCH   4   6
HETATM    6  C7  UNL     1     -32.968   6.438   2.754  1.00 20.00     0.058 C 
HETATM    7  C4  UNL     1     -31.842   5.511   3.193  1.00 20.00     0.022 C 
HETATM    8 BR8  UNL     1     -32.185   8.178   2.274  1.00 20.00    -0.091 Br
ENDBRANCH   4   6
ENDBRANCH   3   4
TORSDOF 2
ENDMDL
MODEL 8
REMARK VINA RESULT:      -3.8     11.671     12.678
REMARK  2 active torsions:
REMARK  status: ('A' for Active; 'I' for Inactive)
REMARK    1  A    between atoms: C5_5  and  C6_6 
REMARK    2  A    between atoms: C6_6  and  C7_7 
ROOT
HETATM    1  C1  UNL     1     -34.779  16.766  -0.804  1.00 20.00     0.012 C 
HETATM    2  C2  UNL     1     -34.278  16.266  -1.775  1.00 20.00    -0.117 C 
HETATM    3  C5  UNL     1     -33.658  15.652  -2.962  1.00 20.00     0.098 C 
ENDROOT
BRANCH   3   4
HETATM    4  C6  UNL     1     -34.395  16.035  -4.263  1.00 20.00     0.006 C 
HETATM    5  C3  UNL     1     -33.403  16.604  -5.294  1.00 20.00     0.012 C 
BRANCH   4   6
HETATM    6  C7  UNL     1     -35.182  14.863  -4.891  1.00 20.00     0.058 C 
HETATM    7  C4  UNL     1     -34.946  13.495  -4.264  1.00 20.00     0.022 C 
HETATM    8 BR8  UNL     1     -34.774  14.744  -6.812  1.00 20.00    -0.091 Br
ENDBRANCH   4   6
ENDBRANCH   3   4
TORSDOF 2
ENDMDL
MODEL 9
REMARK VINA RESULT:      -3.8     11.070     12.147
REMARK  2 active torsions:
REMARK  status: ('A' for Active; 'I' for Inactive)
REMARK    1  A    between atoms: C5_5  and  C6_6 
REMARK    2  A    between atoms: C6_6  and  C7_7 
ROOT
HETATM    1  C1  UNL     1     -34.974  14.403  -6.890  1.00 20.00     0.012 C 
HETATM    2  C2  UNL     1     -35.181  14.051  -5.761  1.00 20.00    -0.117 C 
HETATM    3  C5  UNL     1     -35.442  13.619  -4.377  1.00 20.00     0.098 C 
ENDROOT
BRANCH   3   4
HETATM    4  C6  UNL     1     -34.472  14.277  -3.372  1.00 20.00     0.006 C 
HETATM    5  C3  UNL     1     -33.024  13.840  -3.660  1.00 20.00     0.012 C 
BRANCH   4   6
HETATM    6  C7  UNL     1     -34.557  15.820  -3.357  1.00 20.00     0.058 C 
HETATM    7  C4  UNL     1     -33.421  16.553  -4.058  1.00 20.00     0.022 C 
HETATM    8 BR8  UNL     1     -34.654  16.460  -1.499  1.00 20.00    -0.091 Br
ENDBRANCH   4   6
ENDBRANCH   3   4
TORSDOF 2
ENDMDL
