MODEL 1
REMARK VINA RESULT:      -5.2      0.000      0.000
REMARK  0 active torsions:
REMARK  status: ('A' for Active; 'I' for Inactive)
ROOT
HETATM    1  C1  UNL     1     -33.374   6.184   4.061  1.00 20.00    -0.085 C 
HETATM    2  C2  UNL     1     -32.288   6.471   3.335  1.00 20.00     0.014 C 
HETATM    3  C3  UNL     1     -33.620   6.685   5.461  1.00 20.00     0.034 C 
HETATM    4  C4  UNL     1     -34.438   5.672   6.284  1.00 20.00     0.009 C 
HETATM    5  C5  UNL     1     -34.484   3.940   4.381  1.00 20.00     0.013 C 
HETATM    6  C6  UNL     1     -35.842   5.530   4.100  1.00 20.00     0.013 C 
HETATM    7  C7  UNL     1     -34.411   5.244   3.525  1.00 20.00     0.014 C 
HETATM    8  C8  UNL     1     -35.323   4.801   5.377  1.00 20.00    -0.013 C 
ENDROOT
TORSDOF 0
ENDMDL
MODEL 2
REMARK VINA RESULT:      -5.2      0.981      2.086
REMARK  0 active torsions:
REMARK  status: ('A' for Active; 'I' for Inactive)
ROOT
HETATM    1  C1  UNL     1     -34.191   6.304   5.932  1.00 20.00    -0.085 C 
HETATM    2  C2  UNL     1     -33.525   7.196   6.674  1.00 20.00     0.014 C 
HETATM    3  C3  UNL     1     -34.800   5.034   6.469  1.00 20.00     0.034 C 
HETATM    4  C4  UNL     1     -34.790   3.916   5.409  1.00 20.00     0.009 C 
HETATM    5  C5  UNL     1     -33.547   5.362   3.681  1.00 20.00     0.013 C 
HETATM    6  C6  UNL     1     -35.595   5.837   3.852  1.00 20.00     0.013 C 
HETATM    7  C7  UNL     1     -34.303   6.493   4.450  1.00 20.00     0.014 C 
HETATM    8  C8  UNL     1     -34.810   4.496   3.985  1.00 20.00    -0.013 C 
ENDROOT
TORSDOF 0
ENDMDL
MODEL 3
REMARK VINA RESULT:      -4.6      0.709      2.094
REMARK  0 active torsions:
REMARK  status: ('A' for Active; 'I' for Inactive)
ROOT
HETATM    1  C1  UNL     1     -33.308   5.973   3.934  1.00 20.00    -0.085 C 
HETATM    2  C2  UNL     1     -32.358   6.775   3.440  1.00 20.00     0.014 C 
HETATM    3  C3  UNL     1     -34.498   5.479   3.151  1.00 20.00     0.034 C 
HETATM    4  C4  UNL     1     -35.724   5.276   4.062  1.00 20.00     0.009 C 
HETATM    5  C5  UNL     1     -34.503   6.156   6.149  1.00 20.00     0.013 C 
HETATM    6  C6  UNL     1     -33.963   4.184   5.633  1.00 20.00     0.013 C 
HETATM    7  C7  UNL     1     -33.278   5.570   5.377  1.00 20.00     0.014 C 
HETATM    8  C8  UNL     1     -35.300   4.976   5.509  1.00 20.00    -0.013 C 
ENDROOT
TORSDOF 0
ENDMDL
MODEL 4
REMARK VINA RESULT:      -4.5      0.708      2.425
REMARK  0 active torsions:
REMARK  status: ('A' for Active; 'I' for Inactive)
ROOT
HETATM    1  C1  UNL     1     -33.905   6.225   5.519  1.00 20.00    -0.085 C 
HETATM    2  C2  UNL     1     -33.911   6.960   6.636  1.00 20.00     0.014 C 
HETATM    3  C3  UNL     1     -32.879   6.350   4.422  1.00 20.00     0.034 C 
HETATM    4  C4  UNL     1     -33.486   6.021   3.045  1.00 20.00     0.009 C 
HETATM    5  C5  UNL     1     -35.849   5.678   4.005  1.00 20.00     0.013 C 
HETATM    6  C6  UNL     1     -34.558   4.047   4.357  1.00 20.00     0.013 C 
HETATM    7  C7  UNL     1     -35.013   5.251   5.253  1.00 20.00     0.014 C 
HETATM    8  C8  UNL     1     -34.679   5.060   3.177  1.00 20.00    -0.013 C 
ENDROOT
TORSDOF 0
ENDMDL
MODEL 5
REMARK VINA RESULT:      -4.3     11.854     12.694
REMARK  0 active torsions:
REMARK  status: ('A' for Active; 'I' for Inactive)
ROOT
HETATM    1  C1  UNL     1     -34.730  15.700  -2.668  1.00 20.00    -0.085 C 
HETATM    2  C2  UNL     1     -34.594  16.276  -1.468  1.00 20.00     0.014 C 
HETATM    3  C3  UNL     1     -36.041  15.233  -3.246  1.00 20.00     0.034 C 
HETATM    4  C4  UNL     1     -35.847  14.009  -4.162  1.00 20.00     0.009 C 
HETATM    5  C5  UNL     1     -33.322  13.867  -3.683  1.00 20.00     0.013 C 
HETATM    6  C6  UNL     1     -33.832  15.400  -5.039  1.00 20.00     0.013 C 
HETATM    7  C7  UNL     1     -33.520  15.406  -3.503  1.00 20.00     0.014 C 
HETATM    8  C8  UNL     1     -34.435  13.987  -4.771  1.00 20.00    -0.013 C 
ENDROOT
TORSDOF 0
ENDMDL
MODEL 6
REMARK VINA RESULT:      -4.1     11.853     13.301
REMARK  0 active torsions:
REMARK  status: ('A' for Active; 'I' for Inactive)
ROOT
HETATM    1  C1  UNL     1     -33.694  15.980  -5.088  1.00 20.00    -0.085 C 
HETATM    2  C2  UNL     1     -33.462  17.258  -5.407  1.00 20.00     0.014 C 
HETATM    3  C3  UNL     1     -34.348  14.978  -6.005  1.00 20.00     0.034 C 
HETATM    4  C4  UNL     1     -35.153  13.932  -5.210  1.00 20.00     0.009 C 
HETATM    5  C5  UNL     1     -34.668  15.061  -2.949  1.00 20.00     0.013 C 
HETATM    6  C6  UNL     1     -33.041  13.944  -3.692  1.00 20.00     0.013 C 
HETATM    7  C7  UNL     1     -33.371  15.476  -3.714  1.00 20.00     0.014 C 
HETATM    8  C8  UNL     1     -34.585  13.750  -3.792  1.00 20.00    -0.013 C 
ENDROOT
TORSDOF 0
ENDMDL
MODEL 7
REMARK VINA RESULT:      -4.1     11.977     13.267
REMARK  0 active torsions:
REMARK  status: ('A' for Active; 'I' for Inactive)
ROOT
HETATM    1  C1  UNL     1     -34.321  15.481  -5.798  1.00 20.00    -0.085 C 
HETATM    2  C2  UNL     1     -34.343  15.804  -7.096  1.00 20.00     0.014 C 
HETATM    3  C3  UNL     1     -33.363  16.065  -4.791  1.00 20.00     0.034 C 
HETATM    4  C4  UNL     1     -33.030  15.051  -3.680  1.00 20.00     0.009 C 
HETATM    5  C5  UNL     1     -34.428  13.181  -4.764  1.00 20.00     0.013 C 
HETATM    6  C6  UNL     1     -35.594  14.623  -3.759  1.00 20.00     0.013 C 
HETATM    7  C7  UNL     1     -35.236  14.418  -5.271  1.00 20.00     0.014 C 
HETATM    8  C8  UNL     1     -34.174  14.041  -3.486  1.00 20.00    -0.013 C 
ENDROOT
TORSDOF 0
ENDMDL
MODEL 8
REMARK VINA RESULT:      -4.1     11.935     13.122
REMARK  0 active torsions:
REMARK  status: ('A' for Active; 'I' for Inactive)
ROOT
HETATM    1  C1  UNL     1     -33.856  15.814  -3.251  1.00 20.00    -0.085 C 
HETATM    2  C2  UNL     1     -33.842  16.559  -2.141  1.00 20.00     0.014 C 
HETATM    3  C3  UNL     1     -33.297  16.254  -4.580  1.00 20.00     0.034 C 
HETATM    4  C4  UNL     1     -34.079  15.631  -5.752  1.00 20.00     0.009 C 
HETATM    5  C5  UNL     1     -35.770  14.468  -4.199  1.00 20.00     0.013 C 
HETATM    6  C6  UNL     1     -33.907  13.484  -4.295  1.00 20.00     0.013 C 
HETATM    7  C7  UNL     1     -34.529  14.474  -3.251  1.00 20.00     0.014 C 
HETATM    8  C8  UNL     1     -34.724  14.296  -5.345  1.00 20.00    -0.013 C 
ENDROOT
TORSDOF 0
ENDMDL
MODEL 9
REMARK VINA RESULT:      -4.0     11.731     12.974
REMARK  0 active torsions:
REMARK  status: ('A' for Active; 'I' for Inactive)
ROOT
HETATM    1  C1  UNL     1     -35.634  14.710  -4.035  1.00 20.00    -0.085 C 
HETATM    2  C2  UNL     1     -36.958  14.692  -3.843  1.00 20.00     0.014 C 
HETATM    3  C3  UNL     1     -34.794  13.486  -4.295  1.00 20.00     0.034 C 
HETATM    4  C4  UNL     1     -33.371  13.651  -3.727  1.00 20.00     0.009 C 
HETATM    5  C5  UNL     1     -33.886  15.958  -2.709  1.00 20.00     0.013 C 
HETATM    6  C6  UNL     1     -33.574  16.013  -4.795  1.00 20.00     0.013 C 
HETATM    7  C7  UNL     1     -34.874  15.997  -3.919  1.00 20.00     0.014 C 
HETATM    8  C8  UNL     1     -32.965  15.132  -3.661  1.00 20.00    -0.013 C 
ENDROOT
TORSDOF 0
ENDMDL
