MODEL 1
REMARK VINA RESULT:      -4.8      0.000      0.000
REMARK  2 active torsions:
REMARK  status: ('A' for Active; 'I' for Inactive)
REMARK    1  A    between atoms: C8_8  and  C9_9 
REMARK    2  A    between atoms: C9_9  and  O11_11 
ROOT
HETATM    1  C1  UNL     1     -34.402  13.350  -4.811  1.00 20.00     0.003 C 
HETATM    2  C2  UNL     1     -34.593  14.475  -5.829  1.00 20.00     0.003 C 
HETATM    3  C3  UNL     1     -34.132  14.031  -3.470  1.00 20.00     0.038 C 
HETATM    4  C4  UNL     1     -34.405  15.783  -5.061  1.00 20.00     0.038 C 
HETATM    5  C9  UNL     1     -33.557  15.392  -3.853  1.00 20.00     0.063 C 
ENDROOT
BRANCH   5   6
HETATM    6  C8  UNL     1     -33.616  16.412  -2.727  1.00 20.00     0.046 C 
HETATM    7  C5  UNL     1     -34.687  16.135  -1.694  1.00 20.00     0.036 C 
HETATM    8  C6  UNL     1     -34.835  17.491  -1.035  1.00 20.00     0.168 C 
HETATM    9  O10 UNL     1     -34.555  18.474  -2.042  1.00 20.00    -0.391 OA
HETATM   10  C7  UNL     1     -33.996  17.810  -3.186  1.00 20.00     0.175 C 
ENDBRANCH   5   6
BRANCH   5  11
HETATM   11  O11 UNL     1     -32.201  15.243  -4.270  1.00 20.00    -0.389 OA
HETATM   12  H27 UNL     1     -31.665  15.767  -3.657  1.00 20.00     0.210 HD
ENDBRANCH   5  11
TORSDOF 2
ENDMDL
MODEL 2
REMARK VINA RESULT:      -4.6      1.458      1.891
REMARK  2 active torsions:
REMARK  status: ('A' for Active; 'I' for Inactive)
REMARK    1  A    between atoms: C8_8  and  C9_9 
REMARK    2  A    between atoms: C9_9  and  O11_11 
ROOT
HETATM    1  C1  UNL     1     -35.299  14.453  -5.587  1.00 20.00     0.003 C 
HETATM    2  C2  UNL     1     -34.922  13.260  -4.708  1.00 20.00     0.003 C 
HETATM    3  C3  UNL     1     -34.835  15.699  -4.835  1.00 20.00     0.038 C 
HETATM    4  C4  UNL     1     -34.269  13.842  -3.454  1.00 20.00     0.038 C 
HETATM    5  C9  UNL     1     -34.815  15.265  -3.371  1.00 20.00     0.063 C 
ENDROOT
BRANCH   5   6
HETATM    6  C8  UNL     1     -33.982  16.173  -2.481  1.00 20.00     0.046 C 
HETATM    7  C5  UNL     1     -34.608  16.470  -1.136  1.00 20.00     0.036 C 
HETATM    8  C6  UNL     1     -33.856  17.714  -0.714  1.00 20.00     0.168 C 
HETATM    9  O10 UNL     1     -33.526  18.427  -1.915  1.00 20.00    -0.391 OA
HETATM   10  C7  UNL     1     -33.795  17.574  -3.039  1.00 20.00     0.175 C 
ENDBRANCH   5   6
BRANCH   5  11
HETATM   11  O11 UNL     1     -36.148  15.219  -2.864  1.00 20.00    -0.389 OA
HETATM   12  H27 UNL     1     -36.694  14.829  -3.563  1.00 20.00     0.210 HD
ENDBRANCH   5  11
TORSDOF 2
ENDMDL
MODEL 3
REMARK VINA RESULT:      -4.5     12.823     14.612
REMARK  2 active torsions:
REMARK  status: ('A' for Active; 'I' for Inactive)
REMARK    1  A    between atoms: C8_8  and  C9_9 
REMARK    2  A    between atoms: C9_9  and  O11_11 
ROOT
HETATM    1  C1  UNL     1     -41.092   6.779  -0.804  1.00 20.00     0.003 C 
HETATM    2  C2  UNL     1     -41.334   5.944   0.455  1.00 20.00     0.003 C 
HETATM    3  C3  UNL     1     -41.599   5.939  -1.975  1.00 20.00     0.038 C 
HETATM    4  C4  UNL     1     -41.953   4.629  -0.018  1.00 20.00     0.038 C 
HETATM    5  C9  UNL     1     -41.505   4.501  -1.471  1.00 20.00     0.063 C 
ENDROOT
BRANCH   5   6
HETATM    6  C8  UNL     1     -42.347   3.522  -2.273  1.00 20.00     0.046 C 
HETATM    7  C5  UNL     1     -41.543   2.507  -3.056  1.00 20.00     0.036 C 
HETATM    8  C6  UNL     1     -42.555   2.038  -4.080  1.00 20.00     0.168 C 
HETATM    9  O10 UNL     1     -43.417   3.153  -4.352  1.00 20.00    -0.391 OA
HETATM   10  C7  UNL     1     -43.162   4.175  -3.377  1.00 20.00     0.175 C 
ENDBRANCH   5   6
BRANCH   5  11
HETATM   11  O11 UNL     1     -40.145   4.070  -1.498  1.00 20.00    -0.389 OA
HETATM   12  H27 UNL     1     -39.614   4.848  -1.724  1.00 20.00     0.210 HD
ENDBRANCH   5  11
TORSDOF 2
ENDMDL
MODEL 4
REMARK VINA RESULT:      -4.4      1.792      4.274
REMARK  2 active torsions:
REMARK  status: ('A' for Active; 'I' for Inactive)
REMARK    1  A    between atoms: C8_8  and  C9_9 
REMARK    2  A    between atoms: C9_9  and  O11_11 
ROOT
HETATM    1  C1  UNL     1     -33.754  17.251  -2.655  1.00 20.00     0.003 C 
HETATM    2  C2  UNL     1     -34.444  16.063  -1.983  1.00 20.00     0.003 C 
HETATM    3  C3  UNL     1     -33.695  16.921  -4.146  1.00 20.00     0.038 C 
HETATM    4  C4  UNL     1     -34.748  15.060  -3.096  1.00 20.00     0.038 C 
HETATM    5  C9  UNL     1     -33.740  15.396  -4.192  1.00 20.00     0.063 C 
ENDROOT
BRANCH   5   6
HETATM    6  C8  UNL     1     -34.131  14.842  -5.552  1.00 20.00     0.046 C 
HETATM    7  C5  UNL     1     -34.084  15.859  -6.673  1.00 20.00     0.036 C 
HETATM    8  C6  UNL     1     -34.955  15.199  -7.722  1.00 20.00     0.168 C 
HETATM    9  O10 UNL     1     -35.945  14.434  -7.018  1.00 20.00    -0.391 OA
HETATM   10  C7  UNL     1     -35.574  14.375  -5.632  1.00 20.00     0.175 C 
ENDBRANCH   5   6
BRANCH   5  11
HETATM   11  O11 UNL     1     -32.467  14.865  -3.826  1.00 20.00    -0.389 OA
HETATM   12  H27 UNL     1     -32.179  14.308  -4.565  1.00 20.00     0.210 HD
ENDBRANCH   5  11
TORSDOF 2
ENDMDL
MODEL 5
REMARK VINA RESULT:      -4.3     13.110     14.589
REMARK  2 active torsions:
REMARK  status: ('A' for Active; 'I' for Inactive)
REMARK    1  A    between atoms: C8_8  and  C9_9 
REMARK    2  A    between atoms: C9_9  and  O11_11 
ROOT
HETATM    1  C1  UNL     1     -43.199   2.153  -4.586  1.00 20.00     0.003 C 
HETATM    2  C2  UNL     1     -41.813   1.620  -4.218  1.00 20.00     0.003 C 
HETATM    3  C3  UNL     1     -43.415   3.401  -3.731  1.00 20.00     0.038 C 
HETATM    4  C4  UNL     1     -41.268   2.556  -3.139  1.00 20.00     0.038 C 
HETATM    5  C9  UNL     1     -42.514   3.182  -2.518  1.00 20.00     0.063 C 
ENDROOT
BRANCH   5   6
HETATM    6  C8  UNL     1     -42.220   4.456  -1.745  1.00 20.00     0.046 C 
HETATM    7  C5  UNL     1     -42.273   5.717  -2.581  1.00 20.00     0.036 C 
HETATM    8  C6  UNL     1     -41.490   6.688  -1.723  1.00 20.00     0.168 C 
HETATM    9  O10 UNL     1     -40.504   5.918  -1.020  1.00 20.00    -0.391 OA
HETATM   10  C7  UNL     1     -40.806   4.525  -1.191  1.00 20.00     0.175 C 
ENDBRANCH   5   6
BRANCH   5  11
HETATM   11  O11 UNL     1     -43.115   2.235  -1.636  1.00 20.00    -0.389 OA
HETATM   12  H27 UNL     1     -42.552   1.446  -1.654  1.00 20.00     0.210 HD
ENDBRANCH   5  11
TORSDOF 2
ENDMDL
MODEL 6
REMARK VINA RESULT:      -4.3      1.371      4.180
REMARK  2 active torsions:
REMARK  status: ('A' for Active; 'I' for Inactive)
REMARK    1  A    between atoms: C8_8  and  C9_9 
REMARK    2  A    between atoms: C9_9  and  O11_11 
ROOT
HETATM    1  C1  UNL     1     -34.206  17.602  -0.822  1.00 20.00     0.003 C 
HETATM    2  C2  UNL     1     -33.742  18.550  -1.929  1.00 20.00     0.003 C 
HETATM    3  C3  UNL     1     -34.454  16.252  -1.493  1.00 20.00     0.038 C 
HETATM    4  C4  UNL     1     -33.754  17.734  -3.222  1.00 20.00     0.038 C 
HETATM    5  C9  UNL     1     -34.748  16.608  -2.948  1.00 20.00     0.063 C 
ENDROOT
BRANCH   5   6
HETATM    6  C8  UNL     1     -34.597  15.434  -3.901  1.00 20.00     0.046 C 
HETATM    7  C5  UNL     1     -35.709  14.412  -3.809  1.00 20.00     0.036 C 
HETATM    8  C6  UNL     1     -35.067  13.200  -4.452  1.00 20.00     0.168 C 
HETATM    9  O10 UNL     1     -33.663  13.274  -4.166  1.00 20.00    -0.391 OA
HETATM   10  C7  UNL     1     -33.376  14.573  -3.624  1.00 20.00     0.175 C 
ENDBRANCH   5   6
BRANCH   5  11
HETATM   11  O11 UNL     1     -36.073  17.126  -3.060  1.00 20.00    -0.389 OA
HETATM   12  H27 UNL     1     -36.394  16.872  -3.938  1.00 20.00     0.210 HD
ENDBRANCH   5  11
TORSDOF 2
ENDMDL
MODEL 7
REMARK VINA RESULT:      -4.3      1.196      1.490
REMARK  2 active torsions:
REMARK  status: ('A' for Active; 'I' for Inactive)
REMARK    1  A    between atoms: C8_8  and  C9_9 
REMARK    2  A    between atoms: C9_9  and  O11_11 
ROOT
HETATM    1  C1  UNL     1     -34.650  14.752  -6.552  1.00 20.00     0.003 C 
HETATM    2  C2  UNL     1     -34.382  16.135  -7.149  1.00 20.00     0.003 C 
HETATM    3  C3  UNL     1     -34.651  14.936  -5.035  1.00 20.00     0.038 C 
HETATM    4  C4  UNL     1     -34.209  17.085  -5.964  1.00 20.00     0.038 C 
HETATM    5  C9  UNL     1     -33.790  16.177  -4.810  1.00 20.00     0.063 C 
ENDROOT
BRANCH   5   6
HETATM    6  C8  UNL     1     -33.992  16.815  -3.445  1.00 20.00     0.046 C 
HETATM    7  C5  UNL     1     -34.057  15.826  -2.301  1.00 20.00     0.036 C 
HETATM    8  C6  UNL     1     -34.731  16.648  -1.223  1.00 20.00     0.168 C 
HETATM    9  O10 UNL     1     -35.611  17.564  -1.889  1.00 20.00    -0.391 OA
HETATM   10  C7  UNL     1     -35.323  17.533  -3.295  1.00 20.00     0.175 C 
ENDBRANCH   5   6
BRANCH   5  11
HETATM   11  O11 UNL     1     -32.412  15.842  -4.964  1.00 20.00    -0.389 OA
HETATM   12  H27 UNL     1     -32.265  15.037  -4.446  1.00 20.00     0.210 HD
ENDBRANCH   5  11
TORSDOF 2
ENDMDL
MODEL 8
REMARK VINA RESULT:      -4.2      1.769      2.369
REMARK  2 active torsions:
REMARK  status: ('A' for Active; 'I' for Inactive)
REMARK    1  A    between atoms: C8_8  and  C9_9 
REMARK    2  A    between atoms: C9_9  and  O11_11 
ROOT
HETATM    1  C1  UNL     1     -36.273  14.796  -6.979  1.00 20.00     0.003 C 
HETATM    2  C2  UNL     1     -34.787  14.882  -7.331  1.00 20.00     0.003 C 
HETATM    3  C3  UNL     1     -36.355  14.883  -5.456  1.00 20.00     0.038 C 
HETATM    4  C4  UNL     1     -34.039  14.992  -6.002  1.00 20.00     0.038 C 
HETATM    5  C9  UNL     1     -34.994  14.381  -4.980  1.00 20.00     0.063 C 
ENDROOT
BRANCH   5   6
HETATM    6  C8  UNL     1     -34.669  14.777  -3.549  1.00 20.00     0.046 C 
HETATM    7  C5  UNL     1     -35.692  15.692  -2.911  1.00 20.00     0.036 C 
HETATM    8  C6  UNL     1     -34.899  16.285  -1.764  1.00 20.00     0.168 C 
HETATM    9  O10 UNL     1     -33.532  16.352  -2.195  1.00 20.00    -0.391 OA
HETATM   10  C7  UNL     1     -33.402  15.604  -3.414  1.00 20.00     0.175 C 
ENDBRANCH   5   6
BRANCH   5  11
HETATM   11  O11 UNL     1     -34.939  12.960  -5.090  1.00 20.00    -0.389 OA
HETATM   12  H27 UNL     1     -34.154  12.676  -4.598  1.00 20.00     0.210 HD
ENDBRANCH   5  11
TORSDOF 2
ENDMDL
MODEL 9
REMARK VINA RESULT:      -4.2      1.781      4.415
REMARK  2 active torsions:
REMARK  status: ('A' for Active; 'I' for Inactive)
REMARK    1  A    between atoms: C8_8  and  C9_9 
REMARK    2  A    between atoms: C9_9  and  O11_11 
ROOT
HETATM    1  C1  UNL     1     -35.077  17.369  -0.995  1.00 20.00     0.003 C 
HETATM    2  C2  UNL     1     -35.648  18.245  -2.111  1.00 20.00     0.003 C 
HETATM    3  C3  UNL     1     -34.533  16.114  -1.676  1.00 20.00     0.038 C 
HETATM    4  C4  UNL     1     -35.444  17.468  -3.411  1.00 20.00     0.038 C 
HETATM    5  C9  UNL     1     -35.340  16.011  -2.968  1.00 20.00     0.063 C 
ENDROOT
BRANCH   5   6
HETATM    6  C8  UNL     1     -34.699  15.113  -4.013  1.00 20.00     0.046 C 
HETATM    7  C5  UNL     1     -35.560  14.866  -5.233  1.00 20.00     0.036 C 
HETATM    8  C6  UNL     1     -34.923  13.621  -5.812  1.00 20.00     0.168 C 
HETATM    9  O10 UNL     1     -34.403  12.868  -4.706  1.00 20.00    -0.391 OA
HETATM   10  C7  UNL     1     -34.449  13.694  -3.531  1.00 20.00     0.175 C 
ENDBRANCH   5   6
BRANCH   5  11
HETATM   11  O11 UNL     1     -36.650  15.523  -2.680  1.00 20.00    -0.389 OA
HETATM   12  H27 UNL     1     -36.535  14.655  -2.266  1.00 20.00     0.210 HD
ENDBRANCH   5  11
TORSDOF 2
ENDMDL
