MODEL 1
REMARK VINA RESULT:      -4.6      0.000      0.000
REMARK  3 active torsions:
REMARK  status: ('A' for Active; 'I' for Inactive)
REMARK    1  A    between atoms: C5_5  and  S11_11 
REMARK    2  A    between atoms: C7_7  and  C8_8 
REMARK    3  A    between atoms: C8_8  and  S11_11 
ROOT
HETATM    1  C1  UNL     1     -33.783  16.789  -4.701  1.00 20.00     0.080 C 
HETATM    2  C2  UNL     1     -33.642  14.424  -3.781  1.00 20.00     0.071 C 
HETATM    3  C3  UNL     1     -34.910  14.669  -5.528  1.00 20.00     0.071 C 
HETATM    4  C4  UNL     1     -34.235  13.466  -4.836  1.00 20.00     0.165 C 
HETATM    5  C5  UNL     1     -34.494  15.584  -4.352  1.00 20.00     0.101 C 
HETATM    6  N9  UNL     1     -33.212  17.760  -4.982  1.00 20.00    -0.196 NA
HETATM    7  O10 UNL     1     -35.154  12.551  -4.297  1.00 20.00    -0.235 OA
ENDROOT
BRANCH   5   8
HETATM    8  S11 UNL     1     -35.919  15.989  -3.265  1.00 20.00    -0.144 SA
BRANCH   8   9
HETATM    9  C8  UNL     1     -35.101  17.223  -2.231  1.00 20.00     0.075 C 
BRANCH   9  10
HETATM   10  C7  UNL     1     -34.549  16.578  -0.964  1.00 20.00     0.006 C 
HETATM   11  C6  UNL     1     -34.978  17.349   0.275  1.00 20.00     0.006 C 
ENDBRANCH   9  10
ENDBRANCH   8   9
ENDBRANCH   5   8
TORSDOF 3
ENDMDL
MODEL 2
REMARK VINA RESULT:      -4.3      2.788      3.300
REMARK  3 active torsions:
REMARK  status: ('A' for Active; 'I' for Inactive)
REMARK    1  A    between atoms: C5_5  and  S11_11 
REMARK    2  A    between atoms: C7_7  and  C8_8 
REMARK    3  A    between atoms: C8_8  and  S11_11 
ROOT
HETATM    1  C1  UNL     1     -34.722  13.819  -4.872  1.00 20.00     0.080 C 
HETATM    2  C2  UNL     1     -35.887  15.894  -5.764  1.00 20.00     0.071 C 
HETATM    3  C3  UNL     1     -34.404  15.018  -7.088  1.00 20.00     0.071 C 
HETATM    4  C4  UNL     1     -35.577  16.004  -7.272  1.00 20.00     0.165 C 
HETATM    5  C5  UNL     1     -34.586  15.083  -5.553  1.00 20.00     0.101 C 
HETATM    6  N9  UNL     1     -34.832  12.802  -4.323  1.00 20.00    -0.196 NA
HETATM    7  O10 UNL     1     -35.164  17.289  -7.659  1.00 20.00    -0.235 OA
ENDROOT
BRANCH   5   8
HETATM    8  S11 UNL     1     -33.273  16.088  -4.752  1.00 20.00    -0.144 SA
BRANCH   8   9
HETATM    9  C8  UNL     1     -33.625  15.639  -3.039  1.00 20.00     0.075 C 
BRANCH   9  10
HETATM   10  C7  UNL     1     -33.869  16.886  -2.198  1.00 20.00     0.006 C 
HETATM   11  C6  UNL     1     -34.634  16.550  -0.927  1.00 20.00     0.006 C 
ENDBRANCH   9  10
ENDBRANCH   8   9
ENDBRANCH   5   8
TORSDOF 3
ENDMDL
MODEL 3
REMARK VINA RESULT:      -4.2      2.649      3.064
REMARK  3 active torsions:
REMARK  status: ('A' for Active; 'I' for Inactive)
REMARK    1  A    between atoms: C5_5  and  S11_11 
REMARK    2  A    between atoms: C7_7  and  C8_8 
REMARK    3  A    between atoms: C8_8  and  S11_11 
ROOT
HETATM    1  C1  UNL     1     -37.277  14.698  -4.227  1.00 20.00     0.080 C 
HETATM    2  C2  UNL     1     -36.419  15.334  -6.533  1.00 20.00     0.071 C 
HETATM    3  C3  UNL     1     -35.179  13.929  -5.434  1.00 20.00     0.071 C 
HETATM    4  C4  UNL     1     -35.300  14.342  -6.916  1.00 20.00     0.165 C 
HETATM    5  C5  UNL     1     -36.141  15.072  -5.033  1.00 20.00     0.101 C 
HETATM    6  N9  UNL     1     -38.191  14.396  -3.578  1.00 20.00    -0.196 NA
HETATM    7  O10 UNL     1     -34.147  14.974  -7.410  1.00 20.00    -0.235 OA
ENDROOT
BRANCH   5   8
HETATM    8  S11 UNL     1     -35.249  16.472  -4.246  1.00 20.00    -0.144 SA
BRANCH   8   9
HETATM    9  C8  UNL     1     -35.100  15.773  -2.588  1.00 20.00     0.075 C 
BRANCH   9  10
HETATM   10  C7  UNL     1     -34.116  16.583  -1.752  1.00 20.00     0.006 C 
HETATM   11  C6  UNL     1     -34.707  16.935  -0.396  1.00 20.00     0.006 C 
ENDBRANCH   9  10
ENDBRANCH   8   9
ENDBRANCH   5   8
TORSDOF 3
ENDMDL
MODEL 4
REMARK VINA RESULT:      -4.2      2.858      4.749
REMARK  3 active torsions:
REMARK  status: ('A' for Active; 'I' for Inactive)
REMARK    1  A    between atoms: C5_5  and  S11_11 
REMARK    2  A    between atoms: C7_7  and  C8_8 
REMARK    3  A    between atoms: C8_8  and  S11_11 
ROOT
HETATM    1  C1  UNL     1     -34.829  13.767  -4.318  1.00 20.00     0.080 C 
HETATM    2  C2  UNL     1     -33.201  15.587  -3.612  1.00 20.00     0.071 C 
HETATM    3  C3  UNL     1     -35.193  15.739  -2.759  1.00 20.00     0.071 C 
HETATM    4  C4  UNL     1     -33.813  16.334  -2.408  1.00 20.00     0.165 C 
HETATM    5  C5  UNL     1     -34.618  15.174  -4.079  1.00 20.00     0.101 C 
HETATM    6  N9  UNL     1     -34.999  12.635  -4.510  1.00 20.00    -0.196 NA
HETATM    7  O10 UNL     1     -33.763  17.732  -2.540  1.00 20.00    -0.235 OA
ENDROOT
BRANCH   5   8
HETATM    8  S11 UNL     1     -35.171  16.146  -5.537  1.00 20.00    -0.144 SA
BRANCH   8   9
HETATM    9  C8  UNL     1     -34.320  15.191  -6.811  1.00 20.00     0.075 C 
BRANCH   9  10
HETATM   10  C7  UNL     1     -35.315  14.668  -7.841  1.00 20.00     0.006 C 
HETATM   11  C6  UNL     1     -36.745  14.990  -7.436  1.00 20.00     0.006 C 
ENDBRANCH   9  10
ENDBRANCH   8   9
ENDBRANCH   5   8
TORSDOF 3
ENDMDL
MODEL 5
REMARK VINA RESULT:      -4.1      1.737      1.967
REMARK  3 active torsions:
REMARK  status: ('A' for Active; 'I' for Inactive)
REMARK    1  A    between atoms: C5_5  and  S11_11 
REMARK    2  A    between atoms: C7_7  and  C8_8 
REMARK    3  A    between atoms: C8_8  and  S11_11 
ROOT
HETATM    1  C1  UNL     1     -36.008  16.682  -4.996  1.00 20.00     0.080 C 
HETATM    2  C2  UNL     1     -34.941  14.555  -5.888  1.00 20.00     0.071 C 
HETATM    3  C3  UNL     1     -35.563  14.482  -3.808  1.00 20.00     0.071 C 
HETATM    4  C4  UNL     1     -35.215  13.423  -4.875  1.00 20.00     0.165 C 
HETATM    5  C5  UNL     1     -35.080  15.604  -4.758  1.00 20.00     0.101 C 
HETATM    6  N9  UNL     1     -36.754  17.551  -5.187  1.00 20.00    -0.196 NA
HETATM    7  O10 UNL     1     -34.068  12.675  -4.559  1.00 20.00    -0.235 OA
ENDROOT
BRANCH   5   8
HETATM    8  S11 UNL     1     -33.451  16.280  -4.244  1.00 20.00    -0.144 SA
BRANCH   8   9
HETATM    9  C8  UNL     1     -34.052  17.514  -3.071  1.00 20.00     0.075 C 
BRANCH   9  10
HETATM   10  C7  UNL     1     -33.598  17.174  -1.657  1.00 20.00     0.006 C 
HETATM   11  C6  UNL     1     -34.747  16.619  -0.829  1.00 20.00     0.006 C 
ENDBRANCH   9  10
ENDBRANCH   8   9
ENDBRANCH   5   8
TORSDOF 3
ENDMDL
MODEL 6
REMARK VINA RESULT:      -4.1      2.372      2.784
REMARK  3 active torsions:
REMARK  status: ('A' for Active; 'I' for Inactive)
REMARK    1  A    between atoms: C5_5  and  S11_11 
REMARK    2  A    between atoms: C7_7  and  C8_8 
REMARK    3  A    between atoms: C8_8  and  S11_11 
ROOT
HETATM    1  C1  UNL     1     -34.045  13.997  -4.444  1.00 20.00     0.080 C 
HETATM    2  C2  UNL     1     -36.172  14.684  -5.652  1.00 20.00     0.071 C 
HETATM    3  C3  UNL     1     -34.322  15.122  -6.704  1.00 20.00     0.071 C 
HETATM    4  C4  UNL     1     -35.805  15.010  -7.116  1.00 20.00     0.165 C 
HETATM    5  C5  UNL     1     -34.724  15.010  -5.214  1.00 20.00     0.101 C 
HETATM    6  N9  UNL     1     -33.498  13.182  -3.824  1.00 20.00    -0.196 NA
HETATM    7  O10 UNL     1     -36.347  16.226  -7.564  1.00 20.00    -0.235 OA
ENDROOT
BRANCH   5   8
HETATM    8  S11 UNL     1     -34.614  16.630  -4.354  1.00 20.00    -0.144 SA
BRANCH   8   9
HETATM    9  C8  UNL     1     -35.013  16.056  -2.689  1.00 20.00     0.075 C 
BRANCH   9  10
HETATM   10  C7  UNL     1     -34.034  16.635  -1.674  1.00 20.00     0.006 C 
HETATM   11  C6  UNL     1     -34.732  16.963  -0.363  1.00 20.00     0.006 C 
ENDBRANCH   9  10
ENDBRANCH   8   9
ENDBRANCH   5   8
TORSDOF 3
ENDMDL
MODEL 7
REMARK VINA RESULT:      -4.0      1.607      1.725
REMARK  3 active torsions:
REMARK  status: ('A' for Active; 'I' for Inactive)
REMARK    1  A    between atoms: C5_5  and  S11_11 
REMARK    2  A    between atoms: C7_7  and  C8_8 
REMARK    3  A    between atoms: C8_8  and  S11_11 
ROOT
HETATM    1  C1  UNL     1     -34.010  16.306  -4.558  1.00 20.00     0.080 C 
HETATM    2  C2  UNL     1     -35.425  14.387  -3.678  1.00 20.00     0.071 C 
HETATM    3  C3  UNL     1     -36.468  15.802  -4.956  1.00 20.00     0.071 C 
HETATM    4  C4  UNL     1     -36.744  14.360  -4.480  1.00 20.00     0.165 C 
HETATM    5  C5  UNL     1     -35.268  15.897  -3.983  1.00 20.00     0.101 C 
HETATM    6  N9  UNL     1     -32.998  16.636  -5.021  1.00 20.00    -0.196 NA
HETATM    7  O10 UNL     1     -37.884  14.255  -3.666  1.00 20.00    -0.235 OA
ENDROOT
BRANCH   5   8
HETATM    8  S11 UNL     1     -35.656  16.937  -2.519  1.00 20.00    -0.144 SA
BRANCH   8   9
HETATM    9  C8  UNL     1     -34.142  16.628  -1.585  1.00 20.00     0.075 C 
BRANCH   9  10
HETATM   10  C7  UNL     1     -33.983  17.656  -0.470  1.00 20.00     0.006 C 
HETATM   11  C6  UNL     1     -35.021  17.447   0.621  1.00 20.00     0.006 C 
ENDBRANCH   9  10
ENDBRANCH   8   9
ENDBRANCH   5   8
TORSDOF 3
ENDMDL
MODEL 8
REMARK VINA RESULT:      -3.8      2.946      4.736
REMARK  3 active torsions:
REMARK  status: ('A' for Active; 'I' for Inactive)
REMARK    1  A    between atoms: C5_5  and  S11_11 
REMARK    2  A    between atoms: C7_7  and  C8_8 
REMARK    3  A    between atoms: C8_8  and  S11_11 
ROOT
HETATM    1  C1  UNL     1     -36.621  14.905  -3.605  1.00 20.00     0.080 C 
HETATM    2  C2  UNL     1     -34.983  16.077  -2.054  1.00 20.00     0.071 C 
HETATM    3  C3  UNL     1     -35.520  17.181  -3.847  1.00 20.00     0.071 C 
HETATM    4  C4  UNL     1     -34.890  17.555  -2.489  1.00 20.00     0.165 C 
HETATM    5  C5  UNL     1     -35.410  15.680  -3.488  1.00 20.00     0.101 C 
HETATM    6  N9  UNL     1     -37.595  14.281  -3.699  1.00 20.00    -0.196 NA
HETATM    7  O10 UNL     1     -33.567  18.016  -2.601  1.00 20.00    -0.235 OA
ENDROOT
BRANCH   5   8
HETATM    8  S11 UNL     1     -34.048  14.856  -4.406  1.00 20.00    -0.144 SA
BRANCH   8   9
HETATM    9  C8  UNL     1     -35.064  13.867  -5.524  1.00 20.00     0.075 C 
BRANCH   9  10
HETATM   10  C7  UNL     1     -35.062  14.470  -6.924  1.00 20.00     0.006 C 
HETATM   11  C6  UNL     1     -34.183  15.710  -6.986  1.00 20.00     0.006 C 
ENDBRANCH   9  10
ENDBRANCH   8   9
ENDBRANCH   5   8
TORSDOF 3
ENDMDL
MODEL 9
REMARK VINA RESULT:      -3.8      2.819      3.561
REMARK  3 active torsions:
REMARK  status: ('A' for Active; 'I' for Inactive)
REMARK    1  A    between atoms: C5_5  and  S11_11 
REMARK    2  A    between atoms: C7_7  and  C8_8 
REMARK    3  A    between atoms: C8_8  and  S11_11 
ROOT
HETATM    1  C1  UNL     1     -37.012  14.537  -3.982  1.00 20.00     0.080 C 
HETATM    2  C2  UNL     1     -34.756  13.427  -4.353  1.00 20.00     0.071 C 
HETATM    3  C3  UNL     1     -34.750  15.111  -2.980  1.00 20.00     0.071 C 
HETATM    4  C4  UNL     1     -33.788  13.937  -3.264  1.00 20.00     0.165 C 
HETATM    5  C5  UNL     1     -35.599  14.717  -4.212  1.00 20.00     0.101 C 
HETATM    6  N9  UNL     1     -38.149  14.393  -3.798  1.00 20.00    -0.196 NA
HETATM    7  O10 UNL     1     -32.547  14.350  -3.776  1.00 20.00    -0.235 OA
ENDROOT
BRANCH   5   8
HETATM    8  S11 UNL     1     -35.335  15.868  -5.620  1.00 20.00    -0.144 SA
BRANCH   8   9
HETATM    9  C8  UNL     1     -36.206  17.297  -4.941  1.00 20.00     0.075 C 
BRANCH   9  10
HETATM   10  C7  UNL     1     -35.220  18.400  -4.576  1.00 20.00     0.006 C 
HETATM   11  C6  UNL     1     -33.823  18.078  -5.083  1.00 20.00     0.006 C 
ENDBRANCH   9  10
ENDBRANCH   8   9
ENDBRANCH   5   8
TORSDOF 3
ENDMDL
