MODEL 1
REMARK VINA RESULT:      -4.4      0.000      0.000
REMARK  2 active torsions:
REMARK  status: ('A' for Active; 'I' for Inactive)
REMARK    1  A    between atoms: C6_6  and  O10_10 
REMARK    2  A    between atoms: C8_8  and  O10_10 
ROOT
HETATM    1  C1  UNL     1     -37.100  14.537  -3.933  1.00 20.00     0.098 C 
HETATM    2  C2  UNL     1     -33.538  15.230  -3.088  1.00 20.00     0.004 C 
HETATM    3  C3  UNL     1     -33.433  13.893  -3.824  1.00 20.00     0.004 C 
HETATM    4  C4  UNL     1     -35.030  15.525  -2.958  1.00 20.00     0.053 C 
HETATM    5  C5  UNL     1     -34.865  13.469  -4.149  1.00 20.00     0.053 C 
HETATM    6  C6  UNL     1     -35.666  14.768  -4.122  1.00 20.00     0.148 C 
HETATM    7  N9  UNL     1     -38.235  14.354  -3.784  1.00 20.00    -0.194 NA
ENDROOT
BRANCH   6   8
HETATM    8  O10 UNL     1     -35.443  15.472  -5.342  1.00 20.00    -0.366 OA
BRANCH   8   9
HETATM    9  C8  UNL     1     -35.815  14.694  -6.471  1.00 20.00     0.165 C 
HETATM   10  C7  UNL     1     -34.772  14.869  -7.555  1.00 20.00     0.033 C 
ENDBRANCH   8   9
ENDBRANCH   6   8
TORSDOF 2
ENDMDL
MODEL 2
REMARK VINA RESULT:      -4.1      2.612      4.048
REMARK  2 active torsions:
REMARK  status: ('A' for Active; 'I' for Inactive)
REMARK    1  A    between atoms: C6_6  and  O10_10 
REMARK    2  A    between atoms: C8_8  and  O10_10 
ROOT
HETATM    1  C1  UNL     1     -33.667  17.104  -4.929  1.00 20.00     0.098 C 
HETATM    2  C2  UNL     1     -34.560  13.517  -4.461  1.00 20.00     0.004 C 
HETATM    3  C3  UNL     1     -33.278  13.633  -3.636  1.00 20.00     0.004 C 
HETATM    4  C4  UNL     1     -34.742  14.867  -5.152  1.00 20.00     0.053 C 
HETATM    5  C5  UNL     1     -32.773  15.063  -3.826  1.00 20.00     0.053 C 
HETATM    6  C6  UNL     1     -34.009  15.853  -4.246  1.00 20.00     0.148 C 
HETATM    7  N9  UNL     1     -33.397  18.094  -5.469  1.00 20.00    -0.194 NA
ENDROOT
BRANCH   6   8
HETATM    8  O10 UNL     1     -34.795  16.130  -3.089  1.00 20.00    -0.366 OA
BRANCH   8   9
HETATM    9  C8  UNL     1     -34.074  16.903  -2.139  1.00 20.00     0.165 C 
HETATM   10  C7  UNL     1     -34.640  16.641  -0.759  1.00 20.00     0.033 C 
ENDBRANCH   8   9
ENDBRANCH   6   8
TORSDOF 2
ENDMDL
MODEL 3
REMARK VINA RESULT:      -4.0      1.736      2.332
REMARK  2 active torsions:
REMARK  status: ('A' for Active; 'I' for Inactive)
REMARK    1  A    between atoms: C6_6  and  O10_10 
REMARK    2  A    between atoms: C8_8  and  O10_10 
ROOT
HETATM    1  C1  UNL     1     -34.737  13.756  -4.402  1.00 20.00     0.098 C 
HETATM    2  C2  UNL     1     -35.149  16.598  -2.029  1.00 20.00     0.004 C 
HETATM    3  C3  UNL     1     -33.647  16.640  -2.314  1.00 20.00     0.004 C 
HETATM    4  C4  UNL     1     -35.679  15.354  -2.740  1.00 20.00     0.053 C 
HETATM    5  C5  UNL     1     -33.350  15.451  -3.226  1.00 20.00     0.053 C 
HETATM    6  C6  UNL     1     -34.690  15.123  -3.879  1.00 20.00     0.148 C 
HETATM    7  N9  UNL     1     -34.774  12.673  -4.817  1.00 20.00    -0.194 NA
ENDROOT
BRANCH   6   8
HETATM    8  O10 UNL     1     -34.931  16.055  -4.931  1.00 20.00    -0.366 OA
BRANCH   8   9
HETATM    9  C8  UNL     1     -33.895  16.025  -5.905  1.00 20.00     0.165 C 
HETATM   10  C7  UNL     1     -34.517  15.990  -7.285  1.00 20.00     0.033 C 
ENDBRANCH   8   9
ENDBRANCH   6   8
TORSDOF 2
ENDMDL
MODEL 4
REMARK VINA RESULT:      -3.9      1.749      3.262
REMARK  2 active torsions:
REMARK  status: ('A' for Active; 'I' for Inactive)
REMARK    1  A    between atoms: C6_6  and  O10_10 
REMARK    2  A    between atoms: C8_8  and  O10_10 
ROOT
HETATM    1  C1  UNL     1     -36.585  14.880  -3.695  1.00 20.00     0.098 C 
HETATM    2  C2  UNL     1     -32.892  15.313  -3.926  1.00 20.00     0.004 C 
HETATM    3  C3  UNL     1     -33.388  16.233  -5.042  1.00 20.00     0.004 C 
HETATM    4  C4  UNL     1     -34.129  14.597  -3.388  1.00 20.00     0.053 C 
HETATM    5  C5  UNL     1     -34.907  16.068  -5.091  1.00 20.00     0.053 C 
HETATM    6  C6  UNL     1     -35.281  15.547  -3.707  1.00 20.00     0.148 C 
HETATM    7  N9  UNL     1     -37.618  14.352  -3.685  1.00 20.00    -0.194 NA
ENDROOT
BRANCH   6   8
HETATM    8  O10 UNL     1     -35.284  16.637  -2.788  1.00 20.00    -0.366 OA
BRANCH   8   9
HETATM    9  C8  UNL     1     -34.881  16.228  -1.488  1.00 20.00     0.165 C 
HETATM   10  C7  UNL     1     -34.015  17.310  -0.877  1.00 20.00     0.033 C 
ENDBRANCH   8   9
ENDBRANCH   6   8
TORSDOF 2
ENDMDL
MODEL 5
REMARK VINA RESULT:      -3.9      2.150      3.759
REMARK  2 active torsions:
REMARK  status: ('A' for Active; 'I' for Inactive)
REMARK    1  A    between atoms: C6_6  and  O10_10 
REMARK    2  A    between atoms: C8_8  and  O10_10 
ROOT
HETATM    1  C1  UNL     1     -34.733  13.823  -4.848  1.00 20.00     0.098 C 
HETATM    2  C2  UNL     1     -34.454  17.171  -6.458  1.00 20.00     0.004 C 
HETATM    3  C3  UNL     1     -35.747  17.315  -5.655  1.00 20.00     0.004 C 
HETATM    4  C4  UNL     1     -34.019  15.716  -6.302  1.00 20.00     0.053 C 
HETATM    5  C5  UNL     1     -36.005  15.953  -5.010  1.00 20.00     0.053 C 
HETATM    6  C6  UNL     1     -34.636  15.279  -4.976  1.00 20.00     0.148 C 
HETATM    7  N9  UNL     1     -34.810  12.670  -4.746  1.00 20.00    -0.194 NA
ENDROOT
BRANCH   6   8
HETATM    8  O10 UNL     1     -33.884  15.814  -3.889  1.00 20.00    -0.366 OA
BRANCH   8   9
HETATM    9  C8  UNL     1     -34.516  15.561  -2.641  1.00 20.00     0.165 C 
HETATM   10  C7  UNL     1     -34.149  16.663  -1.670  1.00 20.00     0.033 C 
ENDBRANCH   8   9
ENDBRANCH   6   8
TORSDOF 2
ENDMDL
MODEL 6
REMARK VINA RESULT:      -3.9      1.916      2.910
REMARK  2 active torsions:
REMARK  status: ('A' for Active; 'I' for Inactive)
REMARK    1  A    between atoms: C6_6  and  O10_10 
REMARK    2  A    between atoms: C8_8  and  O10_10 
ROOT
HETATM    1  C1  UNL     1     -34.778  13.739  -4.554  1.00 20.00     0.098 C 
HETATM    2  C2  UNL     1     -33.798  17.051  -3.156  1.00 20.00     0.004 C 
HETATM    3  C3  UNL     1     -33.574  17.263  -4.654  1.00 20.00     0.004 C 
HETATM    4  C4  UNL     1     -34.170  15.580  -2.988  1.00 20.00     0.053 C 
HETATM    5  C5  UNL     1     -33.872  15.922  -5.325  1.00 20.00     0.053 C 
HETATM    6  C6  UNL     1     -34.771  15.188  -4.335  1.00 20.00     0.148 C 
HETATM    7  N9  UNL     1     -34.783  12.593  -4.727  1.00 20.00    -0.194 NA
ENDROOT
BRANCH   6   8
HETATM    8  O10 UNL     1     -36.097  15.702  -4.446  1.00 20.00    -0.366 OA
BRANCH   8   9
HETATM    9  C8  UNL     1     -36.942  15.197  -3.421  1.00 20.00     0.165 C 
HETATM   10  C7  UNL     1     -38.270  14.798  -4.030  1.00 20.00     0.033 C 
ENDBRANCH   8   9
ENDBRANCH   6   8
TORSDOF 2
ENDMDL
MODEL 7
REMARK VINA RESULT:      -3.8     11.315     12.557
REMARK  2 active torsions:
REMARK  status: ('A' for Active; 'I' for Inactive)
REMARK    1  A    between atoms: C6_6  and  O10_10 
REMARK    2  A    between atoms: C8_8  and  O10_10 
ROOT
HETATM    1  C1  UNL     1     -41.763   3.715  -2.429  1.00 20.00     0.098 C 
HETATM    2  C2  UNL     1     -41.110   7.000  -0.796  1.00 20.00     0.004 C 
HETATM    3  C3  UNL     1     -42.030   7.399  -1.950  1.00 20.00     0.004 C 
HETATM    4  C4  UNL     1     -40.825   5.511  -0.978  1.00 20.00     0.053 C 
HETATM    5  C5  UNL     1     -42.298   6.122  -2.746  1.00 20.00     0.053 C 
HETATM    6  C6  UNL     1     -42.029   4.990  -1.758  1.00 20.00     0.148 C 
HETATM    7  N9  UNL     1     -41.552   2.706  -2.960  1.00 20.00    -0.194 NA
ENDROOT
BRANCH   6   8
HETATM    8  O10 UNL     1     -43.152   4.858  -0.890  1.00 20.00    -0.366 OA
BRANCH   8   9
HETATM    9  C8  UNL     1     -42.787   4.277   0.355  1.00 20.00     0.165 C 
HETATM   10  C7  UNL     1     -43.417   5.077   1.475  1.00 20.00     0.033 C 
ENDBRANCH   8   9
ENDBRANCH   6   8
TORSDOF 2
ENDMDL
MODEL 8
REMARK VINA RESULT:      -3.8      2.381      3.146
REMARK  2 active torsions:
REMARK  status: ('A' for Active; 'I' for Inactive)
REMARK    1  A    between atoms: C6_6  and  O10_10 
REMARK    2  A    between atoms: C8_8  and  O10_10 
ROOT
HETATM    1  C1  UNL     1     -34.503  15.956  -2.123  1.00 20.00     0.098 C 
HETATM    2  C2  UNL     1     -34.442  13.429  -4.860  1.00 20.00     0.004 C 
HETATM    3  C3  UNL     1     -35.545  14.377  -5.331  1.00 20.00     0.004 C 
HETATM    4  C4  UNL     1     -34.031  13.915  -3.472  1.00 20.00     0.053 C 
HETATM    5  C5  UNL     1     -35.713  15.422  -4.227  1.00 20.00     0.053 C 
HETATM    6  C6  UNL     1     -34.387  15.400  -3.473  1.00 20.00     0.148 C 
HETATM    7  N9  UNL     1     -34.595  16.397  -1.054  1.00 20.00    -0.194 NA
ENDROOT
BRANCH   6   8
HETATM    8  O10 UNL     1     -33.419  16.133  -4.220  1.00 20.00    -0.366 OA
BRANCH   8   9
HETATM    9  C8  UNL     1     -33.756  17.512  -4.302  1.00 20.00     0.165 C 
HETATM   10  C7  UNL     1     -33.591  17.975  -5.734  1.00 20.00     0.033 C 
ENDBRANCH   8   9
ENDBRANCH   6   8
TORSDOF 2
ENDMDL
MODEL 9
REMARK VINA RESULT:      -3.8      2.195      3.377
REMARK  2 active torsions:
REMARK  status: ('A' for Active; 'I' for Inactive)
REMARK    1  A    between atoms: C6_6  and  O10_10 
REMARK    2  A    between atoms: C8_8  and  O10_10 
ROOT
HETATM    1  C1  UNL     1     -33.686  13.986  -4.146  1.00 20.00     0.098 C 
HETATM    2  C2  UNL     1     -33.965  17.133  -6.120  1.00 20.00     0.004 C 
HETATM    3  C3  UNL     1     -34.707  16.136  -7.010  1.00 20.00     0.004 C 
HETATM    4  C4  UNL     1     -33.383  16.319  -4.967  1.00 20.00     0.053 C 
HETATM    5  C5  UNL     1     -34.582  14.775  -6.326  1.00 20.00     0.053 C 
HETATM    6  C6  UNL     1     -34.302  15.105  -4.862  1.00 20.00     0.148 C 
HETATM    7  N9  UNL     1     -33.198  13.100  -3.578  1.00 20.00    -0.194 NA
ENDROOT
BRANCH   6   8
HETATM    8  O10 UNL     1     -35.526  15.472  -4.230  1.00 20.00    -0.366 OA
BRANCH   8   9
HETATM    9  C8  UNL     1     -36.410  14.365  -4.118  1.00 20.00     0.165 C 
HETATM   10  C7  UNL     1     -37.835  14.875  -4.068  1.00 20.00     0.033 C 
ENDBRANCH   8   9
ENDBRANCH   6   8
TORSDOF 2
ENDMDL
