MODEL 1
REMARK VINA RESULT:      -4.5      0.000      0.000
REMARK  3 active torsions:
REMARK  status: ('A' for Active; 'I' for Inactive)
REMARK    1  A    between atoms: C5_5  and  C8_8 
REMARK    2  A    between atoms: C5_5  and  C9_9 
REMARK    3  A    between atoms: C8_8  and  C10_10 
ROOT
HETATM    1  C1  UNL     1     -33.718  13.650  -4.057  1.00 20.00     0.001 C 
HETATM    2  C2  UNL     1     -35.193  13.357  -4.332  1.00 20.00     0.001 C 
HETATM    3  C3  UNL     1     -33.685  14.954  -3.262  1.00 20.00     0.010 C 
HETATM    4  C4  UNL     1     -35.981  14.496  -3.690  1.00 20.00     0.010 C 
HETATM    5  C5  UNL     1     -34.996  15.670  -3.615  1.00 20.00    -0.028 C 
ENDROOT
BRANCH   5   6
HETATM    6  C8  UNL     1     -35.398  16.675  -2.534  1.00 20.00     0.014 C 
BRANCH   6   7
HETATM    7  C10 UNL     1     -34.252  17.025  -1.573  1.00 20.00    -0.022 C 
HETATM    8  C6  UNL     1     -33.620  18.381  -1.884  1.00 20.00     0.009 C 
HETATM    9  C7  UNL     1     -34.770  17.013  -0.132  1.00 20.00     0.009 C 
ENDBRANCH   6   7
ENDBRANCH   5   6
BRANCH   5  10
HETATM   10  C9  UNL     1     -34.889  16.396  -4.966  1.00 20.00     0.124 C 
HETATM   11 CL11 UNL     1     -33.230  16.952  -5.220  1.00 20.00    -0.130 Cl
ENDBRANCH   5  10
TORSDOF 3
ENDMDL
MODEL 2
REMARK VINA RESULT:      -4.2      1.757      4.117
REMARK  3 active torsions:
REMARK  status: ('A' for Active; 'I' for Inactive)
REMARK    1  A    between atoms: C5_5  and  C8_8 
REMARK    2  A    between atoms: C5_5  and  C9_9 
REMARK    3  A    between atoms: C8_8  and  C10_10 
ROOT
HETATM    1  C1  UNL     1     -33.751  17.631  -1.743  1.00 20.00     0.001 C 
HETATM    2  C2  UNL     1     -34.529  16.419  -1.230  1.00 20.00     0.001 C 
HETATM    3  C3  UNL     1     -33.954  17.657  -3.256  1.00 20.00     0.010 C 
HETATM    4  C4  UNL     1     -35.167  15.771  -2.457  1.00 20.00     0.010 C 
HETATM    5  C5  UNL     1     -34.292  16.209  -3.639  1.00 20.00    -0.028 C 
ENDROOT
BRANCH   5   6
HETATM    6  C8  UNL     1     -35.056  16.139  -4.962  1.00 20.00     0.014 C 
BRANCH   6   7
HETATM    7  C10 UNL     1     -34.143  16.193  -6.196  1.00 20.00    -0.022 C 
HETATM    8  C6  UNL     1     -34.392  15.033  -7.160  1.00 20.00     0.009 C 
HETATM    9  C7  UNL     1     -34.344  17.524  -6.924  1.00 20.00     0.009 C 
ENDBRANCH   6   7
ENDBRANCH   5   6
BRANCH   5  10
HETATM   10  C9  UNL     1     -33.022  15.348  -3.742  1.00 20.00     0.124 C 
HETATM   11 CL11 UNL     1     -33.459  13.635  -3.761  1.00 20.00    -0.130 Cl
ENDBRANCH   5  10
TORSDOF 3
ENDMDL
MODEL 3
REMARK VINA RESULT:      -4.2     12.245     14.423
REMARK  3 active torsions:
REMARK  status: ('A' for Active; 'I' for Inactive)
REMARK    1  A    between atoms: C5_5  and  C8_8 
REMARK    2  A    between atoms: C5_5  and  C9_9 
REMARK    3  A    between atoms: C8_8  and  C10_10 
ROOT
HETATM    1  C1  UNL     1     -40.514   5.952  -0.388  1.00 20.00     0.001 C 
HETATM    2  C2  UNL     1     -41.174   7.096  -1.158  1.00 20.00     0.001 C 
HETATM    3  C3  UNL     1     -40.903   4.668  -1.117  1.00 20.00     0.010 C 
HETATM    4  C4  UNL     1     -41.929   6.448  -2.316  1.00 20.00     0.010 C 
HETATM    5  C5  UNL     1     -42.202   5.009  -1.861  1.00 20.00    -0.028 C 
ENDROOT
BRANCH   5   6
HETATM    6  C8  UNL     1     -42.432   4.075  -3.050  1.00 20.00     0.014 C 
BRANCH   6   7
HETATM    7  C10 UNL     1     -42.104   2.606  -2.742  1.00 20.00    -0.022 C 
HETATM    8  C6  UNL     1     -43.358   1.739  -2.625  1.00 20.00     0.009 C 
HETATM    9  C7  UNL     1     -41.187   2.047  -3.833  1.00 20.00     0.009 C 
ENDBRANCH   6   7
ENDBRANCH   5   6
BRANCH   5  10
HETATM   10  C9  UNL     1     -43.417   4.942  -0.922  1.00 20.00     0.124 C 
HETATM   11 CL11 UNL     1     -43.069   3.863   0.435  1.00 20.00    -0.130 Cl
ENDBRANCH   5  10
TORSDOF 3
ENDMDL
MODEL 4
REMARK VINA RESULT:      -4.1      1.450      2.083
REMARK  3 active torsions:
REMARK  status: ('A' for Active; 'I' for Inactive)
REMARK    1  A    between atoms: C5_5  and  C8_8 
REMARK    2  A    between atoms: C5_5  and  C9_9 
REMARK    3  A    between atoms: C8_8  and  C10_10 
ROOT
HETATM    1  C1  UNL     1     -34.650  14.490  -5.896  1.00 20.00     0.001 C 
HETATM    2  C2  UNL     1     -34.670  13.245  -5.008  1.00 20.00     0.001 C 
HETATM    3  C3  UNL     1     -34.254  15.653  -4.989  1.00 20.00     0.010 C 
HETATM    4  C4  UNL     1     -34.282  13.715  -3.608  1.00 20.00     0.010 C 
HETATM    5  C5  UNL     1     -34.644  15.206  -3.573  1.00 20.00    -0.028 C 
ENDROOT
BRANCH   5   6
HETATM    6  C8  UNL     1     -33.843  15.954  -2.505  1.00 20.00     0.014 C 
BRANCH   6   7
HETATM    7  C10 UNL     1     -34.630  17.098  -1.847  1.00 20.00    -0.022 C 
HETATM    8  C6  UNL     1     -34.666  16.982  -0.323  1.00 20.00     0.009 C 
HETATM    9  C7  UNL     1     -34.015  18.441  -2.250  1.00 20.00     0.009 C 
ENDBRANCH   6   7
ENDBRANCH   5   6
BRANCH   5  10
HETATM   10  C9  UNL     1     -36.146  15.410  -3.316  1.00 20.00     0.124 C 
HETATM   11 CL11 UNL     1     -36.784  16.627  -4.429  1.00 20.00    -0.130 Cl
ENDBRANCH   5  10
TORSDOF 3
ENDMDL
MODEL 5
REMARK VINA RESULT:      -4.1      1.847      2.889
REMARK  3 active torsions:
REMARK  status: ('A' for Active; 'I' for Inactive)
REMARK    1  A    between atoms: C5_5  and  C8_8 
REMARK    2  A    between atoms: C5_5  and  C9_9 
REMARK    3  A    between atoms: C8_8  and  C10_10 
ROOT
HETATM    1  C1  UNL     1     -35.406  14.934  -7.192  1.00 20.00     0.001 C 
HETATM    2  C2  UNL     1     -34.109  15.628  -6.773  1.00 20.00     0.001 C 
HETATM    3  C3  UNL     1     -36.219  14.746  -5.913  1.00 20.00     0.010 C 
HETATM    4  C4  UNL     1     -34.202  15.828  -5.262  1.00 20.00     0.010 C 
HETATM    5  C5  UNL     1     -35.186  14.755  -4.777  1.00 20.00    -0.028 C 
ENDROOT
BRANCH   5   6
HETATM    6  C8  UNL     1     -35.823  15.137  -3.440  1.00 20.00     0.014 C 
BRANCH   6   7
HETATM    7  C10 UNL     1     -35.335  16.489  -2.898  1.00 20.00    -0.022 C 
HETATM    8  C6  UNL     1     -36.465  17.511  -2.770  1.00 20.00     0.009 C 
HETATM    9  C7  UNL     1     -34.664  16.284  -1.538  1.00 20.00     0.009 C 
ENDBRANCH   6   7
ENDBRANCH   5   6
BRANCH   5  10
HETATM   10  C9  UNL     1     -34.497  13.388  -4.638  1.00 20.00     0.124 C 
HETATM   11 CL11 UNL     1     -33.029  13.552  -3.666  1.00 20.00    -0.130 Cl
ENDBRANCH   5  10
TORSDOF 3
ENDMDL
MODEL 6
REMARK VINA RESULT:      -4.0      1.848      3.400
REMARK  3 active torsions:
REMARK  status: ('A' for Active; 'I' for Inactive)
REMARK    1  A    between atoms: C5_5  and  C8_8 
REMARK    2  A    between atoms: C5_5  and  C9_9 
REMARK    3  A    between atoms: C8_8  and  C10_10 
ROOT
HETATM    1  C1  UNL     1     -34.824  13.295  -4.166  1.00 20.00     0.001 C 
HETATM    2  C2  UNL     1     -33.422  13.768  -3.782  1.00 20.00     0.001 C 
HETATM    3  C3  UNL     1     -35.580  14.538  -4.630  1.00 20.00     0.010 C 
HETATM    4  C4  UNL     1     -33.396  15.274  -4.035  1.00 20.00     0.010 C 
HETATM    5  C5  UNL     1     -34.864  15.717  -3.956  1.00 20.00    -0.028 C 
ENDROOT
BRANCH   5   6
HETATM    6  C8  UNL     1     -35.099  17.026  -4.711  1.00 20.00     0.014 C 
BRANCH   6   7
HETATM    7  C10 UNL     1     -34.021  17.322  -5.765  1.00 20.00    -0.022 C 
HETATM    8  C6  UNL     1     -34.505  17.052  -7.190  1.00 20.00     0.009 C 
HETATM    9  C7  UNL     1     -33.568  18.779  -5.639  1.00 20.00     0.009 C 
ENDBRANCH   6   7
ENDBRANCH   5   6
BRANCH   5  10
HETATM   10  C9  UNL     1     -35.317  15.885  -2.497  1.00 20.00     0.124 C 
HETATM   11 CL11 UNL     1     -34.031  16.647  -1.552  1.00 20.00    -0.130 Cl
ENDBRANCH   5  10
TORSDOF 3
ENDMDL
MODEL 7
REMARK VINA RESULT:      -4.0      1.768      2.844
REMARK  3 active torsions:
REMARK  status: ('A' for Active; 'I' for Inactive)
REMARK    1  A    between atoms: C5_5  and  C8_8 
REMARK    2  A    between atoms: C5_5  and  C9_9 
REMARK    3  A    between atoms: C8_8  and  C10_10 
ROOT
HETATM    1  C1  UNL     1     -34.848  17.656  -4.963  1.00 20.00     0.001 C 
HETATM    2  C2  UNL     1     -33.620  16.758  -5.117  1.00 20.00     0.001 C 
HETATM    3  C3  UNL     1     -35.261  17.565  -3.496  1.00 20.00     0.010 C 
HETATM    4  C4  UNL     1     -33.350  16.167  -3.735  1.00 20.00     0.010 C 
HETATM    5  C5  UNL     1     -34.699  16.223  -3.005  1.00 20.00    -0.028 C 
ENDROOT
BRANCH   5   6
HETATM    6  C8  UNL     1     -34.519  16.209  -1.486  1.00 20.00     0.014 C 
BRANCH   6   7
HETATM    7  C10 UNL     1     -34.574  17.608  -0.855  1.00 20.00    -0.022 C 
HETATM    8  C6  UNL     1     -35.360  17.629   0.457  1.00 20.00     0.009 C 
HETATM    9  C7  UNL     1     -33.151  18.118  -0.613  1.00 20.00     0.009 C 
ENDBRANCH   6   7
ENDBRANCH   5   6
BRANCH   5  10
HETATM   10  C9  UNL     1     -35.605  15.053  -3.419  1.00 20.00     0.124 C 
HETATM   11 CL11 UNL     1     -34.626  13.609  -3.710  1.00 20.00    -0.130 Cl
ENDBRANCH   5  10
TORSDOF 3
ENDMDL
MODEL 8
REMARK VINA RESULT:      -4.0      2.205      3.251
REMARK  3 active torsions:
REMARK  status: ('A' for Active; 'I' for Inactive)
REMARK    1  A    between atoms: C5_5  and  C8_8 
REMARK    2  A    between atoms: C5_5  and  C9_9 
REMARK    3  A    between atoms: C8_8  and  C10_10 
ROOT
HETATM    1  C1  UNL     1     -36.584  15.059  -6.734  1.00 20.00     0.001 C 
HETATM    2  C2  UNL     1     -35.450  14.694  -7.691  1.00 20.00     0.001 C 
HETATM    3  C3  UNL     1     -35.919  15.638  -5.487  1.00 20.00     0.010 C 
HETATM    4  C4  UNL     1     -34.153  15.071  -6.978  1.00 20.00     0.010 C 
HETATM    5  C5  UNL     1     -34.500  15.053  -5.483  1.00 20.00    -0.028 C 
ENDROOT
BRANCH   5   6
HETATM    6  C8  UNL     1     -33.535  15.919  -4.670  1.00 20.00     0.014 C 
BRANCH   6   7
HETATM    7  C10 UNL     1     -34.247  16.892  -3.719  1.00 20.00    -0.022 C 
HETATM    8  C6  UNL     1     -34.076  16.506  -2.250  1.00 20.00     0.009 C 
HETATM    9  C7  UNL     1     -33.717  18.310  -3.947  1.00 20.00     0.009 C 
ENDBRANCH   6   7
ENDBRANCH   5   6
BRANCH   5  10
HETATM   10  C9  UNL     1     -34.487  13.620  -4.925  1.00 20.00     0.124 C 
HETATM   11 CL11 UNL     1     -33.158  13.436  -3.774  1.00 20.00    -0.130 Cl
ENDBRANCH   5  10
TORSDOF 3
ENDMDL
MODEL 9
REMARK VINA RESULT:      -3.9      1.542      4.062
REMARK  3 active torsions:
REMARK  status: ('A' for Active; 'I' for Inactive)
REMARK    1  A    between atoms: C5_5  and  C8_8 
REMARK    2  A    between atoms: C5_5  and  C9_9 
REMARK    3  A    between atoms: C8_8  and  C10_10 
ROOT
HETATM    1  C1  UNL     1     -33.987  17.764  -0.684  1.00 20.00     0.001 C 
HETATM    2  C2  UNL     1     -33.522  18.385  -2.002  1.00 20.00     0.001 C 
HETATM    3  C3  UNL     1     -34.608  16.417  -1.045  1.00 20.00     0.010 C 
HETATM    4  C4  UNL     1     -33.883  17.383  -3.096  1.00 20.00     0.010 C 
HETATM    5  C5  UNL     1     -35.036  16.554  -2.513  1.00 20.00    -0.028 C 
ENDROOT
BRANCH   5   6
HETATM    6  C8  UNL     1     -35.152  15.191  -3.197  1.00 20.00     0.014 C 
BRANCH   6   7
HETATM    7  C10 UNL     1     -33.983  14.885  -4.144  1.00 20.00    -0.022 C 
HETATM    8  C6  UNL     1     -33.145  13.694  -3.675  1.00 20.00     0.009 C 
HETATM    9  C7  UNL     1     -34.521  14.616  -5.552  1.00 20.00     0.009 C 
ENDBRANCH   6   7
ENDBRANCH   5   6
BRANCH   5  10
HETATM   10  C9  UNL     1     -36.376  17.299  -2.637  1.00 20.00     0.124 C 
HETATM   11 CL11 UNL     1     -36.766  17.551  -4.343  1.00 20.00    -0.130 Cl
ENDBRANCH   5  10
TORSDOF 3
ENDMDL
