MODEL 1
REMARK VINA RESULT:      -5.1      0.000      0.000
REMARK  5 active torsions:
REMARK  status: ('A' for Active; 'I' for Inactive)
REMARK    1  A    between atoms: C2_2  and  C5_5 
REMARK    2  A    between atoms: C2_2  and  C6_6 
REMARK    3  A    between atoms: C6_6  and  C7_7 
REMARK    4  A    between atoms: C7_7  and  C9_9 
REMARK    5  A    between atoms: C8_8  and  C9_9 
ROOT
HETATM    1  C6  UNL     1     -34.239   6.324   4.143  1.00 20.00     0.033 C 
ENDROOT
BRANCH   1   2
HETATM    2  C2  UNL     1     -34.119   6.092   5.639  1.00 20.00    -0.090 C 
HETATM    3  C1  UNL     1     -33.677   7.006   6.520  1.00 20.00     0.014 C 
BRANCH   2   4
HETATM    4  C5  UNL     1     -34.510   4.710   6.120  1.00 20.00     0.029 C 
HETATM    5  C3  UNL     1     -35.144   3.862   5.026  1.00 20.00     0.010 C 
ENDBRANCH   2   4
ENDBRANCH   1   2
BRANCH   1   6
HETATM    6  C7  UNL     1     -32.938   6.278   3.325  1.00 20.00     0.009 C 
BRANCH   6   7
HETATM    7  C9  UNL     1     -32.256   7.657   3.191  1.00 20.00    -0.004 C 
HETATM    8  C4  UNL     1     -30.999   7.773   4.057  1.00 20.00     0.011 C 
BRANCH   7   9
HETATM    9  C8  UNL     1     -31.958   8.000   1.720  1.00 20.00     0.119 C 
HETATM   10 CL10 UNL     1     -32.384   9.670   1.273  1.00 20.00    -0.130 Cl
ENDBRANCH   7   9
ENDBRANCH   6   7
ENDBRANCH   1   6
TORSDOF 5
ENDMDL
MODEL 2
REMARK VINA RESULT:      -5.1      0.516      1.762
REMARK  5 active torsions:
REMARK  status: ('A' for Active; 'I' for Inactive)
REMARK    1  A    between atoms: C2_2  and  C5_5 
REMARK    2  A    between atoms: C2_2  and  C6_6 
REMARK    3  A    between atoms: C6_6  and  C7_7 
REMARK    4  A    between atoms: C7_7  and  C9_9 
REMARK    5  A    between atoms: C8_8  and  C9_9 
ROOT
HETATM    1  C6  UNL     1     -34.391   6.236   3.934  1.00 20.00     0.033 C 
ENDROOT
BRANCH   1   2
HETATM    2  C2  UNL     1     -34.616   5.193   5.015  1.00 20.00    -0.090 C 
HETATM    3  C1  UNL     1     -34.928   3.907   4.781  1.00 20.00     0.014 C 
BRANCH   2   4
HETATM    4  C5  UNL     1     -34.496   5.692   6.440  1.00 20.00     0.029 C 
HETATM    5  C3  UNL     1     -33.721   6.999   6.544  1.00 20.00     0.010 C 
ENDBRANCH   2   4
ENDBRANCH   1   2
BRANCH   1   6
HETATM    6  C7  UNL     1     -33.040   6.200   3.202  1.00 20.00     0.009 C 
BRANCH   6   7
HETATM    7  C9  UNL     1     -32.348   7.580   3.134  1.00 20.00    -0.004 C 
HETATM    8  C4  UNL     1     -31.099   7.650   4.016  1.00 20.00     0.011 C 
BRANCH   7   9
HETATM    9  C8  UNL     1     -32.035   7.985   1.682  1.00 20.00     0.119 C 
HETATM   10 CL10 UNL     1     -32.379   9.695   1.326  1.00 20.00    -0.130 Cl
ENDBRANCH   7   9
ENDBRANCH   6   7
ENDBRANCH   1   6
TORSDOF 5
ENDMDL
MODEL 3
REMARK VINA RESULT:      -4.9      2.444      4.875
REMARK  5 active torsions:
REMARK  status: ('A' for Active; 'I' for Inactive)
REMARK    1  A    between atoms: C2_2  and  C5_5 
REMARK    2  A    between atoms: C2_2  and  C6_6 
REMARK    3  A    between atoms: C6_6  and  C7_7 
REMARK    4  A    between atoms: C7_7  and  C9_9 
REMARK    5  A    between atoms: C8_8  and  C9_9 
ROOT
HETATM    1  C6  UNL     1     -32.929   6.269   3.196  1.00 20.00     0.033 C 
ENDROOT
BRANCH   1   2
HETATM    2  C2  UNL     1     -31.979   7.441   3.015  1.00 20.00    -0.090 C 
HETATM    3  C1  UNL     1     -31.163   7.917   3.970  1.00 20.00     0.014 C 
BRANCH   2   4
HETATM    4  C5  UNL     1     -32.010   8.103   1.653  1.00 20.00     0.029 C 
HETATM    5  C3  UNL     1     -32.477   9.552   1.712  1.00 20.00     0.010 C 
ENDBRANCH   2   4
ENDBRANCH   1   2
BRANCH   1   6
HETATM    6  C7  UNL     1     -34.108   6.473   4.161  1.00 20.00     0.009 C 
BRANCH   6   7
HETATM    7  C9  UNL     1     -33.799   6.017   5.604  1.00 20.00    -0.004 C 
HETATM    8  C4  UNL     1     -33.699   7.193   6.579  1.00 20.00     0.011 C 
BRANCH   7   9
HETATM    9  C8  UNL     1     -34.811   4.965   6.094  1.00 20.00     0.119 C 
HETATM   10 CL10 UNL     1     -35.172   3.704   4.891  1.00 20.00    -0.130 Cl
ENDBRANCH   7   9
ENDBRANCH   6   7
ENDBRANCH   1   6
TORSDOF 5
ENDMDL
MODEL 4
REMARK VINA RESULT:      -4.8      2.094      4.889
REMARK  5 active torsions:
REMARK  status: ('A' for Active; 'I' for Inactive)
REMARK    1  A    between atoms: C2_2  and  C5_5 
REMARK    2  A    between atoms: C2_2  and  C6_6 
REMARK    3  A    between atoms: C6_6  and  C7_7 
REMARK    4  A    between atoms: C7_7  and  C9_9 
REMARK    5  A    between atoms: C8_8  and  C9_9 
ROOT
HETATM    1  C6  UNL     1     -33.211   6.615   3.000  1.00 20.00     0.033 C 
ENDROOT
BRANCH   1   2
HETATM    2  C2  UNL     1     -32.057   7.592   2.863  1.00 20.00    -0.090 C 
HETATM    3  C1  UNL     1     -31.180   7.879   3.841  1.00 20.00     0.014 C 
BRANCH   2   4
HETATM    4  C5  UNL     1     -31.943   8.288   1.522  1.00 20.00     0.029 C 
HETATM    5  C3  UNL     1     -32.478   9.713   1.550  1.00 20.00     0.010 C 
ENDBRANCH   2   4
ENDBRANCH   1   2
BRANCH   1   6
HETATM    6  C7  UNL     1     -33.187   5.675   4.216  1.00 20.00     0.009 C 
BRANCH   6   7
HETATM    7  C9  UNL     1     -34.551   5.576   4.934  1.00 20.00    -0.004 C 
HETATM    8  C4  UNL     1     -35.225   4.217   4.722  1.00 20.00     0.011 C 
BRANCH   7   9
HETATM    9  C8  UNL     1     -34.428   5.915   6.431  1.00 20.00     0.119 C 
HETATM   10 CL10 UNL     1     -33.344   7.285   6.768  1.00 20.00    -0.130 Cl
ENDBRANCH   7   9
ENDBRANCH   6   7
ENDBRANCH   1   6
TORSDOF 5
ENDMDL
MODEL 5
REMARK VINA RESULT:      -4.2      1.273      1.961
REMARK  5 active torsions:
REMARK  status: ('A' for Active; 'I' for Inactive)
REMARK    1  A    between atoms: C2_2  and  C5_5 
REMARK    2  A    between atoms: C2_2  and  C6_6 
REMARK    3  A    between atoms: C6_6  and  C7_7 
REMARK    4  A    between atoms: C7_7  and  C9_9 
REMARK    5  A    between atoms: C8_8  and  C9_9 
ROOT
HETATM    1  C6  UNL     1     -32.418   6.366   3.285  1.00 20.00     0.033 C 
ENDROOT
BRANCH   1   2
HETATM    2  C2  UNL     1     -33.576   6.224   4.257  1.00 20.00    -0.090 C 
HETATM    3  C1  UNL     1     -33.594   6.731   5.502  1.00 20.00     0.014 C 
BRANCH   2   4
HETATM    4  C5  UNL     1     -34.760   5.424   3.753  1.00 20.00     0.029 C 
HETATM    5  C3  UNL     1     -35.271   4.419   4.776  1.00 20.00     0.010 C 
ENDBRANCH   2   4
ENDBRANCH   1   2
BRANCH   1   6
HETATM    6  C7  UNL     1     -31.830   7.775   3.104  1.00 20.00     0.009 C 
BRANCH   6   7
HETATM    7  C9  UNL     1     -32.466   8.553   1.931  1.00 20.00    -0.004 C 
HETATM    8  C4  UNL     1     -32.745  10.016   2.285  1.00 20.00     0.011 C 
BRANCH   7   9
HETATM    9  C8  UNL     1     -31.619   8.436   0.650  1.00 20.00     0.119 C 
HETATM   10 CL10 UNL     1     -32.575   8.513  -0.849  1.00 20.00    -0.130 Cl
ENDBRANCH   7   9
ENDBRANCH   6   7
ENDBRANCH   1   6
TORSDOF 5
ENDMDL
MODEL 6
REMARK VINA RESULT:      -4.0     11.306     12.513
REMARK  5 active torsions:
REMARK  status: ('A' for Active; 'I' for Inactive)
REMARK    1  A    between atoms: C2_2  and  C5_5 
REMARK    2  A    between atoms: C2_2  and  C6_6 
REMARK    3  A    between atoms: C6_6  and  C7_7 
REMARK    4  A    between atoms: C7_7  and  C9_9 
REMARK    5  A    between atoms: C8_8  and  C9_9 
ROOT
HETATM    1  C6  UNL     1     -33.125  15.143  -3.794  1.00 20.00     0.033 C 
ENDROOT
BRANCH   1   2
HETATM    2  C2  UNL     1     -34.044  14.477  -4.803  1.00 20.00    -0.090 C 
HETATM    3  C1  UNL     1     -34.585  13.257  -4.653  1.00 20.00     0.014 C 
BRANCH   2   4
HETATM    4  C5  UNL     1     -34.317  15.273  -6.063  1.00 20.00     0.029 C 
HETATM    5  C3  UNL     1     -35.218  14.533  -7.044  1.00 20.00     0.010 C 
ENDBRANCH   2   4
ENDBRANCH   1   2
BRANCH   1   6
HETATM    6  C7  UNL     1     -33.659  16.401  -3.090  1.00 20.00     0.009 C 
BRANCH   6   7
HETATM    7  C9  UNL     1     -34.883  16.120  -2.189  1.00 20.00    -0.004 C 
HETATM    8  C4  UNL     1     -34.677  16.615  -0.755  1.00 20.00     0.011 C 
BRANCH   7   9
HETATM    9  C8  UNL     1     -36.177  16.688  -2.800  1.00 20.00     0.119 C 
HETATM   10 CL10 UNL     1     -37.245  15.446  -3.498  1.00 20.00    -0.130 Cl
ENDBRANCH   7   9
ENDBRANCH   6   7
ENDBRANCH   1   6
TORSDOF 5
ENDMDL
MODEL 7
REMARK VINA RESULT:      -4.0     11.551     12.552
REMARK  5 active torsions:
REMARK  status: ('A' for Active; 'I' for Inactive)
REMARK    1  A    between atoms: C2_2  and  C5_5 
REMARK    2  A    between atoms: C2_2  and  C6_6 
REMARK    3  A    between atoms: C6_6  and  C7_7 
REMARK    4  A    between atoms: C7_7  and  C9_9 
REMARK    5  A    between atoms: C8_8  and  C9_9 
ROOT
HETATM    1  C6  UNL     1     -35.182  14.061  -3.882  1.00 20.00     0.033 C 
ENDROOT
BRANCH   1   2
HETATM    2  C2  UNL     1     -34.222  15.044  -3.234  1.00 20.00    -0.090 C 
HETATM    3  C1  UNL     1     -32.927  15.176  -3.565  1.00 20.00     0.014 C 
BRANCH   2   4
HETATM    4  C5  UNL     1     -34.807  15.893  -2.124  1.00 20.00     0.029 C 
HETATM    5  C3  UNL     1     -33.830  16.940  -1.606  1.00 20.00     0.010 C 
ENDBRANCH   2   4
ENDBRANCH   1   2
BRANCH   1   6
HETATM    6  C7  UNL     1     -34.776  13.492  -5.251  1.00 20.00     0.009 C 
BRANCH   6   7
HETATM    7  C9  UNL     1     -35.367  14.285  -6.438  1.00 20.00    -0.004 C 
HETATM    8  C4  UNL     1     -36.585  15.121  -6.032  1.00 20.00     0.011 C 
BRANCH   7   9
HETATM    9  C8  UNL     1     -34.298  15.149  -7.131  1.00 20.00     0.119 C 
HETATM   10 CL10 UNL     1     -34.234  16.824  -6.532  1.00 20.00    -0.130 Cl
ENDBRANCH   7   9
ENDBRANCH   6   7
ENDBRANCH   1   6
TORSDOF 5
ENDMDL
MODEL 8
REMARK VINA RESULT:      -4.0     11.071     12.281
REMARK  5 active torsions:
REMARK  status: ('A' for Active; 'I' for Inactive)
REMARK    1  A    between atoms: C2_2  and  C5_5 
REMARK    2  A    between atoms: C2_2  and  C6_6 
REMARK    3  A    between atoms: C6_6  and  C7_7 
REMARK    4  A    between atoms: C7_7  and  C9_9 
REMARK    5  A    between atoms: C8_8  and  C9_9 
ROOT
HETATM    1  C6  UNL     1     -33.296  15.057  -3.646  1.00 20.00     0.033 C 
ENDROOT
BRANCH   1   2
HETATM    2  C2  UNL     1     -33.864  16.331  -3.047  1.00 20.00    -0.090 C 
HETATM    3  C1  UNL     1     -33.794  17.543  -3.624  1.00 20.00     0.014 C 
BRANCH   2   4
HETATM    4  C5  UNL     1     -34.521  16.180  -1.691  1.00 20.00     0.029 C 
HETATM    5  C3  UNL     1     -34.118  17.278  -0.715  1.00 20.00     0.010 C 
ENDBRANCH   2   4
ENDBRANCH   1   2
BRANCH   1   6
HETATM    6  C7  UNL     1     -34.166  13.793  -3.546  1.00 20.00     0.009 C 
BRANCH   6   7
HETATM    7  C9  UNL     1     -35.262  13.722  -4.631  1.00 20.00    -0.004 C 
HETATM    8  C4  UNL     1     -36.585  14.337  -4.166  1.00 20.00     0.011 C 
BRANCH   7   9
HETATM    9  C8  UNL     1     -34.788  14.346  -5.956  1.00 20.00     0.119 C 
HETATM   10 CL10 UNL     1     -35.743  15.759  -6.464  1.00 20.00    -0.130 Cl
ENDBRANCH   7   9
ENDBRANCH   6   7
ENDBRANCH   1   6
TORSDOF 5
ENDMDL
MODEL 9
REMARK VINA RESULT:      -4.0     11.396     12.220
REMARK  5 active torsions:
REMARK  status: ('A' for Active; 'I' for Inactive)
REMARK    1  A    between atoms: C2_2  and  C5_5 
REMARK    2  A    between atoms: C2_2  and  C6_6 
REMARK    3  A    between atoms: C6_6  and  C7_7 
REMARK    4  A    between atoms: C7_7  and  C9_9 
REMARK    5  A    between atoms: C8_8  and  C9_9 
ROOT
HETATM    1  C6  UNL     1     -34.731  16.307  -1.541  1.00 20.00     0.033 C 
ENDROOT
BRANCH   1   2
HETATM    2  C2  UNL     1     -34.400  17.280  -0.423  1.00 20.00    -0.090 C 
HETATM    3  C1  UNL     1     -35.120  17.421   0.704  1.00 20.00     0.014 C 
BRANCH   2   4
HETATM    4  C5  UNL     1     -33.182  18.151  -0.652  1.00 20.00     0.029 C 
HETATM    5  C3  UNL     1     -32.690  18.824   0.622  1.00 20.00     0.010 C 
ENDBRANCH   2   4
ENDBRANCH   1   2
BRANCH   1   6
HETATM    6  C7  UNL     1     -33.658  16.097  -2.621  1.00 20.00     0.009 C 
BRANCH   6   7
HETATM    7  C9  UNL     1     -34.209  16.228  -4.058  1.00 20.00    -0.004 C 
HETATM    8  C4  UNL     1     -33.535  17.358  -4.841  1.00 20.00     0.011 C 
BRANCH   7   9
HETATM    9  C8  UNL     1     -34.130  14.892  -4.819  1.00 20.00     0.119 C 
HETATM   10 CL10 UNL     1     -33.428  13.564  -3.862  1.00 20.00    -0.130 Cl
ENDBRANCH   7   9
ENDBRANCH   6   7
ENDBRANCH   1   6
TORSDOF 5
ENDMDL
