MODEL 1
REMARK VINA RESULT:      -4.4      0.000      0.000
REMARK  5 active torsions:
REMARK  status: ('A' for Active; 'I' for Inactive)
REMARK    1  A    between atoms: C5_5  and  C6_6 
REMARK    2  A    between atoms: C6_6  and  C9_9 
REMARK    3  A    between atoms: C7_7  and  O11_11 
REMARK    4  A    between atoms: C8_8  and  C9_9 
REMARK    5  A    between atoms: C8_8  and  O11_11 
ROOT
HETATM    1  C1  UNL     1     -36.906  14.530  -4.048  1.00 20.00     0.091 C 
HETATM    2  C8  UNL     1     -35.515  14.735  -4.477  1.00 20.00     0.231 C 
HETATM    3  N10 UNL     1     -38.004  14.364  -3.710  1.00 20.00    -0.195 NA
ENDROOT
BRANCH   2   4
HETATM    4  C9  UNL     1     -34.496  14.597  -3.323  1.00 20.00     0.024 C 
HETATM    5  C4  UNL     1     -33.284  13.733  -3.710  1.00 20.00     0.014 C 
BRANCH   4   6
HETATM    6  C6  UNL     1     -34.006  15.948  -2.758  1.00 20.00     0.007 C 
BRANCH   6   7
HETATM    7  C5  UNL     1     -34.673  16.342  -1.438  1.00 20.00    -0.004 C 
HETATM    8  C2  UNL     1     -33.896  17.442  -0.732  1.00 20.00     0.005 C 
ENDBRANCH   6   7
ENDBRANCH   4   6
ENDBRANCH   2   4
BRANCH   2   9
HETATM    9  O11 UNL     1     -35.378  16.036  -5.052  1.00 20.00    -0.372 OA
BRANCH   9  10
HETATM   10  C7  UNL     1     -35.505  15.989  -6.465  1.00 20.00     0.165 C 
HETATM   11  C3  UNL     1     -34.430  15.082  -7.026  1.00 20.00     0.033 C 
ENDBRANCH   9  10
ENDBRANCH   2   9
TORSDOF 5
ENDMDL
MODEL 2
REMARK VINA RESULT:      -4.2      2.103      2.448
REMARK  5 active torsions:
REMARK  status: ('A' for Active; 'I' for Inactive)
REMARK    1  A    between atoms: C5_5  and  C6_6 
REMARK    2  A    between atoms: C6_6  and  C9_9 
REMARK    3  A    between atoms: C7_7  and  O11_11 
REMARK    4  A    between atoms: C8_8  and  C9_9 
REMARK    5  A    between atoms: C8_8  and  O11_11 
ROOT
HETATM    1  C1  UNL     1     -35.211  13.588  -4.368  1.00 20.00     0.091 C 
HETATM    2  C8  UNL     1     -35.633  14.875  -3.795  1.00 20.00     0.231 C 
HETATM    3  N10 UNL     1     -34.877  12.574  -4.823  1.00 20.00    -0.195 NA
ENDROOT
BRANCH   2   4
HETATM    4  C9  UNL     1     -34.636  15.434  -2.754  1.00 20.00     0.024 C 
HETATM    5  C4  UNL     1     -33.255  15.730  -3.363  1.00 20.00     0.014 C 
BRANCH   4   6
HETATM    6  C6  UNL     1     -35.148  16.684  -2.007  1.00 20.00     0.007 C 
BRANCH   6   7
HETATM    7  C5  UNL     1     -34.662  16.779  -0.559  1.00 20.00    -0.004 C 
HETATM    8  C2  UNL     1     -33.684  17.930  -0.377  1.00 20.00     0.005 C 
ENDBRANCH   6   7
ENDBRANCH   4   6
ENDBRANCH   2   4
BRANCH   2   9
HETATM    9  O11 UNL     1     -36.908  14.726  -3.169  1.00 20.00    -0.372 OA
BRANCH   9  10
HETATM   10  C7  UNL     1     -37.959  14.789  -4.120  1.00 20.00     0.165 C 
HETATM   11  C3  UNL     1     -37.892  16.120  -4.840  1.00 20.00     0.033 C 
ENDBRANCH   9  10
ENDBRANCH   2   9
TORSDOF 5
ENDMDL
MODEL 3
REMARK VINA RESULT:      -4.1      1.921      2.440
REMARK  5 active torsions:
REMARK  status: ('A' for Active; 'I' for Inactive)
REMARK    1  A    between atoms: C5_5  and  C6_6 
REMARK    2  A    between atoms: C6_6  and  C9_9 
REMARK    3  A    between atoms: C7_7  and  O11_11 
REMARK    4  A    between atoms: C8_8  and  C9_9 
REMARK    5  A    between atoms: C8_8  and  O11_11 
ROOT
HETATM    1  C1  UNL     1     -33.839  13.969  -3.959  1.00 20.00     0.091 C 
HETATM    2  C8  UNL     1     -33.226  15.252  -3.586  1.00 20.00     0.231 C 
HETATM    3  N10 UNL     1     -34.323  12.955  -4.249  1.00 20.00    -0.195 NA
ENDROOT
BRANCH   2   4
HETATM    4  C9  UNL     1     -34.229  16.247  -2.958  1.00 20.00     0.024 C 
HETATM    5  C4  UNL     1     -35.616  15.622  -2.736  1.00 20.00     0.014 C 
BRANCH   4   6
HETATM    6  C6  UNL     1     -33.734  16.885  -1.642  1.00 20.00     0.007 C 
BRANCH   6   7
HETATM    7  C5  UNL     1     -34.754  16.816  -0.503  1.00 20.00    -0.004 C 
HETATM    8  C2  UNL     1     -34.453  17.847   0.574  1.00 20.00     0.005 C 
ENDBRANCH   6   7
ENDBRANCH   4   6
ENDBRANCH   2   4
BRANCH   2   9
HETATM    9  O11 UNL     1     -32.646  15.859  -4.742  1.00 20.00    -0.372 OA
BRANCH   9  10
HETATM   10  C7  UNL     1     -33.523  16.816  -5.315  1.00 20.00     0.165 C 
HETATM   11  C3  UNL     1     -34.051  16.276  -6.627  1.00 20.00     0.033 C 
ENDBRANCH   9  10
ENDBRANCH   2   9
TORSDOF 5
ENDMDL
MODEL 4
REMARK VINA RESULT:      -4.1      1.204      3.935
REMARK  5 active torsions:
REMARK  status: ('A' for Active; 'I' for Inactive)
REMARK    1  A    between atoms: C5_5  and  C6_6 
REMARK    2  A    between atoms: C6_6  and  C9_9 
REMARK    3  A    between atoms: C7_7  and  O11_11 
REMARK    4  A    between atoms: C8_8  and  C9_9 
REMARK    5  A    between atoms: C8_8  and  O11_11 
ROOT
HETATM    1  C1  UNL     1     -36.750  14.795  -3.730  1.00 20.00     0.091 C 
HETATM    2  C8  UNL     1     -35.416  15.413  -3.701  1.00 20.00     0.231 C 
HETATM    3  N10 UNL     1     -37.804  14.311  -3.756  1.00 20.00    -0.195 NA
ENDROOT
BRANCH   2   4
HETATM    4  C9  UNL     1     -34.412  14.737  -4.663  1.00 20.00     0.024 C 
HETATM    5  C4  UNL     1     -33.672  13.559  -4.007  1.00 20.00     0.014 C 
BRANCH   4   6
HETATM    6  C6  UNL     1     -35.038  14.275  -5.996  1.00 20.00     0.007 C 
BRANCH   6   7
HETATM    7  C5  UNL     1     -34.432  14.951  -7.228  1.00 20.00    -0.004 C 
HETATM    8  C2  UNL     1     -34.496  16.466  -7.117  1.00 20.00     0.005 C 
ENDBRANCH   6   7
ENDBRANCH   4   6
ENDBRANCH   2   4
BRANCH   2   9
HETATM    9  O11 UNL     1     -34.889  15.350  -2.375  1.00 20.00    -0.372 OA
BRANCH   9  10
HETATM   10  C7  UNL     1     -34.316  16.590  -1.990  1.00 20.00     0.165 C 
HETATM   11  C3  UNL     1     -34.640  16.851  -0.534  1.00 20.00     0.033 C 
ENDBRANCH   9  10
ENDBRANCH   2   9
TORSDOF 5
ENDMDL
MODEL 5
REMARK VINA RESULT:      -4.1      1.720      2.097
REMARK  5 active torsions:
REMARK  status: ('A' for Active; 'I' for Inactive)
REMARK    1  A    between atoms: C5_5  and  C6_6 
REMARK    2  A    between atoms: C6_6  and  C9_9 
REMARK    3  A    between atoms: C7_7  and  O11_11 
REMARK    4  A    between atoms: C8_8  and  C9_9 
REMARK    5  A    between atoms: C8_8  and  O11_11 
ROOT
HETATM    1  C1  UNL     1     -34.637  13.784  -4.966  1.00 20.00     0.091 C 
HETATM    2  C8  UNL     1     -34.366  15.147  -5.445  1.00 20.00     0.231 C 
HETATM    3  N10 UNL     1     -34.848  12.706  -4.590  1.00 20.00    -0.195 NA
ENDROOT
BRANCH   2   4
HETATM    4  C9  UNL     1     -33.437  15.949  -4.504  1.00 20.00     0.024 C 
HETATM    5  C4  UNL     1     -33.579  17.468  -4.694  1.00 20.00     0.014 C 
BRANCH   4   6
HETATM    6  C6  UNL     1     -33.607  15.599  -3.011  1.00 20.00     0.007 C 
BRANCH   6   7
HETATM    7  C5  UNL     1     -33.736  16.823  -2.101  1.00 20.00    -0.004 C 
HETATM    8  C2  UNL     1     -34.682  16.554  -0.941  1.00 20.00     0.005 C 
ENDBRANCH   6   7
ENDBRANCH   4   6
ENDBRANCH   2   4
BRANCH   2   9
HETATM    9  O11 UNL     1     -35.596  15.859  -5.584  1.00 20.00    -0.372 OA
BRANCH   9  10
HETATM   10  C7  UNL     1     -36.155  15.672  -6.875  1.00 20.00     0.165 C 
HETATM   11  C3  UNL     1     -35.115  16.025  -7.918  1.00 20.00     0.033 C 
ENDBRANCH   9  10
ENDBRANCH   2   9
TORSDOF 5
ENDMDL
MODEL 6
REMARK VINA RESULT:      -4.0      1.727      2.543
REMARK  5 active torsions:
REMARK  status: ('A' for Active; 'I' for Inactive)
REMARK    1  A    between atoms: C5_5  and  C6_6 
REMARK    2  A    between atoms: C6_6  and  C9_9 
REMARK    3  A    between atoms: C7_7  and  O11_11 
REMARK    4  A    between atoms: C8_8  and  C9_9 
REMARK    5  A    between atoms: C8_8  and  O11_11 
ROOT
HETATM    1  C1  UNL     1     -35.601  14.517  -5.671  1.00 20.00     0.091 C 
HETATM    2  C8  UNL     1     -35.916  14.840  -4.272  1.00 20.00     0.231 C 
HETATM    3  N10 UNL     1     -35.351  14.267  -6.777  1.00 20.00    -0.195 NA
ENDROOT
BRANCH   2   4
HETATM    4  C9  UNL     1     -34.740  14.568  -3.305  1.00 20.00     0.024 C 
HETATM    5  C4  UNL     1     -33.670  13.654  -3.924  1.00 20.00     0.014 C 
BRANCH   4   6
HETATM    6  C6  UNL     1     -34.072  15.848  -2.760  1.00 20.00     0.007 C 
BRANCH   6   7
HETATM    7  C5  UNL     1     -34.654  16.328  -1.429  1.00 20.00    -0.004 C 
HETATM    8  C2  UNL     1     -33.834  17.469  -0.844  1.00 20.00     0.005 C 
ENDBRANCH   6   7
ENDBRANCH   4   6
ENDBRANCH   2   4
BRANCH   2   9
HETATM    9  O11 UNL     1     -37.042  14.071  -3.846  1.00 20.00    -0.372 OA
BRANCH   9  10
HETATM   10  C7  UNL     1     -38.245  14.817  -3.953  1.00 20.00     0.165 C 
HETATM   11  C3  UNL     1     -37.990  16.232  -3.477  1.00 20.00     0.033 C 
ENDBRANCH   9  10
ENDBRANCH   2   9
TORSDOF 5
ENDMDL
MODEL 7
REMARK VINA RESULT:      -4.0      1.767      4.336
REMARK  5 active torsions:
REMARK  status: ('A' for Active; 'I' for Inactive)
REMARK    1  A    between atoms: C5_5  and  C6_6 
REMARK    2  A    between atoms: C6_6  and  C9_9 
REMARK    3  A    between atoms: C7_7  and  O11_11 
REMARK    4  A    between atoms: C8_8  and  C9_9 
REMARK    5  A    between atoms: C8_8  and  O11_11 
ROOT
HETATM    1  C1  UNL     1     -35.036  13.888  -3.982  1.00 20.00     0.091 C 
HETATM    2  C8  UNL     1     -35.182  15.274  -3.512  1.00 20.00     0.231 C 
HETATM    3  N10 UNL     1     -34.925  12.795  -4.354  1.00 20.00    -0.195 NA
ENDROOT
BRANCH   2   4
HETATM    4  C9  UNL     1     -34.721  16.321  -4.552  1.00 20.00     0.024 C 
HETATM    5  C4  UNL     1     -33.222  16.207  -4.876  1.00 20.00     0.014 C 
BRANCH   4   6
HETATM    6  C6  UNL     1     -35.535  16.298  -5.864  1.00 20.00     0.007 C 
BRANCH   6   7
HETATM    7  C5  UNL     1     -34.712  15.900  -7.092  1.00 20.00    -0.004 C 
HETATM    8  C2  UNL     1     -35.211  14.595  -7.693  1.00 20.00     0.005 C 
ENDBRANCH   6   7
ENDBRANCH   4   6
ENDBRANCH   2   4
BRANCH   2   9
HETATM    9  O11 UNL     1     -34.423  15.456  -2.316  1.00 20.00    -0.372 OA
BRANCH   9  10
HETATM   10  C7  UNL     1     -34.900  16.564  -1.568  1.00 20.00     0.165 C 
HETATM   11  C3  UNL     1     -33.717  17.365  -1.067  1.00 20.00     0.033 C 
ENDBRANCH   9  10
ENDBRANCH   2   9
TORSDOF 5
ENDMDL
MODEL 8
REMARK VINA RESULT:      -4.0      1.738      4.416
REMARK  5 active torsions:
REMARK  status: ('A' for Active; 'I' for Inactive)
REMARK    1  A    between atoms: C5_5  and  C6_6 
REMARK    2  A    between atoms: C6_6  and  C9_9 
REMARK    3  A    between atoms: C7_7  and  O11_11 
REMARK    4  A    between atoms: C8_8  and  C9_9 
REMARK    5  A    between atoms: C8_8  and  O11_11 
ROOT
HETATM    1  C1  UNL     1     -34.202  13.867  -3.630  1.00 20.00     0.091 C 
HETATM    2  C8  UNL     1     -35.311  14.795  -3.368  1.00 20.00     0.231 C 
HETATM    3  N10 UNL     1     -33.328  13.130  -3.834  1.00 20.00    -0.195 NA
ENDROOT
BRANCH   2   4
HETATM    4  C9  UNL     1     -36.481  14.643  -4.367  1.00 20.00     0.024 C 
HETATM    5  C4  UNL     1     -37.847  14.919  -3.718  1.00 20.00     0.014 C 
BRANCH   4   6
HETATM    6  C6  UNL     1     -36.331  15.505  -5.639  1.00 20.00     0.007 C 
BRANCH   6   7
HETATM    7  C5  UNL     1     -35.842  14.722  -6.860  1.00 20.00    -0.004 C 
HETATM    8  C2  UNL     1     -34.389  15.039  -7.176  1.00 20.00     0.005 C 
ENDBRANCH   6   7
ENDBRANCH   4   6
ENDBRANCH   2   4
BRANCH   2   9
HETATM    9  O11 UNL     1     -34.833  16.140  -3.428  1.00 20.00    -0.372 OA
BRANCH   9  10
HETATM   10  C7  UNL     1     -33.898  16.401  -2.393  1.00 20.00     0.165 C 
HETATM   11  C3  UNL     1     -34.642  16.547  -1.083  1.00 20.00     0.033 C 
ENDBRANCH   9  10
ENDBRANCH   2   9
TORSDOF 5
ENDMDL
MODEL 9
REMARK VINA RESULT:      -4.0      2.146      4.712
REMARK  5 active torsions:
REMARK  status: ('A' for Active; 'I' for Inactive)
REMARK    1  A    between atoms: C5_5  and  C6_6 
REMARK    2  A    between atoms: C6_6  and  C9_9 
REMARK    3  A    between atoms: C7_7  and  O11_11 
REMARK    4  A    between atoms: C8_8  and  C9_9 
REMARK    5  A    between atoms: C8_8  and  O11_11 
ROOT
HETATM    1  C1  UNL     1     -33.764  16.550  -3.891  1.00 20.00     0.091 C 
HETATM    2  C8  UNL     1     -34.129  15.481  -2.950  1.00 20.00     0.231 C 
HETATM    3  N10 UNL     1     -33.472  17.393  -4.635  1.00 20.00    -0.195 NA
ENDROOT
BRANCH   2   4
HETATM    4  C9  UNL     1     -34.932  14.337  -3.611  1.00 20.00     0.024 C 
HETATM    5  C4  UNL     1     -36.406  14.708  -3.836  1.00 20.00     0.014 C 
BRANCH   4   6
HETATM    6  C6  UNL     1     -34.320  13.828  -4.934  1.00 20.00     0.007 C 
BRANCH   6   7
HETATM    7  C5  UNL     1     -35.197  14.094  -6.160  1.00 20.00    -0.004 C 
HETATM    8  C2  UNL     1     -34.471  14.950  -7.186  1.00 20.00     0.005 C 
ENDBRANCH   6   7
ENDBRANCH   4   6
ENDBRANCH   2   4
BRANCH   2   9
HETATM    9  O11 UNL     1     -34.908  16.027  -1.884  1.00 20.00    -0.372 OA
BRANCH   9  10
HETATM   10  C7  UNL     1     -34.138  16.912  -1.085  1.00 20.00     0.165 C 
HETATM   11  C3  UNL     1     -34.913  17.239   0.174  1.00 20.00     0.033 C 
ENDBRANCH   9  10
ENDBRANCH   2   9
TORSDOF 5
ENDMDL
