MODEL 1
REMARK VINA RESULT:      -4.0      0.000      0.000
REMARK  4 active torsions:
REMARK  status: ('A' for Active; 'I' for Inactive)
REMARK    1  A    between atoms: C6_6  and  C8_8 
REMARK    2  A    between atoms: C6_6  and  C9_9 
REMARK    3  A    between atoms: C7_7  and  O11_11 
REMARK    4  A    between atoms: C8_8  and  O11_11 
ROOT
HETATM    1  C1  UNL     1     -34.675  13.972  -4.105  1.00 20.00     0.091 C 
HETATM    2  C8  UNL     1     -34.443  15.413  -3.918  1.00 20.00     0.228 C 
HETATM    3  N10 UNL     1     -34.861  12.835  -4.251  1.00 20.00    -0.195 NA
ENDROOT
BRANCH   2   4
HETATM    4  C6  UNL     1     -34.050  15.707  -2.461  1.00 20.00     0.055 C 
BRANCH   4   5
HETATM    5  C9  UNL     1     -34.574  17.036  -1.841  1.00 20.00    -0.048 C 
HETATM    6  C3  UNL     1     -35.944  17.347  -2.479  1.00 20.00     0.014 C 
HETATM    7  C4  UNL     1     -34.770  16.897  -0.321  1.00 20.00     0.014 C 
HETATM    8  C5  UNL     1     -33.634  18.220  -2.121  1.00 20.00     0.014 C 
ENDBRANCH   4   5
ENDBRANCH   2   4
BRANCH   2   9
HETATM    9  O11 UNL     1     -33.393  15.826  -4.787  1.00 20.00    -0.372 OA
BRANCH   9  10
HETATM   10  C7  UNL     1     -33.901  16.467  -5.948  1.00 20.00     0.165 C 
HETATM   11  C2  UNL     1     -33.707  17.962  -5.812  1.00 20.00     0.033 C 
ENDBRANCH   9  10
ENDBRANCH   2   9
TORSDOF 4
ENDMDL
MODEL 2
REMARK VINA RESULT:      -4.0      2.273      2.843
REMARK  4 active torsions:
REMARK  status: ('A' for Active; 'I' for Inactive)
REMARK    1  A    between atoms: C6_6  and  C8_8 
REMARK    2  A    between atoms: C6_6  and  C9_9 
REMARK    3  A    between atoms: C7_7  and  O11_11 
REMARK    4  A    between atoms: C8_8  and  O11_11 
ROOT
HETATM    1  C1  UNL     1     -37.543  14.698  -4.069  1.00 20.00     0.091 C 
HETATM    2  C8  UNL     1     -36.180  15.129  -4.417  1.00 20.00     0.228 C 
HETATM    3  N10 UNL     1     -38.619  14.360  -3.794  1.00 20.00    -0.195 NA
ENDROOT
BRANCH   2   4
HETATM    4  C6  UNL     1     -35.299  15.185  -3.157  1.00 20.00     0.055 C 
BRANCH   4   5
HETATM    5  C9  UNL     1     -34.028  16.081  -3.221  1.00 20.00    -0.048 C 
HETATM    6  C3  UNL     1     -33.806  16.689  -1.820  1.00 20.00     0.014 C 
HETATM    7  C4  UNL     1     -32.786  15.251  -3.589  1.00 20.00     0.014 C 
HETATM    8  C5  UNL     1     -34.178  17.235  -4.226  1.00 20.00     0.014 C 
ENDBRANCH   4   5
ENDBRANCH   2   4
BRANCH   2   9
HETATM    9  O11 UNL     1     -35.626  14.199  -5.343  1.00 20.00    -0.372 OA
BRANCH   9  10
HETATM   10  C7  UNL     1     -35.755  14.660  -6.681  1.00 20.00     0.165 C 
HETATM   11  C2  UNL     1     -34.385  15.020  -7.213  1.00 20.00     0.033 C 
ENDBRANCH   9  10
ENDBRANCH   2   9
TORSDOF 4
ENDMDL
MODEL 3
REMARK VINA RESULT:      -3.9      2.269      2.911
REMARK  4 active torsions:
REMARK  status: ('A' for Active; 'I' for Inactive)
REMARK    1  A    between atoms: C6_6  and  C8_8 
REMARK    2  A    between atoms: C6_6  and  C9_9 
REMARK    3  A    between atoms: C7_7  and  O11_11 
REMARK    4  A    between atoms: C8_8  and  O11_11 
ROOT
HETATM    1  C1  UNL     1     -37.528  14.683  -4.078  1.00 20.00     0.091 C 
HETATM    2  C8  UNL     1     -36.159  15.097  -4.425  1.00 20.00     0.228 C 
HETATM    3  N10 UNL     1     -38.608  14.357  -3.803  1.00 20.00    -0.195 NA
ENDROOT
BRANCH   2   4
HETATM    4  C6  UNL     1     -35.273  15.124  -3.167  1.00 20.00     0.055 C 
BRANCH   4   5
HETATM    5  C9  UNL     1     -34.059  16.099  -3.178  1.00 20.00    -0.048 C 
HETATM    6  C3  UNL     1     -32.810  15.293  -3.591  1.00 20.00     0.014 C 
HETATM    7  C4  UNL     1     -34.266  17.227  -4.203  1.00 20.00     0.014 C 
HETATM    8  C5  UNL     1     -33.796  16.718  -1.795  1.00 20.00     0.014 C 
ENDBRANCH   4   5
ENDBRANCH   2   4
BRANCH   2   9
HETATM    9  O11 UNL     1     -35.622  14.172  -5.365  1.00 20.00    -0.372 OA
BRANCH   9  10
HETATM   10  C7  UNL     1     -35.750  14.652  -6.696  1.00 20.00     0.165 C 
HETATM   11  C2  UNL     1     -34.381  15.031  -7.218  1.00 20.00     0.033 C 
ENDBRANCH   9  10
ENDBRANCH   2   9
TORSDOF 4
ENDMDL
MODEL 4
REMARK VINA RESULT:      -3.9      2.216      4.060
REMARK  4 active torsions:
REMARK  status: ('A' for Active; 'I' for Inactive)
REMARK    1  A    between atoms: C6_6  and  C8_8 
REMARK    2  A    between atoms: C6_6  and  C9_9 
REMARK    3  A    between atoms: C7_7  and  O11_11 
REMARK    4  A    between atoms: C8_8  and  O11_11 
ROOT
HETATM    1  C1  UNL     1     -37.525  14.925  -3.679  1.00 20.00     0.091 C 
HETATM    2  C8  UNL     1     -36.270  15.684  -3.549  1.00 20.00     0.228 C 
HETATM    3  N10 UNL     1     -38.513  14.325  -3.782  1.00 20.00    -0.195 NA
ENDROOT
BRANCH   2   4
HETATM    4  C6  UNL     1     -35.711  16.034  -4.939  1.00 20.00     0.055 C 
BRANCH   4   5
HETATM    5  C9  UNL     1     -34.331  15.422  -5.320  1.00 20.00    -0.048 C 
HETATM    6  C3  UNL     1     -34.396  14.997  -6.802  1.00 20.00     0.014 C 
HETATM    7  C4  UNL     1     -33.206  16.460  -5.165  1.00 20.00     0.014 C 
HETATM    8  C5  UNL     1     -33.990  14.181  -4.479  1.00 20.00     0.014 C 
ENDBRANCH   4   5
ENDBRANCH   2   4
BRANCH   2   9
HETATM    9  O11 UNL     1     -36.530  16.882  -2.824  1.00 20.00    -0.372 OA
BRANCH   9  10
HETATM   10  C7  UNL     1     -35.341  17.414  -2.259  1.00 20.00     0.165 C 
HETATM   11  C2  UNL     1     -34.679  16.350  -1.410  1.00 20.00     0.033 C 
ENDBRANCH   9  10
ENDBRANCH   2   9
TORSDOF 4
ENDMDL
MODEL 5
REMARK VINA RESULT:      -3.9      2.190      4.055
REMARK  4 active torsions:
REMARK  status: ('A' for Active; 'I' for Inactive)
REMARK    1  A    between atoms: C6_6  and  C8_8 
REMARK    2  A    between atoms: C6_6  and  C9_9 
REMARK    3  A    between atoms: C7_7  and  O11_11 
REMARK    4  A    between atoms: C8_8  and  O11_11 
ROOT
HETATM    1  C1  UNL     1     -37.462  14.946  -3.687  1.00 20.00     0.091 C 
HETATM    2  C8  UNL     1     -36.219  15.725  -3.569  1.00 20.00     0.228 C 
HETATM    3  N10 UNL     1     -38.442  14.330  -3.780  1.00 20.00    -0.195 NA
ENDROOT
BRANCH   2   4
HETATM    4  C6  UNL     1     -35.683  16.090  -4.964  1.00 20.00     0.055 C 
BRANCH   4   5
HETATM    5  C9  UNL     1     -34.343  15.429  -5.402  1.00 20.00    -0.048 C 
HETATM    6  C3  UNL     1     -33.212  16.451  -5.163  1.00 20.00     0.014 C 
HETATM    7  C4  UNL     1     -34.045  14.175  -4.561  1.00 20.00     0.014 C 
HETATM    8  C5  UNL     1     -34.339  15.048  -6.891  1.00 20.00     0.014 C 
ENDBRANCH   4   5
ENDBRANCH   2   4
BRANCH   2   9
HETATM    9  O11 UNL     1     -36.490  16.916  -2.836  1.00 20.00    -0.372 OA
BRANCH   9  10
HETATM   10  C7  UNL     1     -35.312  17.435  -2.236  1.00 20.00     0.165 C 
HETATM   11  C2  UNL     1     -34.665  16.351  -1.401  1.00 20.00     0.033 C 
ENDBRANCH   9  10
ENDBRANCH   2   9
TORSDOF 4
ENDMDL
MODEL 6
REMARK VINA RESULT:      -3.8      2.006      4.131
REMARK  4 active torsions:
REMARK  status: ('A' for Active; 'I' for Inactive)
REMARK    1  A    between atoms: C6_6  and  C8_8 
REMARK    2  A    between atoms: C6_6  and  C9_9 
REMARK    3  A    between atoms: C7_7  and  O11_11 
REMARK    4  A    between atoms: C8_8  and  O11_11 
ROOT
HETATM    1  C1  UNL     1     -37.248  14.594  -3.979  1.00 20.00     0.091 C 
HETATM    2  C8  UNL     1     -35.830  14.916  -4.206  1.00 20.00     0.228 C 
HETATM    3  N10 UNL     1     -38.367  14.340  -3.802  1.00 20.00    -0.195 NA
ENDROOT
BRANCH   2   4
HETATM    4  C6  UNL     1     -35.700  16.220  -5.012  1.00 20.00     0.055 C 
BRANCH   4   5
HETATM    5  C9  UNL     1     -34.565  16.285  -6.075  1.00 20.00    -0.048 C 
HETATM    6  C3  UNL     1     -33.238  16.552  -5.334  1.00 20.00     0.014 C 
HETATM    7  C4  UNL     1     -34.436  14.948  -6.827  1.00 20.00     0.014 C 
HETATM    8  C5  UNL     1     -34.783  17.415  -7.093  1.00 20.00     0.014 C 
ENDBRANCH   4   5
ENDBRANCH   2   4
BRANCH   2   9
HETATM    9  O11 UNL     1     -35.185  15.069  -2.946  1.00 20.00    -0.372 OA
BRANCH   9  10
HETATM   10  C7  UNL     1     -35.434  16.350  -2.387  1.00 20.00     0.165 C 
HETATM   11  C2  UNL     1     -34.566  16.530  -1.160  1.00 20.00     0.033 C 
ENDBRANCH   9  10
ENDBRANCH   2   9
TORSDOF 4
ENDMDL
MODEL 7
REMARK VINA RESULT:      -3.8      1.681      2.259
REMARK  4 active torsions:
REMARK  status: ('A' for Active; 'I' for Inactive)
REMARK    1  A    between atoms: C6_6  and  C8_8 
REMARK    2  A    between atoms: C6_6  and  C9_9 
REMARK    3  A    between atoms: C7_7  and  O11_11 
REMARK    4  A    between atoms: C8_8  and  O11_11 
ROOT
HETATM    1  C1  UNL     1     -36.972  14.679  -3.869  1.00 20.00     0.091 C 
HETATM    2  C8  UNL     1     -35.590  15.186  -3.903  1.00 20.00     0.228 C 
HETATM    3  N10 UNL     1     -38.062  14.282  -3.841  1.00 20.00    -0.195 NA
ENDROOT
BRANCH   2   4
HETATM    4  C6  UNL     1     -35.075  15.432  -2.475  1.00 20.00     0.055 C 
BRANCH   4   5
HETATM    5  C9  UNL     1     -34.899  16.915  -2.033  1.00 20.00    -0.048 C 
HETATM    6  C3  UNL     1     -34.499  16.919  -0.543  1.00 20.00     0.014 C 
HETATM    7  C4  UNL     1     -33.779  17.600  -2.834  1.00 20.00     0.014 C 
HETATM    8  C5  UNL     1     -36.196  17.727  -2.184  1.00 20.00     0.014 C 
ENDBRANCH   4   5
ENDBRANCH   2   4
BRANCH   2   9
HETATM    9  O11 UNL     1     -34.763  14.222  -4.548  1.00 20.00    -0.372 OA
BRANCH   9  10
HETATM   10  C7  UNL     1     -34.733  14.420  -5.954  1.00 20.00     0.165 C 
HETATM   11  C2  UNL     1     -34.156  15.789  -6.247  1.00 20.00     0.033 C 
ENDBRANCH   9  10
ENDBRANCH   2   9
TORSDOF 4
ENDMDL
MODEL 8
REMARK VINA RESULT:      -3.8      1.646      2.124
REMARK  4 active torsions:
REMARK  status: ('A' for Active; 'I' for Inactive)
REMARK    1  A    between atoms: C6_6  and  C8_8 
REMARK    2  A    between atoms: C6_6  and  C9_9 
REMARK    3  A    between atoms: C7_7  and  O11_11 
REMARK    4  A    between atoms: C8_8  and  O11_11 
ROOT
HETATM    1  C1  UNL     1     -36.909  14.682  -3.840  1.00 20.00     0.091 C 
HETATM    2  C8  UNL     1     -35.538  15.217  -3.871  1.00 20.00     0.228 C 
HETATM    3  N10 UNL     1     -37.990  14.262  -3.815  1.00 20.00    -0.195 NA
ENDROOT
BRANCH   2   4
HETATM    4  C6  UNL     1     -35.021  15.445  -2.440  1.00 20.00     0.055 C 
BRANCH   4   5
HETATM    5  C9  UNL     1     -34.876  16.921  -1.967  1.00 20.00    -0.048 C 
HETATM    6  C3  UNL     1     -33.799  17.595  -2.842  1.00 20.00     0.014 C 
HETATM    7  C4  UNL     1     -36.196  17.691  -2.149  1.00 20.00     0.014 C 
HETATM    8  C5  UNL     1     -34.434  17.022  -0.498  1.00 20.00     0.014 C 
ENDBRANCH   4   5
ENDBRANCH   2   4
BRANCH   2   9
HETATM    9  O11 UNL     1     -34.695  14.284  -4.539  1.00 20.00    -0.372 OA
BRANCH   9  10
HETATM   10  C7  UNL     1     -34.759  14.443  -5.949  1.00 20.00     0.165 C 
HETATM   11  C2  UNL     1     -34.155  15.780  -6.323  1.00 20.00     0.033 C 
ENDBRANCH   9  10
ENDBRANCH   2   9
TORSDOF 4
ENDMDL
MODEL 9
REMARK VINA RESULT:      -3.8      2.418      3.325
REMARK  4 active torsions:
REMARK  status: ('A' for Active; 'I' for Inactive)
REMARK    1  A    between atoms: C6_6  and  C8_8 
REMARK    2  A    between atoms: C6_6  and  C9_9 
REMARK    3  A    between atoms: C7_7  and  O11_11 
REMARK    4  A    between atoms: C8_8  and  O11_11 
ROOT
HETATM    1  C1  UNL     1     -35.125  13.429  -4.408  1.00 20.00     0.091 C 
HETATM    2  C8  UNL     1     -35.918  14.448  -3.701  1.00 20.00     0.228 C 
HETATM    3  N10 UNL     1     -34.498  12.626  -4.963  1.00 20.00    -0.195 NA
ENDROOT
BRANCH   2   4
HETATM    4  C6  UNL     1     -35.736  15.822  -4.368  1.00 20.00     0.055 C 
BRANCH   4   5
HETATM    5  C9  UNL     1     -34.592  16.727  -3.823  1.00 20.00    -0.048 C 
HETATM    6  C3  UNL     1     -35.118  18.176  -3.773  1.00 20.00     0.014 C 
HETATM    7  C4  UNL     1     -34.191  16.310  -2.397  1.00 20.00     0.014 C 
HETATM    8  C5  UNL     1     -33.347  16.699  -4.724  1.00 20.00     0.014 C 
ENDBRANCH   4   5
ENDBRANCH   2   4
BRANCH   2   9
HETATM    9  O11 UNL     1     -37.292  14.075  -3.746  1.00 20.00    -0.372 OA
BRANCH   9  10
HETATM   10  C7  UNL     1     -38.141  15.210  -3.659  1.00 20.00     0.165 C 
HETATM   11  C2  UNL     1     -39.482  14.871  -4.274  1.00 20.00     0.033 C 
ENDBRANCH   9  10
ENDBRANCH   2   9
TORSDOF 4
ENDMDL
