MODEL 1
REMARK VINA RESULT:      -4.3      0.000      0.000
REMARK  2 active torsions:
REMARK  status: ('A' for Active; 'I' for Inactive)
REMARK    1  A    between atoms: C5_5  and  O9_9 
REMARK    2  A    between atoms: C7_7  and  O9_9 
ROOT
HETATM    1  C1  UNL     1     -37.153  14.753  -3.779  1.00 20.00     0.098 C 
HETATM    2  C2  UNL     1     -34.746  14.159  -3.605  1.00 20.00     0.065 C 
HETATM    3  C3  UNL     1     -34.680  13.307  -4.863  1.00 20.00     0.078 C 
HETATM    4  C4  UNL     1     -35.452  15.864  -5.211  1.00 20.00     0.127 C 
HETATM    5  C5  UNL     1     -35.775  15.268  -3.841  1.00 20.00     0.157 C 
HETATM    6  N8  UNL     1     -38.239  14.347  -3.731  1.00 20.00    -0.194 NA
HETATM    7  S10 UNL     1     -34.843  14.485  -6.232  1.00 20.00    -0.165 SA
ENDROOT
BRANCH   5   8
HETATM    8  O9  UNL     1     -35.631  16.268  -2.835  1.00 20.00    -0.365 OA
BRANCH   8   9
HETATM    9  C7  UNL     1     -34.447  16.073  -2.078  1.00 20.00     0.165 C 
HETATM   10  C6  UNL     1     -34.625  16.704  -0.714  1.00 20.00     0.033 C 
ENDBRANCH   8   9
ENDBRANCH   5   8
TORSDOF 2
ENDMDL
MODEL 2
REMARK VINA RESULT:      -4.1      1.819      2.152
REMARK  2 active torsions:
REMARK  status: ('A' for Active; 'I' for Inactive)
REMARK    1  A    between atoms: C5_5  and  O9_9 
REMARK    2  A    between atoms: C7_7  and  O9_9 
ROOT
HETATM    1  C1  UNL     1     -34.824  13.947  -4.013  1.00 20.00     0.098 C 
HETATM    2  C2  UNL     1     -33.462  16.024  -4.114  1.00 20.00     0.065 C 
HETATM    3  C3  UNL     1     -33.606  16.261  -5.609  1.00 20.00     0.078 C 
HETATM    4  C4  UNL     1     -35.902  16.179  -4.204  1.00 20.00     0.127 C 
HETATM    5  C5  UNL     1     -34.751  15.363  -3.616  1.00 20.00     0.157 C 
HETATM    6  N8  UNL     1     -34.882  12.832  -4.327  1.00 20.00    -0.194 NA
HETATM    7  S10 UNL     1     -35.339  16.745  -5.839  1.00 20.00    -0.165 SA
ENDROOT
BRANCH   5   8
HETATM    8  O9  UNL     1     -34.795  15.425  -2.193  1.00 20.00    -0.365 OA
BRANCH   8   9
HETATM    9  C7  UNL     1     -34.146  16.590  -1.706  1.00 20.00     0.165 C 
HETATM   10  C6  UNL     1     -34.723  16.947  -0.353  1.00 20.00     0.033 C 
ENDBRANCH   8   9
ENDBRANCH   5   8
TORSDOF 2
ENDMDL
MODEL 3
REMARK VINA RESULT:      -3.9      1.916      3.129
REMARK  2 active torsions:
REMARK  status: ('A' for Active; 'I' for Inactive)
REMARK    1  A    between atoms: C5_5  and  O9_9 
REMARK    2  A    between atoms: C7_7  and  O9_9 
ROOT
HETATM    1  C1  UNL     1     -35.148  13.639  -4.218  1.00 20.00     0.098 C 
HETATM    2  C2  UNL     1     -34.651  15.480  -2.623  1.00 20.00     0.065 C 
HETATM    3  C3  UNL     1     -33.349  15.928  -3.268  1.00 20.00     0.078 C 
HETATM    4  C4  UNL     1     -35.531  16.014  -4.843  1.00 20.00     0.127 C 
HETATM    5  C5  UNL     1     -35.571  14.963  -3.733  1.00 20.00     0.157 C 
HETATM    6  N8  UNL     1     -34.814  12.595  -4.600  1.00 20.00    -0.194 NA
HETATM    7  S10 UNL     1     -33.844  16.696  -4.834  1.00 20.00    -0.165 SA
ENDROOT
BRANCH   5   8
HETATM    8  O9  UNL     1     -36.899  14.846  -3.230  1.00 20.00    -0.365 OA
BRANCH   8   9
HETATM    9  C7  UNL     1     -37.849  14.795  -4.283  1.00 20.00     0.165 C 
HETATM   10  C6  UNL     1     -39.231  15.032  -3.712  1.00 20.00     0.033 C 
ENDBRANCH   8   9
ENDBRANCH   5   8
TORSDOF 2
ENDMDL
MODEL 4
REMARK VINA RESULT:      -3.9      2.313      2.779
REMARK  2 active torsions:
REMARK  status: ('A' for Active; 'I' for Inactive)
REMARK    1  A    between atoms: C5_5  and  O9_9 
REMARK    2  A    between atoms: C7_7  and  O9_9 
ROOT
HETATM    1  C1  UNL     1     -33.738  16.583  -4.551  1.00 20.00     0.098 C 
HETATM    2  C2  UNL     1     -35.585  15.398  -3.384  1.00 20.00     0.065 C 
HETATM    3  C3  UNL     1     -35.991  14.509  -4.548  1.00 20.00     0.078 C 
HETATM    4  C4  UNL     1     -33.444  14.261  -3.712  1.00 20.00     0.127 C 
HETATM    5  C5  UNL     1     -34.075  15.634  -3.477  1.00 20.00     0.157 C 
HETATM    6  N8  UNL     1     -33.472  17.330  -5.398  1.00 20.00    -0.194 NA
HETATM    7  S10 UNL     1     -34.628  13.327  -4.730  1.00 20.00    -0.165 SA
ENDROOT
BRANCH   5   8
HETATM    8  O9  UNL     1     -33.604  16.175  -2.245  1.00 20.00    -0.365 OA
BRANCH   8   9
HETATM    9  C7  UNL     1     -34.670  16.383  -1.332  1.00 20.00     0.165 C 
HETATM   10  C6  UNL     1     -34.262  17.447  -0.334  1.00 20.00     0.033 C 
ENDBRANCH   8   9
ENDBRANCH   5   8
TORSDOF 2
ENDMDL
MODEL 5
REMARK VINA RESULT:      -3.8      1.914      2.368
REMARK  2 active torsions:
REMARK  status: ('A' for Active; 'I' for Inactive)
REMARK    1  A    between atoms: C5_5  and  O9_9 
REMARK    2  A    between atoms: C7_7  and  O9_9 
ROOT
HETATM    1  C1  UNL     1     -34.826  13.686  -4.774  1.00 20.00     0.098 C 
HETATM    2  C2  UNL     1     -34.061  15.471  -6.326  1.00 20.00     0.065 C 
HETATM    3  C3  UNL     1     -34.861  15.012  -7.535  1.00 20.00     0.078 C 
HETATM    4  C4  UNL     1     -36.294  15.613  -5.336  1.00 20.00     0.127 C 
HETATM    5  C5  UNL     1     -34.868  15.128  -5.070  1.00 20.00     0.157 C 
HETATM    6  N8  UNL     1     -34.794  12.550  -4.540  1.00 20.00    -0.194 NA
HETATM    7  S10 UNL     1     -36.588  15.372  -7.116  1.00 20.00    -0.165 SA
ENDROOT
BRANCH   5   8
HETATM    8  O9  UNL     1     -34.323  15.825  -3.953  1.00 20.00    -0.365 OA
BRANCH   8   9
HETATM    9  C7  UNL     1     -35.144  15.682  -2.804  1.00 20.00     0.165 C 
HETATM   10  C6  UNL     1     -34.422  16.264  -1.607  1.00 20.00     0.033 C 
ENDBRANCH   8   9
ENDBRANCH   5   8
TORSDOF 2
ENDMDL
MODEL 6
REMARK VINA RESULT:      -3.7      1.351      1.426
REMARK  2 active torsions:
REMARK  status: ('A' for Active; 'I' for Inactive)
REMARK    1  A    between atoms: C5_5  and  O9_9 
REMARK    2  A    between atoms: C7_7  and  O9_9 
ROOT
HETATM    1  C1  UNL     1     -36.364  15.042  -3.432  1.00 20.00     0.098 C 
HETATM    2  C2  UNL     1     -33.939  15.199  -2.907  1.00 20.00     0.065 C 
HETATM    3  C3  UNL     1     -33.431  14.774  -4.276  1.00 20.00     0.078 C 
HETATM    4  C4  UNL     1     -35.001  16.962  -4.230  1.00 20.00     0.127 C 
HETATM    5  C5  UNL     1     -35.255  15.956  -3.108  1.00 20.00     0.157 C 
HETATM    6  N8  UNL     1     -37.237  14.323  -3.689  1.00 20.00    -0.194 NA
HETATM    7  S10 UNL     1     -33.832  16.162  -5.373  1.00 20.00    -0.165 SA
ENDROOT
BRANCH   5   8
HETATM    8  O9  UNL     1     -35.590  16.648  -1.908  1.00 20.00    -0.365 OA
BRANCH   8   9
HETATM    9  C7  UNL     1     -34.491  16.689  -1.011  1.00 20.00     0.165 C 
HETATM   10  C6  UNL     1     -34.958  17.248   0.316  1.00 20.00     0.033 C 
ENDBRANCH   8   9
ENDBRANCH   5   8
TORSDOF 2
ENDMDL
MODEL 7
REMARK VINA RESULT:      -3.7      2.284      3.333
REMARK  2 active torsions:
REMARK  status: ('A' for Active; 'I' for Inactive)
REMARK    1  A    between atoms: C5_5  and  O9_9 
REMARK    2  A    between atoms: C7_7  and  O9_9 
ROOT
HETATM    1  C1  UNL     1     -36.032  15.059  -5.543  1.00 20.00     0.098 C 
HETATM    2  C2  UNL     1     -34.954  13.466  -3.968  1.00 20.00     0.065 C 
HETATM    3  C3  UNL     1     -33.600  14.155  -3.916  1.00 20.00     0.078 C 
HETATM    4  C4  UNL     1     -35.707  15.645  -3.149  1.00 20.00     0.127 C 
HETATM    5  C5  UNL     1     -36.023  14.545  -4.163  1.00 20.00     0.157 C 
HETATM    6  N8  UNL     1     -36.039  15.465  -6.630  1.00 20.00    -0.194 NA
HETATM    7  S10 UNL     1     -33.894  15.693  -3.002  1.00 20.00    -0.165 SA
ENDROOT
BRANCH   5   8
HETATM    8  O9  UNL     1     -37.308  13.992  -3.889  1.00 20.00    -0.365 OA
BRANCH   8   9
HETATM    9  C7  UNL     1     -38.291  15.008  -3.759  1.00 20.00     0.165 C 
HETATM   10  C6  UNL     1     -39.544  14.577  -4.491  1.00 20.00     0.033 C 
ENDBRANCH   8   9
ENDBRANCH   5   8
TORSDOF 2
ENDMDL
MODEL 8
REMARK VINA RESULT:      -3.7      2.505      3.240
REMARK  2 active torsions:
REMARK  status: ('A' for Active; 'I' for Inactive)
REMARK    1  A    between atoms: C5_5  and  O9_9 
REMARK    2  A    between atoms: C7_7  and  O9_9 
ROOT
HETATM    1  C1  UNL     1     -34.432  16.313  -2.034  1.00 20.00     0.098 C 
HETATM    2  C2  UNL     1     -33.093  15.076  -3.724  1.00 20.00     0.065 C 
HETATM    3  C3  UNL     1     -33.795  13.737  -3.563  1.00 20.00     0.078 C 
HETATM    4  C4  UNL     1     -35.360  15.807  -4.284  1.00 20.00     0.127 C 
HETATM    5  C5  UNL     1     -34.123  16.181  -3.467  1.00 20.00     0.157 C 
HETATM    6  N8  UNL     1     -34.677  16.417  -0.904  1.00 20.00    -0.194 NA
HETATM    7  S10 UNL     1     -35.446  13.989  -4.269  1.00 20.00    -0.165 SA
ENDROOT
BRANCH   5   8
HETATM    8  O9  UNL     1     -33.603  17.426  -3.924  1.00 20.00    -0.365 OA
BRANCH   8   9
HETATM    9  C7  UNL     1     -33.515  17.462  -5.340  1.00 20.00     0.165 C 
HETATM   10  C6  UNL     1     -33.618  18.899  -5.805  1.00 20.00     0.033 C 
ENDBRANCH   8   9
ENDBRANCH   5   8
TORSDOF 2
ENDMDL
MODEL 9
REMARK VINA RESULT:      -3.7      2.221      3.763
REMARK  2 active torsions:
REMARK  status: ('A' for Active; 'I' for Inactive)
REMARK    1  A    between atoms: C5_5  and  O9_9 
REMARK    2  A    between atoms: C7_7  and  O9_9 
ROOT
HETATM    1  C1  UNL     1     -36.816  14.527  -4.065  1.00 20.00     0.098 C 
HETATM    2  C2  UNL     1     -35.261  16.328  -4.785  1.00 20.00     0.065 C 
HETATM    3  C3  UNL     1     -35.273  17.107  -3.479  1.00 20.00     0.078 C 
HETATM    4  C4  UNL     1     -34.446  14.550  -3.315  1.00 20.00     0.127 C 
HETATM    5  C5  UNL     1     -35.430  14.844  -4.448  1.00 20.00     0.157 C 
HETATM    6  N8  UNL     1     -37.908  14.277  -3.762  1.00 20.00    -0.194 NA
HETATM    7  S10 UNL     1     -34.372  16.061  -2.304  1.00 20.00    -0.165 SA
ENDROOT
BRANCH   5   8
HETATM    8  O9  UNL     1     -35.096  14.059  -5.590  1.00 20.00    -0.365 OA
BRANCH   8   9
HETATM    9  C7  UNL     1     -34.704  14.877  -6.682  1.00 20.00     0.165 C 
HETATM   10  C6  UNL     1     -35.485  14.464  -7.912  1.00 20.00     0.033 C 
ENDBRANCH   8   9
ENDBRANCH   5   8
TORSDOF 2
ENDMDL
