MODEL 1
REMARK VINA RESULT:      -5.1      0.000      0.000
REMARK  5 active torsions:
REMARK  status: ('A' for Active; 'I' for Inactive)
REMARK    1  A    between atoms: C2_2  and  C5_5 
REMARK    2  A    between atoms: C2_2  and  C6_6 
REMARK    3  A    between atoms: C6_6  and  C7_7 
REMARK    4  A    between atoms: C7_7  and  C8_8 
REMARK    5  A    between atoms: C8_8  and  C9_9 
ROOT
HETATM    1  C6  UNL     1     -34.599   6.076   4.013  1.00 20.00     0.033 C 
ENDROOT
BRANCH   1   2
HETATM    2  C2  UNL     1     -34.730   5.153   5.208  1.00 20.00    -0.090 C 
HETATM    3  C1  UNL     1     -35.111   3.877   5.029  1.00 20.00     0.014 C 
BRANCH   2   4
HETATM    4  C5  UNL     1     -34.442   5.781   6.557  1.00 20.00     0.029 C 
HETATM    5  C3  UNL     1     -33.673   7.099   6.560  1.00 20.00     0.010 C 
ENDBRANCH   2   4
ENDBRANCH   1   2
BRANCH   1   6
HETATM    6  C7  UNL     1     -33.819   5.439   2.856  1.00 20.00     0.006 C 
BRANCH   6   7
HETATM    7  C8  UNL     1     -32.386   5.982   2.793  1.00 20.00     0.020 C 
BRANCH   7   8
HETATM    8  C9  UNL     1     -32.299   7.497   3.019  1.00 20.00     0.078 C 
HETATM    9  C4  UNL     1     -31.991   8.229   1.718  1.00 20.00     0.026 C 
HETATM   10 CL10 UNL     1     -31.033   7.895   4.219  1.00 20.00    -0.125 Cl
ENDBRANCH   7   8
ENDBRANCH   6   7
ENDBRANCH   1   6
TORSDOF 5
ENDMDL
MODEL 2
REMARK VINA RESULT:      -5.1      1.558      4.456
REMARK  5 active torsions:
REMARK  status: ('A' for Active; 'I' for Inactive)
REMARK    1  A    between atoms: C2_2  and  C5_5 
REMARK    2  A    between atoms: C2_2  and  C6_6 
REMARK    3  A    between atoms: C6_6  and  C7_7 
REMARK    4  A    between atoms: C7_7  and  C8_8 
REMARK    5  A    between atoms: C8_8  and  C9_9 
ROOT
HETATM    1  C6  UNL     1     -32.368   5.969   3.207  1.00 20.00     0.033 C 
ENDROOT
BRANCH   1   2
HETATM    2  C2  UNL     1     -31.872   7.396   3.075  1.00 20.00    -0.090 C 
HETATM    3  C1  UNL     1     -31.321   8.013   4.134  1.00 20.00     0.014 C 
BRANCH   2   4
HETATM    4  C5  UNL     1     -32.079   8.040   1.719  1.00 20.00     0.029 C 
HETATM    5  C3  UNL     1     -32.448   9.520   1.702  1.00 20.00     0.010 C 
ENDBRANCH   2   4
ENDBRANCH   1   2
BRANCH   1   6
HETATM    6  C7  UNL     1     -33.820   5.803   2.746  1.00 20.00     0.006 C 
BRANCH   6   7
HETATM    7  C8  UNL     1     -34.782   5.810   3.940  1.00 20.00     0.020 C 
BRANCH   7   8
HETATM    8  C9  UNL     1     -34.140   5.312   5.242  1.00 20.00     0.078 C 
HETATM    9  C4  UNL     1     -34.957   4.184   5.860  1.00 20.00     0.026 C 
HETATM   10 CL10 UNL     1     -33.993   6.639   6.434  1.00 20.00    -0.125 Cl
ENDBRANCH   7   8
ENDBRANCH   6   7
ENDBRANCH   1   6
TORSDOF 5
ENDMDL
MODEL 3
REMARK VINA RESULT:      -4.8      2.011      4.705
REMARK  5 active torsions:
REMARK  status: ('A' for Active; 'I' for Inactive)
REMARK    1  A    between atoms: C2_2  and  C5_5 
REMARK    2  A    between atoms: C2_2  and  C6_6 
REMARK    3  A    between atoms: C6_6  and  C7_7 
REMARK    4  A    between atoms: C7_7  and  C8_8 
REMARK    5  A    between atoms: C8_8  and  C9_9 
ROOT
HETATM    1  C6  UNL     1     -32.883   6.315   2.985  1.00 20.00     0.033 C 
ENDROOT
BRANCH   1   2
HETATM    2  C2  UNL     1     -31.945   7.502   2.884  1.00 20.00    -0.090 C 
HETATM    3  C1  UNL     1     -31.208   7.864   3.947  1.00 20.00     0.014 C 
BRANCH   2   4
HETATM    4  C5  UNL     1     -31.946   8.226   1.553  1.00 20.00     0.029 C 
HETATM    5  C3  UNL     1     -32.493   9.651   1.537  1.00 20.00     0.010 C 
ENDBRANCH   2   4
ENDBRANCH   1   2
BRANCH   1   6
HETATM    6  C7  UNL     1     -34.173   6.643   3.747  1.00 20.00     0.006 C 
BRANCH   6   7
HETATM    7  C8  UNL     1     -34.948   5.366   4.094  1.00 20.00     0.020 C 
BRANCH   7   8
HETATM    8  C9  UNL     1     -35.028   5.094   5.602  1.00 20.00     0.078 C 
HETATM    9  C4  UNL     1     -34.263   6.150   6.391  1.00 20.00     0.026 C 
HETATM   10 CL10 UNL     1     -34.363   3.481   6.000  1.00 20.00    -0.125 Cl
ENDBRANCH   7   8
ENDBRANCH   6   7
ENDBRANCH   1   6
TORSDOF 5
ENDMDL
MODEL 4
REMARK VINA RESULT:      -4.8      1.313      1.521
REMARK  5 active torsions:
REMARK  status: ('A' for Active; 'I' for Inactive)
REMARK    1  A    between atoms: C2_2  and  C5_5 
REMARK    2  A    between atoms: C2_2  and  C6_6 
REMARK    3  A    between atoms: C6_6  and  C7_7 
REMARK    4  A    between atoms: C7_7  and  C8_8 
REMARK    5  A    between atoms: C8_8  and  C9_9 
ROOT
HETATM    1  C6  UNL     1     -34.010   6.637   3.893  1.00 20.00     0.033 C 
ENDROOT
BRANCH   1   2
HETATM    2  C2  UNL     1     -34.489   5.565   4.852  1.00 20.00    -0.090 C 
HETATM    3  C1  UNL     1     -35.196   4.520   4.387  1.00 20.00     0.014 C 
BRANCH   2   4
HETATM    4  C5  UNL     1     -34.146   5.788   6.311  1.00 20.00     0.029 C 
HETATM    5  C3  UNL     1     -33.691   7.188   6.711  1.00 20.00     0.010 C 
ENDBRANCH   2   4
ENDBRANCH   1   2
BRANCH   1   6
HETATM    6  C7  UNL     1     -32.618   6.342   3.322  1.00 20.00     0.006 C 
BRANCH   6   7
HETATM    7  C8  UNL     1     -31.863   7.639   3.011  1.00 20.00     0.020 C 
BRANCH   7   8
HETATM    8  C9  UNL     1     -32.446   8.413   1.821  1.00 20.00     0.078 C 
HETATM    9  C4  UNL     1     -31.495   8.387   0.631  1.00 20.00     0.026 C 
HETATM   10 CL10 UNL     1     -32.775  10.116   2.261  1.00 20.00    -0.125 Cl
ENDBRANCH   7   8
ENDBRANCH   6   7
ENDBRANCH   1   6
TORSDOF 5
ENDMDL
MODEL 5
REMARK VINA RESULT:      -4.8      1.358      2.333
REMARK  5 active torsions:
REMARK  status: ('A' for Active; 'I' for Inactive)
REMARK    1  A    between atoms: C2_2  and  C5_5 
REMARK    2  A    between atoms: C2_2  and  C6_6 
REMARK    3  A    between atoms: C6_6  and  C7_7 
REMARK    4  A    between atoms: C7_7  and  C8_8 
REMARK    5  A    between atoms: C8_8  and  C9_9 
ROOT
HETATM    1  C6  UNL     1     -33.969   6.539   4.110  1.00 20.00     0.033 C 
ENDROOT
BRANCH   1   2
HETATM    2  C2  UNL     1     -34.017   6.263   5.600  1.00 20.00    -0.090 C 
HETATM    3  C1  UNL     1     -33.426   7.113   6.456  1.00 20.00     0.014 C 
BRANCH   2   4
HETATM    4  C5  UNL     1     -34.723   4.986   6.008  1.00 20.00     0.029 C 
HETATM    5  C3  UNL     1     -35.122   4.025   4.891  1.00 20.00     0.010 C 
ENDBRANCH   2   4
ENDBRANCH   1   2
BRANCH   1   6
HETATM    6  C7  UNL     1     -32.568   6.346   3.517  1.00 20.00     0.006 C 
BRANCH   6   7
HETATM    7  C8  UNL     1     -31.913   7.696   3.200  1.00 20.00     0.020 C 
BRANCH   7   8
HETATM    8  C9  UNL     1     -32.476   8.365   1.939  1.00 20.00     0.078 C 
HETATM    9  C4  UNL     1     -31.502   8.247   0.774  1.00 20.00     0.026 C 
HETATM   10 CL10 UNL     1     -32.822  10.096   2.231  1.00 20.00    -0.125 Cl
ENDBRANCH   7   8
ENDBRANCH   6   7
ENDBRANCH   1   6
TORSDOF 5
ENDMDL
MODEL 6
REMARK VINA RESULT:      -4.3      1.733      5.105
REMARK  5 active torsions:
REMARK  status: ('A' for Active; 'I' for Inactive)
REMARK    1  A    between atoms: C2_2  and  C5_5 
REMARK    2  A    between atoms: C2_2  and  C6_6 
REMARK    3  A    between atoms: C6_6  and  C7_7 
REMARK    4  A    between atoms: C7_7  and  C8_8 
REMARK    5  A    between atoms: C8_8  and  C9_9 
ROOT
HETATM    1  C6  UNL     1     -31.810   7.786   3.077  1.00 20.00     0.033 C 
ENDROOT
BRANCH   1   2
HETATM    2  C2  UNL     1     -32.116   8.753   1.950  1.00 20.00    -0.090 C 
HETATM    3  C1  UNL     1     -32.781   9.892   2.210  1.00 20.00     0.014 C 
BRANCH   2   4
HETATM    4  C5  UNL     1     -31.661   8.321   0.572  1.00 20.00     0.029 C 
HETATM    5  C3  UNL     1     -32.612   8.590  -0.591  1.00 20.00     0.010 C 
ENDBRANCH   2   4
ENDBRANCH   1   2
BRANCH   1   6
HETATM    6  C7  UNL     1     -32.579   6.466   2.949  1.00 20.00     0.006 C 
BRANCH   6   7
HETATM    7  C8  UNL     1     -33.915   6.532   3.698  1.00 20.00     0.020 C 
BRANCH   7   8
HETATM    8  C9  UNL     1     -33.980   5.592   4.910  1.00 20.00     0.078 C 
HETATM    9  C4  UNL     1     -35.196   4.677   4.830  1.00 20.00     0.026 C 
HETATM   10 CL10 UNL     1     -34.054   6.518   6.439  1.00 20.00    -0.125 Cl
ENDBRANCH   7   8
ENDBRANCH   6   7
ENDBRANCH   1   6
TORSDOF 5
ENDMDL
MODEL 7
REMARK VINA RESULT:      -4.1      2.093      4.830
REMARK  5 active torsions:
REMARK  status: ('A' for Active; 'I' for Inactive)
REMARK    1  A    between atoms: C2_2  and  C5_5 
REMARK    2  A    between atoms: C2_2  and  C6_6 
REMARK    3  A    between atoms: C6_6  and  C7_7 
REMARK    4  A    between atoms: C7_7  and  C8_8 
REMARK    5  A    between atoms: C8_8  and  C9_9 
ROOT
HETATM    1  C6  UNL     1     -32.666   6.236   3.095  1.00 20.00     0.033 C 
ENDROOT
BRANCH   1   2
HETATM    2  C2  UNL     1     -31.829   7.491   2.944  1.00 20.00    -0.090 C 
HETATM    3  C1  UNL     1     -31.072   7.916   3.970  1.00 20.00     0.014 C 
BRANCH   2   4
HETATM    4  C5  UNL     1     -31.950   8.204   1.613  1.00 20.00     0.029 C 
HETATM    5  C3  UNL     1     -32.521   9.619   1.631  1.00 20.00     0.010 C 
ENDBRANCH   2   4
ENDBRANCH   1   2
BRANCH   1   6
HETATM    6  C7  UNL     1     -34.039   6.512   3.719  1.00 20.00     0.006 C 
BRANCH   6   7
HETATM    7  C8  UNL     1     -33.990   6.369   5.245  1.00 20.00     0.020 C 
BRANCH   7   8
HETATM    8  C9  UNL     1     -34.825   5.195   5.774  1.00 20.00     0.078 C 
HETATM    9  C4  UNL     1     -34.001   4.311   6.702  1.00 20.00     0.026 C 
HETATM   10 CL10 UNL     1     -35.453   4.195   4.430  1.00 20.00    -0.125 Cl
ENDBRANCH   7   8
ENDBRANCH   6   7
ENDBRANCH   1   6
TORSDOF 5
ENDMDL
MODEL 8
REMARK VINA RESULT:      -4.0     11.291     12.206
REMARK  5 active torsions:
REMARK  status: ('A' for Active; 'I' for Inactive)
REMARK    1  A    between atoms: C2_2  and  C5_5 
REMARK    2  A    between atoms: C2_2  and  C6_6 
REMARK    3  A    between atoms: C6_6  and  C7_7 
REMARK    4  A    between atoms: C7_7  and  C8_8 
REMARK    5  A    between atoms: C8_8  and  C9_9 
ROOT
HETATM    1  C6  UNL     1     -34.766  16.646  -0.677  1.00 20.00     0.033 C 
ENDROOT
BRANCH   1   2
HETATM    2  C2  UNL     1     -34.119  17.767   0.112  1.00 20.00    -0.090 C 
HETATM    3  C1  UNL     1     -34.620  18.116   1.309  1.00 20.00     0.014 C 
BRANCH   2   4
HETATM    4  C5  UNL     1     -32.941  18.445  -0.556  1.00 20.00     0.029 C 
HETATM    5  C3  UNL     1     -31.899  19.087   0.356  1.00 20.00     0.010 C 
ENDBRANCH   2   4
ENDBRANCH   1   2
BRANCH   1   6
HETATM    6  C7  UNL     1     -34.081  16.401  -2.027  1.00 20.00     0.006 C 
BRANCH   6   7
HETATM    7  C8  UNL     1     -34.902  15.441  -2.896  1.00 20.00     0.020 C 
BRANCH   7   8
HETATM    8  C9  UNL     1     -34.082  14.774  -4.009  1.00 20.00     0.078 C 
HETATM    9  C4  UNL     1     -34.633  13.394  -4.344  1.00 20.00     0.026 C 
HETATM   10 CL10 UNL     1     -32.365  14.611  -3.532  1.00 20.00    -0.125 Cl
ENDBRANCH   7   8
ENDBRANCH   6   7
ENDBRANCH   1   6
TORSDOF 5
ENDMDL
MODEL 9
REMARK VINA RESULT:      -4.0     11.463     12.550
REMARK  5 active torsions:
REMARK  status: ('A' for Active; 'I' for Inactive)
REMARK    1  A    between atoms: C2_2  and  C5_5 
REMARK    2  A    between atoms: C2_2  and  C6_6 
REMARK    3  A    between atoms: C6_6  and  C7_7 
REMARK    4  A    between atoms: C7_7  and  C8_8 
REMARK    5  A    between atoms: C8_8  and  C9_9 
ROOT
HETATM    1  C6  UNL     1     -33.369  15.027  -3.351  1.00 20.00     0.033 C 
ENDROOT
BRANCH   1   2
HETATM    2  C2  UNL     1     -33.943  16.332  -2.836  1.00 20.00    -0.090 C 
HETATM    3  C1  UNL     1     -33.752  17.466  -3.531  1.00 20.00     0.014 C 
BRANCH   2   4
HETATM    4  C5  UNL     1     -34.680  16.249  -1.515  1.00 20.00     0.029 C 
HETATM    5  C3  UNL     1     -34.324  17.285  -0.453  1.00 20.00     0.010 C 
ENDBRANCH   2   4
ENDBRANCH   1   2
BRANCH   1   6
HETATM    6  C7  UNL     1     -34.440  13.946  -3.548  1.00 20.00     0.006 C 
BRANCH   6   7
HETATM    7  C8  UNL     1     -34.380  13.363  -4.965  1.00 20.00     0.020 C 
BRANCH   7   8
HETATM    8  C9  UNL     1     -35.247  14.128  -5.974  1.00 20.00     0.078 C 
HETATM    9  C4  UNL     1     -34.394  15.037  -6.851  1.00 20.00     0.026 C 
HETATM   10 CL10 UNL     1     -36.481  15.119  -5.141  1.00 20.00    -0.125 Cl
ENDBRANCH   7   8
ENDBRANCH   6   7
ENDBRANCH   1   6
TORSDOF 5
ENDMDL
