MODEL 1
REMARK VINA RESULT:      -5.0      0.000      0.000
REMARK  4 active torsions:
REMARK  status: ('A' for Active; 'I' for Inactive)
REMARK    1  A    between atoms: C2_2  and  C9_9 
REMARK    2  A    between atoms: C2_2  and  C10_10 
REMARK    3  A    between atoms: C3_3  and  C5_5 
REMARK    4  A    between atoms: C3_3  and  C9_9 
ROOT
HETATM    1  C3  UNL     1     -33.785   6.256   3.993  1.00 20.00     0.135 C 
HETATM    2  O11 UNL     1     -34.901   6.667   3.702  1.00 20.00    -0.297 OA
ENDROOT
BRANCH   1   3
HETATM    3  C5  UNL     1     -33.484   5.853   5.398  1.00 20.00     0.060 A 
HETATM    4  C4  UNL     1     -34.534   6.065   6.441  1.00 20.00     0.017 A 
HETATM    5  C6  UNL     1     -34.178   4.672   6.004  1.00 20.00    -0.007 A 
HETATM    6  C7  UNL     1     -35.172   3.846   5.262  1.00 20.00     0.011 C 
ENDBRANCH   1   3
BRANCH   1   7
HETATM    7  C9  UNL     1     -32.619   6.152   3.025  1.00 20.00     0.111 C 
BRANCH   7   8
HETATM    8  C2  UNL     1     -31.897   7.468   2.893  1.00 20.00    -0.083 C 
HETATM    9  C1  UNL     1     -31.212   7.989   3.924  1.00 20.00     0.014 C 
BRANCH   8  10
HETATM   10  C10 UNL     1     -31.977   8.185   1.566  1.00 20.00     0.029 C 
HETATM   11  C8  UNL     1     -32.509   9.606   1.697  1.00 20.00     0.010 C 
ENDBRANCH   8  10
ENDBRANCH   7   8
ENDBRANCH   1   7
TORSDOF 4
ENDMDL
MODEL 2
REMARK VINA RESULT:      -4.7     11.256     12.538
REMARK  4 active torsions:
REMARK  status: ('A' for Active; 'I' for Inactive)
REMARK    1  A    between atoms: C2_2  and  C9_9 
REMARK    2  A    between atoms: C2_2  and  C10_10 
REMARK    3  A    between atoms: C3_3  and  C5_5 
REMARK    4  A    between atoms: C3_3  and  C9_9 
ROOT
HETATM    1  C3  UNL     1     -34.218  13.973  -4.748  1.00 20.00     0.135 C 
HETATM    2  O11 UNL     1     -34.715  12.864  -4.595  1.00 20.00    -0.297 OA
ENDROOT
BRANCH   1   3
HETATM    3  C5  UNL     1     -34.475  14.735  -6.005  1.00 20.00     0.060 A 
HETATM    4  C4  UNL     1     -35.395  14.142  -7.024  1.00 20.00     0.017 A 
HETATM    5  C6  UNL     1     -35.816  15.356  -6.246  1.00 20.00    -0.007 A 
HETATM    6  C7  UNL     1     -36.940  15.264  -5.271  1.00 20.00     0.011 C 
ENDBRANCH   1   3
BRANCH   1   7
HETATM    7  C9  UNL     1     -33.295  14.655  -3.754  1.00 20.00     0.111 C 
BRANCH   7   8
HETATM    8  C2  UNL     1     -33.920  15.908  -3.197  1.00 20.00    -0.083 C 
HETATM    9  C1  UNL     1     -33.581  17.119  -3.667  1.00 20.00     0.014 C 
BRANCH   8  10
HETATM   10  C10 UNL     1     -34.934  15.756  -2.088  1.00 20.00     0.029 C 
HETATM   11  C8  UNL     1     -34.610  16.616  -0.874  1.00 20.00     0.010 C 
ENDBRANCH   8  10
ENDBRANCH   7   8
ENDBRANCH   1   7
TORSDOF 4
ENDMDL
MODEL 3
REMARK VINA RESULT:      -4.7      1.125      1.665
REMARK  4 active torsions:
REMARK  status: ('A' for Active; 'I' for Inactive)
REMARK    1  A    between atoms: C2_2  and  C9_9 
REMARK    2  A    between atoms: C2_2  and  C10_10 
REMARK    3  A    between atoms: C3_3  and  C5_5 
REMARK    4  A    between atoms: C3_3  and  C9_9 
ROOT
HETATM    1  C3  UNL     1     -34.113   5.712   3.314  1.00 20.00     0.135 C 
HETATM    2  O11 UNL     1     -33.553   4.937   2.547  1.00 20.00    -0.297 OA
ENDROOT
BRANCH   1   3
HETATM    3  C5  UNL     1     -35.179   5.210   4.229  1.00 20.00     0.060 A 
HETATM    4  C4  UNL     1     -34.880   4.026   5.092  1.00 20.00     0.017 A 
HETATM    5  C6  UNL     1     -35.042   5.387   5.710  1.00 20.00    -0.007 A 
HETATM    6  C7  UNL     1     -33.874   6.063   6.341  1.00 20.00     0.011 C 
ENDBRANCH   1   3
BRANCH   1   7
HETATM    7  C9  UNL     1     -33.838   7.203   3.394  1.00 20.00     0.111 C 
BRANCH   7   8
HETATM    8  C2  UNL     1     -32.413   7.519   3.019  1.00 20.00    -0.083 C 
HETATM    9  C1  UNL     1     -31.402   7.274   3.868  1.00 20.00     0.014 C 
BRANCH   8  10
HETATM   10  C10 UNL     1     -32.162   8.126   1.659  1.00 20.00     0.029 C 
HETATM   11  C8  UNL     1     -32.509   9.607   1.604  1.00 20.00     0.010 C 
ENDBRANCH   8  10
ENDBRANCH   7   8
ENDBRANCH   1   7
TORSDOF 4
ENDMDL
MODEL 4
REMARK VINA RESULT:      -4.7      1.502      5.015
REMARK  4 active torsions:
REMARK  status: ('A' for Active; 'I' for Inactive)
REMARK    1  A    between atoms: C2_2  and  C9_9 
REMARK    2  A    between atoms: C2_2  and  C10_10 
REMARK    3  A    between atoms: C3_3  and  C5_5 
REMARK    4  A    between atoms: C3_3  and  C9_9 
ROOT
HETATM    1  C3  UNL     1     -32.130   7.552   3.071  1.00 20.00     0.135 C 
HETATM    2  O11 UNL     1     -31.172   7.997   3.691  1.00 20.00    -0.297 OA
ENDROOT
BRANCH   1   3
HETATM    3  C5  UNL     1     -32.960   8.464   2.231  1.00 20.00     0.060 A 
HETATM    4  C4  UNL     1     -32.498   9.873   2.036  1.00 20.00     0.017 A 
HETATM    5  C6  UNL     1     -32.467   8.905   0.888  1.00 20.00    -0.007 A 
HETATM    6  C7  UNL     1     -31.162   8.465   0.319  1.00 20.00     0.011 C 
ENDBRANCH   1   3
BRANCH   1   7
HETATM    7  C9  UNL     1     -32.593   6.106   3.110  1.00 20.00     0.111 C 
BRANCH   7   8
HETATM    8  C2  UNL     1     -33.841   5.953   3.941  1.00 20.00    -0.083 C 
HETATM    9  C1  UNL     1     -34.965   5.440   3.415  1.00 20.00     0.014 C 
BRANCH   8  10
HETATM   10  C10 UNL     1     -33.787   6.403   5.382  1.00 20.00     0.029 C 
HETATM   11  C8  UNL     1     -34.545   5.470   6.317  1.00 20.00     0.010 C 
ENDBRANCH   8  10
ENDBRANCH   7   8
ENDBRANCH   1   7
TORSDOF 4
ENDMDL
MODEL 5
REMARK VINA RESULT:      -4.7     11.130     12.172
REMARK  4 active torsions:
REMARK  status: ('A' for Active; 'I' for Inactive)
REMARK    1  A    between atoms: C2_2  and  C9_9 
REMARK    2  A    between atoms: C2_2  and  C10_10 
REMARK    3  A    between atoms: C3_3  and  C5_5 
REMARK    4  A    between atoms: C3_3  and  C9_9 
ROOT
HETATM    1  C3  UNL     1     -33.596  14.651  -3.445  1.00 20.00     0.135 C 
HETATM    2  O11 UNL     1     -32.384  14.801  -3.532  1.00 20.00    -0.297 OA
ENDROOT
BRANCH   1   3
HETATM    3  C5  UNL     1     -34.268  13.567  -4.222  1.00 20.00     0.060 A 
HETATM    4  C4  UNL     1     -35.729  13.695  -4.509  1.00 20.00     0.017 A 
HETATM    5  C6  UNL     1     -34.730  13.824  -5.623  1.00 20.00    -0.007 A 
HETATM    6  C7  UNL     1     -34.545  15.133  -6.312  1.00 20.00     0.011 C 
ENDBRANCH   1   3
BRANCH   1   7
HETATM    7  C9  UNL     1     -34.523  15.525  -2.618  1.00 20.00     0.111 C 
BRANCH   7   8
HETATM    8  C2  UNL     1     -34.000  16.934  -2.516  1.00 20.00    -0.083 C 
HETATM    9  C1  UNL     1     -33.859  17.702  -3.608  1.00 20.00     0.014 C 
BRANCH   8  10
HETATM   10  C10 UNL     1     -33.633  17.451  -1.145  1.00 20.00     0.029 C 
HETATM   11  C8  UNL     1     -34.706  17.165  -0.103  1.00 20.00     0.010 C 
ENDBRANCH   8  10
ENDBRANCH   7   8
ENDBRANCH   1   7
TORSDOF 4
ENDMDL
MODEL 6
REMARK VINA RESULT:      -4.7      0.780      1.372
REMARK  4 active torsions:
REMARK  status: ('A' for Active; 'I' for Inactive)
REMARK    1  A    between atoms: C2_2  and  C9_9 
REMARK    2  A    between atoms: C2_2  and  C10_10 
REMARK    3  A    between atoms: C3_3  and  C5_5 
REMARK    4  A    between atoms: C3_3  and  C9_9 
ROOT
HETATM    1  C3  UNL     1     -34.290   6.176   3.726  1.00 20.00     0.135 C 
HETATM    2  O11 UNL     1     -34.943   7.154   3.383  1.00 20.00    -0.297 OA
ENDROOT
BRANCH   1   3
HETATM    3  C5  UNL     1     -34.869   5.199   4.694  1.00 20.00     0.060 A 
HETATM    4  C4  UNL     1     -33.936   4.341   5.487  1.00 20.00     0.017 A 
HETATM    5  C6  UNL     1     -34.723   5.424   6.167  1.00 20.00    -0.007 A 
HETATM    6  C7  UNL     1     -34.021   6.607   6.741  1.00 20.00     0.011 C 
ENDBRANCH   1   3
BRANCH   1   7
HETATM    7  C9  UNL     1     -32.874   5.875   3.269  1.00 20.00     0.111 C 
BRANCH   7   8
HETATM    8  C2  UNL     1     -32.074   7.139   3.093  1.00 20.00    -0.083 C 
HETATM    9  C1  UNL     1     -31.443   7.711   4.131  1.00 20.00     0.014 C 
BRANCH   8  10
HETATM   10  C10 UNL     1     -32.012   7.746   1.711  1.00 20.00     0.029 C 
HETATM   11  C8  UNL     1     -32.349   9.231   1.706  1.00 20.00     0.010 C 
ENDBRANCH   8  10
ENDBRANCH   7   8
ENDBRANCH   1   7
TORSDOF 4
ENDMDL
MODEL 7
REMARK VINA RESULT:      -4.6     11.040     13.004
REMARK  4 active torsions:
REMARK  status: ('A' for Active; 'I' for Inactive)
REMARK    1  A    between atoms: C2_2  and  C9_9 
REMARK    2  A    between atoms: C2_2  and  C10_10 
REMARK    3  A    between atoms: C3_3  and  C5_5 
REMARK    4  A    between atoms: C3_3  and  C9_9 
ROOT
HETATM    1  C3  UNL     1     -35.877  14.378  -5.454  1.00 20.00     0.135 C 
HETATM    2  O11 UNL     1     -36.928  15.007  -5.445  1.00 20.00    -0.297 OA
ENDROOT
BRANCH   1   3
HETATM    3  C5  UNL     1     -35.025  14.372  -6.679  1.00 20.00     0.060 A 
HETATM    4  C4  UNL     1     -35.410  15.259  -7.820  1.00 20.00     0.017 A 
HETATM    5  C6  UNL     1     -34.180  15.563  -7.012  1.00 20.00    -0.007 A 
HETATM    6  C7  UNL     1     -34.131  16.786  -6.162  1.00 20.00     0.011 C 
ENDBRANCH   1   3
BRANCH   1   7
HETATM    7  C9  UNL     1     -35.358  13.538  -4.300  1.00 20.00     0.111 C 
BRANCH   7   8
HETATM    8  C2  UNL     1     -34.324  14.286  -3.499  1.00 20.00    -0.083 C 
HETATM    9  C1  UNL     1     -33.024  13.954  -3.563  1.00 20.00     0.014 C 
BRANCH   8  10
HETATM   10  C10 UNL     1     -34.799  15.416  -2.616  1.00 20.00     0.029 C 
HETATM   11  C8  UNL     1     -33.719  16.461  -2.368  1.00 20.00     0.010 C 
ENDBRANCH   8  10
ENDBRANCH   7   8
ENDBRANCH   1   7
TORSDOF 4
ENDMDL
MODEL 8
REMARK VINA RESULT:      -4.5     11.105     12.705
REMARK  4 active torsions:
REMARK  status: ('A' for Active; 'I' for Inactive)
REMARK    1  A    between atoms: C2_2  and  C9_9 
REMARK    2  A    between atoms: C2_2  and  C10_10 
REMARK    3  A    between atoms: C3_3  and  C5_5 
REMARK    4  A    between atoms: C3_3  and  C9_9 
ROOT
HETATM    1  C3  UNL     1     -36.286  14.322  -4.329  1.00 20.00     0.135 C 
HETATM    2  O11 UNL     1     -37.366  14.151  -3.778  1.00 20.00    -0.297 OA
ENDROOT
BRANCH   1   3
HETATM    3  C5  UNL     1     -36.234  14.943  -5.685  1.00 20.00     0.060 A 
HETATM    4  C4  UNL     1     -37.513  15.404  -6.308  1.00 20.00     0.017 A 
HETATM    5  C6  UNL     1     -36.493  16.408  -5.851  1.00 20.00    -0.007 A 
HETATM    6  C7  UNL     1     -36.798  17.313  -4.706  1.00 20.00     0.011 C 
ENDBRANCH   1   3
BRANCH   1   7
HETATM    7  C9  UNL     1     -34.942  13.910  -3.753  1.00 20.00     0.111 C 
BRANCH   7   8
HETATM    8  C2  UNL     1     -34.179  15.101  -3.235  1.00 20.00    -0.083 C 
HETATM    9  C1  UNL     1     -33.019  15.479  -3.796  1.00 20.00     0.014 C 
BRANCH   8  10
HETATM   10  C10 UNL     1     -34.759  15.850  -2.058  1.00 20.00     0.029 C 
HETATM   11  C8  UNL     1     -33.861  16.986  -1.586  1.00 20.00     0.010 C 
ENDBRANCH   8  10
ENDBRANCH   7   8
ENDBRANCH   1   7
TORSDOF 4
ENDMDL
MODEL 9
REMARK VINA RESULT:      -4.5     11.096     12.475
REMARK  4 active torsions:
REMARK  status: ('A' for Active; 'I' for Inactive)
REMARK    1  A    between atoms: C2_2  and  C9_9 
REMARK    2  A    between atoms: C2_2  and  C10_10 
REMARK    3  A    between atoms: C3_3  and  C5_5 
REMARK    4  A    between atoms: C3_3  and  C9_9 
ROOT
HETATM    1  C3  UNL     1     -34.165  15.549  -5.396  1.00 20.00     0.135 C 
HETATM    2  O11 UNL     1     -34.792  16.046  -6.323  1.00 20.00    -0.297 OA
ENDROOT
BRANCH   1   3
HETATM    3  C5  UNL     1     -34.345  14.105  -5.068  1.00 20.00     0.060 A 
HETATM    4  C4  UNL     1     -34.190  13.671  -3.645  1.00 20.00     0.017 A 
HETATM    5  C6  UNL     1     -35.545  13.654  -4.294  1.00 20.00    -0.007 A 
HETATM    6  C7  UNL     1     -36.607  14.590  -3.826  1.00 20.00     0.011 C 
ENDBRANCH   1   3
BRANCH   1   7
HETATM    7  C9  UNL     1     -33.213  16.307  -4.488  1.00 20.00     0.111 C 
BRANCH   7   8
HETATM    8  C2  UNL     1     -33.962  17.102  -3.450  1.00 20.00    -0.083 C 
HETATM    9  C1  UNL     1     -34.923  17.971  -3.803  1.00 20.00     0.014 C 
BRANCH   8  10
HETATM   10  C10 UNL     1     -33.591  16.894  -2.001  1.00 20.00     0.029 C 
HETATM   11  C8  UNL     1     -34.777  16.471  -1.145  1.00 20.00     0.010 C 
ENDBRANCH   8  10
ENDBRANCH   7   8
ENDBRANCH   1   7
TORSDOF 4
ENDMDL
