MODEL 1
REMARK VINA RESULT:      -4.2      0.000      0.000
REMARK  4 active torsions:
REMARK  status: ('A' for Active; 'I' for Inactive)
REMARK    1  A    between atoms: C4_4  and  C7_7 
REMARK    2  A    between atoms: C4_4  and  C8_8 
REMARK    3  A    between atoms: C7_7  and  C9_9 
REMARK    4  A    between atoms: C9_9  and  C10_10 
ROOT
HETATM    1  C1  UNL     1     -34.827  13.613  -5.225  1.00 20.00     0.002 C 
HETATM    2  C2  UNL     1     -35.464  15.011  -5.106  1.00 20.00     0.010 C 
HETATM    3  C3  UNL     1     -34.481  13.699  -3.726  1.00 20.00     0.010 C 
HETATM    4  C4  UNL     1     -34.594  15.249  -3.837  1.00 20.00    -0.028 C 
ENDROOT
BRANCH   4   5
HETATM    5  C7  UNL     1     -35.347  15.899  -2.681  1.00 20.00     0.011 C 
BRANCH   5   6
HETATM    6  C9  UNL     1     -34.418  16.174  -1.496  1.00 20.00     0.005 C 
BRANCH   6   7
HETATM    7  C10 UNL     1     -34.639  17.554  -0.849  1.00 20.00    -0.023 C 
HETATM    8  C5  UNL     1     -33.349  18.375  -0.926  1.00 20.00     0.009 C 
HETATM    9  C6  UNL     1     -35.098  17.450   0.607  1.00 20.00     0.009 C 
ENDBRANCH   6   7
ENDBRANCH   5   6
ENDBRANCH   4   5
BRANCH   4  10
HETATM   10  C8  UNL     1     -33.266  15.956  -4.109  1.00 20.00     0.124 C 
HETATM   11 CL11 UNL     1     -33.559  17.642  -4.564  1.00 20.00    -0.130 Cl
ENDBRANCH   4  10
TORSDOF 4
ENDMDL
MODEL 2
REMARK VINA RESULT:      -4.2      1.145      1.535
REMARK  4 active torsions:
REMARK  status: ('A' for Active; 'I' for Inactive)
REMARK    1  A    between atoms: C4_4  and  C7_7 
REMARK    2  A    between atoms: C4_4  and  C8_8 
REMARK    3  A    between atoms: C7_7  and  C9_9 
REMARK    4  A    between atoms: C9_9  and  C10_10 
ROOT
HETATM    1  C1  UNL     1     -34.700  13.188  -4.655  1.00 20.00     0.002 C 
HETATM    2  C2  UNL     1     -35.762  14.111  -4.027  1.00 20.00     0.010 C 
HETATM    3  C3  UNL     1     -33.635  13.939  -3.833  1.00 20.00     0.010 C 
HETATM    4  C4  UNL     1     -34.628  15.134  -3.726  1.00 20.00    -0.028 C 
ENDROOT
BRANCH   4   5
HETATM    5  C7  UNL     1     -34.704  15.755  -2.335  1.00 20.00     0.011 C 
BRANCH   5   6
HETATM    6  C9  UNL     1     -33.744  16.939  -2.201  1.00 20.00     0.005 C 
BRANCH   6   7
HETATM    7  C10 UNL     1     -33.630  17.477  -0.762  1.00 20.00    -0.023 C 
HETATM    8  C5  UNL     1     -34.941  17.229  -0.011  1.00 20.00     0.009 C 
HETATM    9  C6  UNL     1     -33.286  18.967  -0.721  1.00 20.00     0.009 C 
ENDBRANCH   6   7
ENDBRANCH   5   6
ENDBRANCH   4   5
BRANCH   4  10
HETATM   10  C8  UNL     1     -34.444  16.201  -4.806  1.00 20.00     0.124 C 
HETATM   11 CL11 UNL     1     -35.849  17.278  -4.842  1.00 20.00    -0.130 Cl
ENDBRANCH   4  10
TORSDOF 4
ENDMDL
MODEL 3
REMARK VINA RESULT:      -4.1      1.269      2.032
REMARK  4 active torsions:
REMARK  status: ('A' for Active; 'I' for Inactive)
REMARK    1  A    between atoms: C4_4  and  C7_7 
REMARK    2  A    between atoms: C4_4  and  C8_8 
REMARK    3  A    between atoms: C7_7  and  C9_9 
REMARK    4  A    between atoms: C9_9  and  C10_10 
ROOT
HETATM    1  C1  UNL     1     -34.626  13.631  -5.313  1.00 20.00     0.002 C 
HETATM    2  C2  UNL     1     -34.417  13.543  -3.789  1.00 20.00     0.010 C 
HETATM    3  C3  UNL     1     -34.415  15.154  -5.202  1.00 20.00     0.010 C 
HETATM    4  C4  UNL     1     -34.797  15.050  -3.696  1.00 20.00    -0.028 C 
ENDROOT
BRANCH   4   5
HETATM    5  C7  UNL     1     -33.897  15.861  -2.771  1.00 20.00     0.011 C 
BRANCH   5   6
HETATM    6  C9  UNL     1     -34.621  16.233  -1.474  1.00 20.00     0.005 C 
BRANCH   6   7
HETATM    7  C10 UNL     1     -33.968  17.407  -0.721  1.00 20.00    -0.023 C 
HETATM    8  C5  UNL     1     -34.753  17.702   0.560  1.00 20.00     0.009 C 
HETATM    9  C6  UNL     1     -33.878  18.673  -1.574  1.00 20.00     0.009 C 
ENDBRANCH   6   7
ENDBRANCH   5   6
ENDBRANCH   4   5
BRANCH   4  10
HETATM   10  C8  UNL     1     -36.276  15.307  -3.405  1.00 20.00     0.124 C 
HETATM   11 CL11 UNL     1     -36.738  16.914  -3.985  1.00 20.00    -0.130 Cl
ENDBRANCH   4  10
TORSDOF 4
ENDMDL
MODEL 4
REMARK VINA RESULT:      -4.1      1.698      2.466
REMARK  4 active torsions:
REMARK  status: ('A' for Active; 'I' for Inactive)
REMARK    1  A    between atoms: C4_4  and  C7_7 
REMARK    2  A    between atoms: C4_4  and  C8_8 
REMARK    3  A    between atoms: C7_7  and  C9_9 
REMARK    4  A    between atoms: C9_9  and  C10_10 
ROOT
HETATM    1  C1  UNL     1     -35.396  14.439  -7.104  1.00 20.00     0.002 C 
HETATM    2  C2  UNL     1     -34.257  15.088  -6.294  1.00 20.00     0.010 C 
HETATM    3  C3  UNL     1     -36.373  14.906  -6.006  1.00 20.00     0.010 C 
HETATM    4  C4  UNL     1     -35.162  14.991  -5.031  1.00 20.00    -0.028 C 
ENDROOT
BRANCH   4   5
HETATM    5  C7  UNL     1     -35.153  16.244  -4.162  1.00 20.00     0.011 C 
BRANCH   5   6
HETATM    6  C9  UNL     1     -35.244  15.892  -2.675  1.00 20.00     0.005 C 
BRANCH   6   7
HETATM    7  C10 UNL     1     -34.182  16.597  -1.812  1.00 20.00    -0.023 C 
HETATM    8  C5  UNL     1     -34.727  16.819  -0.398  1.00 20.00     0.009 C 
HETATM    9  C6  UNL     1     -33.735  17.934  -2.408  1.00 20.00     0.009 C 
ENDBRANCH   6   7
ENDBRANCH   5   6
ENDBRANCH   4   5
BRANCH   4  10
HETATM   10  C8  UNL     1     -34.940  13.730  -4.195  1.00 20.00     0.124 C 
HETATM   11 CL11 UNL     1     -33.226  13.570  -3.781  1.00 20.00    -0.130 Cl
ENDBRANCH   4  10
TORSDOF 4
ENDMDL
MODEL 5
REMARK VINA RESULT:      -4.1      2.085      4.807
REMARK  4 active torsions:
REMARK  status: ('A' for Active; 'I' for Inactive)
REMARK    1  A    between atoms: C4_4  and  C7_7 
REMARK    2  A    between atoms: C4_4  and  C8_8 
REMARK    3  A    between atoms: C7_7  and  C9_9 
REMARK    4  A    between atoms: C9_9  and  C10_10 
ROOT
HETATM    1  C1  UNL     1     -34.399  16.603  -1.289  1.00 20.00     0.002 C 
HETATM    2  C2  UNL     1     -35.111  15.690  -2.305  1.00 20.00     0.010 C 
HETATM    3  C3  UNL     1     -33.860  17.421  -2.479  1.00 20.00     0.010 C 
HETATM    4  C4  UNL     1     -34.096  16.174  -3.382  1.00 20.00    -0.028 C 
ENDROOT
BRANCH   4   5
HETATM    5  C7  UNL     1     -34.728  16.498  -4.731  1.00 20.00     0.011 C 
BRANCH   5   6
HETATM    6  C9  UNL     1     -33.730  16.304  -5.875  1.00 20.00     0.005 C 
BRANCH   6   7
HETATM    7  C10 UNL     1     -34.339  15.620  -7.112  1.00 20.00    -0.023 C 
HETATM    8  C5  UNL     1     -35.153  16.636  -7.918  1.00 20.00     0.009 C 
HETATM    9  C6  UNL     1     -35.223  14.426  -6.746  1.00 20.00     0.009 C 
ENDBRANCH   6   7
ENDBRANCH   5   6
ENDBRANCH   4   5
BRANCH   4  10
HETATM   10  C8  UNL     1     -32.871  15.274  -3.539  1.00 20.00     0.124 C 
HETATM   11 CL11 UNL     1     -33.378  13.592  -3.766  1.00 20.00    -0.130 Cl
ENDBRANCH   4  10
TORSDOF 4
ENDMDL
MODEL 6
REMARK VINA RESULT:      -4.1     11.646     12.764
REMARK  4 active torsions:
REMARK  status: ('A' for Active; 'I' for Inactive)
REMARK    1  A    between atoms: C4_4  and  C7_7 
REMARK    2  A    between atoms: C4_4  and  C8_8 
REMARK    3  A    between atoms: C7_7  and  C9_9 
REMARK    4  A    between atoms: C9_9  and  C10_10 
ROOT
HETATM    1  C1  UNL     1     -35.324   4.045   5.974  1.00 20.00     0.002 C 
HETATM    2  C2  UNL     1     -33.827   4.408   5.953  1.00 20.00     0.010 C 
HETATM    3  C3  UNL     1     -35.452   4.712   4.590  1.00 20.00     0.010 C 
HETATM    4  C4  UNL     1     -34.157   5.515   4.910  1.00 20.00    -0.028 C 
ENDROOT
BRANCH   4   5
HETATM    5  C7  UNL     1     -33.171   5.589   3.749  1.00 20.00     0.011 C 
BRANCH   5   6
HETATM    6  C9  UNL     1     -33.307   6.909   2.986  1.00 20.00     0.005 C 
BRANCH   6   7
HETATM    7  C10 UNL     1     -31.954   7.534   2.596  1.00 20.00    -0.023 C 
HETATM    8  C5  UNL     1     -31.154   7.865   3.858  1.00 20.00     0.009 C 
HETATM    9  C6  UNL     1     -32.117   8.794   1.743  1.00 20.00     0.009 C 
ENDBRANCH   6   7
ENDBRANCH   5   6
ENDBRANCH   4   5
BRANCH   4  10
HETATM   10  C8  UNL     1     -34.409   6.895   5.518  1.00 20.00     0.124 C 
HETATM   11 CL11 UNL     1     -33.203   7.237   6.769  1.00 20.00    -0.130 Cl
ENDBRANCH   4  10
TORSDOF 4
ENDMDL
MODEL 7
REMARK VINA RESULT:      -4.1      1.756      2.427
REMARK  4 active torsions:
REMARK  status: ('A' for Active; 'I' for Inactive)
REMARK    1  A    between atoms: C4_4  and  C7_7 
REMARK    2  A    between atoms: C4_4  and  C8_8 
REMARK    3  A    between atoms: C7_7  and  C9_9 
REMARK    4  A    between atoms: C9_9  and  C10_10 
ROOT
HETATM    1  C1  UNL     1     -34.241  17.300  -5.771  1.00 20.00     0.002 C 
HETATM    2  C2  UNL     1     -33.275  16.331  -5.060  1.00 20.00     0.010 C 
HETATM    3  C3  UNL     1     -34.827  17.648  -4.389  1.00 20.00     0.010 C 
HETATM    4  C4  UNL     1     -34.269  16.293  -3.863  1.00 20.00    -0.028 C 
ENDROOT
BRANCH   4   5
HETATM    5  C7  UNL     1     -33.599  16.387  -2.496  1.00 20.00     0.011 C 
BRANCH   5   6
HETATM    6  C9  UNL     1     -34.632  16.367  -1.367  1.00 20.00     0.005 C 
BRANCH   6   7
HETATM    7  C10 UNL     1     -34.636  17.651  -0.517  1.00 20.00    -0.023 C 
HETATM    8  C5  UNL     1     -33.227  18.248  -0.472  1.00 20.00     0.009 C 
HETATM    9  C6  UNL     1     -35.138  17.407   0.908  1.00 20.00     0.009 C 
ENDBRANCH   6   7
ENDBRANCH   5   6
ENDBRANCH   4   5
BRANCH   4  10
HETATM   10  C8  UNL     1     -35.271  15.139  -3.917  1.00 20.00     0.124 C 
HETATM   11 CL11 UNL     1     -34.452  13.607  -3.575  1.00 20.00    -0.130 Cl
ENDBRANCH   4  10
TORSDOF 4
ENDMDL
MODEL 8
REMARK VINA RESULT:      -4.1      1.122      4.586
REMARK  4 active torsions:
REMARK  status: ('A' for Active; 'I' for Inactive)
REMARK    1  A    between atoms: C4_4  and  C7_7 
REMARK    2  A    between atoms: C4_4  and  C8_8 
REMARK    3  A    between atoms: C7_7  and  C9_9 
REMARK    4  A    between atoms: C9_9  and  C10_10 
ROOT
HETATM    1  C1  UNL     1     -34.078  18.164   0.465  1.00 20.00     0.002 C 
HETATM    2  C2  UNL     1     -33.169  18.182  -0.779  1.00 20.00     0.010 C 
HETATM    3  C3  UNL     1     -34.806  16.951  -0.147  1.00 20.00     0.010 C 
HETATM    4  C4  UNL     1     -34.277  17.398  -1.542  1.00 20.00    -0.028 C 
ENDROOT
BRANCH   4   5
HETATM    5  C7  UNL     1     -33.748  16.253  -2.400  1.00 20.00     0.011 C 
BRANCH   5   6
HETATM    6  C9  UNL     1     -34.891  15.396  -2.951  1.00 20.00     0.005 C 
BRANCH   6   7
HETATM    7  C10 UNL     1     -34.442  13.997  -3.412  1.00 20.00    -0.023 C 
HETATM    8  C5  UNL     1     -32.927  13.984  -3.629  1.00 20.00     0.009 C 
HETATM    9  C6  UNL     1     -35.150  13.549  -4.692  1.00 20.00     0.009 C 
ENDBRANCH   6   7
ENDBRANCH   5   6
ENDBRANCH   4   5
BRANCH   4  10
HETATM   10  C8  UNL     1     -35.245  18.283  -2.327  1.00 20.00     0.124 C 
HETATM   11 CL11 UNL     1     -34.511  18.778  -3.860  1.00 20.00    -0.130 Cl
ENDBRANCH   4  10
TORSDOF 4
ENDMDL
MODEL 9
REMARK VINA RESULT:      -4.0      1.616      1.723
REMARK  4 active torsions:
REMARK  status: ('A' for Active; 'I' for Inactive)
REMARK    1  A    between atoms: C4_4  and  C7_7 
REMARK    2  A    between atoms: C4_4  and  C8_8 
REMARK    3  A    between atoms: C7_7  and  C9_9 
REMARK    4  A    between atoms: C9_9  and  C10_10 
ROOT
HETATM    1  C1  UNL     1     -36.579  15.316  -5.082  1.00 20.00     0.002 C 
HETATM    2  C2  UNL     1     -35.922  16.516  -4.372  1.00 20.00     0.010 C 
HETATM    3  C3  UNL     1     -36.109  14.431  -3.911  1.00 20.00     0.010 C 
HETATM    4  C4  UNL     1     -35.028  15.507  -3.593  1.00 20.00    -0.028 C 
ENDROOT
BRANCH   4   5
HETATM    5  C7  UNL     1     -34.885  15.821  -2.108  1.00 20.00     0.011 C 
BRANCH   5   6
HETATM    6  C9  UNL     1     -33.739  16.803  -1.855  1.00 20.00     0.005 C 
BRANCH   6   7
HETATM    7  C10 UNL     1     -34.068  17.869  -0.793  1.00 20.00    -0.023 C 
HETATM    8  C5  UNL     1     -32.771  18.435  -0.208  1.00 20.00     0.009 C 
HETATM    9  C6  UNL     1     -34.947  17.322   0.333  1.00 20.00     0.009 C 
ENDBRANCH   6   7
ENDBRANCH   5   6
ENDBRANCH   4   5
BRANCH   4  10
HETATM   10  C8  UNL     1     -33.670  15.241  -4.243  1.00 20.00     0.124 C 
HETATM   11 CL11 UNL     1     -32.984  13.732  -3.621  1.00 20.00    -0.130 Cl
ENDBRANCH   4  10
TORSDOF 4
ENDMDL
