MODEL 1
REMARK VINA RESULT:      -4.5      0.000      0.000
REMARK  4 active torsions:
REMARK  status: ('A' for Active; 'I' for Inactive)
REMARK    1  A    between atoms: C3_3  and  C6_6 
REMARK    2  A    between atoms: C3_3  and  C7_7 
REMARK    3  A    between atoms: C6_6  and  C8_8 
REMARK    4  A    between atoms: C8_8  and  C9_9 
ROOT
HETATM    1  C1  UNL     1     -35.787   4.976   4.318  1.00 20.00     0.011 A 
HETATM    2  C2  UNL     1     -34.495   4.208   4.286  1.00 20.00     0.011 A 
HETATM    3  C3  UNL     1     -34.530   5.593   4.887  1.00 20.00    -0.028 A 
ENDROOT
BRANCH   3   4
HETATM    4  C6  UNL     1     -33.877   6.725   4.107  1.00 20.00     0.011 C 
BRANCH   4   5
HETATM    5  C8  UNL     1     -32.840   6.193   3.114  1.00 20.00     0.005 C 
BRANCH   5   6
HETATM    6  C9  UNL     1     -31.695   7.184   2.833  1.00 20.00    -0.023 C 
HETATM    7  C4  UNL     1     -31.236   7.831   4.141  1.00 20.00     0.009 C 
HETATM    8  C5  UNL     1     -32.096   8.270   1.834  1.00 20.00     0.009 C 
ENDBRANCH   5   6
ENDBRANCH   4   5
ENDBRANCH   3   4
BRANCH   3   9
HETATM    9  C7  UNL     1     -34.418   5.717   6.382  1.00 20.00     0.124 C 
HETATM   10 CL10 UNL     1     -33.592   7.228   6.832  1.00 20.00    -0.130 Cl
ENDBRANCH   3   9
TORSDOF 4
ENDMDL
MODEL 2
REMARK VINA RESULT:      -4.3      1.107      1.812
REMARK  4 active torsions:
REMARK  status: ('A' for Active; 'I' for Inactive)
REMARK    1  A    between atoms: C3_3  and  C6_6 
REMARK    2  A    between atoms: C3_3  and  C7_7 
REMARK    3  A    between atoms: C6_6  and  C8_8 
REMARK    4  A    between atoms: C8_8  and  C9_9 
ROOT
HETATM    1  C1  UNL     1     -35.291   5.786   3.439  1.00 20.00     0.011 A 
HETATM    2  C2  UNL     1     -34.554   4.634   4.061  1.00 20.00     0.011 A 
HETATM    3  C3  UNL     1     -33.878   5.979   3.939  1.00 20.00    -0.028 A 
ENDROOT
BRANCH   3   4
HETATM    4  C6  UNL     1     -32.771   6.129   2.907  1.00 20.00     0.011 C 
BRANCH   4   5
HETATM    5  C8  UNL     1     -32.135   7.521   2.970  1.00 20.00     0.005 C 
BRANCH   5   6
HETATM    6  C9  UNL     1     -32.542   8.435   1.798  1.00 20.00    -0.023 C 
HETATM    7  C4  UNL     1     -31.476   8.376   0.701  1.00 20.00     0.009 C 
HETATM    8  C5  UNL     1     -32.753   9.884   2.235  1.00 20.00     0.009 C 
ENDBRANCH   5   6
ENDBRANCH   4   5
ENDBRANCH   3   4
BRANCH   3   9
HETATM    9  C7  UNL     1     -33.678   6.784   5.194  1.00 20.00     0.124 C 
HETATM   10 CL10 UNL     1     -34.376   5.947   6.601  1.00 20.00    -0.130 Cl
ENDBRANCH   3   9
TORSDOF 4
ENDMDL
MODEL 3
REMARK VINA RESULT:      -4.2     11.809     12.565
REMARK  4 active torsions:
REMARK  status: ('A' for Active; 'I' for Inactive)
REMARK    1  A    between atoms: C3_3  and  C6_6 
REMARK    2  A    between atoms: C3_3  and  C7_7 
REMARK    3  A    between atoms: C6_6  and  C8_8 
REMARK    4  A    between atoms: C8_8  and  C9_9 
ROOT
HETATM    1  C1  UNL     1     -34.514  13.258  -4.609  1.00 20.00     0.011 A 
HETATM    2  C2  UNL     1     -35.752  13.985  -4.165  1.00 20.00     0.011 A 
HETATM    3  C3  UNL     1     -34.472  14.754  -4.394  1.00 20.00    -0.028 A 
ENDROOT
BRANCH   3   4
HETATM    4  C6  UNL     1     -33.726  15.278  -3.176  1.00 20.00     0.011 C 
BRANCH   4   5
HETATM    5  C8  UNL     1     -34.683  15.934  -2.178  1.00 20.00     0.005 C 
BRANCH   5   6
HETATM    6  C9  UNL     1     -33.994  16.953  -1.249  1.00 20.00    -0.023 C 
HETATM    7  C4  UNL     1     -34.850  17.175   0.001  1.00 20.00     0.009 C 
HETATM    8  C5  UNL     1     -33.735  18.291  -1.941  1.00 20.00     0.009 C 
ENDBRANCH   5   6
ENDBRANCH   4   5
ENDBRANCH   3   4
BRANCH   3   9
HETATM    9  C7  UNL     1     -34.389  15.639  -5.608  1.00 20.00     0.124 C 
HETATM   10 CL10 UNL     1     -33.278  17.000  -5.324  1.00 20.00    -0.130 Cl
ENDBRANCH   3   9
TORSDOF 4
ENDMDL
MODEL 4
REMARK VINA RESULT:      -4.2      1.960      4.328
REMARK  4 active torsions:
REMARK  status: ('A' for Active; 'I' for Inactive)
REMARK    1  A    between atoms: C3_3  and  C6_6 
REMARK    2  A    between atoms: C3_3  and  C7_7 
REMARK    3  A    between atoms: C6_6  and  C8_8 
REMARK    4  A    between atoms: C8_8  and  C9_9 
ROOT
HETATM    1  C1  UNL     1     -31.376   7.284   3.887  1.00 20.00     0.011 A 
HETATM    2  C2  UNL     1     -31.680   6.035   3.109  1.00 20.00     0.011 A 
HETATM    3  C3  UNL     1     -32.565   7.249   2.955  1.00 20.00    -0.028 A 
ENDROOT
BRANCH   3   4
HETATM    4  C6  UNL     1     -33.954   7.202   3.573  1.00 20.00     0.011 C 
BRANCH   4   5
HETATM    5  C8  UNL     1     -34.422   5.760   3.783  1.00 20.00     0.005 C 
BRANCH   5   6
HETATM    6  C9  UNL     1     -34.906   5.475   5.218  1.00 20.00    -0.023 C 
HETATM    7  C4  UNL     1     -34.075   6.285   6.215  1.00 20.00     0.009 C 
HETATM    8  C5  UNL     1     -34.834   3.990   5.574  1.00 20.00     0.009 C 
ENDBRANCH   5   6
ENDBRANCH   4   5
ENDBRANCH   3   4
BRANCH   3   9
HETATM    9  C7  UNL     1     -32.477   8.027   1.670  1.00 20.00     0.124 C 
HETATM   10 CL10 UNL     1     -32.699   9.768   1.969  1.00 20.00    -0.130 Cl
ENDBRANCH   3   9
TORSDOF 4
ENDMDL
MODEL 5
REMARK VINA RESULT:      -4.2      1.601      2.069
REMARK  4 active torsions:
REMARK  status: ('A' for Active; 'I' for Inactive)
REMARK    1  A    between atoms: C3_3  and  C6_6 
REMARK    2  A    between atoms: C3_3  and  C7_7 
REMARK    3  A    between atoms: C6_6  and  C8_8 
REMARK    4  A    between atoms: C8_8  and  C9_9 
ROOT
HETATM    1  C1  UNL     1     -34.021   4.274   6.097  1.00 20.00     0.011 A 
HETATM    2  C2  UNL     1     -35.052   5.324   6.400  1.00 20.00     0.011 A 
HETATM    3  C3  UNL     1     -34.407   5.278   5.035  1.00 20.00    -0.028 A 
ENDROOT
BRANCH   3   4
HETATM    4  C6  UNL     1     -33.402   6.365   4.683  1.00 20.00     0.011 C 
BRANCH   4   5
HETATM    5  C8  UNL     1     -33.010   6.304   3.205  1.00 20.00     0.005 C 
BRANCH   5   6
HETATM    6  C9  UNL     1     -31.827   7.224   2.846  1.00 20.00    -0.023 C 
HETATM    7  C4  UNL     1     -31.218   7.807   4.123  1.00 20.00     0.009 C 
HETATM    8  C5  UNL     1     -32.235   8.358   1.905  1.00 20.00     0.009 C 
ENDBRANCH   5   6
ENDBRANCH   4   5
ENDBRANCH   3   4
BRANCH   3   9
HETATM    9  C7  UNL     1     -35.239   4.796   3.878  1.00 20.00     0.124 C 
HETATM   10 CL10 UNL     1     -36.449   6.017   3.416  1.00 20.00    -0.130 Cl
ENDBRANCH   3   9
TORSDOF 4
ENDMDL
MODEL 6
REMARK VINA RESULT:      -4.1     11.761     12.629
REMARK  4 active torsions:
REMARK  status: ('A' for Active; 'I' for Inactive)
REMARK    1  A    between atoms: C3_3  and  C6_6 
REMARK    2  A    between atoms: C3_3  and  C7_7 
REMARK    3  A    between atoms: C6_6  and  C8_8 
REMARK    4  A    between atoms: C8_8  and  C9_9 
ROOT
HETATM    1  C1  UNL     1     -33.226  16.327  -4.835  1.00 20.00     0.011 A 
HETATM    2  C2  UNL     1     -32.995  15.291  -3.771  1.00 20.00     0.011 A 
HETATM    3  C3  UNL     1     -34.391  15.812  -4.020  1.00 20.00    -0.028 A 
ENDROOT
BRANCH   3   4
HETATM    4  C6  UNL     1     -35.001  16.742  -2.983  1.00 20.00     0.011 C 
BRANCH   4   5
HETATM    5  C8  UNL     1     -34.810  16.197  -1.565  1.00 20.00     0.005 C 
BRANCH   5   6
HETATM    6  C9  UNL     1     -34.081  17.177  -0.625  1.00 20.00    -0.023 C 
HETATM    7  C4  UNL     1     -35.019  17.604   0.506  1.00 20.00     0.009 C 
HETATM    8  C5  UNL     1     -33.562  18.413  -1.359  1.00 20.00     0.009 C 
ENDBRANCH   5   6
ENDBRANCH   4   5
ENDBRANCH   3   4
BRANCH   3   9
HETATM    9  C7  UNL     1     -35.374  14.896  -4.696  1.00 20.00     0.124 C 
HETATM   10 CL10 UNL     1     -35.075  13.200  -4.244  1.00 20.00    -0.130 Cl
ENDBRANCH   3   9
TORSDOF 4
ENDMDL
MODEL 7
REMARK VINA RESULT:      -4.1     11.755     13.314
REMARK  4 active torsions:
REMARK  status: ('A' for Active; 'I' for Inactive)
REMARK    1  A    between atoms: C3_3  and  C6_6 
REMARK    2  A    between atoms: C3_3  and  C7_7 
REMARK    3  A    between atoms: C6_6  and  C8_8 
REMARK    4  A    between atoms: C8_8  and  C9_9 
ROOT
HETATM    1  C1  UNL     1     -33.921  16.634  -1.772  1.00 20.00     0.011 A 
HETATM    2  C2  UNL     1     -35.018  15.807  -2.378  1.00 20.00     0.011 A 
HETATM    3  C3  UNL     1     -33.832  16.212  -3.220  1.00 20.00    -0.028 A 
ENDROOT
BRANCH   3   4
HETATM    4  C6  UNL     1     -34.044  17.276  -4.287  1.00 20.00     0.011 C 
BRANCH   4   5
HETATM    5  C8  UNL     1     -33.463  16.839  -5.634  1.00 20.00     0.005 C 
BRANCH   5   6
HETATM    6  C9  UNL     1     -34.538  16.462  -6.672  1.00 20.00    -0.023 C 
HETATM    7  C4  UNL     1     -35.930  16.726  -6.095  1.00 20.00     0.009 C 
HETATM    8  C5  UNL     1     -34.432  15.004  -7.118  1.00 20.00     0.009 C 
ENDBRANCH   5   6
ENDBRANCH   4   5
ENDBRANCH   3   4
BRANCH   3   9
HETATM    9  C7  UNL     1     -32.830  15.151  -3.586  1.00 20.00     0.124 C 
HETATM   10 CL10 UNL     1     -33.631  13.577  -3.814  1.00 20.00    -0.130 Cl
ENDBRANCH   3   9
TORSDOF 4
ENDMDL
MODEL 8
REMARK VINA RESULT:      -4.0     11.548     12.516
REMARK  4 active torsions:
REMARK  status: ('A' for Active; 'I' for Inactive)
REMARK    1  A    between atoms: C3_3  and  C6_6 
REMARK    2  A    between atoms: C3_3  and  C7_7 
REMARK    3  A    between atoms: C6_6  and  C8_8 
REMARK    4  A    between atoms: C8_8  and  C9_9 
ROOT
HETATM    1  C1  UNL     1     -34.789  17.013  -0.288  1.00 20.00     0.011 A 
HETATM    2  C2  UNL     1     -33.654  17.463  -1.164  1.00 20.00     0.011 A 
HETATM    3  C3  UNL     1     -34.868  16.811  -1.784  1.00 20.00    -0.028 A 
ENDROOT
BRANCH   3   4
HETATM    4  C6  UNL     1     -34.721  15.396  -2.321  1.00 20.00     0.011 C 
BRANCH   4   5
HETATM    5  C8  UNL     1     -33.625  15.315  -3.387  1.00 20.00     0.005 C 
BRANCH   5   6
HETATM    6  C9  UNL     1     -33.986  14.394  -4.568  1.00 20.00    -0.023 C 
HETATM    7  C4  UNL     1     -34.390  15.238  -5.779  1.00 20.00     0.009 C 
HETATM    8  C5  UNL     1     -35.110  13.416  -4.223  1.00 20.00     0.009 C 
ENDBRANCH   5   6
ENDBRANCH   4   5
ENDBRANCH   3   4
BRANCH   3   9
HETATM    9  C7  UNL     1     -35.815  17.682  -2.563  1.00 20.00     0.124 C 
HETATM   10 CL10 UNL     1     -37.002  16.693  -3.448  1.00 20.00    -0.130 Cl
ENDBRANCH   3   9
TORSDOF 4
ENDMDL
MODEL 9
REMARK VINA RESULT:      -3.9     11.983     12.977
REMARK  4 active torsions:
REMARK  status: ('A' for Active; 'I' for Inactive)
REMARK    1  A    between atoms: C3_3  and  C6_6 
REMARK    2  A    between atoms: C3_3  and  C7_7 
REMARK    3  A    between atoms: C6_6  and  C8_8 
REMARK    4  A    between atoms: C8_8  and  C9_9 
ROOT
HETATM    1  C1  UNL     1     -34.684  16.348  -1.500  1.00 20.00     0.011 A 
HETATM    2  C2  UNL     1     -33.702  16.124  -2.615  1.00 20.00     0.011 A 
HETATM    3  C3  UNL     1     -35.173  16.268  -2.927  1.00 20.00    -0.028 A 
ENDROOT
BRANCH   3   4
HETATM    4  C6  UNL     1     -35.938  15.022  -3.349  1.00 20.00     0.011 C 
BRANCH   4   5
HETATM    5  C8  UNL     1     -36.292  15.062  -4.838  1.00 20.00     0.005 C 
BRANCH   5   6
HETATM    6  C9  UNL     1     -35.323  14.252  -5.720  1.00 20.00    -0.023 C 
HETATM    7  C4  UNL     1     -34.558  13.244  -4.860  1.00 20.00     0.009 C 
HETATM    8  C5  UNL     1     -34.334  15.144  -6.471  1.00 20.00     0.009 C 
ENDBRANCH   5   6
ENDBRANCH   4   5
ENDBRANCH   3   4
BRANCH   3   9
HETATM    9  C7  UNL     1     -35.633  17.538  -3.588  1.00 20.00     0.124 C 
HETATM   10 CL10 UNL     1     -34.334  18.241  -4.582  1.00 20.00    -0.130 Cl
ENDBRANCH   3   9
TORSDOF 4
ENDMDL
