MODEL 1
REMARK VINA RESULT:      -4.2      0.000      0.000
REMARK  3 active torsions:
REMARK  status: ('A' for Active; 'I' for Inactive)
REMARK    1  A    between atoms: C6_6  and  C8_8 
REMARK    2  A    between atoms: C7_7  and  C8_8 
REMARK    3  A    between atoms: C7_7  and  C9_9 
ROOT
HETATM    1  C8  UNL     1     -35.309  15.703  -2.867  1.00 20.00     0.042 C 
ENDROOT
BRANCH   1   2
HETATM    2  C6  UNL     1     -34.248  16.303  -1.965  1.00 20.00     0.122 C 
HETATM    3  C2  UNL     1     -33.881  17.731  -2.330  1.00 20.00     0.034 C 
HETATM    4  C1  UNL     1     -33.386  18.261  -1.008  1.00 20.00     0.029 C 
HETATM    5  C5  UNL     1     -34.334  17.601  -0.031  1.00 20.00     0.168 C 
HETATM    6  O10 UNL     1     -34.725  16.347  -0.610  1.00 20.00    -0.386 OA
ENDBRANCH   1   2
BRANCH   1   7
HETATM    7  C7  UNL     1     -34.710  14.938  -4.008  1.00 20.00    -0.025 A 
HETATM    8  C3  UNL     1     -33.547  14.021  -3.713  1.00 20.00     0.011 A 
HETATM    9  C4  UNL     1     -34.894  13.438  -4.029  1.00 20.00     0.011 A 
BRANCH   7  10
HETATM   10  C9  UNL     1     -34.717  15.668  -5.323  1.00 20.00     0.124 C 
HETATM   11 CL11 UNL     1     -33.220  16.609  -5.532  1.00 20.00    -0.130 Cl
ENDBRANCH   7  10
ENDBRANCH   1   7
TORSDOF 3
ENDMDL
MODEL 2
REMARK VINA RESULT:      -4.1      1.702      4.218
REMARK  3 active torsions:
REMARK  status: ('A' for Active; 'I' for Inactive)
REMARK    1  A    between atoms: C6_6  and  C8_8 
REMARK    2  A    between atoms: C7_7  and  C8_8 
REMARK    3  A    between atoms: C7_7  and  C9_9 
ROOT
HETATM    1  C8  UNL     1     -33.580  15.989  -2.918  1.00 20.00     0.042 C 
ENDROOT
BRANCH   1   2
HETATM    2  C6  UNL     1     -34.560  15.306  -3.853  1.00 20.00     0.122 C 
HETATM    3  C2  UNL     1     -34.167  15.400  -5.316  1.00 20.00     0.034 C 
HETATM    4  C1  UNL     1     -34.851  14.185  -5.890  1.00 20.00     0.029 C 
HETATM    5  C5  UNL     1     -34.669  13.171  -4.781  1.00 20.00     0.168 C 
HETATM    6  O10 UNL     1     -34.631  13.903  -3.547  1.00 20.00    -0.386 OA
ENDBRANCH   1   2
BRANCH   1   7
HETATM    7  C7  UNL     1     -34.236  17.059  -2.101  1.00 20.00    -0.025 A 
HETATM    8  C3  UNL     1     -34.732  16.694  -0.721  1.00 20.00     0.011 A 
HETATM    9  C4  UNL     1     -33.511  17.555  -0.870  1.00 20.00     0.011 A 
BRANCH   7  10
HETATM   10  C9  UNL     1     -35.035  18.054  -2.897  1.00 20.00     0.124 C 
HETATM   11 CL11 UNL     1     -34.013  18.855  -4.115  1.00 20.00    -0.130 Cl
ENDBRANCH   7  10
ENDBRANCH   1   7
TORSDOF 3
ENDMDL
MODEL 3
REMARK VINA RESULT:      -4.1      1.715      2.484
REMARK  3 active torsions:
REMARK  status: ('A' for Active; 'I' for Inactive)
REMARK    1  A    between atoms: C6_6  and  C8_8 
REMARK    2  A    between atoms: C7_7  and  C8_8 
REMARK    3  A    between atoms: C7_7  and  C9_9 
ROOT
HETATM    1  C8  UNL     1     -33.343  16.216  -4.109  1.00 20.00     0.042 C 
ENDROOT
BRANCH   1   2
HETATM    2  C6  UNL     1     -34.193  16.903  -3.058  1.00 20.00     0.122 C 
HETATM    3  C2  UNL     1     -34.421  16.057  -1.818  1.00 20.00     0.034 C 
HETATM    4  C1  UNL     1     -34.669  17.116  -0.773  1.00 20.00     0.029 C 
HETATM    5  C5  UNL     1     -33.691  18.196  -1.185  1.00 20.00     0.168 C 
HETATM    6  O10 UNL     1     -33.541  18.103  -2.609  1.00 20.00    -0.386 OA
ENDBRANCH   1   2
BRANCH   1   7
HETATM    7  C7  UNL     1     -34.176  15.487  -5.118  1.00 20.00    -0.025 A 
HETATM    8  C3  UNL     1     -35.369  16.206  -5.705  1.00 20.00     0.011 A 
HETATM    9  C4  UNL     1     -34.147  15.977  -6.548  1.00 20.00     0.011 A 
BRANCH   7  10
HETATM   10  C9  UNL     1     -34.291  14.006  -4.882  1.00 20.00     0.124 C 
HETATM   11 CL11 UNL     1     -33.090  13.461  -3.687  1.00 20.00    -0.130 Cl
ENDBRANCH   7  10
ENDBRANCH   1   7
TORSDOF 3
ENDMDL
MODEL 4
REMARK VINA RESULT:      -4.0      1.790      2.124
REMARK  3 active torsions:
REMARK  status: ('A' for Active; 'I' for Inactive)
REMARK    1  A    between atoms: C6_6  and  C8_8 
REMARK    2  A    between atoms: C7_7  and  C8_8 
REMARK    3  A    between atoms: C7_7  and  C9_9 
ROOT
HETATM    1  C8  UNL     1     -34.199  15.030  -3.040  1.00 20.00     0.042 C 
ENDROOT
BRANCH   1   2
HETATM    2  C6  UNL     1     -34.703  16.362  -2.518  1.00 20.00     0.122 C 
HETATM    3  C2  UNL     1     -34.622  16.489  -1.007  1.00 20.00     0.034 C 
HETATM    4  C1  UNL     1     -34.532  17.985  -0.837  1.00 20.00     0.029 C 
HETATM    5  C5  UNL     1     -33.659  18.382  -2.008  1.00 20.00     0.168 C 
HETATM    6  O10 UNL     1     -33.904  17.430  -3.054  1.00 20.00    -0.386 OA
ENDBRANCH   1   2
BRANCH   1   7
HETATM    7  C7  UNL     1     -35.095  14.465  -4.099  1.00 20.00    -0.025 A 
HETATM    8  C3  UNL     1     -34.600  14.478  -5.527  1.00 20.00     0.011 A 
HETATM    9  C4  UNL     1     -34.673  13.180  -4.774  1.00 20.00     0.011 A 
BRANCH   7  10
HETATM   10  C9  UNL     1     -36.563  14.687  -3.861  1.00 20.00     0.124 C 
HETATM   11 CL11 UNL     1     -37.253  15.755  -5.107  1.00 20.00    -0.130 Cl
ENDBRANCH   7  10
ENDBRANCH   1   7
TORSDOF 3
ENDMDL
MODEL 5
REMARK VINA RESULT:      -4.0      1.393      1.649
REMARK  3 active torsions:
REMARK  status: ('A' for Active; 'I' for Inactive)
REMARK    1  A    between atoms: C6_6  and  C8_8 
REMARK    2  A    between atoms: C7_7  and  C8_8 
REMARK    3  A    between atoms: C7_7  and  C9_9 
ROOT
HETATM    1  C8  UNL     1     -33.736  15.341  -3.302  1.00 20.00     0.042 C 
ENDROOT
BRANCH   1   2
HETATM    2  C6  UNL     1     -34.402  16.552  -2.679  1.00 20.00     0.122 C 
HETATM    3  C2  UNL     1     -34.624  16.417  -1.183  1.00 20.00     0.034 C 
HETATM    4  C1  UNL     1     -34.649  17.863  -0.752  1.00 20.00     0.029 C 
HETATM    5  C5  UNL     1     -33.587  18.473  -1.640  1.00 20.00     0.168 C 
HETATM    6  O10 UNL     1     -33.572  17.712  -2.858  1.00 20.00    -0.386 OA
ENDBRANCH   1   2
BRANCH   1   7
HETATM    7  C7  UNL     1     -34.547  14.768  -4.423  1.00 20.00    -0.025 A 
HETATM    8  C3  UNL     1     -34.330  13.317  -4.786  1.00 20.00     0.011 A 
HETATM    9  C4  UNL     1     -35.592  13.729  -4.083  1.00 20.00     0.011 A 
BRANCH   7  10
HETATM   10  C9  UNL     1     -34.851  15.735  -5.534  1.00 20.00     0.124 C 
HETATM   11 CL11 UNL     1     -34.272  15.106  -7.096  1.00 20.00    -0.130 Cl
ENDBRANCH   7  10
ENDBRANCH   1   7
TORSDOF 3
ENDMDL
MODEL 6
REMARK VINA RESULT:      -3.9      2.688      3.766
REMARK  3 active torsions:
REMARK  status: ('A' for Active; 'I' for Inactive)
REMARK    1  A    between atoms: C6_6  and  C8_8 
REMARK    2  A    between atoms: C7_7  and  C8_8 
REMARK    3  A    between atoms: C7_7  and  C9_9 
ROOT
HETATM    1  C8  UNL     1     -35.880  14.250  -4.717  1.00 20.00     0.042 C 
ENDROOT
BRANCH   1   2
HETATM    2  C6  UNL     1     -36.880  14.957  -3.823  1.00 20.00     0.122 C 
HETATM    3  C2  UNL     1     -37.318  16.309  -4.357  1.00 20.00     0.034 C 
HETATM    4  C1  UNL     1     -38.676  16.459  -3.716  1.00 20.00     0.029 C 
HETATM    5  C5  UNL     1     -39.209  15.044  -3.777  1.00 20.00     0.168 C 
HETATM    6  O10 UNL     1     -38.075  14.166  -3.705  1.00 20.00    -0.386 OA
ENDBRANCH   1   2
BRANCH   1   7
HETATM    7  C7  UNL     1     -34.485  14.753  -4.508  1.00 20.00    -0.025 A 
HETATM    8  C3  UNL     1     -34.039  15.039  -3.093  1.00 20.00     0.011 A 
HETATM    9  C4  UNL     1     -33.498  13.840  -3.817  1.00 20.00     0.011 A 
BRANCH   7  10
HETATM   10  C9  UNL     1     -33.972  15.647  -5.603  1.00 20.00     0.124 C 
HETATM   11 CL11 UNL     1     -34.355  14.969  -7.204  1.00 20.00    -0.130 Cl
ENDBRANCH   7  10
ENDBRANCH   1   7
TORSDOF 3
ENDMDL
MODEL 7
REMARK VINA RESULT:      -3.8     12.663     14.755
REMARK  3 active torsions:
REMARK  status: ('A' for Active; 'I' for Inactive)
REMARK    1  A    between atoms: C6_6  and  C8_8 
REMARK    2  A    between atoms: C7_7  and  C8_8 
REMARK    3  A    between atoms: C7_7  and  C9_9 
ROOT
HETATM    1  C8  UNL     1     -42.317   5.335  -2.447  1.00 20.00     0.042 C 
ENDROOT
BRANCH   1   2
HETATM    2  C6  UNL     1     -42.392   3.827  -2.304  1.00 20.00     0.122 C 
HETATM    3  C2  UNL     1     -43.416   3.183  -3.223  1.00 20.00     0.034 C 
HETATM    4  C1  UNL     1     -42.854   1.791  -3.368  1.00 20.00     0.029 C 
HETATM    5  C5  UNL     1     -41.365   2.058  -3.421  1.00 20.00     0.168 C 
HETATM    6  O10 UNL     1     -41.125   3.240  -2.643  1.00 20.00    -0.386 OA
ENDBRANCH   1   2
BRANCH   1   7
HETATM    7  C7  UNL     1     -42.123   6.015  -1.126  1.00 20.00    -0.025 A 
HETATM    8  C3  UNL     1     -40.779   5.880  -0.449  1.00 20.00     0.011 A 
HETATM    9  C4  UNL     1     -41.174   7.190  -1.067  1.00 20.00     0.011 A 
BRANCH   7  10
HETATM   10  C9  UNL     1     -43.350   6.055  -0.257  1.00 20.00     0.124 C 
HETATM   11 CL11 UNL     1     -43.086   5.146   1.251  1.00 20.00    -0.130 Cl
ENDBRANCH   7  10
ENDBRANCH   1   7
TORSDOF 3
ENDMDL
MODEL 8
REMARK VINA RESULT:      -3.8      1.760      2.121
REMARK  3 active torsions:
REMARK  status: ('A' for Active; 'I' for Inactive)
REMARK    1  A    between atoms: C6_6  and  C8_8 
REMARK    2  A    between atoms: C7_7  and  C8_8 
REMARK    3  A    between atoms: C7_7  and  C9_9 
ROOT
HETATM    1  C8  UNL     1     -35.416  16.736  -3.861  1.00 20.00     0.042 C 
ENDROOT
BRANCH   1   2
HETATM    2  C6  UNL     1     -35.620  16.607  -2.363  1.00 20.00     0.122 C 
HETATM    3  C2  UNL     1     -34.321  16.497  -1.584  1.00 20.00     0.034 C 
HETATM    4  C1  UNL     1     -34.736  17.029  -0.234  1.00 20.00     0.029 C 
HETATM    5  C5  UNL     1     -35.681  18.148  -0.615  1.00 20.00     0.168 C 
HETATM    6  O10 UNL     1     -36.292  17.774  -1.860  1.00 20.00    -0.386 OA
ENDBRANCH   1   2
BRANCH   1   7
HETATM    7  C7  UNL     1     -35.460  15.407  -4.550  1.00 20.00    -0.025 A 
HETATM    8  C3  UNL     1     -36.501  14.409  -4.100  1.00 20.00     0.011 A 
HETATM    9  C4  UNL     1     -36.655  15.101  -5.423  1.00 20.00     0.011 A 
BRANCH   7  10
HETATM   10  C9  UNL     1     -34.118  14.881  -4.982  1.00 20.00     0.124 C 
HETATM   11 CL11 UNL     1     -33.500  13.690  -3.812  1.00 20.00    -0.130 Cl
ENDBRANCH   7  10
ENDBRANCH   1   7
TORSDOF 3
ENDMDL
MODEL 9
REMARK VINA RESULT:      -3.8      3.095      4.453
REMARK  3 active torsions:
REMARK  status: ('A' for Active; 'I' for Inactive)
REMARK    1  A    between atoms: C6_6  and  C8_8 
REMARK    2  A    between atoms: C7_7  and  C8_8 
REMARK    3  A    between atoms: C7_7  and  C9_9 
ROOT
HETATM    1  C8  UNL     1     -35.843  14.574  -3.806  1.00 20.00     0.042 C 
ENDROOT
BRANCH   1   2
HETATM    2  C6  UNL     1     -37.192  15.260  -3.906  1.00 20.00     0.122 C 
HETATM    3  C2  UNL     1     -37.515  15.756  -5.304  1.00 20.00     0.034 C 
HETATM    4  C1  UNL     1     -39.023  15.764  -5.278  1.00 20.00     0.029 C 
HETATM    5  C5  UNL     1     -39.329  14.521  -4.470  1.00 20.00     0.168 C 
HETATM    6  O10 UNL     1     -38.237  14.337  -3.557  1.00 20.00    -0.386 OA
ENDBRANCH   1   2
BRANCH   1   7
HETATM    7  C7  UNL     1     -34.742  15.541  -3.499  1.00 20.00    -0.025 A 
HETATM    8  C3  UNL     1     -33.339  14.998  -3.360  1.00 20.00     0.011 A 
HETATM    9  C4  UNL     1     -33.710  15.804  -4.572  1.00 20.00     0.011 A 
BRANCH   7  10
HETATM   10  C9  UNL     1     -35.145  16.688  -2.612  1.00 20.00     0.124 C 
HETATM   11 CL11 UNL     1     -34.621  16.404  -0.934  1.00 20.00    -0.130 Cl
ENDBRANCH   7  10
ENDBRANCH   1   7
TORSDOF 3
ENDMDL
