MODEL 1
REMARK VINA RESULT:      -4.6      0.000      0.000
REMARK  5 active torsions:
REMARK  status: ('A' for Active; 'I' for Inactive)
REMARK    1  A    between atoms: C3_3  and  C6_6 
REMARK    2  A    between atoms: C3_3  and  C7_7 
REMARK    3  A    between atoms: C6_6  and  C10_10 
REMARK    4  A    between atoms: C8_8  and  C9_9 
REMARK    5  A    between atoms: C9_9  and  C10_10 
ROOT
HETATM    1  C6  UNL     1     -32.984   5.703   4.582  1.00 20.00     0.015 C 
ENDROOT
BRANCH   1   2
HETATM    2  C3  UNL     1     -34.301   5.401   5.283  1.00 20.00    -0.027 A 
HETATM    3  C1  UNL     1     -35.511   5.117   4.424  1.00 20.00     0.011 A 
HETATM    4  C2  UNL     1     -34.853   3.998   5.179  1.00 20.00     0.011 A 
BRANCH   2   5
HETATM    5  C7  UNL     1     -34.510   6.147   6.571  1.00 20.00     0.124 C 
HETATM    6 CL11 UNL     1     -33.236   7.368   6.810  1.00 20.00    -0.130 Cl
ENDBRANCH   2   5
ENDBRANCH   1   2
BRANCH   1   7
HETATM    7  C10 UNL     1     -33.144   6.531   3.293  1.00 20.00    -0.018 C 
HETATM    8  C5  UNL     1     -33.188   5.596   2.080  1.00 20.00     0.010 C 
BRANCH   7   9
HETATM    9  C9  UNL     1     -32.088   7.641   3.109  1.00 20.00     0.004 C 
BRANCH   9  10
HETATM   10  C8  UNL     1     -31.939   8.170   1.680  1.00 20.00    -0.004 C 
HETATM   11  C4  UNL     1     -32.437   9.604   1.569  1.00 20.00     0.005 C 
ENDBRANCH   9  10
ENDBRANCH   7   9
ENDBRANCH   1   7
TORSDOF 5
ENDMDL
MODEL 2
REMARK VINA RESULT:      -4.5     11.561     13.079
REMARK  5 active torsions:
REMARK  status: ('A' for Active; 'I' for Inactive)
REMARK    1  A    between atoms: C3_3  and  C6_6 
REMARK    2  A    between atoms: C3_3  and  C7_7 
REMARK    3  A    between atoms: C6_6  and  C10_10 
REMARK    4  A    between atoms: C8_8  and  C9_9 
REMARK    5  A    between atoms: C9_9  and  C10_10 
ROOT
HETATM    1  C6  UNL     1     -33.347  16.055  -4.937  1.00 20.00     0.015 C 
ENDROOT
BRANCH   1   2
HETATM    2  C3  UNL     1     -34.329  15.086  -5.580  1.00 20.00    -0.027 A 
HETATM    3  C1  UNL     1     -35.524  15.665  -6.301  1.00 20.00     0.011 A 
HETATM    4  C2  UNL     1     -34.402  15.049  -7.089  1.00 20.00     0.011 A 
BRANCH   2   5
HETATM    5  C7  UNL     1     -34.515  13.794  -4.833  1.00 20.00     0.124 C 
HETATM    6 CL11 UNL     1     -33.143  13.493  -3.739  1.00 20.00    -0.130 Cl
ENDBRANCH   2   5
ENDBRANCH   1   2
BRANCH   1   7
HETATM    7  C10 UNL     1     -33.999  17.026  -3.935  1.00 20.00    -0.018 C 
HETATM    8  C5  UNL     1     -33.715  18.471  -4.356  1.00 20.00     0.010 C 
BRANCH   7   9
HETATM    9  C9  UNL     1     -33.611  16.783  -2.462  1.00 20.00     0.004 C 
BRANCH   9  10
HETATM   10  C8  UNL     1     -34.743  16.278  -1.563  1.00 20.00    -0.004 C 
HETATM   11  C4  UNL     1     -34.774  17.032  -0.241  1.00 20.00     0.005 C 
ENDBRANCH   9  10
ENDBRANCH   7   9
ENDBRANCH   1   7
TORSDOF 5
ENDMDL
MODEL 3
REMARK VINA RESULT:      -4.3     11.214     12.741
REMARK  5 active torsions:
REMARK  status: ('A' for Active; 'I' for Inactive)
REMARK    1  A    between atoms: C3_3  and  C6_6 
REMARK    2  A    between atoms: C3_3  and  C7_7 
REMARK    3  A    between atoms: C6_6  and  C10_10 
REMARK    4  A    between atoms: C8_8  and  C9_9 
REMARK    5  A    between atoms: C9_9  and  C10_10 
ROOT
HETATM    1  C6  UNL     1     -33.382  15.878  -3.216  1.00 20.00     0.015 C 
ENDROOT
BRANCH   1   2
HETATM    2  C3  UNL     1     -34.081  17.000  -2.461  1.00 20.00    -0.027 A 
HETATM    3  C1  UNL     1     -34.891  16.633  -1.240  1.00 20.00     0.011 A 
HETATM    4  C2  UNL     1     -33.577  17.343  -1.078  1.00 20.00     0.011 A 
BRANCH   2   5
HETATM    5  C7  UNL     1     -34.581  18.122  -3.328  1.00 20.00     0.124 C 
HETATM    6 CL11 UNL     1     -33.584  18.281  -4.795  1.00 20.00    -0.130 Cl
ENDBRANCH   2   5
ENDBRANCH   1   2
BRANCH   1   7
HETATM    7  C10 UNL     1     -34.295  14.677  -3.524  1.00 20.00    -0.018 C 
HETATM    8  C5  UNL     1     -33.441  13.429  -3.773  1.00 20.00     0.010 C 
BRANCH   7   9
HETATM    9  C9  UNL     1     -35.295  14.911  -4.675  1.00 20.00     0.004 C 
BRANCH   9  10
HETATM   10  C8  UNL     1     -34.917  14.264  -6.011  1.00 20.00    -0.004 C 
HETATM   11  C4  UNL     1     -34.329  15.288  -6.971  1.00 20.00     0.005 C 
ENDBRANCH   9  10
ENDBRANCH   7   9
ENDBRANCH   1   7
TORSDOF 5
ENDMDL
MODEL 4
REMARK VINA RESULT:      -4.3     11.555     12.680
REMARK  5 active torsions:
REMARK  status: ('A' for Active; 'I' for Inactive)
REMARK    1  A    between atoms: C3_3  and  C6_6 
REMARK    2  A    between atoms: C3_3  and  C7_7 
REMARK    3  A    between atoms: C6_6  and  C10_10 
REMARK    4  A    between atoms: C8_8  and  C9_9 
REMARK    5  A    between atoms: C9_9  and  C10_10 
ROOT
HETATM    1  C6  UNL     1     -35.619  14.853  -3.543  1.00 20.00     0.015 C 
ENDROOT
BRANCH   1   2
HETATM    2  C3  UNL     1     -34.491  15.703  -2.978  1.00 20.00    -0.027 A 
HETATM    3  C1  UNL     1     -34.752  17.177  -2.771  1.00 20.00     0.011 A 
HETATM    4  C2  UNL     1     -34.657  16.262  -1.583  1.00 20.00     0.011 A 
BRANCH   2   5
HETATM    5  C7  UNL     1     -33.113  15.285  -3.411  1.00 20.00     0.124 C 
HETATM    6 CL11 UNL     1     -33.043  13.529  -3.691  1.00 20.00    -0.130 Cl
ENDBRANCH   2   5
ENDBRANCH   1   2
BRANCH   1   7
HETATM    7  C10 UNL     1     -36.105  15.310  -4.931  1.00 20.00    -0.018 C 
HETATM    8  C5  UNL     1     -37.634  15.408  -4.938  1.00 20.00     0.010 C 
BRANCH   7   9
HETATM    9  C9  UNL     1     -35.592  14.451  -6.105  1.00 20.00     0.004 C 
BRANCH   9  10
HETATM   10  C8  UNL     1     -34.436  15.060  -6.904  1.00 20.00    -0.004 C 
HETATM   11  C4  UNL     1     -34.358  16.566  -6.699  1.00 20.00     0.005 C 
ENDBRANCH   9  10
ENDBRANCH   7   9
ENDBRANCH   1   7
TORSDOF 5
ENDMDL
MODEL 5
REMARK VINA RESULT:      -4.2     11.296     13.212
REMARK  5 active torsions:
REMARK  status: ('A' for Active; 'I' for Inactive)
REMARK    1  A    between atoms: C3_3  and  C6_6 
REMARK    2  A    between atoms: C3_3  and  C7_7 
REMARK    3  A    between atoms: C6_6  and  C10_10 
REMARK    4  A    between atoms: C8_8  and  C9_9 
REMARK    5  A    between atoms: C9_9  and  C10_10 
ROOT
HETATM    1  C6  UNL     1     -35.224  14.962  -4.716  1.00 20.00     0.015 C 
ENDROOT
BRANCH   1   2
HETATM    2  C3  UNL     1     -35.330  15.523  -6.126  1.00 20.00    -0.027 A 
HETATM    3  C1  UNL     1     -34.308  15.075  -7.145  1.00 20.00     0.011 A 
HETATM    4  C2  UNL     1     -35.723  14.577  -7.237  1.00 20.00     0.011 A 
BRANCH   2   5
HETATM    5  C7  UNL     1     -35.825  16.941  -6.200  1.00 20.00     0.124 C 
HETATM    6 CL11 UNL     1     -36.745  17.368  -4.737  1.00 20.00    -0.130 Cl
ENDBRANCH   2   5
ENDBRANCH   1   2
BRANCH   1   7
HETATM    7  C10 UNL     1     -33.811  15.066  -4.112  1.00 20.00    -0.018 C 
HETATM    8  C5  UNL     1     -33.307  13.670  -3.730  1.00 20.00     0.010 C 
BRANCH   7   9
HETATM    9  C9  UNL     1     -33.691  16.049  -2.929  1.00 20.00     0.004 C 
BRANCH   9  10
HETATM   10  C8  UNL     1     -34.848  16.009  -1.927  1.00 20.00    -0.004 C 
HETATM   11  C4  UNL     1     -34.522  16.814  -0.677  1.00 20.00     0.005 C 
ENDBRANCH   9  10
ENDBRANCH   7   9
ENDBRANCH   1   7
TORSDOF 5
ENDMDL
MODEL 6
REMARK VINA RESULT:      -4.2      1.649      2.018
REMARK  5 active torsions:
REMARK  status: ('A' for Active; 'I' for Inactive)
REMARK    1  A    between atoms: C3_3  and  C6_6 
REMARK    2  A    between atoms: C3_3  and  C7_7 
REMARK    3  A    between atoms: C6_6  and  C10_10 
REMARK    4  A    between atoms: C8_8  and  C9_9 
REMARK    5  A    between atoms: C9_9  and  C10_10 
ROOT
HETATM    1  C6  UNL     1     -33.417   6.534   4.807  1.00 20.00     0.015 C 
ENDROOT
BRANCH   1   2
HETATM    2  C3  UNL     1     -34.368   5.368   5.030  1.00 20.00    -0.027 A 
HETATM    3  C1  UNL     1     -33.963   4.305   6.024  1.00 20.00     0.011 A 
HETATM    4  C2  UNL     1     -35.064   5.267   6.368  1.00 20.00     0.011 A 
BRANCH   2   5
HETATM    5  C7  UNL     1     -35.128   4.936   3.806  1.00 20.00     0.124 C 
HETATM    6 CL11 UNL     1     -36.366   6.139   3.372  1.00 20.00    -0.130 Cl
ENDBRANCH   2   5
ENDBRANCH   1   2
BRANCH   1   7
HETATM    7  C10 UNL     1     -32.872   6.624   3.369  1.00 20.00    -0.018 C 
HETATM    8  C5  UNL     1     -32.063   5.365   3.043  1.00 20.00     0.010 C 
BRANCH   7   9
HETATM    9  C9  UNL     1     -32.066   7.904   3.069  1.00 20.00     0.004 C 
BRANCH   9  10
HETATM   10  C8  UNL     1     -31.976   8.287   1.589  1.00 20.00    -0.004 C 
HETATM   11  C4  UNL     1     -32.426   9.724   1.363  1.00 20.00     0.005 C 
ENDBRANCH   9  10
ENDBRANCH   7   9
ENDBRANCH   1   7
TORSDOF 5
ENDMDL
MODEL 7
REMARK VINA RESULT:      -4.2     11.495     12.418
REMARK  5 active torsions:
REMARK  status: ('A' for Active; 'I' for Inactive)
REMARK    1  A    between atoms: C3_3  and  C6_6 
REMARK    2  A    between atoms: C3_3  and  C7_7 
REMARK    3  A    between atoms: C6_6  and  C10_10 
REMARK    4  A    between atoms: C8_8  and  C9_9 
REMARK    5  A    between atoms: C9_9  and  C10_10 
ROOT
HETATM    1  C6  UNL     1     -33.953  15.188  -3.185  1.00 20.00     0.015 C 
ENDROOT
BRANCH   1   2
HETATM    2  C3  UNL     1     -35.000  14.533  -4.074  1.00 20.00    -0.027 A 
HETATM    3  C1  UNL     1     -34.657  14.318  -5.529  1.00 20.00     0.011 A 
HETATM    4  C2  UNL     1     -34.716  13.143  -4.595  1.00 20.00     0.011 A 
BRANCH   2   5
HETATM    5  C7  UNL     1     -36.421  14.879  -3.728  1.00 20.00     0.124 C 
HETATM    6 CL11 UNL     1     -37.152  15.896  -4.994  1.00 20.00    -0.130 Cl
ENDBRANCH   2   5
ENDBRANCH   1   2
BRANCH   1   7
HETATM    7  C10 UNL     1     -34.288  16.642  -2.801  1.00 20.00    -0.018 C 
HETATM    8  C5  UNL     1     -33.804  17.592  -3.901  1.00 20.00     0.010 C 
BRANCH   7   9
HETATM    9  C9  UNL     1     -33.766  17.075  -1.415  1.00 20.00     0.004 C 
BRANCH   9  10
HETATM   10  C8  UNL     1     -34.780  16.966  -0.273  1.00 20.00    -0.004 C 
HETATM   11  C4  UNL     1     -34.462  17.953   0.842  1.00 20.00     0.005 C 
ENDBRANCH   9  10
ENDBRANCH   7   9
ENDBRANCH   1   7
TORSDOF 5
ENDMDL
MODEL 8
REMARK VINA RESULT:      -4.1     11.353     12.902
REMARK  5 active torsions:
REMARK  status: ('A' for Active; 'I' for Inactive)
REMARK    1  A    between atoms: C3_3  and  C6_6 
REMARK    2  A    between atoms: C3_3  and  C7_7 
REMARK    3  A    between atoms: C6_6  and  C10_10 
REMARK    4  A    between atoms: C8_8  and  C9_9 
REMARK    5  A    between atoms: C9_9  and  C10_10 
ROOT
HETATM    1  C6  UNL     1     -34.951  15.777  -2.435  1.00 20.00     0.015 C 
ENDROOT
BRANCH   1   2
HETATM    2  C3  UNL     1     -34.264  15.245  -3.684  1.00 20.00    -0.027 A 
HETATM    3  C1  UNL     1     -32.806  14.862  -3.579  1.00 20.00     0.011 A 
HETATM    4  C2  UNL     1     -33.852  13.791  -3.700  1.00 20.00     0.011 A 
BRANCH   2   5
HETATM    5  C7  UNL     1     -34.742  15.857  -4.971  1.00 20.00     0.124 C 
HETATM    6 CL11 UNL     1     -33.493  16.914  -5.672  1.00 20.00    -0.130 Cl
ENDBRANCH   2   5
ENDBRANCH   1   2
BRANCH   1   7
HETATM    7  C10 UNL     1     -34.083  16.751  -1.616  1.00 20.00    -0.018 C 
HETATM    8  C5  UNL     1     -34.707  16.962  -0.233  1.00 20.00     0.010 C 
BRANCH   7   9
HETATM    9  C9  UNL     1     -33.798  18.096  -2.314  1.00 20.00     0.004 C 
BRANCH   9  10
HETATM   10  C8  UNL     1     -34.950  19.105  -2.285  1.00 20.00    -0.004 C 
HETATM   11  C4  UNL     1     -35.584  19.257  -3.660  1.00 20.00     0.005 C 
ENDBRANCH   9  10
ENDBRANCH   7   9
ENDBRANCH   1   7
TORSDOF 5
ENDMDL
MODEL 9
REMARK VINA RESULT:      -4.1     10.993     12.804
REMARK  5 active torsions:
REMARK  status: ('A' for Active; 'I' for Inactive)
REMARK    1  A    between atoms: C3_3  and  C6_6 
REMARK    2  A    between atoms: C3_3  and  C7_7 
REMARK    3  A    between atoms: C6_6  and  C10_10 
REMARK    4  A    between atoms: C8_8  and  C9_9 
REMARK    5  A    between atoms: C9_9  and  C10_10 
ROOT
HETATM    1  C6  UNL     1     -33.926  15.815  -5.384  1.00 20.00     0.015 C 
ENDROOT
BRANCH   1   2
HETATM    2  C3  UNL     1     -33.604  15.499  -3.931  1.00 20.00    -0.027 A 
HETATM    3  C1  UNL     1     -33.870  14.096  -3.437  1.00 20.00     0.011 A 
HETATM    4  C2  UNL     1     -32.456  14.557  -3.650  1.00 20.00     0.011 A 
BRANCH   2   5
HETATM    5  C7  UNL     1     -33.831  16.638  -2.977  1.00 20.00     0.124 C 
HETATM    6 CL11 UNL     1     -34.827  16.117  -1.595  1.00 20.00    -0.130 Cl
ENDBRANCH   2   5
ENDBRANCH   1   2
BRANCH   1   7
HETATM    7  C10 UNL     1     -35.264  15.222  -5.866  1.00 20.00    -0.018 C 
HETATM    8  C5  UNL     1     -35.089  14.619  -7.263  1.00 20.00     0.010 C 
BRANCH   7   9
HETATM    9  C9  UNL     1     -36.452  16.205  -5.823  1.00 20.00     0.004 C 
BRANCH   9  10
HETATM   10  C8  UNL     1     -37.301  16.147  -4.550  1.00 20.00    -0.004 C 
HETATM   11  C4  UNL     1     -37.423  14.720  -4.033  1.00 20.00     0.005 C 
ENDBRANCH   9  10
ENDBRANCH   7   9
ENDBRANCH   1   7
TORSDOF 5
ENDMDL
