MODEL 1
REMARK VINA RESULT:      -4.7      0.000      0.000
REMARK  5 active torsions:
REMARK  status: ('A' for Active; 'I' for Inactive)
REMARK    1  A    between atoms: C4_4  and  C5_5 
REMARK    2  A    between atoms: C5_5  and  C8_8 
REMARK    3  A    between atoms: C6_6  and  C8_8 
REMARK    4  A    between atoms: C6_6  and  C9_9 
REMARK    5  A    between atoms: C7_7  and  C9_9 
ROOT
HETATM    1  C6  UNL     1     -33.851   6.617   4.388  1.00 20.00     0.009 C 
ENDROOT
BRANCH   1   2
HETATM    2  C8  UNL     1     -32.604   6.378   3.508  1.00 20.00    -0.018 C 
HETATM    3  C2  UNL     1     -32.931   5.559   2.257  1.00 20.00     0.010 C 
BRANCH   2   4
HETATM    4  C5  UNL     1     -31.901   7.707   3.147  1.00 20.00     0.004 C 
BRANCH   4   5
HETATM    5  C4  UNL     1     -32.017   8.137   1.682  1.00 20.00    -0.004 C 
HETATM    6  C1  UNL     1     -32.424   9.599   1.569  1.00 20.00     0.005 C 
ENDBRANCH   4   5
ENDBRANCH   2   4
ENDBRANCH   1   2
BRANCH   1   7
HETATM    7  C9  UNL     1     -33.758   6.096   5.841  1.00 20.00    -0.004 C 
HETATM    8  C3  UNL     1     -33.707   7.286   6.809  1.00 20.00     0.011 C 
BRANCH   7   9
HETATM    9  C7  UNL     1     -34.864   5.104   6.236  1.00 20.00     0.119 C 
HETATM   10 CL10 UNL     1     -35.160   3.844   5.014  1.00 20.00    -0.130 Cl
ENDBRANCH   7   9
ENDBRANCH   1   7
TORSDOF 5
ENDMDL
MODEL 2
REMARK VINA RESULT:      -4.7      2.565      4.669
REMARK  5 active torsions:
REMARK  status: ('A' for Active; 'I' for Inactive)
REMARK    1  A    between atoms: C4_4  and  C5_5 
REMARK    2  A    between atoms: C5_5  and  C8_8 
REMARK    3  A    between atoms: C6_6  and  C8_8 
REMARK    4  A    between atoms: C6_6  and  C9_9 
REMARK    5  A    between atoms: C7_7  and  C9_9 
ROOT
HETATM    1  C6  UNL     1     -32.965   6.193   3.167  1.00 20.00     0.009 C 
ENDROOT
BRANCH   1   2
HETATM    2  C8  UNL     1     -34.304   6.090   3.932  1.00 20.00    -0.018 C 
HETATM    3  C2  UNL     1     -35.471   5.750   3.003  1.00 20.00     0.010 C 
BRANCH   2   4
HETATM    4  C5  UNL     1     -34.209   5.095   5.111  1.00 20.00     0.004 C 
BRANCH   4   5
HETATM    5  C4  UNL     1     -34.468   5.691   6.498  1.00 20.00    -0.004 C 
HETATM    6  C1  UNL     1     -33.739   7.016   6.672  1.00 20.00     0.005 C 
ENDBRANCH   4   5
ENDBRANCH   2   4
ENDBRANCH   1   2
BRANCH   1   7
HETATM    7  C9  UNL     1     -32.330   7.601   3.111  1.00 20.00    -0.004 C 
HETATM    8  C3  UNL     1     -31.103   7.647   4.032  1.00 20.00     0.011 C 
BRANCH   7   9
HETATM    9  C7  UNL     1     -31.981   8.089   1.695  1.00 20.00     0.119 C 
HETATM   10 CL10 UNL     1     -32.473   9.770   1.379  1.00 20.00    -0.130 Cl
ENDBRANCH   7   9
ENDBRANCH   1   7
TORSDOF 5
ENDMDL
MODEL 3
REMARK VINA RESULT:      -4.5      1.013      2.096
REMARK  5 active torsions:
REMARK  status: ('A' for Active; 'I' for Inactive)
REMARK    1  A    between atoms: C4_4  and  C5_5 
REMARK    2  A    between atoms: C5_5  and  C8_8 
REMARK    3  A    between atoms: C6_6  and  C8_8 
REMARK    4  A    between atoms: C6_6  and  C9_9 
REMARK    5  A    between atoms: C7_7  and  C9_9 
ROOT
HETATM    1  C6  UNL     1     -32.966   6.271   3.301  1.00 20.00     0.009 C 
ENDROOT
BRANCH   1   2
HETATM    2  C8  UNL     1     -32.224   7.604   3.061  1.00 20.00    -0.018 C 
HETATM    3  C2  UNL     1     -31.040   7.782   4.013  1.00 20.00     0.010 C 
BRANCH   2   4
HETATM    4  C5  UNL     1     -31.792   7.757   1.585  1.00 20.00     0.004 C 
BRANCH   4   5
HETATM    5  C4  UNL     1     -32.135   9.099   0.933  1.00 20.00    -0.004 C 
HETATM    6  C1  UNL     1     -32.790  10.044   1.931  1.00 20.00     0.005 C 
ENDBRANCH   4   5
ENDBRANCH   2   4
ENDBRANCH   1   2
BRANCH   1   7
HETATM    7  C9  UNL     1     -34.243   6.358   4.167  1.00 20.00    -0.004 C 
HETATM    8  C3  UNL     1     -35.297   5.383   3.626  1.00 20.00     0.011 C 
BRANCH   7   9
HETATM    9  C7  UNL     1     -34.011   6.147   5.672  1.00 20.00     0.119 C 
HETATM   10 CL10 UNL     1     -34.730   4.646   6.300  1.00 20.00    -0.130 Cl
ENDBRANCH   7   9
ENDBRANCH   1   7
TORSDOF 5
ENDMDL
MODEL 4
REMARK VINA RESULT:      -4.4      1.640      2.209
REMARK  5 active torsions:
REMARK  status: ('A' for Active; 'I' for Inactive)
REMARK    1  A    between atoms: C4_4  and  C5_5 
REMARK    2  A    between atoms: C5_5  and  C8_8 
REMARK    3  A    between atoms: C6_6  and  C8_8 
REMARK    4  A    between atoms: C6_6  and  C9_9 
REMARK    5  A    between atoms: C7_7  and  C9_9 
ROOT
HETATM    1  C6  UNL     1     -34.462   6.199   4.162  1.00 20.00     0.009 C 
ENDROOT
BRANCH   1   2
HETATM    2  C8  UNL     1     -33.577   5.388   3.190  1.00 20.00    -0.018 C 
HETATM    3  C2  UNL     1     -34.249   5.189   1.830  1.00 20.00     0.010 C 
BRANCH   2   4
HETATM    4  C5  UNL     1     -32.173   6.017   3.042  1.00 20.00     0.004 C 
BRANCH   4   5
HETATM    5  C4  UNL     1     -32.106   7.534   3.243  1.00 20.00    -0.004 C 
HETATM    6  C1  UNL     1     -32.026   8.262   1.909  1.00 20.00     0.005 C 
ENDBRANCH   4   5
ENDBRANCH   2   4
ENDBRANCH   1   2
BRANCH   1   7
HETATM    7  C9  UNL     1     -35.046   5.411   5.357  1.00 20.00    -0.004 C 
HETATM    8  C3  UNL     1     -34.921   3.905   5.088  1.00 20.00     0.011 C 
BRANCH   7   9
HETATM    9  C7  UNL     1     -34.447   5.784   6.722  1.00 20.00     0.119 C 
HETATM   10 CL10 UNL     1     -33.378   7.206   6.667  1.00 20.00    -0.130 Cl
ENDBRANCH   7   9
ENDBRANCH   1   7
TORSDOF 5
ENDMDL
MODEL 5
REMARK VINA RESULT:      -4.3      2.293      4.953
REMARK  5 active torsions:
REMARK  status: ('A' for Active; 'I' for Inactive)
REMARK    1  A    between atoms: C4_4  and  C5_5 
REMARK    2  A    between atoms: C5_5  and  C8_8 
REMARK    3  A    between atoms: C6_6  and  C8_8 
REMARK    4  A    between atoms: C6_6  and  C9_9 
REMARK    5  A    between atoms: C7_7  and  C9_9 
ROOT
HETATM    1  C6  UNL     1     -33.705   6.877   4.632  1.00 20.00     0.009 C 
ENDROOT
BRANCH   1   2
HETATM    2  C8  UNL     1     -33.577   6.424   6.103  1.00 20.00    -0.018 C 
HETATM    3  C2  UNL     1     -33.444   7.610   7.060  1.00 20.00     0.010 C 
BRANCH   2   4
HETATM    4  C5  UNL     1     -34.739   5.491   6.514  1.00 20.00     0.004 C 
BRANCH   4   5
HETATM    5  C4  UNL     1     -34.661   4.062   5.970  1.00 20.00    -0.004 C 
HETATM    6  C1  UNL     1     -35.358   3.948   4.622  1.00 20.00     0.005 C 
ENDBRANCH   4   5
ENDBRANCH   2   4
ENDBRANCH   1   2
BRANCH   1   7
HETATM    7  C9  UNL     1     -32.565   6.430   3.688  1.00 20.00    -0.004 C 
HETATM    8  C3  UNL     1     -33.162   5.728   2.460  1.00 20.00     0.011 C 
BRANCH   7   9
HETATM    9  C7  UNL     1     -31.602   7.553   3.274  1.00 20.00     0.119 C 
HETATM   10 CL10 UNL     1     -32.053   8.353   1.749  1.00 20.00    -0.130 Cl
ENDBRANCH   7   9
ENDBRANCH   1   7
TORSDOF 5
ENDMDL
MODEL 6
REMARK VINA RESULT:      -4.1     11.511     13.083
REMARK  5 active torsions:
REMARK  status: ('A' for Active; 'I' for Inactive)
REMARK    1  A    between atoms: C4_4  and  C5_5 
REMARK    2  A    between atoms: C5_5  and  C8_8 
REMARK    3  A    between atoms: C6_6  and  C8_8 
REMARK    4  A    between atoms: C6_6  and  C9_9 
REMARK    5  A    between atoms: C7_7  and  C9_9 
ROOT
HETATM    1  C6  UNL     1     -35.520  14.451  -5.214  1.00 20.00     0.009 C 
ENDROOT
BRANCH   1   2
HETATM    2  C8  UNL     1     -34.979  14.182  -3.793  1.00 20.00    -0.018 C 
HETATM    3  C2  UNL     1     -33.465  13.958  -3.788  1.00 20.00     0.010 C 
BRANCH   2   4
HETATM    4  C5  UNL     1     -35.390  15.300  -2.808  1.00 20.00     0.004 C 
BRANCH   4   5
HETATM    5  C4  UNL     1     -34.234  16.101  -2.200  1.00 20.00    -0.004 C 
HETATM    6  C1  UNL     1     -34.600  16.636  -0.823  1.00 20.00     0.005 C 
ENDBRANCH   4   5
ENDBRANCH   2   4
ENDBRANCH   1   2
BRANCH   1   7
HETATM    7  C9  UNL     1     -34.587  15.254  -6.149  1.00 20.00    -0.004 C 
HETATM    8  C3  UNL     1     -34.754  14.758  -7.591  1.00 20.00     0.011 C 
BRANCH   7   9
HETATM    9  C7  UNL     1     -34.755  16.780  -6.063  1.00 20.00     0.119 C 
HETATM   10 CL10 UNL     1     -33.371  17.608  -5.309  1.00 20.00    -0.130 Cl
ENDBRANCH   7   9
ENDBRANCH   1   7
TORSDOF 5
ENDMDL
MODEL 7
REMARK VINA RESULT:      -4.1     11.001     12.189
REMARK  5 active torsions:
REMARK  status: ('A' for Active; 'I' for Inactive)
REMARK    1  A    between atoms: C4_4  and  C5_5 
REMARK    2  A    between atoms: C5_5  and  C8_8 
REMARK    3  A    between atoms: C6_6  and  C8_8 
REMARK    4  A    between atoms: C6_6  and  C9_9 
REMARK    5  A    between atoms: C7_7  and  C9_9 
ROOT
HETATM    1  C6  UNL     1     -33.579  16.319  -3.065  1.00 20.00     0.009 C 
ENDROOT
BRANCH   1   2
HETATM    2  C8  UNL     1     -33.234  15.286  -4.161  1.00 20.00    -0.018 C 
HETATM    3  C2  UNL     1     -33.596  13.859  -3.740  1.00 20.00     0.010 C 
BRANCH   2   4
HETATM    4  C5  UNL     1     -33.879  15.657  -5.515  1.00 20.00     0.004 C 
BRANCH   4   5
HETATM    5  C4  UNL     1     -34.679  14.541  -6.193  1.00 20.00    -0.004 C 
HETATM    6  C1  UNL     1     -34.885  14.833  -7.673  1.00 20.00     0.005 C 
ENDBRANCH   4   5
ENDBRANCH   2   4
ENDBRANCH   1   2
BRANCH   1   7
HETATM    7  C9  UNL     1     -34.813  15.988  -2.194  1.00 20.00    -0.004 C 
HETATM    8  C3  UNL     1     -34.642  16.617  -0.804  1.00 20.00     0.011 C 
BRANCH   7   9
HETATM    9  C7  UNL     1     -36.161  16.380  -2.820  1.00 20.00     0.119 C 
HETATM   10 CL10 UNL     1     -37.058  15.002  -3.500  1.00 20.00    -0.130 Cl
ENDBRANCH   7   9
ENDBRANCH   1   7
TORSDOF 5
ENDMDL
MODEL 8
REMARK VINA RESULT:      -4.0     11.616     12.514
REMARK  5 active torsions:
REMARK  status: ('A' for Active; 'I' for Inactive)
REMARK    1  A    between atoms: C4_4  and  C5_5 
REMARK    2  A    between atoms: C5_5  and  C8_8 
REMARK    3  A    between atoms: C6_6  and  C8_8 
REMARK    4  A    between atoms: C6_6  and  C9_9 
REMARK    5  A    between atoms: C7_7  and  C9_9 
ROOT
HETATM    1  C6  UNL     1     -34.092  15.141  -2.976  1.00 20.00     0.009 C 
ENDROOT
BRANCH   1   2
HETATM    2  C8  UNL     1     -35.052  14.162  -3.686  1.00 20.00    -0.018 C 
HETATM    3  C2  UNL     1     -36.462  14.741  -3.828  1.00 20.00     0.010 C 
BRANCH   2   4
HETATM    4  C5  UNL     1     -34.489  13.703  -5.050  1.00 20.00     0.004 C 
BRANCH   4   5
HETATM    5  C4  UNL     1     -35.279  14.162  -6.279  1.00 20.00    -0.004 C 
HETATM    6  C1  UNL     1     -34.419  15.019  -7.197  1.00 20.00     0.005 C 
ENDBRANCH   4   5
ENDBRANCH   2   4
ENDBRANCH   1   2
BRANCH   1   7
HETATM    7  C9  UNL     1     -34.719  16.469  -2.495  1.00 20.00    -0.004 C 
HETATM    8  C3  UNL     1     -34.608  16.566  -0.968  1.00 20.00     0.011 C 
BRANCH   7   9
HETATM    9  C7  UNL     1     -34.153  17.726  -3.175  1.00 20.00     0.119 C 
HETATM   10 CL10 UNL     1     -33.434  17.410  -4.772  1.00 20.00    -0.130 Cl
ENDBRANCH   7   9
ENDBRANCH   1   7
TORSDOF 5
ENDMDL
MODEL 9
REMARK VINA RESULT:      -4.0     11.305     12.827
REMARK  5 active torsions:
REMARK  status: ('A' for Active; 'I' for Inactive)
REMARK    1  A    between atoms: C4_4  and  C5_5 
REMARK    2  A    between atoms: C5_5  and  C8_8 
REMARK    3  A    between atoms: C6_6  and  C8_8 
REMARK    4  A    between atoms: C6_6  and  C9_9 
REMARK    5  A    between atoms: C7_7  and  C9_9 
ROOT
HETATM    1  C6  UNL     1     -33.629  16.023  -5.122  1.00 20.00     0.009 C 
ENDROOT
BRANCH   1   2
HETATM    2  C8  UNL     1     -34.218  17.099  -4.184  1.00 20.00    -0.018 C 
HETATM    3  C2  UNL     1     -35.747  17.133  -4.237  1.00 20.00     0.010 C 
BRANCH   2   4
HETATM    4  C5  UNL     1     -33.705  16.933  -2.736  1.00 20.00     0.004 C 
BRANCH   4   5
HETATM    5  C4  UNL     1     -34.647  16.190  -1.784  1.00 20.00    -0.004 C 
HETATM    6  C1  UNL     1     -34.706  16.872  -0.425  1.00 20.00     0.005 C 
ENDBRANCH   4   5
ENDBRANCH   2   4
ENDBRANCH   1   2
BRANCH   1   7
HETATM    7  C9  UNL     1     -34.630  14.968  -5.648  1.00 20.00    -0.004 C 
HETATM    8  C3  UNL     1     -34.516  14.869  -7.175  1.00 20.00     0.011 C 
BRANCH   7   9
HETATM    9  C7  UNL     1     -34.503  13.584  -4.990  1.00 20.00     0.119 C 
HETATM   10 CL10 UNL     1     -33.238  13.502  -3.741  1.00 20.00    -0.130 Cl
ENDBRANCH   7   9
ENDBRANCH   1   7
TORSDOF 5
ENDMDL
