MODEL 1
REMARK VINA RESULT:      -3.9      0.000      0.000
REMARK  3 active torsions:
REMARK  status: ('A' for Active; 'I' for Inactive)
REMARK    1  A    between atoms: C1_1  and  C6_6 
REMARK    2  A    between atoms: C5_5  and  C6_6 
REMARK    3  A    between atoms: C6_6  and  O8_8 
ROOT
HETATM    1  C4  UNL     1     -34.960  14.249  -5.830  1.00 20.00     0.054 C 
HETATM    2  C6  UNL     1     -34.925  13.915  -4.338  1.00 20.00     0.110 C 
ENDROOT
BRANCH   2   3
HETATM    3  C1  UNL     1     -33.478  13.948  -3.866  1.00 20.00     0.268 C 
HETATM    4  O7  UNL     1     -32.798  12.947  -3.658  1.00 20.00    -0.304 OA
ENDBRANCH   2   3
BRANCH   2   5
HETATM    5  C5  UNL     1     -35.828  14.851  -3.491  1.00 20.00     0.018 C 
HETATM    6  C2  UNL     1     -36.763  15.741  -4.315  1.00 20.00     0.013 C 
HETATM    7  C3  UNL     1     -35.015  15.724  -2.522  1.00 20.00     0.013 C 
ENDBRANCH   2   5
BRANCH   2   8
HETATM    8  O8  UNL     1     -35.402  12.580  -4.176  1.00 20.00    -0.383 OA
HETATM    9  H20 UNL     1     -35.614  12.477  -3.236  1.00 20.00     0.211 HD
ENDBRANCH   2   8
TORSDOF 3
ENDMDL
MODEL 2
REMARK VINA RESULT:      -3.9      1.393      3.172
REMARK  3 active torsions:
REMARK  status: ('A' for Active; 'I' for Inactive)
REMARK    1  A    between atoms: C1_1  and  C6_6 
REMARK    2  A    between atoms: C5_5  and  C6_6 
REMARK    3  A    between atoms: C6_6  and  O8_8 
ROOT
HETATM    1  C4  UNL     1     -34.438  14.728  -3.095  1.00 20.00     0.054 C 
HETATM    2  C6  UNL     1     -35.194  14.169  -4.302  1.00 20.00     0.110 C 
ENDROOT
BRANCH   2   3
HETATM    3  C1  UNL     1     -36.628  14.678  -4.257  1.00 20.00     0.268 C 
HETATM    4  O7  UNL     1     -37.567  14.054  -3.772  1.00 20.00    -0.304 OA
ENDBRANCH   2   3
BRANCH   2   5
HETATM    5  C5  UNL     1     -34.505  14.505  -5.651  1.00 20.00     0.018 C 
HETATM    6  C2  UNL     1     -33.867  15.897  -5.704  1.00 20.00     0.013 C 
HETATM    7  C3  UNL     1     -35.453  14.332  -6.848  1.00 20.00     0.013 C 
ENDBRANCH   2   5
BRANCH   2   8
HETATM    8  O8  UNL     1     -35.237  12.748  -4.173  1.00 20.00    -0.383 OA
HETATM    9  H20 UNL     1     -35.797  12.559  -3.405  1.00 20.00     0.211 HD
ENDBRANCH   2   8
TORSDOF 3
ENDMDL
MODEL 3
REMARK VINA RESULT:      -3.9      1.288      2.349
REMARK  3 active torsions:
REMARK  status: ('A' for Active; 'I' for Inactive)
REMARK    1  A    between atoms: C1_1  and  C6_6 
REMARK    2  A    between atoms: C5_5  and  C6_6 
REMARK    3  A    between atoms: C6_6  and  O8_8 
ROOT
HETATM    1  C4  UNL     1     -36.624  14.492  -4.123  1.00 20.00     0.054 C 
HETATM    2  C6  UNL     1     -35.175  14.022  -4.260  1.00 20.00     0.110 C 
ENDROOT
BRANCH   2   3
HETATM    3  C1  UNL     1     -34.689  14.343  -5.667  1.00 20.00     0.268 C 
HETATM    4  O7  UNL     1     -35.329  14.107  -6.688  1.00 20.00    -0.304 OA
ENDBRANCH   2   3
BRANCH   2   5
HETATM    5  C5  UNL     1     -34.243  14.628  -3.178  1.00 20.00     0.018 C 
HETATM    6  C2  UNL     1     -34.867  15.773  -2.375  1.00 20.00     0.013 C 
HETATM    7  C3  UNL     1     -32.896  15.086  -3.759  1.00 20.00     0.013 C 
ENDBRANCH   2   5
BRANCH   2   8
HETATM    8  O8  UNL     1     -35.158  12.603  -4.111  1.00 20.00    -0.383 OA
HETATM    9  H20 UNL     1     -34.968  12.237  -4.988  1.00 20.00     0.211 HD
ENDBRANCH   2   8
TORSDOF 3
ENDMDL
MODEL 4
REMARK VINA RESULT:      -3.8      1.447      2.367
REMARK  3 active torsions:
REMARK  status: ('A' for Active; 'I' for Inactive)
REMARK    1  A    between atoms: C1_1  and  C6_6 
REMARK    2  A    between atoms: C5_5  and  C6_6 
REMARK    3  A    between atoms: C6_6  and  O8_8 
ROOT
HETATM    1  C4  UNL     1     -35.926  16.083  -4.850  1.00 20.00     0.054 C 
HETATM    2  C6  UNL     1     -35.706  15.006  -3.786  1.00 20.00     0.110 C 
ENDROOT
BRANCH   2   3
HETATM    3  C1  UNL     1     -35.637  13.649  -4.473  1.00 20.00     0.268 C 
HETATM    4  O7  UNL     1     -34.905  12.731  -4.115  1.00 20.00    -0.304 OA
ENDBRANCH   2   3
BRANCH   2   5
HETATM    5  C5  UNL     1     -34.451  15.272  -2.913  1.00 20.00     0.018 C 
HETATM    6  C2  UNL     1     -34.698  16.198  -1.718  1.00 20.00     0.013 C 
HETATM    7  C3  UNL     1     -33.270  15.808  -3.738  1.00 20.00     0.013 C 
ENDBRANCH   2   5
BRANCH   2   8
HETATM    8  O8  UNL     1     -36.845  14.998  -2.927  1.00 20.00    -0.383 OA
HETATM    9  H20 UNL     1     -36.529  15.260  -2.049  1.00 20.00     0.211 HD
ENDBRANCH   2   8
TORSDOF 3
ENDMDL
MODEL 5
REMARK VINA RESULT:      -3.8      1.563      2.730
REMARK  3 active torsions:
REMARK  status: ('A' for Active; 'I' for Inactive)
REMARK    1  A    between atoms: C1_1  and  C6_6 
REMARK    2  A    between atoms: C5_5  and  C6_6 
REMARK    3  A    between atoms: C6_6  and  O8_8 
ROOT
HETATM    1  C4  UNL     1     -34.534  15.532  -2.715  1.00 20.00     0.054 C 
HETATM    2  C6  UNL     1     -34.312  14.855  -4.069  1.00 20.00     0.110 C 
ENDROOT
BRANCH   2   3
HETATM    3  C1  UNL     1     -35.297  13.702  -4.204  1.00 20.00     0.268 C 
HETATM    4  O7  UNL     1     -34.977  12.551  -4.485  1.00 20.00    -0.304 OA
ENDBRANCH   2   3
BRANCH   2   5
HETATM    5  C5  UNL     1     -34.418  15.844  -5.260  1.00 20.00     0.018 C 
HETATM    6  C2  UNL     1     -34.354  15.181  -6.639  1.00 20.00     0.013 C 
HETATM    7  C3  UNL     1     -33.367  16.964  -5.182  1.00 20.00     0.013 C 
ENDBRANCH   2   5
BRANCH   2   8
HETATM    8  O8  UNL     1     -32.997  14.302  -4.072  1.00 20.00    -0.383 OA
HETATM    9  H20 UNL     1     -32.393  15.030  -4.280  1.00 20.00     0.211 HD
ENDBRANCH   2   8
TORSDOF 3
ENDMDL
MODEL 6
REMARK VINA RESULT:      -3.7      1.381      2.480
REMARK  3 active torsions:
REMARK  status: ('A' for Active; 'I' for Inactive)
REMARK    1  A    between atoms: C1_1  and  C6_6 
REMARK    2  A    between atoms: C5_5  and  C6_6 
REMARK    3  A    between atoms: C6_6  and  O8_8 
ROOT
HETATM    1  C4  UNL     1     -32.955  14.055  -3.560  1.00 20.00     0.054 C 
HETATM    2  C6  UNL     1     -34.038  14.759  -4.380  1.00 20.00     0.110 C 
ENDROOT
BRANCH   2   3
HETATM    3  C1  UNL     1     -34.866  13.703  -5.100  1.00 20.00     0.268 C 
HETATM    4  O7  UNL     1     -34.795  12.499  -4.874  1.00 20.00    -0.304 OA
ENDBRANCH   2   3
BRANCH   2   5
HETATM    5  C5  UNL     1     -34.925  15.699  -3.522  1.00 20.00     0.018 C 
HETATM    6  C2  UNL     1     -34.362  16.001  -2.130  1.00 20.00     0.013 C 
HETATM    7  C3  UNL     1     -36.366  15.181  -3.389  1.00 20.00     0.013 C 
ENDBRANCH   2   5
BRANCH   2   8
HETATM    8  O8  UNL     1     -33.391  15.551  -5.374  1.00 20.00    -0.383 OA
HETATM    9  H20 UNL     1     -33.278  16.434  -4.992  1.00 20.00     0.211 HD
ENDBRANCH   2   8
TORSDOF 3
ENDMDL
MODEL 7
REMARK VINA RESULT:      -3.6      1.934      2.461
REMARK  3 active torsions:
REMARK  status: ('A' for Active; 'I' for Inactive)
REMARK    1  A    between atoms: C1_1  and  C6_6 
REMARK    2  A    between atoms: C5_5  and  C6_6 
REMARK    3  A    between atoms: C6_6  and  O8_8 
ROOT
HETATM    1  C4  UNL     1     -34.189  13.477  -4.614  1.00 20.00     0.054 C 
HETATM    2  C6  UNL     1     -33.714  14.822  -4.063  1.00 20.00     0.110 C 
ENDROOT
BRANCH   2   3
HETATM    3  C1  UNL     1     -33.783  15.857  -5.178  1.00 20.00     0.268 C 
HETATM    4  O7  UNL     1     -32.959  16.753  -5.339  1.00 20.00    -0.304 OA
ENDBRANCH   2   3
BRANCH   2   5
HETATM    5  C5  UNL     1     -34.510  15.274  -2.810  1.00 20.00     0.018 C 
HETATM    6  C2  UNL     1     -35.990  15.565  -3.075  1.00 20.00     0.013 C 
HETATM    7  C3  UNL     1     -33.867  16.484  -2.116  1.00 20.00     0.013 C 
ENDBRANCH   2   5
BRANCH   2   8
HETATM    8  O8  UNL     1     -32.344  14.685  -3.687  1.00 20.00    -0.383 OA
HETATM    9  H20 UNL     1     -31.982  15.582  -3.636  1.00 20.00     0.211 HD
ENDBRANCH   2   8
TORSDOF 3
ENDMDL
MODEL 8
REMARK VINA RESULT:      -3.6      1.983      2.946
REMARK  3 active torsions:
REMARK  status: ('A' for Active; 'I' for Inactive)
REMARK    1  A    between atoms: C1_1  and  C6_6 
REMARK    2  A    between atoms: C5_5  and  C6_6 
REMARK    3  A    between atoms: C6_6  and  O8_8 
ROOT
HETATM    1  C4  UNL     1     -33.253  16.485  -5.034  1.00 20.00     0.054 C 
HETATM    2  C6  UNL     1     -33.497  15.224  -4.203  1.00 20.00     0.110 C 
ENDROOT
BRANCH   2   3
HETATM    3  C1  UNL     1     -34.267  15.609  -2.948  1.00 20.00     0.268 C 
HETATM    4  O7  UNL     1     -33.816  16.320  -2.054  1.00 20.00    -0.304 OA
ENDBRANCH   2   3
BRANCH   2   5
HETATM    5  C5  UNL     1     -34.222  14.110  -5.003  1.00 20.00     0.018 C 
HETATM    6  C2  UNL     1     -34.759  14.558  -6.365  1.00 20.00     0.013 C 
HETATM    7  C3  UNL     1     -35.356  13.457  -4.196  1.00 20.00     0.013 C 
ENDBRANCH   2   5
BRANCH   2   8
HETATM    8  O8  UNL     1     -32.228  14.716  -3.793  1.00 20.00    -0.383 OA
HETATM    9  H20 UNL     1     -31.841  14.284  -4.569  1.00 20.00     0.211 HD
ENDBRANCH   2   8
TORSDOF 3
ENDMDL
MODEL 9
REMARK VINA RESULT:      -3.5      2.200      3.384
REMARK  3 active torsions:
REMARK  status: ('A' for Active; 'I' for Inactive)
REMARK    1  A    between atoms: C1_1  and  C6_6 
REMARK    2  A    between atoms: C5_5  and  C6_6 
REMARK    3  A    between atoms: C6_6  and  O8_8 
ROOT
HETATM    1  C4  UNL     1     -35.490  16.560  -4.522  1.00 20.00     0.054 C 
HETATM    2  C6  UNL     1     -35.759  15.320  -3.668  1.00 20.00     0.110 C 
ENDROOT
BRANCH   2   3
HETATM    3  C1  UNL     1     -36.962  14.584  -4.242  1.00 20.00     0.268 C 
HETATM    4  O7  UNL     1     -37.956  14.275  -3.591  1.00 20.00    -0.304 OA
ENDBRANCH   2   3
BRANCH   2   5
HETATM    5  C5  UNL     1     -34.520  14.393  -3.549  1.00 20.00     0.018 C 
HETATM    6  C2  UNL     1     -33.176  15.123  -3.627  1.00 20.00     0.013 C 
HETATM    7  C3  UNL     1     -34.544  13.254  -4.581  1.00 20.00     0.013 C 
ENDBRANCH   2   5
BRANCH   2   8
HETATM    8  O8  UNL     1     -36.107  15.758  -2.355  1.00 20.00    -0.383 OA
HETATM    9  H20 UNL     1     -36.642  16.559  -2.466  1.00 20.00     0.211 HD
ENDBRANCH   2   8
TORSDOF 3
ENDMDL
