MODEL 1
REMARK VINA RESULT:      -4.4      0.000      0.000
REMARK  4 active torsions:
REMARK  status: ('A' for Active; 'I' for Inactive)
REMARK    1  A    between atoms: C3_3  and  C5_5 
REMARK    2  A    between atoms: C4_4  and  C7_7 
REMARK    3  A    between atoms: C5_5  and  C7_7 
REMARK    4  A    between atoms: C6_6  and  C7_7 
ROOT
HETATM    1  C7  UNL     1     -34.159   6.152   4.306  1.00 20.00    -0.001 C 
ENDROOT
BRANCH   1   2
HETATM    2  C4  UNL     1     -33.450   6.042   5.677  1.00 20.00     0.001 C 
HETATM    3  C2  UNL     1     -33.788   7.178   6.635  1.00 20.00     0.005 C 
ENDBRANCH   1   2
BRANCH   1   4
HETATM    4  C5  UNL     1     -33.141   6.139   3.143  1.00 20.00     0.005 C 
BRANCH   4   5
HETATM    5  C3  UNL     1     -32.025   7.188   3.215  1.00 20.00    -0.004 C 
HETATM    6  C1  UNL     1     -32.055   8.186   2.069  1.00 20.00     0.005 C 
ENDBRANCH   4   5
ENDBRANCH   1   4
BRANCH   1   7
HETATM    7  C6  UNL     1     -35.256   5.077   4.182  1.00 20.00     0.119 C 
HETATM    8 CL8  UNL     1     -35.133   3.788   5.405  1.00 20.00    -0.130 Cl
ENDBRANCH   1   7
TORSDOF 4
ENDMDL
MODEL 2
REMARK VINA RESULT:      -4.2      1.556      1.687
REMARK  4 active torsions:
REMARK  status: ('A' for Active; 'I' for Inactive)
REMARK    1  A    between atoms: C3_3  and  C5_5 
REMARK    2  A    between atoms: C4_4  and  C7_7 
REMARK    3  A    between atoms: C5_5  and  C7_7 
REMARK    4  A    between atoms: C6_6  and  C7_7 
ROOT
HETATM    1  C7  UNL     1     -33.975   6.386   4.320  1.00 20.00    -0.001 C 
ENDROOT
BRANCH   1   2
HETATM    2  C4  UNL     1     -34.061   6.053   5.829  1.00 20.00     0.001 C 
HETATM    3  C2  UNL     1     -34.830   4.773   6.131  1.00 20.00     0.005 C 
ENDBRANCH   1   2
BRANCH   1   4
HETATM    4  C5  UNL     1     -32.527   6.252   3.795  1.00 20.00     0.005 C 
BRANCH   4   5
HETATM    5  C3  UNL     1     -31.804   7.564   3.475  1.00 20.00    -0.004 C 
HETATM    6  C1  UNL     1     -32.115   8.108   2.090  1.00 20.00     0.005 C 
ENDBRANCH   4   5
ENDBRANCH   1   4
BRANCH   1   7
HETATM    7  C6  UNL     1     -35.002   5.554   3.529  1.00 20.00     0.119 C 
HETATM    8 CL8  UNL     1     -34.361   4.892   2.005  1.00 20.00    -0.130 Cl
ENDBRANCH   1   7
TORSDOF 4
ENDMDL
MODEL 3
REMARK VINA RESULT:      -4.2      1.876      2.498
REMARK  4 active torsions:
REMARK  status: ('A' for Active; 'I' for Inactive)
REMARK    1  A    between atoms: C3_3  and  C5_5 
REMARK    2  A    between atoms: C4_4  and  C7_7 
REMARK    3  A    between atoms: C5_5  and  C7_7 
REMARK    4  A    between atoms: C6_6  and  C7_7 
ROOT
HETATM    1  C7  UNL     1     -33.869   5.775   4.948  1.00 20.00    -0.001 C 
ENDROOT
BRANCH   1   2
HETATM    2  C4  UNL     1     -34.894   4.679   4.572  1.00 20.00     0.001 C 
HETATM    3  C2  UNL     1     -35.304   3.796   5.744  1.00 20.00     0.005 C 
ENDBRANCH   1   2
BRANCH   1   4
HETATM    4  C5  UNL     1     -33.675   6.785   3.793  1.00 20.00     0.005 C 
BRANCH   4   5
HETATM    5  C3  UNL     1     -32.286   6.805   3.144  1.00 20.00    -0.004 C 
HETATM    6  C1  UNL     1     -32.057   8.003   2.237  1.00 20.00     0.005 C 
ENDBRANCH   4   5
ENDBRANCH   1   4
BRANCH   1   7
HETATM    7  C6  UNL     1     -34.252   6.431   6.288  1.00 20.00     0.119 C 
HETATM    8 CL8  UNL     1     -33.018   7.552   6.912  1.00 20.00    -0.130 Cl
ENDBRANCH   1   7
TORSDOF 4
ENDMDL
MODEL 4
REMARK VINA RESULT:      -4.1      1.613      3.529
REMARK  4 active torsions:
REMARK  status: ('A' for Active; 'I' for Inactive)
REMARK    1  A    between atoms: C3_3  and  C5_5 
REMARK    2  A    between atoms: C4_4  and  C7_7 
REMARK    3  A    between atoms: C5_5  and  C7_7 
REMARK    4  A    between atoms: C6_6  and  C7_7 
ROOT
HETATM    1  C7  UNL     1     -33.407   5.685   3.936  1.00 20.00    -0.001 C 
ENDROOT
BRANCH   1   2
HETATM    2  C4  UNL     1     -32.101   6.281   3.358  1.00 20.00     0.001 C 
HETATM    3  C2  UNL     1     -32.306   7.590   2.605  1.00 20.00     0.005 C 
ENDBRANCH   1   2
BRANCH   1   4
HETATM    4  C5  UNL     1     -33.925   6.517   5.132  1.00 20.00     0.005 C 
BRANCH   4   5
HETATM    5  C3  UNL     1     -34.334   5.723   6.377  1.00 20.00    -0.004 C 
HETATM    6  C1  UNL     1     -34.720   4.283   6.079  1.00 20.00     0.005 C 
ENDBRANCH   4   5
ENDBRANCH   1   4
BRANCH   1   7
HETATM    7  C6  UNL     1     -34.448   5.490   2.818  1.00 20.00     0.119 C 
HETATM    8 CL8  UNL     1     -36.116   5.857   3.325  1.00 20.00    -0.130 Cl
ENDBRANCH   1   7
TORSDOF 4
ENDMDL
MODEL 5
REMARK VINA RESULT:      -4.0      2.464      4.237
REMARK  4 active torsions:
REMARK  status: ('A' for Active; 'I' for Inactive)
REMARK    1  A    between atoms: C3_3  and  C5_5 
REMARK    2  A    between atoms: C4_4  and  C7_7 
REMARK    3  A    between atoms: C5_5  and  C7_7 
REMARK    4  A    between atoms: C6_6  and  C7_7 
ROOT
HETATM    1  C7  UNL     1     -33.822   6.645   4.242  1.00 20.00    -0.001 C 
ENDROOT
BRANCH   1   2
HETATM    2  C4  UNL     1     -34.850   5.754   3.505  1.00 20.00     0.001 C 
HETATM    3  C2  UNL     1     -34.267   4.997   2.319  1.00 20.00     0.005 C 
ENDBRANCH   1   2
BRANCH   1   4
HETATM    4  C5  UNL     1     -33.814   6.357   5.761  1.00 20.00     0.005 C 
BRANCH   4   5
HETATM    5  C3  UNL     1     -34.856   5.349   6.260  1.00 20.00    -0.004 C 
HETATM    6  C1  UNL     1     -34.466   3.901   6.015  1.00 20.00     0.005 C 
ENDBRANCH   4   5
ENDBRANCH   1   4
BRANCH   1   7
HETATM    7  C6  UNL     1     -32.436   6.524   3.580  1.00 20.00     0.119 C 
HETATM    8 CL8  UNL     1     -32.048   7.875   2.486  1.00 20.00    -0.130 Cl
ENDBRANCH   1   7
TORSDOF 4
ENDMDL
MODEL 6
REMARK VINA RESULT:      -3.9      1.270      2.187
REMARK  4 active torsions:
REMARK  status: ('A' for Active; 'I' for Inactive)
REMARK    1  A    between atoms: C3_3  and  C5_5 
REMARK    2  A    between atoms: C4_4  and  C7_7 
REMARK    3  A    between atoms: C5_5  and  C7_7 
REMARK    4  A    between atoms: C6_6  and  C7_7 
ROOT
HETATM    1  C7  UNL     1     -33.340   5.670   3.932  1.00 20.00    -0.001 C 
ENDROOT
BRANCH   1   2
HETATM    2  C4  UNL     1     -34.538   5.325   3.014  1.00 20.00     0.001 C 
HETATM    3  C2  UNL     1     -35.890   5.711   3.601  1.00 20.00     0.005 C 
ENDBRANCH   1   2
BRANCH   1   4
HETATM    4  C5  UNL     1     -32.138   6.197   3.115  1.00 20.00     0.005 C 
BRANCH   4   5
HETATM    5  C3  UNL     1     -31.920   7.714   3.144  1.00 20.00    -0.004 C 
HETATM    6  C1  UNL     1     -32.039   8.370   1.778  1.00 20.00     0.005 C 
ENDBRANCH   4   5
ENDBRANCH   1   4
BRANCH   1   7
HETATM    7  C6  UNL     1     -33.786   6.616   5.062  1.00 20.00     0.119 C 
HETATM    8 CL8  UNL     1     -34.295   5.769   6.544  1.00 20.00    -0.130 Cl
ENDBRANCH   1   7
TORSDOF 4
ENDMDL
MODEL 7
REMARK VINA RESULT:      -3.9      2.334      3.683
REMARK  4 active torsions:
REMARK  status: ('A' for Active; 'I' for Inactive)
REMARK    1  A    between atoms: C3_3  and  C5_5 
REMARK    2  A    between atoms: C4_4  and  C7_7 
REMARK    3  A    between atoms: C5_5  and  C7_7 
REMARK    4  A    between atoms: C6_6  and  C7_7 
ROOT
HETATM    1  C7  UNL     1     -33.345   5.956   4.229  1.00 20.00    -0.001 C 
ENDROOT
BRANCH   1   2
HETATM    2  C4  UNL     1     -33.354   7.204   5.143  1.00 20.00     0.001 C 
HETATM    3  C2  UNL     1     -33.734   6.903   6.587  1.00 20.00     0.005 C 
ENDBRANCH   1   2
BRANCH   1   4
HETATM    4  C5  UNL     1     -34.759   5.646   3.684  1.00 20.00     0.005 C 
BRANCH   4   5
HETATM    5  C3  UNL     1     -35.581   4.633   4.488  1.00 20.00    -0.004 C 
HETATM    6  C1  UNL     1     -34.767   3.875   5.524  1.00 20.00     0.005 C 
ENDBRANCH   4   5
ENDBRANCH   1   4
BRANCH   1   7
HETATM    7  C6  UNL     1     -32.276   6.104   3.130  1.00 20.00     0.119 C 
HETATM    8 CL8  UNL     1     -32.145   7.756   2.479  1.00 20.00    -0.130 Cl
ENDBRANCH   1   7
TORSDOF 4
ENDMDL
MODEL 8
REMARK VINA RESULT:      -3.8      1.592      3.773
REMARK  4 active torsions:
REMARK  status: ('A' for Active; 'I' for Inactive)
REMARK    1  A    between atoms: C3_3  and  C5_5 
REMARK    2  A    between atoms: C4_4  and  C7_7 
REMARK    3  A    between atoms: C5_5  and  C7_7 
REMARK    4  A    between atoms: C6_6  and  C7_7 
ROOT
HETATM    1  C7  UNL     1     -33.486   6.560   3.914  1.00 20.00    -0.001 C 
ENDROOT
BRANCH   1   2
HETATM    2  C4  UNL     1     -32.301   6.703   2.930  1.00 20.00     0.001 C 
HETATM    3  C2  UNL     1     -32.203   8.080   2.285  1.00 20.00     0.005 C 
ENDBRANCH   1   2
BRANCH   1   4
HETATM    4  C5  UNL     1     -34.469   5.458   3.455  1.00 20.00     0.005 C 
BRANCH   4   5
HETATM    5  C3  UNL     1     -35.491   4.992   4.498  1.00 20.00    -0.004 C 
HETATM    6  C1  UNL     1     -34.994   3.846   5.365  1.00 20.00     0.005 C 
ENDBRANCH   4   5
ENDBRANCH   1   4
BRANCH   1   7
HETATM    7  C6  UNL     1     -32.969   6.370   5.352  1.00 20.00     0.119 C 
HETATM    8 CL8  UNL     1     -33.978   7.167   6.584  1.00 20.00    -0.130 Cl
ENDBRANCH   1   7
TORSDOF 4
ENDMDL
MODEL 9
REMARK VINA RESULT:      -3.8     11.751     12.589
REMARK  4 active torsions:
REMARK  status: ('A' for Active; 'I' for Inactive)
REMARK    1  A    between atoms: C3_3  and  C5_5 
REMARK    2  A    between atoms: C4_4  and  C7_7 
REMARK    3  A    between atoms: C5_5  and  C7_7 
REMARK    4  A    between atoms: C6_6  and  C7_7 
ROOT
HETATM    1  C7  UNL     1     -33.492  16.113  -2.971  1.00 20.00    -0.001 C 
ENDROOT
BRANCH   1   2
HETATM    2  C4  UNL     1     -34.739  15.973  -2.066  1.00 20.00     0.001 C 
HETATM    3  C2  UNL     1     -34.615  16.704  -0.735  1.00 20.00     0.005 C 
ENDBRANCH   1   2
BRANCH   1   4
HETATM    4  C5  UNL     1     -33.134  14.770  -3.649  1.00 20.00     0.005 C 
BRANCH   4   5
HETATM    5  C3  UNL     1     -34.218  13.687  -3.608  1.00 20.00    -0.004 C 
HETATM    6  C1  UNL     1     -34.772  13.330  -4.978  1.00 20.00     0.005 C 
ENDBRANCH   4   5
ENDBRANCH   1   4
BRANCH   1   7
HETATM    7  C6  UNL     1     -33.676  17.279  -3.961  1.00 20.00     0.119 C 
HETATM    8 CL8  UNL     1     -33.605  16.781  -5.670  1.00 20.00    -0.130 Cl
ENDBRANCH   1   7
TORSDOF 4
ENDMDL
