MODEL 1
REMARK VINA RESULT:      -3.8      0.000      0.000
REMARK  2 active torsions:
REMARK  status: ('A' for Active; 'I' for Inactive)
REMARK    1  A    between atoms: C5_5  and  C6_6 
REMARK    2  A    between atoms: C6_6  and  O8_8 
ROOT
HETATM    1  C1  UNL     1     -34.669  13.751  -4.291  1.00 20.00     0.097 C 
HETATM    2  C3  UNL     1     -32.859  15.249  -3.568  1.00 20.00     0.062 C 
HETATM    3  C6  UNL     1     -34.351  15.137  -3.896  1.00 20.00     0.144 C 
HETATM    4  N7  UNL     1     -34.919  12.662  -4.601  1.00 20.00    -0.194 NA
ENDROOT
BRANCH   3   5
HETATM    5  C5  UNL     1     -35.189  15.577  -2.682  1.00 20.00     0.049 C 
HETATM    6  C2  UNL     1     -34.405  16.356  -1.629  1.00 20.00     0.009 C 
ENDBRANCH   3   5
BRANCH   3   7
HETATM    7  O8  UNL     1     -34.631  16.018  -4.984  1.00 20.00    -0.371 OA
HETATM    8  C4  UNL     1     -33.488  16.781  -5.336  1.00 20.00     0.204 C 
ENDBRANCH   3   7
TORSDOF 2
ENDMDL
MODEL 2
REMARK VINA RESULT:      -3.6      1.630      2.290
REMARK  2 active torsions:
REMARK  status: ('A' for Active; 'I' for Inactive)
REMARK    1  A    between atoms: C5_5  and  C6_6 
REMARK    2  A    between atoms: C6_6  and  O8_8 
ROOT
HETATM    1  C1  UNL     1     -35.025  13.761  -4.235  1.00 20.00     0.097 C 
HETATM    2  C3  UNL     1     -35.399  16.074  -4.978  1.00 20.00     0.062 C 
HETATM    3  C6  UNL     1     -35.288  15.137  -3.772  1.00 20.00     0.144 C 
HETATM    4  N7  UNL     1     -34.819  12.679  -4.598  1.00 20.00    -0.194 NA
ENDROOT
BRANCH   3   5
HETATM    5  C5  UNL     1     -34.175  15.629  -2.827  1.00 20.00     0.049 C 
HETATM    6  C2  UNL     1     -34.687  16.277  -1.542  1.00 20.00     0.009 C 
ENDBRANCH   3   5
BRANCH   3   7
HETATM    7  O8  UNL     1     -36.530  15.174  -3.068  1.00 20.00    -0.371 OA
HETATM    8  C4  UNL     1     -37.617  14.873  -3.928  1.00 20.00     0.204 C 
ENDBRANCH   3   7
TORSDOF 2
ENDMDL
MODEL 3
REMARK VINA RESULT:      -3.5      1.767      2.083
REMARK  2 active torsions:
REMARK  status: ('A' for Active; 'I' for Inactive)
REMARK    1  A    between atoms: C5_5  and  C6_6 
REMARK    2  A    between atoms: C6_6  and  O8_8 
ROOT
HETATM    1  C1  UNL     1     -36.648  14.431  -3.995  1.00 20.00     0.097 C 
HETATM    2  C3  UNL     1     -34.702  13.216  -4.879  1.00 20.00     0.062 C 
HETATM    3  C6  UNL     1     -35.210  14.544  -4.309  1.00 20.00     0.144 C 
HETATM    4  N7  UNL     1     -37.778  14.342  -3.749  1.00 20.00    -0.194 NA
ENDROOT
BRANCH   3   5
HETATM    5  C5  UNL     1     -34.395  14.923  -3.059  1.00 20.00     0.049 C 
HETATM    6  C2  UNL     1     -34.992  16.072  -2.248  1.00 20.00     0.009 C 
ENDBRANCH   3   5
BRANCH   3   7
HETATM    7  O8  UNL     1     -35.017  15.553  -5.301  1.00 20.00    -0.371 OA
HETATM    8  C4  UNL     1     -34.499  15.002  -6.501  1.00 20.00     0.204 C 
ENDBRANCH   3   7
TORSDOF 2
ENDMDL
MODEL 4
REMARK VINA RESULT:      -3.5      1.902      3.182
REMARK  2 active torsions:
REMARK  status: ('A' for Active; 'I' for Inactive)
REMARK    1  A    between atoms: C5_5  and  C6_6 
REMARK    2  A    between atoms: C6_6  and  O8_8 
ROOT
HETATM    1  C1  UNL     1     -34.732  13.799  -4.899  1.00 20.00     0.097 C 
HETATM    2  C3  UNL     1     -35.728  16.039  -5.088  1.00 20.00     0.062 C 
HETATM    3  C6  UNL     1     -34.527  15.156  -5.441  1.00 20.00     0.144 C 
HETATM    4  N7  UNL     1     -34.893  12.732  -4.472  1.00 20.00    -0.194 NA
ENDROOT
BRANCH   3   5
HETATM    5  C5  UNL     1     -34.333  15.122  -6.969  1.00 20.00     0.049 C 
HETATM    6  C2  UNL     1     -35.489  14.482  -7.732  1.00 20.00     0.009 C 
ENDBRANCH   3   5
BRANCH   3   7
HETATM    7  O8  UNL     1     -33.364  15.736  -4.848  1.00 20.00    -0.371 OA
HETATM    8  C4  UNL     1     -33.573  16.017  -3.474  1.00 20.00     0.204 C 
ENDBRANCH   3   7
TORSDOF 2
ENDMDL
MODEL 5
REMARK VINA RESULT:      -3.5      2.180      3.284
REMARK  2 active torsions:
REMARK  status: ('A' for Active; 'I' for Inactive)
REMARK    1  A    between atoms: C5_5  and  C6_6 
REMARK    2  A    between atoms: C6_6  and  O8_8 
ROOT
HETATM    1  C1  UNL     1     -36.663  14.336  -4.149  1.00 20.00     0.097 C 
HETATM    2  C3  UNL     1     -34.589  15.649  -4.274  1.00 20.00     0.062 C 
HETATM    3  C6  UNL     1     -35.278  14.337  -4.659  1.00 20.00     0.144 C 
HETATM    4  N7  UNL     1     -37.752  14.335  -3.749  1.00 20.00    -0.194 NA
ENDROOT
BRANCH   3   5
HETATM    5  C5  UNL     1     -35.247  14.156  -6.188  1.00 20.00     0.049 C 
HETATM    6  C2  UNL     1     -34.355  15.158  -6.918  1.00 20.00     0.009 C 
ENDBRANCH   3   5
BRANCH   3   7
HETATM    7  O8  UNL     1     -34.550  13.264  -4.060  1.00 20.00    -0.371 OA
HETATM    8  C4  UNL     1     -33.254  13.681  -3.662  1.00 20.00     0.204 C 
ENDBRANCH   3   7
TORSDOF 2
ENDMDL
MODEL 6
REMARK VINA RESULT:      -3.5      1.653      2.219
REMARK  2 active torsions:
REMARK  status: ('A' for Active; 'I' for Inactive)
REMARK    1  A    between atoms: C5_5  and  C6_6 
REMARK    2  A    between atoms: C6_6  and  O8_8 
ROOT
HETATM    1  C1  UNL     1     -34.693  13.816  -4.932  1.00 20.00     0.097 C 
HETATM    2  C3  UNL     1     -34.242  15.279  -6.856  1.00 20.00     0.062 C 
HETATM    3  C6  UNL     1     -34.536  15.221  -5.353  1.00 20.00     0.144 C 
HETATM    4  N7  UNL     1     -34.817  12.711  -4.600  1.00 20.00    -0.194 NA
ENDROOT
BRANCH   3   5
HETATM    5  C5  UNL     1     -33.405  15.914  -4.571  1.00 20.00     0.049 C 
HETATM    6  C2  UNL     1     -33.587  15.890  -3.055  1.00 20.00     0.009 C 
ENDBRANCH   3   5
BRANCH   3   7
HETATM    7  O8  UNL     1     -35.754  15.929  -5.115  1.00 20.00    -0.371 OA
HETATM    8  C4  UNL     1     -36.788  15.476  -5.973  1.00 20.00     0.204 C 
ENDBRANCH   3   7
TORSDOF 2
ENDMDL
MODEL 7
REMARK VINA RESULT:      -3.4      2.278      2.826
REMARK  2 active torsions:
REMARK  status: ('A' for Active; 'I' for Inactive)
REMARK    1  A    between atoms: C5_5  and  C6_6 
REMARK    2  A    between atoms: C6_6  and  O8_8 
ROOT
HETATM    1  C1  UNL     1     -37.007  14.507  -4.076  1.00 20.00     0.097 C 
HETATM    2  C3  UNL     1     -35.785  14.744  -6.196  1.00 20.00     0.062 C 
HETATM    3  C6  UNL     1     -35.663  14.614  -4.675  1.00 20.00     0.144 C 
HETATM    4  N7  UNL     1     -38.064  14.423  -3.605  1.00 20.00    -0.194 NA
ENDROOT
BRANCH   3   5
HETATM    5  C5  UNL     1     -34.796  13.391  -4.321  1.00 20.00     0.049 C 
HETATM    6  C2  UNL     1     -33.418  13.740  -3.767  1.00 20.00     0.009 C 
ENDBRANCH   3   5
BRANCH   3   7
HETATM    7  O8  UNL     1     -35.014  15.787  -4.183  1.00 20.00    -0.371 OA
HETATM    8  C4  UNL     1     -35.558  16.959  -4.767  1.00 20.00     0.204 C 
ENDBRANCH   3   7
TORSDOF 2
ENDMDL
MODEL 8
REMARK VINA RESULT:      -3.4      2.000      3.047
REMARK  2 active torsions:
REMARK  status: ('A' for Active; 'I' for Inactive)
REMARK    1  A    between atoms: C5_5  and  C6_6 
REMARK    2  A    between atoms: C6_6  and  O8_8 
ROOT
HETATM    1  C1  UNL     1     -37.081  14.838  -3.717  1.00 20.00     0.097 C 
HETATM    2  C3  UNL     1     -35.520  16.214  -5.026  1.00 20.00     0.062 C 
HETATM    3  C6  UNL     1     -35.759  15.492  -3.696  1.00 20.00     0.144 C 
HETATM    4  N7  UNL     1     -38.121  14.323  -3.733  1.00 20.00    -0.194 NA
ENDROOT
BRANCH   3   5
HETATM    5  C5  UNL     1     -34.635  14.469  -3.446  1.00 20.00     0.049 C 
HETATM    6  C2  UNL     1     -34.563  13.353  -4.485  1.00 20.00     0.009 C 
ENDBRANCH   3   5
BRANCH   3   7
HETATM    7  O8  UNL     1     -35.726  16.467  -2.653  1.00 20.00    -0.371 OA
HETATM    8  C4  UNL     1     -34.683  16.198  -1.731  1.00 20.00     0.204 C 
ENDBRANCH   3   7
TORSDOF 2
ENDMDL
MODEL 9
REMARK VINA RESULT:      -3.4      2.258      2.944
REMARK  2 active torsions:
REMARK  status: ('A' for Active; 'I' for Inactive)
REMARK    1  A    between atoms: C5_5  and  C6_6 
REMARK    2  A    between atoms: C6_6  and  O8_8 
ROOT
HETATM    1  C1  UNL     1     -33.639  16.962  -4.468  1.00 20.00     0.097 C 
HETATM    2  C3  UNL     1     -35.248  15.472  -3.357  1.00 20.00     0.062 C 
HETATM    3  C6  UNL     1     -33.843  16.079  -3.304  1.00 20.00     0.144 C 
HETATM    4  N7  UNL     1     -33.479  17.656  -5.384  1.00 20.00    -0.194 NA
ENDROOT
BRANCH   3   5
HETATM    5  C5  UNL     1     -33.654  16.847  -1.982  1.00 20.00     0.049 C 
HETATM    6  C2  UNL     1     -34.706  16.535  -0.921  1.00 20.00     0.009 C 
ENDBRANCH   3   5
BRANCH   3   7
HETATM    7  O8  UNL     1     -32.898  15.009  -3.346  1.00 20.00    -0.371 OA
HETATM    8  C4  UNL     1     -33.503  13.807  -3.794  1.00 20.00     0.204 C 
ENDBRANCH   3   7
TORSDOF 2
ENDMDL
