MODEL 1
REMARK VINA RESULT:      -4.9      0.000      0.000
REMARK  5 active torsions:
REMARK  status: ('A' for Active; 'I' for Inactive)
REMARK    1  A    between atoms: C2_2  and  C7_7 
REMARK    2  A    between atoms: C2_2  and  C8_8 
REMARK    3  A    between atoms: C3_3  and  C7_7 
REMARK    4  A    between atoms: C3_3  and  C10_10 
REMARK    5  A    between atoms: C9_9  and  C10_10 
ROOT
HETATM    1  C3  UNL     1     -33.896   6.161   3.959  1.00 20.00     0.134 C 
HETATM    2  O11 UNL     1     -34.779   6.959   3.643  1.00 20.00    -0.297 OA
ENDROOT
BRANCH   1   3
HETATM    3  C7  UNL     1     -32.579   6.054   3.199  1.00 20.00     0.111 C 
BRANCH   3   4
HETATM    4  C2  UNL     1     -31.903   7.396   3.059  1.00 20.00    -0.083 C 
HETATM    5  C1  UNL     1     -31.249   7.931   4.103  1.00 20.00     0.014 C 
BRANCH   4   6
HETATM    6  C8  UNL     1     -32.053   8.058   1.703  1.00 20.00     0.029 C 
HETATM    7  C4  UNL     1     -32.455   9.529   1.691  1.00 20.00     0.010 C 
ENDBRANCH   4   6
ENDBRANCH   3   4
ENDBRANCH   1   3
BRANCH   1   8
HETATM    8  C10 UNL     1     -34.065   5.210   5.143  1.00 20.00     0.051 C 
HETATM    9  C6  UNL     1     -35.121   4.170   4.776  1.00 20.00     0.018 C 
BRANCH   8  10
HETATM   10  C9  UNL     1     -34.458   5.952   6.428  1.00 20.00     0.007 C 
HETATM   11  C5  UNL     1     -33.534   7.125   6.729  1.00 20.00     0.006 C 
ENDBRANCH   8  10
ENDBRANCH   1   8
TORSDOF 5
ENDMDL
MODEL 2
REMARK VINA RESULT:      -4.6      1.094      4.599
REMARK  5 active torsions:
REMARK  status: ('A' for Active; 'I' for Inactive)
REMARK    1  A    between atoms: C2_2  and  C7_7 
REMARK    2  A    between atoms: C2_2  and  C8_8 
REMARK    3  A    between atoms: C3_3  and  C7_7 
REMARK    4  A    between atoms: C3_3  and  C10_10 
REMARK    5  A    between atoms: C9_9  and  C10_10 
ROOT
HETATM    1  C3  UNL     1     -32.701   6.309   3.228  1.00 20.00     0.134 C 
HETATM    2  O11 UNL     1     -32.394   5.146   2.967  1.00 20.00    -0.297 OA
ENDROOT
BRANCH   1   3
HETATM    3  C7  UNL     1     -34.031   6.680   3.872  1.00 20.00     0.111 C 
BRANCH   3   4
HETATM    4  C2  UNL     1     -34.521   5.601   4.808  1.00 20.00    -0.083 C 
HETATM    5  C1  UNL     1     -35.270   4.592   4.335  1.00 20.00     0.014 C 
BRANCH   4   6
HETATM    6  C8  UNL     1     -34.130   5.778   6.262  1.00 20.00     0.029 C 
HETATM    7  C4  UNL     1     -33.684   7.171   6.695  1.00 20.00     0.010 C 
ENDBRANCH   4   6
ENDBRANCH   3   4
ENDBRANCH   1   3
BRANCH   1   8
HETATM    8  C10 UNL     1     -31.762   7.473   2.914  1.00 20.00     0.051 C 
HETATM    9  C6  UNL     1     -31.134   7.949   4.222  1.00 20.00     0.018 C 
BRANCH   8  10
HETATM   10  C9  UNL     1     -32.490   8.627   2.210  1.00 20.00     0.007 C 
HETATM   11  C5  UNL     1     -31.954   8.884   0.807  1.00 20.00     0.006 C 
ENDBRANCH   8  10
ENDBRANCH   1   8
TORSDOF 5
ENDMDL
MODEL 3
REMARK VINA RESULT:      -4.6      1.220      4.732
REMARK  5 active torsions:
REMARK  status: ('A' for Active; 'I' for Inactive)
REMARK    1  A    between atoms: C2_2  and  C7_7 
REMARK    2  A    between atoms: C2_2  and  C8_8 
REMARK    3  A    between atoms: C3_3  and  C7_7 
REMARK    4  A    between atoms: C3_3  and  C10_10 
REMARK    5  A    between atoms: C9_9  and  C10_10 
ROOT
HETATM    1  C3  UNL     1     -32.627   6.428   3.157  1.00 20.00     0.134 C 
HETATM    2  O11 UNL     1     -32.296   5.263   2.939  1.00 20.00    -0.297 OA
ENDROOT
BRANCH   1   3
HETATM    3  C7  UNL     1     -34.001   6.801   3.703  1.00 20.00     0.111 C 
BRANCH   3   4
HETATM    4  C2  UNL     1     -34.300   6.088   5.000  1.00 20.00    -0.083 C 
HETATM    5  C1  UNL     1     -33.841   6.585   6.160  1.00 20.00     0.014 C 
BRANCH   4   6
HETATM    6  C8  UNL     1     -35.102   4.808   4.866  1.00 20.00     0.029 C 
HETATM    7  C4  UNL     1     -34.973   3.788   5.992  1.00 20.00     0.010 C 
ENDBRANCH   4   6
ENDBRANCH   3   4
ENDBRANCH   1   3
BRANCH   1   8
HETATM    8  C10 UNL     1     -31.676   7.594   2.888  1.00 20.00     0.051 C 
HETATM    9  C6  UNL     1     -31.082   8.046   4.219  1.00 20.00     0.018 C 
BRANCH   8  10
HETATM   10  C9  UNL     1     -32.382   8.762   2.184  1.00 20.00     0.007 C 
HETATM   11  C5  UNL     1     -31.962   8.904   0.727  1.00 20.00     0.006 C 
ENDBRANCH   8  10
ENDBRANCH   1   8
TORSDOF 5
ENDMDL
MODEL 4
REMARK VINA RESULT:      -4.5     11.035     12.193
REMARK  5 active torsions:
REMARK  status: ('A' for Active; 'I' for Inactive)
REMARK    1  A    between atoms: C2_2  and  C7_7 
REMARK    2  A    between atoms: C2_2  and  C8_8 
REMARK    3  A    between atoms: C3_3  and  C7_7 
REMARK    4  A    between atoms: C3_3  and  C10_10 
REMARK    5  A    between atoms: C9_9  and  C10_10 
ROOT
HETATM    1  C3  UNL     1     -34.190  14.340  -3.826  1.00 20.00     0.134 C 
HETATM    2  O11 UNL     1     -34.092  13.174  -3.445  1.00 20.00    -0.297 OA
ENDROOT
BRANCH   1   3
HETATM    3  C7  UNL     1     -33.202  15.424  -3.411  1.00 20.00     0.111 C 
BRANCH   3   4
HETATM    4  C2  UNL     1     -33.890  16.569  -2.707  1.00 20.00    -0.083 C 
HETATM    5  C1  UNL     1     -33.790  17.815  -3.196  1.00 20.00     0.014 C 
BRANCH   4   6
HETATM    6  C8  UNL     1     -34.639  16.195  -1.442  1.00 20.00     0.029 C 
HETATM    7  C4  UNL     1     -34.599  17.195  -0.292  1.00 20.00     0.010 C 
ENDBRANCH   4   6
ENDBRANCH   3   4
ENDBRANCH   1   3
BRANCH   1   8
HETATM    8  C10 UNL     1     -35.326  14.788  -4.746  1.00 20.00     0.051 C 
HETATM    9  C6  UNL     1     -36.651  14.402  -4.094  1.00 20.00     0.018 C 
BRANCH   8  10
HETATM   10  C9  UNL     1     -35.211  14.171  -6.147  1.00 20.00     0.007 C 
HETATM   11  C5  UNL     1     -34.402  15.041  -7.102  1.00 20.00     0.006 C 
ENDBRANCH   8  10
ENDBRANCH   1   8
TORSDOF 5
ENDMDL
MODEL 5
REMARK VINA RESULT:      -4.5     10.981     12.485
REMARK  5 active torsions:
REMARK  status: ('A' for Active; 'I' for Inactive)
REMARK    1  A    between atoms: C2_2  and  C7_7 
REMARK    2  A    between atoms: C2_2  and  C8_8 
REMARK    3  A    between atoms: C3_3  and  C7_7 
REMARK    4  A    between atoms: C3_3  and  C10_10 
REMARK    5  A    between atoms: C9_9  and  C10_10 
ROOT
HETATM    1  C3  UNL     1     -36.313  14.330  -4.319  1.00 20.00     0.134 C 
HETATM    2  O11 UNL     1     -37.391  14.060  -3.788  1.00 20.00    -0.297 OA
ENDROOT
BRANCH   1   3
HETATM    3  C7  UNL     1     -34.980  13.851  -3.755  1.00 20.00     0.111 C 
BRANCH   3   4
HETATM    4  C2  UNL     1     -34.150  14.999  -3.230  1.00 20.00    -0.083 C 
HETATM    5  C1  UNL     1     -32.907  15.196  -3.697  1.00 20.00     0.014 C 
BRANCH   4   6
HETATM    6  C8  UNL     1     -34.815  15.842  -2.160  1.00 20.00     0.029 C 
HETATM    7  C4  UNL     1     -33.958  16.910  -1.488  1.00 20.00     0.010 C 
ENDBRANCH   4   6
ENDBRANCH   3   4
ENDBRANCH   1   3
BRANCH   1   8
HETATM    8  C10 UNL     1     -36.237  15.177  -5.588  1.00 20.00     0.051 C 
HETATM    9  C6  UNL     1     -37.657  15.561  -5.995  1.00 20.00     0.018 C 
BRANCH   8  10
HETATM   10  C9  UNL     1     -35.525  14.440  -6.731  1.00 20.00     0.007 C 
HETATM   11  C5  UNL     1     -34.279  15.173  -7.212  1.00 20.00     0.006 C 
ENDBRANCH   8  10
ENDBRANCH   1   8
TORSDOF 5
ENDMDL
MODEL 6
REMARK VINA RESULT:      -4.5     11.034     12.448
REMARK  5 active torsions:
REMARK  status: ('A' for Active; 'I' for Inactive)
REMARK    1  A    between atoms: C2_2  and  C7_7 
REMARK    2  A    between atoms: C2_2  and  C8_8 
REMARK    3  A    between atoms: C3_3  and  C7_7 
REMARK    4  A    between atoms: C3_3  and  C10_10 
REMARK    5  A    between atoms: C9_9  and  C10_10 
ROOT
HETATM    1  C3  UNL     1     -35.098  13.773  -4.780  1.00 20.00     0.134 C 
HETATM    2  O11 UNL     1     -34.735  12.604  -4.911  1.00 20.00    -0.297 OA
ENDROOT
BRANCH   1   3
HETATM    3  C7  UNL     1     -35.078  14.491  -3.436  1.00 20.00     0.111 C 
BRANCH   3   4
HETATM    4  C2  UNL     1     -33.775  15.221  -3.211  1.00 20.00    -0.083 C 
HETATM    5  C1  UNL     1     -32.620  14.679  -3.629  1.00 20.00     0.014 C 
BRANCH   4   6
HETATM    6  C8  UNL     1     -33.892  16.543  -2.477  1.00 20.00     0.029 C 
HETATM    7  C4  UNL     1     -34.600  16.526  -1.127  1.00 20.00     0.010 C 
ENDBRANCH   4   6
ENDBRANCH   3   4
ENDBRANCH   1   3
BRANCH   1   8
HETATM    8  C10 UNL     1     -35.607  14.591  -5.967  1.00 20.00     0.051 C 
HETATM    9  C6  UNL     1     -34.416  14.930  -6.861  1.00 20.00     0.018 C 
BRANCH   8  10
HETATM   10  C9  UNL     1     -36.331  15.868  -5.519  1.00 20.00     0.007 C 
HETATM   11  C5  UNL     1     -35.632  17.133  -6.000  1.00 20.00     0.006 C 
ENDBRANCH   8  10
ENDBRANCH   1   8
TORSDOF 5
ENDMDL
MODEL 7
REMARK VINA RESULT:      -4.5     11.060     12.351
REMARK  5 active torsions:
REMARK  status: ('A' for Active; 'I' for Inactive)
REMARK    1  A    between atoms: C2_2  and  C7_7 
REMARK    2  A    between atoms: C2_2  and  C8_8 
REMARK    3  A    between atoms: C3_3  and  C7_7 
REMARK    4  A    between atoms: C3_3  and  C10_10 
REMARK    5  A    between atoms: C9_9  and  C10_10 
ROOT
HETATM    1  C3  UNL     1     -34.204  14.343  -3.811  1.00 20.00     0.134 C 
HETATM    2  O11 UNL     1     -34.108  13.182  -3.415  1.00 20.00    -0.297 OA
ENDROOT
BRANCH   1   3
HETATM    3  C7  UNL     1     -33.221  15.434  -3.401  1.00 20.00     0.111 C 
BRANCH   3   4
HETATM    4  C2  UNL     1     -33.907  16.552  -2.653  1.00 20.00    -0.083 C 
HETATM    5  C1  UNL     1     -34.556  16.294  -1.506  1.00 20.00     0.014 C 
BRANCH   4   6
HETATM    6  C8  UNL     1     -33.819  17.917  -3.307  1.00 20.00     0.029 C 
HETATM    7  C4  UNL     1     -33.542  17.951  -4.806  1.00 20.00     0.010 C 
ENDBRANCH   4   6
ENDBRANCH   3   4
ENDBRANCH   1   3
BRANCH   1   8
HETATM    8  C10 UNL     1     -35.332  14.778  -4.748  1.00 20.00     0.051 C 
HETATM    9  C6  UNL     1     -36.662  14.392  -4.106  1.00 20.00     0.018 C 
BRANCH   8  10
HETATM   10  C9  UNL     1     -35.198  14.148  -6.141  1.00 20.00     0.007 C 
HETATM   11  C5  UNL     1     -34.409  15.026  -7.105  1.00 20.00     0.006 C 
ENDBRANCH   8  10
ENDBRANCH   1   8
TORSDOF 5
ENDMDL
MODEL 8
REMARK VINA RESULT:      -4.3     10.960     12.551
REMARK  5 active torsions:
REMARK  status: ('A' for Active; 'I' for Inactive)
REMARK    1  A    between atoms: C2_2  and  C7_7 
REMARK    2  A    between atoms: C2_2  and  C8_8 
REMARK    3  A    between atoms: C3_3  and  C7_7 
REMARK    4  A    between atoms: C3_3  and  C10_10 
REMARK    5  A    between atoms: C9_9  and  C10_10 
ROOT
HETATM    1  C3  UNL     1     -35.206  13.861  -4.007  1.00 20.00     0.134 C 
HETATM    2  O11 UNL     1     -34.909  12.722  -4.370  1.00 20.00    -0.297 OA
ENDROOT
BRANCH   1   3
HETATM    3  C7  UNL     1     -36.519  14.529  -4.397  1.00 20.00     0.111 C 
BRANCH   3   4
HETATM    4  C2  UNL     1     -36.391  15.305  -5.686  1.00 20.00    -0.083 C 
HETATM    5  C1  UNL     1     -36.809  16.580  -5.747  1.00 20.00     0.014 C 
BRANCH   4   6
HETATM    6  C8  UNL     1     -35.803  14.533  -6.851  1.00 20.00     0.029 C 
HETATM    7  C4  UNL     1     -34.480  15.036  -7.418  1.00 20.00     0.010 C 
ENDBRANCH   4   6
ENDBRANCH   3   4
ENDBRANCH   1   3
BRANCH   1   8
HETATM    8  C10 UNL     1     -34.264  14.694  -3.138  1.00 20.00     0.051 C 
HETATM    9  C6  UNL     1     -35.085  15.778  -2.446  1.00 20.00     0.018 C 
BRANCH   8  10
HETATM   10  C9  UNL     1     -33.124  15.316  -3.956  1.00 20.00     0.007 C 
HETATM   11  C5  UNL     1     -33.376  16.781  -4.289  1.00 20.00     0.006 C 
ENDBRANCH   8  10
ENDBRANCH   1   8
TORSDOF 5
ENDMDL
MODEL 9
REMARK VINA RESULT:      -4.3     10.796     12.156
REMARK  5 active torsions:
REMARK  status: ('A' for Active; 'I' for Inactive)
REMARK    1  A    between atoms: C2_2  and  C7_7 
REMARK    2  A    between atoms: C2_2  and  C8_8 
REMARK    3  A    between atoms: C3_3  and  C7_7 
REMARK    4  A    between atoms: C3_3  and  C10_10 
REMARK    5  A    between atoms: C9_9  and  C10_10 
ROOT
HETATM    1  C3  UNL     1     -33.450  15.070  -3.442  1.00 20.00     0.134 C 
HETATM    2  O11 UNL     1     -32.242  14.923  -3.626  1.00 20.00    -0.297 OA
ENDROOT
BRANCH   1   3
HETATM    3  C7  UNL     1     -34.432  13.905  -3.482  1.00 20.00     0.111 C 
BRANCH   3   4
HETATM    4  C2  UNL     1     -35.477  14.089  -4.556  1.00 20.00    -0.083 C 
HETATM    5  C1  UNL     1     -36.731  14.432  -4.222  1.00 20.00     0.014 C 
BRANCH   4   6
HETATM    6  C8  UNL     1     -35.000  13.833  -5.973  1.00 20.00     0.029 C 
HETATM    7  C4  UNL     1     -34.768  15.052  -6.857  1.00 20.00     0.010 C 
ENDBRANCH   4   6
ENDBRANCH   3   4
ENDBRANCH   1   3
BRANCH   1   8
HETATM    8  C10 UNL     1     -34.056  16.446  -3.167  1.00 20.00     0.051 C 
HETATM    9  C6  UNL     1     -33.590  17.402  -4.263  1.00 20.00     0.018 C 
BRANCH   8  10
HETATM   10  C9  UNL     1     -33.669  16.979  -1.781  1.00 20.00     0.007 C 
HETATM   11  C5  UNL     1     -34.711  16.653  -0.719  1.00 20.00     0.006 C 
ENDBRANCH   8  10
ENDBRANCH   1   8
TORSDOF 5
ENDMDL
