MODEL 1
REMARK VINA RESULT:      -4.1      0.000      0.000
REMARK  3 active torsions:
REMARK  status: ('A' for Active; 'I' for Inactive)
REMARK    1  A    between atoms: C5_5  and  C6_6 
REMARK    2  A    between atoms: C5_5  and  C7_7 
REMARK    3  A    between atoms: C6_6  and  O9_9 
ROOT
HETATM    1  C1  UNL     1     -33.928  13.852  -4.065  1.00 20.00     0.091 C 
HETATM    2  C6  UNL     1     -33.325  15.044  -3.454  1.00 20.00     0.227 C 
HETATM    3  N8  UNL     1     -34.404  12.911  -4.548  1.00 20.00    -0.195 NA
ENDROOT
BRANCH   2   4
HETATM    4  C5  UNL     1     -34.367  15.946  -2.779  1.00 20.00     0.050 C 
BRANCH   4   5
HETATM    5  C7  UNL     1     -33.828  16.862  -1.663  1.00 20.00    -0.019 C 
HETATM    6  C2  UNL     1     -33.706  18.296  -2.186  1.00 20.00     0.009 C 
HETATM    7  C3  UNL     1     -34.713  16.842  -0.415  1.00 20.00     0.009 C 
ENDBRANCH   4   5
ENDBRANCH   2   4
BRANCH   2   8
HETATM    8  O9  UNL     1     -32.654  15.803  -4.461  1.00 20.00    -0.376 OA
HETATM    9  C4  UNL     1     -33.574  16.334  -5.401  1.00 20.00     0.203 C 
ENDBRANCH   2   8
TORSDOF 3
ENDMDL
MODEL 2
REMARK VINA RESULT:      -4.0      2.733      3.048
REMARK  3 active torsions:
REMARK  status: ('A' for Active; 'I' for Inactive)
REMARK    1  A    between atoms: C5_5  and  C6_6 
REMARK    2  A    between atoms: C5_5  and  C7_7 
REMARK    3  A    between atoms: C6_6  and  O9_9 
ROOT
HETATM    1  C1  UNL     1     -35.409  13.664  -4.185  1.00 20.00     0.091 C 
HETATM    2  C6  UNL     1     -36.457  14.691  -4.111  1.00 20.00     0.227 C 
HETATM    3  N8  UNL     1     -34.582  12.853  -4.243  1.00 20.00    -0.195 NA
ENDROOT
BRANCH   2   4
HETATM    4  C5  UNL     1     -36.166  15.748  -3.038  1.00 20.00     0.050 C 
BRANCH   4   5
HETATM    5  C7  UNL     1     -34.690  15.872  -2.612  1.00 20.00    -0.019 C 
HETATM    6  C2  UNL     1     -33.944  16.779  -3.595  1.00 20.00     0.009 C 
HETATM    7  C3  UNL     1     -34.537  16.417  -1.191  1.00 20.00     0.009 C 
ENDBRANCH   4   5
ENDBRANCH   2   4
BRANCH   2   8
HETATM    8  O9  UNL     1     -37.707  14.069  -3.807  1.00 20.00    -0.376 OA
HETATM    9  C4  UNL     1     -38.796  14.864  -4.245  1.00 20.00     0.203 C 
ENDBRANCH   2   8
TORSDOF 3
ENDMDL
MODEL 3
REMARK VINA RESULT:      -3.6      2.036      2.463
REMARK  3 active torsions:
REMARK  status: ('A' for Active; 'I' for Inactive)
REMARK    1  A    between atoms: C5_5  and  C6_6 
REMARK    2  A    between atoms: C5_5  and  C7_7 
REMARK    3  A    between atoms: C6_6  and  O9_9 
ROOT
HETATM    1  C1  UNL     1     -36.391  14.311  -3.972  1.00 20.00     0.091 C 
HETATM    2  C6  UNL     1     -34.946  14.278  -4.232  1.00 20.00     0.227 C 
HETATM    3  N8  UNL     1     -37.533  14.336  -3.767  1.00 20.00    -0.195 NA
ENDROOT
BRANCH   2   4
HETATM    4  C5  UNL     1     -34.135  14.952  -3.117  1.00 20.00     0.050 C 
BRANCH   4   5
HETATM    5  C7  UNL     1     -34.645  16.337  -2.672  1.00 20.00    -0.019 C 
HETATM    6  C2  UNL     1     -34.641  16.421  -1.142  1.00 20.00     0.009 C 
HETATM    7  C3  UNL     1     -33.809  17.479  -3.252  1.00 20.00     0.009 C 
ENDBRANCH   4   5
ENDBRANCH   2   4
BRANCH   2   8
HETATM    8  O9  UNL     1     -34.672  14.953  -5.461  1.00 20.00    -0.376 OA
HETATM    9  C4  UNL     1     -35.200  14.239  -6.568  1.00 20.00     0.203 C 
ENDBRANCH   2   8
TORSDOF 3
ENDMDL
MODEL 4
REMARK VINA RESULT:      -3.6      2.498      4.344
REMARK  3 active torsions:
REMARK  status: ('A' for Active; 'I' for Inactive)
REMARK    1  A    between atoms: C5_5  and  C6_6 
REMARK    2  A    between atoms: C5_5  and  C7_7 
REMARK    3  A    between atoms: C6_6  and  O9_9 
ROOT
HETATM    1  C1  UNL     1     -36.758  14.563  -4.017  1.00 20.00     0.091 C 
HETATM    2  C6  UNL     1     -35.366  14.921  -4.319  1.00 20.00     0.227 C 
HETATM    3  N8  UNL     1     -37.858  14.281  -3.778  1.00 20.00    -0.195 NA
ENDROOT
BRANCH   2   4
HETATM    4  C5  UNL     1     -34.767  14.052  -5.433  1.00 20.00     0.050 C 
BRANCH   4   5
HETATM    5  C7  UNL     1     -34.492  14.777  -6.765  1.00 20.00    -0.019 C 
HETATM    6  C2  UNL     1     -35.622  14.482  -7.756  1.00 20.00     0.009 C 
HETATM    7  C3  UNL     1     -34.346  16.289  -6.585  1.00 20.00     0.009 C 
ENDBRANCH   4   5
ENDBRANCH   2   4
BRANCH   2   8
HETATM    8  O9  UNL     1     -34.571  14.759  -3.143  1.00 20.00    -0.376 OA
HETATM    9  C4  UNL     1     -33.670  15.842  -2.980  1.00 20.00     0.203 C 
ENDBRANCH   2   8
TORSDOF 3
ENDMDL
MODEL 5
REMARK VINA RESULT:      -3.6      1.536      3.349
REMARK  3 active torsions:
REMARK  status: ('A' for Active; 'I' for Inactive)
REMARK    1  A    between atoms: C5_5  and  C6_6 
REMARK    2  A    between atoms: C5_5  and  C7_7 
REMARK    3  A    between atoms: C6_6  and  O9_9 
ROOT
HETATM    1  C1  UNL     1     -35.035  13.686  -4.150  1.00 20.00     0.091 C 
HETATM    2  C6  UNL     1     -35.289  15.019  -3.586  1.00 20.00     0.227 C 
HETATM    3  N8  UNL     1     -34.834  12.634  -4.595  1.00 20.00    -0.195 NA
ENDROOT
BRANCH   2   4
HETATM    4  C5  UNL     1     -35.358  16.107  -4.665  1.00 20.00     0.050 C 
BRANCH   4   5
HETATM    5  C7  UNL     1     -34.064  16.321  -5.476  1.00 20.00    -0.019 C 
HETATM    6  C2  UNL     1     -34.311  15.965  -6.945  1.00 20.00     0.009 C 
HETATM    7  C3  UNL     1     -33.543  17.755  -5.374  1.00 20.00     0.009 C 
ENDBRANCH   4   5
ENDBRANCH   2   4
BRANCH   2   8
HETATM    8  O9  UNL     1     -34.242  15.353  -2.673  1.00 20.00    -0.376 OA
HETATM    9  C4  UNL     1     -34.687  16.282  -1.699  1.00 20.00     0.203 C 
ENDBRANCH   2   8
TORSDOF 3
ENDMDL
MODEL 6
REMARK VINA RESULT:      -3.5      2.342      3.606
REMARK  3 active torsions:
REMARK  status: ('A' for Active; 'I' for Inactive)
REMARK    1  A    between atoms: C5_5  and  C6_6 
REMARK    2  A    between atoms: C5_5  and  C7_7 
REMARK    3  A    between atoms: C6_6  and  O9_9 
ROOT
HETATM    1  C1  UNL     1     -36.929  15.101  -3.581  1.00 20.00     0.091 C 
HETATM    2  C6  UNL     1     -35.896  16.121  -3.359  1.00 20.00     0.227 C 
HETATM    3  N8  UNL     1     -37.745  14.295  -3.757  1.00 20.00    -0.195 NA
ENDROOT
BRANCH   2   4
HETATM    4  C5  UNL     1     -34.700  15.579  -2.565  1.00 20.00     0.050 C 
BRANCH   4   5
HETATM    5  C7  UNL     1     -33.442  15.258  -3.396  1.00 20.00    -0.019 C 
HETATM    6  C2  UNL     1     -33.466  13.787  -3.820  1.00 20.00     0.009 C 
HETATM    7  C3  UNL     1     -33.319  16.148  -4.634  1.00 20.00     0.009 C 
ENDBRANCH   4   5
ENDBRANCH   2   4
BRANCH   2   8
HETATM    8  O9  UNL     1     -36.461  17.215  -2.635  1.00 20.00    -0.376 OA
HETATM    9  C4  UNL     1     -35.618  18.354  -2.684  1.00 20.00     0.203 C 
ENDBRANCH   2   8
TORSDOF 3
ENDMDL
MODEL 7
REMARK VINA RESULT:      -3.5      2.334      3.925
REMARK  3 active torsions:
REMARK  status: ('A' for Active; 'I' for Inactive)
REMARK    1  A    between atoms: C5_5  and  C6_6 
REMARK    2  A    between atoms: C5_5  and  C7_7 
REMARK    3  A    between atoms: C6_6  and  O9_9 
ROOT
HETATM    1  C1  UNL     1     -33.657  17.261  -4.049  1.00 20.00     0.091 C 
HETATM    2  C6  UNL     1     -33.643  16.264  -2.971  1.00 20.00     0.227 C 
HETATM    3  N8  UNL     1     -33.667  18.048  -4.902  1.00 20.00    -0.195 NA
ENDROOT
BRANCH   2   4
HETATM    4  C5  UNL     1     -34.879  15.355  -2.998  1.00 20.00     0.050 C 
BRANCH   4   5
HETATM    5  C7  UNL     1     -34.673  13.977  -3.658  1.00 20.00    -0.019 C 
HETATM    6  C2  UNL     1     -35.249  13.993  -5.077  1.00 20.00     0.009 C 
HETATM    7  C3  UNL     1     -33.200  13.568  -3.705  1.00 20.00     0.009 C 
ENDBRANCH   4   5
ENDBRANCH   2   4
BRANCH   2   8
HETATM    8  O9  UNL     1     -33.604  16.935  -1.709  1.00 20.00    -0.376 OA
HETATM    9  C4  UNL     1     -34.720  16.585  -0.907  1.00 20.00     0.203 C 
ENDBRANCH   2   8
TORSDOF 3
ENDMDL
MODEL 8
REMARK VINA RESULT:      -3.5      2.319      3.814
REMARK  3 active torsions:
REMARK  status: ('A' for Active; 'I' for Inactive)
REMARK    1  A    between atoms: C5_5  and  C6_6 
REMARK    2  A    between atoms: C5_5  and  C7_7 
REMARK    3  A    between atoms: C6_6  and  O9_9 
ROOT
HETATM    1  C1  UNL     1     -34.625  16.551  -1.497  1.00 20.00     0.091 C 
HETATM    2  C6  UNL     1     -34.587  16.293  -2.942  1.00 20.00     0.227 C 
HETATM    3  N8  UNL     1     -34.655  16.756  -0.355  1.00 20.00    -0.195 NA
ENDROOT
BRANCH   2   4
HETATM    4  C5  UNL     1     -34.007  14.912  -3.275  1.00 20.00     0.050 C 
BRANCH   4   5
HETATM    5  C7  UNL     1     -35.028  13.864  -3.762  1.00 20.00    -0.019 C 
HETATM    6  C2  UNL     1     -36.381  14.538  -4.009  1.00 20.00     0.009 C 
HETATM    7  C3  UNL     1     -34.568  13.150  -5.033  1.00 20.00     0.009 C 
ENDBRANCH   4   5
ENDBRANCH   2   4
BRANCH   2   8
HETATM    8  O9  UNL     1     -33.781  17.287  -3.578  1.00 20.00    -0.376 OA
HETATM    9  C4  UNL     1     -33.353  16.857  -4.860  1.00 20.00     0.203 C 
ENDBRANCH   2   8
TORSDOF 3
ENDMDL
MODEL 9
REMARK VINA RESULT:      -3.5     11.513     12.395
REMARK  3 active torsions:
REMARK  status: ('A' for Active; 'I' for Inactive)
REMARK    1  A    between atoms: C5_5  and  C6_6 
REMARK    2  A    between atoms: C5_5  and  C7_7 
REMARK    3  A    between atoms: C6_6  and  O9_9 
ROOT
HETATM    1  C1  UNL     1     -33.864   6.377   5.654  1.00 20.00     0.091 C 
HETATM    2  C6  UNL     1     -33.712   5.810   4.307  1.00 20.00     0.227 C 
HETATM    3  N8  UNL     1     -33.984   6.824   6.718  1.00 20.00    -0.195 NA
ENDROOT
BRANCH   2   4
HETATM    4  C5  UNL     1     -33.575   6.893   3.228  1.00 20.00     0.050 C 
BRANCH   4   5
HETATM    5  C7  UNL     1     -32.132   7.214   2.790  1.00 20.00    -0.019 C 
HETATM    6  C2  UNL     1     -32.147   8.333   1.745  1.00 20.00     0.009 C 
HETATM    7  C3  UNL     1     -31.243   7.620   3.966  1.00 20.00     0.009 C 
ENDBRANCH   4   5
ENDBRANCH   2   4
BRANCH   2   8
HETATM    8  O9  UNL     1     -34.854   5.009   4.001  1.00 20.00    -0.376 OA
HETATM    9  C4  UNL     1     -35.112   4.067   5.029  1.00 20.00     0.203 C 
ENDBRANCH   2   8
TORSDOF 3
ENDMDL
