MODEL 1
REMARK VINA RESULT:      -4.4      0.000      0.000
REMARK  4 active torsions:
REMARK  status: ('A' for Active; 'I' for Inactive)
REMARK    1  A    between atoms: C3_3  and  C6_6 
REMARK    2  A    between atoms: C3_3  and  C7_7 
REMARK    3  A    between atoms: C6_6  and  C9_9 
REMARK    4  A    between atoms: C8_8  and  C9_9 
ROOT
HETATM    1  C1  UNL     1     -35.568   5.011   4.528  1.00 20.00     0.011 A 
HETATM    2  C2  UNL     1     -34.889   3.912   5.293  1.00 20.00     0.011 A 
HETATM    3  C3  UNL     1     -34.337   5.317   5.349  1.00 20.00    -0.027 A 
ENDROOT
BRANCH   3   4
HETATM    4  C6  UNL     1     -33.039   5.604   4.609  1.00 20.00     0.015 C 
BRANCH   4   5
HETATM    5  C9  UNL     1     -33.227   6.401   3.302  1.00 20.00    -0.018 C 
HETATM    6  C5  UNL     1     -33.465   5.475   2.105  1.00 20.00     0.010 C 
BRANCH   5   7
HETATM    7  C8  UNL     1     -31.995   7.305   3.086  1.00 20.00    -0.000 C 
HETATM    8  C4  UNL     1     -32.158   8.309   1.953  1.00 20.00     0.005 C 
ENDBRANCH   5   7
ENDBRANCH   4   5
ENDBRANCH   3   4
BRANCH   3   9
HETATM    9  C7  UNL     1     -34.516   6.094   6.624  1.00 20.00     0.124 C 
HETATM   10 CL10 UNL     1     -33.257   7.343   6.786  1.00 20.00    -0.130 Cl
ENDBRANCH   3   9
TORSDOF 4
ENDMDL
MODEL 2
REMARK VINA RESULT:      -4.2     12.033     13.651
REMARK  4 active torsions:
REMARK  status: ('A' for Active; 'I' for Inactive)
REMARK    1  A    between atoms: C3_3  and  C6_6 
REMARK    2  A    between atoms: C3_3  and  C7_7 
REMARK    3  A    between atoms: C6_6  and  C9_9 
REMARK    4  A    between atoms: C8_8  and  C9_9 
ROOT
HETATM    1  C1  UNL     1     -35.486  15.695  -6.318  1.00 20.00     0.011 A 
HETATM    2  C2  UNL     1     -34.336  15.120  -7.095  1.00 20.00     0.011 A 
HETATM    3  C3  UNL     1     -34.294  15.126  -5.585  1.00 20.00    -0.027 A 
ENDROOT
BRANCH   3   4
HETATM    4  C6  UNL     1     -33.344  16.100  -4.901  1.00 20.00     0.015 C 
BRANCH   4   5
HETATM    5  C9  UNL     1     -34.054  17.161  -4.035  1.00 20.00    -0.018 C 
HETATM    6  C5  UNL     1     -33.689  18.583  -4.472  1.00 20.00     0.010 C 
BRANCH   5   7
HETATM    7  C8  UNL     1     -33.701  16.914  -2.553  1.00 20.00    -0.000 C 
HETATM    8  C4  UNL     1     -34.793  16.197  -1.770  1.00 20.00     0.005 C 
ENDBRANCH   5   7
ENDBRANCH   4   5
ENDBRANCH   3   4
BRANCH   3   9
HETATM    9  C7  UNL     1     -34.466  13.814  -4.870  1.00 20.00     0.124 C 
HETATM   10 CL10 UNL     1     -33.136  13.542  -3.718  1.00 20.00    -0.130 Cl
ENDBRANCH   3   9
TORSDOF 4
ENDMDL
MODEL 3
REMARK VINA RESULT:      -4.1     11.984     12.779
REMARK  4 active torsions:
REMARK  status: ('A' for Active; 'I' for Inactive)
REMARK    1  A    between atoms: C3_3  and  C6_6 
REMARK    2  A    between atoms: C3_3  and  C7_7 
REMARK    3  A    between atoms: C6_6  and  C9_9 
REMARK    4  A    between atoms: C8_8  and  C9_9 
ROOT
HETATM    1  C1  UNL     1     -34.552  14.390  -5.521  1.00 20.00     0.011 A 
HETATM    2  C2  UNL     1     -34.631  13.120  -4.725  1.00 20.00     0.011 A 
HETATM    3  C3  UNL     1     -35.105  14.419  -4.116  1.00 20.00    -0.027 A 
ENDROOT
BRANCH   3   4
HETATM    4  C6  UNL     1     -34.251  15.050  -3.025  1.00 20.00     0.015 C 
BRANCH   4   5
HETATM    5  C9  UNL     1     -34.755  16.430  -2.557  1.00 20.00    -0.018 C 
HETATM    6  C5  UNL     1     -34.013  17.571  -3.260  1.00 20.00     0.010 C 
BRANCH   5   7
HETATM    7  C8  UNL     1     -34.612  16.520  -1.023  1.00 20.00    -0.000 C 
HETATM    8  C4  UNL     1     -33.746  17.680  -0.551  1.00 20.00     0.005 C 
ENDBRANCH   5   7
ENDBRANCH   4   5
ENDBRANCH   3   4
BRANCH   3   9
HETATM    9  C7  UNL     1     -36.586  14.617  -3.944  1.00 20.00     0.124 C 
HETATM   10 CL10 UNL     1     -37.223  15.726  -5.183  1.00 20.00    -0.130 Cl
ENDBRANCH   3   9
TORSDOF 4
ENDMDL
MODEL 4
REMARK VINA RESULT:      -4.1     11.788     13.150
REMARK  4 active torsions:
REMARK  status: ('A' for Active; 'I' for Inactive)
REMARK    1  A    between atoms: C3_3  and  C6_6 
REMARK    2  A    between atoms: C3_3  and  C7_7 
REMARK    3  A    between atoms: C6_6  and  C9_9 
REMARK    4  A    between atoms: C8_8  and  C9_9 
ROOT
HETATM    1  C1  UNL     1     -32.862  14.843  -3.606  1.00 20.00     0.011 A 
HETATM    2  C2  UNL     1     -33.908  13.767  -3.679  1.00 20.00     0.011 A 
HETATM    3  C3  UNL     1     -34.317  15.220  -3.763  1.00 20.00    -0.027 A 
ENDROOT
BRANCH   3   4
HETATM    4  C6  UNL     1     -35.029  15.831  -2.565  1.00 20.00     0.015 C 
BRANCH   4   5
HETATM    5  C9  UNL     1     -34.121  16.709  -1.679  1.00 20.00    -0.018 C 
HETATM    6  C5  UNL     1     -34.723  16.920  -0.287  1.00 20.00     0.010 C 
BRANCH   5   7
HETATM    7  C8  UNL     1     -33.868  18.051  -2.398  1.00 20.00    -0.000 C 
HETATM    8  C4  UNL     1     -35.140  18.766  -2.834  1.00 20.00     0.005 C 
ENDBRANCH   5   7
ENDBRANCH   4   5
ENDBRANCH   3   4
BRANCH   3   9
HETATM    9  C7  UNL     1     -34.769  15.748  -5.097  1.00 20.00     0.124 C 
HETATM   10 CL10 UNL     1     -33.540  16.832  -5.796  1.00 20.00    -0.130 Cl
ENDBRANCH   3   9
TORSDOF 4
ENDMDL
MODEL 5
REMARK VINA RESULT:      -4.1      1.993      4.182
REMARK  4 active torsions:
REMARK  status: ('A' for Active; 'I' for Inactive)
REMARK    1  A    between atoms: C3_3  and  C6_6 
REMARK    2  A    between atoms: C3_3  and  C7_7 
REMARK    3  A    between atoms: C6_6  and  C9_9 
REMARK    4  A    between atoms: C8_8  and  C9_9 
ROOT
HETATM    1  C1  UNL     1     -32.309   7.906   2.465  1.00 20.00     0.011 A 
HETATM    2  C2  UNL     1     -31.498   7.537   3.675  1.00 20.00     0.011 A 
HETATM    3  C3  UNL     1     -32.693   6.697   3.287  1.00 20.00    -0.027 A 
ENDROOT
BRANCH   3   4
HETATM    4  C6  UNL     1     -33.942   6.790   4.151  1.00 20.00     0.015 C 
BRANCH   4   5
HETATM    5  C9  UNL     1     -34.172   5.559   5.051  1.00 20.00    -0.018 C 
HETATM    6  C5  UNL     1     -35.422   4.779   4.633  1.00 20.00     0.010 C 
BRANCH   5   7
HETATM    7  C8  UNL     1     -34.257   6.022   6.521  1.00 20.00    -0.000 C 
HETATM    8  C4  UNL     1     -33.521   7.325   6.800  1.00 20.00     0.005 C 
ENDBRANCH   5   7
ENDBRANCH   4   5
ENDBRANCH   3   4
BRANCH   3   9
HETATM    9  C7  UNL     1     -32.437   5.336   2.701  1.00 20.00     0.124 C 
HETATM   10 CL10 UNL     1     -33.815   4.806   1.706  1.00 20.00    -0.130 Cl
ENDBRANCH   3   9
TORSDOF 4
ENDMDL
MODEL 6
REMARK VINA RESULT:      -4.1     11.766     12.975
REMARK  4 active torsions:
REMARK  status: ('A' for Active; 'I' for Inactive)
REMARK    1  A    between atoms: C3_3  and  C6_6 
REMARK    2  A    between atoms: C3_3  and  C7_7 
REMARK    3  A    between atoms: C6_6  and  C9_9 
REMARK    4  A    between atoms: C8_8  and  C9_9 
ROOT
HETATM    1  C1  UNL     1     -34.722  16.532  -0.896  1.00 20.00     0.011 A 
HETATM    2  C2  UNL     1     -33.554  17.471  -0.993  1.00 20.00     0.011 A 
HETATM    3  C3  UNL     1     -34.326  17.100  -2.238  1.00 20.00    -0.027 A 
ENDROOT
BRANCH   3   4
HETATM    4  C6  UNL     1     -33.660  16.168  -3.240  1.00 20.00     0.015 C 
BRANCH   4   5
HETATM    5  C9  UNL     1     -34.318  14.775  -3.331  1.00 20.00    -0.018 C 
HETATM    6  C5  UNL     1     -33.295  13.689  -3.677  1.00 20.00     0.010 C 
BRANCH   5   7
HETATM    7  C8  UNL     1     -35.462  14.830  -4.365  1.00 20.00    -0.000 C 
HETATM    8  C4  UNL     1     -36.853  14.799  -3.748  1.00 20.00     0.005 C 
ENDBRANCH   5   7
ENDBRANCH   4   5
ENDBRANCH   3   4
BRANCH   3   9
HETATM    9  C7  UNL     1     -35.217  18.145  -2.852  1.00 20.00     0.124 C 
HETATM   10 CL10 UNL     1     -34.848  18.354  -4.582  1.00 20.00    -0.130 Cl
ENDBRANCH   3   9
TORSDOF 4
ENDMDL
MODEL 7
REMARK VINA RESULT:      -4.0     11.987     13.678
REMARK  4 active torsions:
REMARK  status: ('A' for Active; 'I' for Inactive)
REMARK    1  A    between atoms: C3_3  and  C6_6 
REMARK    2  A    between atoms: C3_3  and  C7_7 
REMARK    3  A    between atoms: C6_6  and  C9_9 
REMARK    4  A    between atoms: C8_8  and  C9_9 
ROOT
HETATM    1  C1  UNL     1     -33.702  17.154  -2.167  1.00 20.00     0.011 A 
HETATM    2  C2  UNL     1     -34.675  16.042  -1.896  1.00 20.00     0.011 A 
HETATM    3  C3  UNL     1     -33.950  16.100  -3.221  1.00 20.00    -0.027 A 
ENDROOT
BRANCH   3   4
HETATM    4  C6  UNL     1     -34.747  16.498  -4.454  1.00 20.00     0.015 C 
BRANCH   4   5
HETATM    5  C9  UNL     1     -33.874  16.879  -5.668  1.00 20.00    -0.018 C 
HETATM    6  C5  UNL     1     -33.572  18.380  -5.697  1.00 20.00     0.010 C 
BRANCH   5   7
HETATM    7  C8  UNL     1     -34.582  16.416  -6.958  1.00 20.00    -0.000 C 
HETATM    8  C4  UNL     1     -34.475  14.920  -7.217  1.00 20.00     0.005 C 
ENDBRANCH   5   7
ENDBRANCH   4   5
ENDBRANCH   3   4
BRANCH   3   9
HETATM    9  C7  UNL     1     -32.865  15.090  -3.475  1.00 20.00     0.124 C 
HETATM   10 CL10 UNL     1     -33.558  13.541  -4.016  1.00 20.00    -0.130 Cl
ENDBRANCH   3   9
TORSDOF 4
ENDMDL
MODEL 8
REMARK VINA RESULT:      -4.0     12.009     12.988
REMARK  4 active torsions:
REMARK  status: ('A' for Active; 'I' for Inactive)
REMARK    1  A    between atoms: C3_3  and  C6_6 
REMARK    2  A    between atoms: C3_3  and  C7_7 
REMARK    3  A    between atoms: C6_6  and  C9_9 
REMARK    4  A    between atoms: C8_8  and  C9_9 
ROOT
HETATM    1  C1  UNL     1     -34.593  17.158  -2.930  1.00 20.00     0.011 A 
HETATM    2  C2  UNL     1     -34.600  16.269  -1.720  1.00 20.00     0.011 A 
HETATM    3  C3  UNL     1     -34.419  15.667  -3.095  1.00 20.00    -0.027 A 
ENDROOT
BRANCH   3   4
HETATM    4  C6  UNL     1     -35.577  14.874  -3.684  1.00 20.00     0.015 C 
BRANCH   4   5
HETATM    5  C9  UNL     1     -36.059  15.395  -5.054  1.00 20.00    -0.018 C 
HETATM    6  C5  UNL     1     -37.587  15.473  -5.122  1.00 20.00     0.010 C 
BRANCH   5   7
HETATM    7  C8  UNL     1     -35.485  14.490  -6.164  1.00 20.00    -0.000 C 
HETATM    8  C4  UNL     1     -34.366  15.136  -6.969  1.00 20.00     0.005 C 
ENDBRANCH   5   7
ENDBRANCH   4   5
ENDBRANCH   3   4
BRANCH   3   9
HETATM    9  C7  UNL     1     -33.055  15.153  -3.464  1.00 20.00     0.124 C 
HETATM   10 CL10 UNL     1     -33.091  13.390  -3.718  1.00 20.00    -0.130 Cl
ENDBRANCH   3   9
TORSDOF 4
ENDMDL
MODEL 9
REMARK VINA RESULT:      -4.0      1.511      3.919
REMARK  4 active torsions:
REMARK  status: ('A' for Active; 'I' for Inactive)
REMARK    1  A    between atoms: C3_3  and  C6_6 
REMARK    2  A    between atoms: C3_3  and  C7_7 
REMARK    3  A    between atoms: C6_6  and  C9_9 
REMARK    4  A    between atoms: C8_8  and  C9_9 
ROOT
HETATM    1  C1  UNL     1     -33.983   4.995   2.383  1.00 20.00     0.011 A 
HETATM    2  C2  UNL     1     -35.041   5.931   2.893  1.00 20.00     0.011 A 
HETATM    3  C3  UNL     1     -33.605   6.113   3.327  1.00 20.00    -0.027 A 
ENDROOT
BRANCH   3   4
HETATM    4  C6  UNL     1     -33.239   5.747   4.758  1.00 20.00     0.015 C 
BRANCH   4   5
HETATM    5  C9  UNL     1     -34.166   6.374   5.820  1.00 20.00    -0.018 C 
HETATM    6  C5  UNL     1     -33.391   7.280   6.781  1.00 20.00     0.010 C 
BRANCH   5   7
HETATM    7  C8  UNL     1     -34.901   5.244   6.571  1.00 20.00    -0.000 C 
HETATM    8  C4  UNL     1     -34.900   3.912   5.835  1.00 20.00     0.005 C 
ENDBRANCH   5   7
ENDBRANCH   4   5
ENDBRANCH   3   4
BRANCH   3   9
HETATM    9  C7  UNL     1     -32.843   7.282   2.765  1.00 20.00     0.124 C 
HETATM   10 CL10 UNL     1     -31.370   7.592   3.715  1.00 20.00    -0.130 Cl
ENDBRANCH   3   9
TORSDOF 4
ENDMDL
