MODEL 1
REMARK VINA RESULT:      -4.2      0.000      0.000
REMARK  1 active torsions:
REMARK  status: ('A' for Active; 'I' for Inactive)
REMARK    1  A    between atoms: C7_7  and  C9_9 
ROOT
HETATM    1  C1  UNL     1     -33.660  13.786  -3.783  1.00 20.00     0.005 C 
HETATM    2  C2  UNL     1     -32.759  15.029  -3.758  1.00 20.00     0.006 C 
HETATM    3  C3  UNL     1     -34.733  15.540  -2.582  1.00 20.00     0.010 C 
HETATM    4  C4  UNL     1     -35.569  15.087  -4.771  1.00 20.00     0.015 C 
HETATM    5  C5  UNL     1     -35.059  14.369  -3.505  1.00 20.00    -0.013 C 
HETATM    6  C6  UNL     1     -33.767  16.181  -3.588  1.00 20.00    -0.005 C 
HETATM    7  C7  UNL     1     -34.668  16.349  -4.854  1.00 20.00    -0.028 C 
HETATM    8  C8  UNL     1     -35.512  17.635  -4.756  1.00 20.00     0.016 C 
ENDROOT
BRANCH   7   9
HETATM    9  C9  UNL     1     -33.890  16.402  -6.175  1.00 20.00     0.124 C 
HETATM   10 CL10 UNL     1     -34.307  15.005  -7.177  1.00 20.00    -0.130 Cl
ENDBRANCH   7   9
TORSDOF 1
ENDMDL
MODEL 2
REMARK VINA RESULT:      -4.2      1.606      2.953
REMARK  1 active torsions:
REMARK  status: ('A' for Active; 'I' for Inactive)
REMARK    1  A    between atoms: C7_7  and  C9_9 
ROOT
HETATM    1  C1  UNL     1     -33.964  17.133  -3.288  1.00 20.00     0.005 C 
HETATM    2  C2  UNL     1     -34.401  16.042  -2.299  1.00 20.00     0.006 C 
HETATM    3  C3  UNL     1     -32.728  15.138  -3.687  1.00 20.00     0.010 C 
HETATM    4  C4  UNL     1     -34.445  15.655  -5.261  1.00 20.00     0.015 C 
HETATM    5  C5  UNL     1     -33.329  16.325  -4.435  1.00 20.00    -0.013 C 
HETATM    6  C6  UNL     1     -34.069  14.742  -3.055  1.00 20.00    -0.005 C 
HETATM    7  C7  UNL     1     -34.985  14.554  -4.308  1.00 20.00    -0.028 C 
HETATM    8  C8  UNL     1     -34.792  13.153  -4.919  1.00 20.00     0.016 C 
ENDROOT
BRANCH   7   9
HETATM    9  C9  UNL     1     -36.481  14.737  -4.023  1.00 20.00     0.124 C 
HETATM   10 CL10 UNL     1     -37.105  16.116  -4.941  1.00 20.00    -0.130 Cl
ENDBRANCH   7   9
TORSDOF 1
ENDMDL
MODEL 3
REMARK VINA RESULT:      -4.2      1.566      2.593
REMARK  1 active torsions:
REMARK  status: ('A' for Active; 'I' for Inactive)
REMARK    1  A    between atoms: C7_7  and  C9_9 
ROOT
HETATM    1  C1  UNL     1     -34.217  15.886  -2.527  1.00 20.00     0.005 C 
HETATM    2  C2  UNL     1     -35.539  15.310  -3.055  1.00 20.00     0.006 C 
HETATM    3  C3  UNL     1     -33.785  13.983  -3.892  1.00 20.00     0.010 C 
HETATM    4  C4  UNL     1     -33.292  16.111  -4.852  1.00 20.00     0.015 C 
HETATM    5  C5  UNL     1     -33.180  15.335  -3.524  1.00 20.00    -0.013 C 
HETATM    6  C6  UNL     1     -35.112  14.601  -4.353  1.00 20.00    -0.005 C 
HETATM    7  C7  UNL     1     -34.644  15.623  -5.440  1.00 20.00    -0.028 C 
HETATM    8  C8  UNL     1     -34.433  14.919  -6.794  1.00 20.00     0.016 C 
ENDROOT
BRANCH   7   9
HETATM    9  C9  UNL     1     -35.616  16.788  -5.665  1.00 20.00     0.124 C 
HETATM   10 CL10 UNL     1     -34.841  18.315  -5.221  1.00 20.00    -0.130 Cl
ENDBRANCH   7   9
TORSDOF 1
ENDMDL
MODEL 4
REMARK VINA RESULT:      -4.1      2.105      3.023
REMARK  1 active torsions:
REMARK  status: ('A' for Active; 'I' for Inactive)
REMARK    1  A    between atoms: C7_7  and  C9_9 
ROOT
HETATM    1  C1  UNL     1     -35.533  13.532  -4.089  1.00 20.00     0.005 C 
HETATM    2  C2  UNL     1     -36.399  14.697  -4.591  1.00 20.00     0.006 C 
HETATM    3  C3  UNL     1     -34.548  14.495  -6.031  1.00 20.00     0.010 C 
HETATM    4  C4  UNL     1     -33.498  14.997  -3.948  1.00 20.00     0.015 C 
HETATM    5  C5  UNL     1     -34.158  13.832  -4.713  1.00 20.00    -0.013 C 
HETATM    6  C6  UNL     1     -35.385  15.581  -5.340  1.00 20.00    -0.005 C 
HETATM    7  C7  UNL     1     -34.351  16.227  -4.362  1.00 20.00    -0.028 C 
HETATM    8  C8  UNL     1     -33.489  17.274  -5.093  1.00 20.00     0.016 C 
ENDROOT
BRANCH   7   9
HETATM    9  C9  UNL     1     -34.983  16.912  -3.144  1.00 20.00     0.124 C 
HETATM   10 CL10 UNL     1     -34.453  16.110  -1.658  1.00 20.00    -0.130 Cl
ENDBRANCH   7   9
TORSDOF 1
ENDMDL
MODEL 5
REMARK VINA RESULT:      -4.1      1.124      2.823
REMARK  1 active torsions:
REMARK  status: ('A' for Active; 'I' for Inactive)
REMARK    1  A    between atoms: C7_7  and  C9_9 
ROOT
HETATM    1  C1  UNL     1     -35.383  17.381  -4.025  1.00 20.00     0.005 C 
HETATM    2  C2  UNL     1     -36.155  16.112  -3.637  1.00 20.00     0.006 C 
HETATM    3  C3  UNL     1     -34.229  16.231  -2.289  1.00 20.00     0.010 C 
HETATM    4  C4  UNL     1     -33.288  16.071  -4.477  1.00 20.00     0.015 C 
HETATM    5  C5  UNL     1     -33.957  17.084  -3.526  1.00 20.00    -0.013 C 
HETATM    6  C6  UNL     1     -35.051  15.198  -3.072  1.00 20.00    -0.005 C 
HETATM    7  C7  UNL     1     -34.050  14.749  -4.185  1.00 20.00    -0.028 C 
HETATM    8  C8  UNL     1     -33.090  13.668  -3.651  1.00 20.00     0.016 C 
ENDROOT
BRANCH   7   9
HETATM    9  C9  UNL     1     -34.722  14.194  -5.447  1.00 20.00     0.124 C 
HETATM   10 CL10 UNL     1     -34.315  15.204  -6.842  1.00 20.00    -0.130 Cl
ENDBRANCH   7   9
TORSDOF 1
ENDMDL
MODEL 6
REMARK VINA RESULT:      -4.1      1.718      2.484
REMARK  1 active torsions:
REMARK  status: ('A' for Active; 'I' for Inactive)
REMARK    1  A    between atoms: C7_7  and  C9_9 
ROOT
HETATM    1  C1  UNL     1     -35.120  14.133  -5.790  1.00 20.00     0.005 C 
HETATM    2  C2  UNL     1     -34.012  15.188  -5.660  1.00 20.00     0.006 C 
HETATM    3  C3  UNL     1     -33.869  13.752  -3.800  1.00 20.00     0.010 C 
HETATM    4  C4  UNL     1     -36.042  14.700  -3.523  1.00 20.00     0.015 C 
HETATM    5  C5  UNL     1     -35.291  13.632  -4.344  1.00 20.00    -0.013 C 
HETATM    6  C6  UNL     1     -33.770  15.246  -4.140  1.00 20.00    -0.005 C 
HETATM    7  C7  UNL     1     -35.000  15.843  -3.383  1.00 20.00    -0.028 C 
HETATM    8  C8  UNL     1     -34.657  16.097  -1.902  1.00 20.00     0.016 C 
ENDROOT
BRANCH   7   9
HETATM    9  C9  UNL     1     -35.521  17.159  -3.974  1.00 20.00     0.124 C 
HETATM   10 CL10 UNL     1     -37.162  16.933  -4.595  1.00 20.00    -0.130 Cl
ENDBRANCH   7   9
TORSDOF 1
ENDMDL
MODEL 7
REMARK VINA RESULT:      -4.1      1.811      2.901
REMARK  1 active torsions:
REMARK  status: ('A' for Active; 'I' for Inactive)
REMARK    1  A    between atoms: C7_7  and  C9_9 
ROOT
HETATM    1  C1  UNL     1     -36.550  15.120  -5.126  1.00 20.00     0.005 C 
HETATM    2  C2  UNL     1     -35.451  14.746  -6.131  1.00 20.00     0.006 C 
HETATM    3  C3  UNL     1     -35.245  13.323  -4.267  1.00 20.00     0.010 C 
HETATM    4  C4  UNL     1     -34.870  15.468  -3.291  1.00 20.00     0.015 C 
HETATM    5  C5  UNL     1     -36.008  14.560  -3.798  1.00 20.00    -0.013 C 
HETATM    6  C6  UNL     1     -34.363  14.125  -5.235  1.00 20.00    -0.005 C 
HETATM    7  C7  UNL     1     -33.716  15.189  -4.292  1.00 20.00    -0.028 C 
HETATM    8  C8  UNL     1     -32.489  14.602  -3.568  1.00 20.00     0.016 C 
ENDROOT
BRANCH   7   9
HETATM    9  C9  UNL     1     -33.266  16.470  -5.008  1.00 20.00     0.124 C 
HETATM   10 CL10 UNL     1     -34.155  17.861  -4.371  1.00 20.00    -0.130 Cl
ENDBRANCH   7   9
TORSDOF 1
ENDMDL
MODEL 8
REMARK VINA RESULT:      -4.1      1.503      3.069
REMARK  1 active torsions:
REMARK  status: ('A' for Active; 'I' for Inactive)
REMARK    1  A    between atoms: C7_7  and  C9_9 
ROOT
HETATM    1  C1  UNL     1     -34.131  16.305  -6.246  1.00 20.00     0.005 C 
HETATM    2  C2  UNL     1     -35.460  16.824  -5.679  1.00 20.00     0.006 C 
HETATM    3  C3  UNL     1     -33.714  17.731  -4.386  1.00 20.00     0.010 C 
HETATM    4  C4  UNL     1     -33.438  15.391  -4.012  1.00 20.00     0.015 C 
HETATM    5  C5  UNL     1     -33.159  16.481  -5.065  1.00 20.00    -0.013 C 
HETATM    6  C6  UNL     1     -35.112  17.123  -4.208  1.00 20.00    -0.005 C 
HETATM    7  C7  UNL     1     -34.807  15.813  -3.412  1.00 20.00    -0.028 C 
HETATM    8  C8  UNL     1     -34.679  16.109  -1.905  1.00 20.00     0.016 C 
ENDROOT
BRANCH   7   9
HETATM    9  C9  UNL     1     -35.863  14.714  -3.584  1.00 20.00     0.124 C 
HETATM   10 CL10 UNL     1     -35.107  13.245  -4.218  1.00 20.00    -0.130 Cl
ENDBRANCH   7   9
TORSDOF 1
ENDMDL
MODEL 9
REMARK VINA RESULT:      -4.1      2.083      3.440
REMARK  1 active torsions:
REMARK  status: ('A' for Active; 'I' for Inactive)
REMARK    1  A    between atoms: C7_7  and  C9_9 
ROOT
HETATM    1  C1  UNL     1     -36.246  16.375  -5.474  1.00 20.00     0.005 C 
HETATM    2  C2  UNL     1     -34.766  16.667  -5.762  1.00 20.00     0.006 C 
HETATM    3  C3  UNL     1     -35.130  14.365  -6.093  1.00 20.00     0.010 C 
HETATM    4  C4  UNL     1     -35.655  14.617  -3.779  1.00 20.00     0.015 C 
HETATM    5  C5  UNL     1     -36.248  14.863  -5.181  1.00 20.00    -0.013 C 
HETATM    6  C6  UNL     1     -34.088  15.313  -5.483  1.00 20.00    -0.005 C 
HETATM    7  C7  UNL     1     -34.148  14.941  -3.966  1.00 20.00    -0.028 C 
HETATM    8  C8  UNL     1     -33.279  13.702  -3.673  1.00 20.00     0.016 C 
ENDROOT
BRANCH   7   9
HETATM    9  C9  UNL     1     -33.690  16.064  -3.026  1.00 20.00     0.124 C 
HETATM   10 CL10 UNL     1     -34.721  16.106  -1.589  1.00 20.00    -0.130 Cl
ENDBRANCH   7   9
TORSDOF 1
ENDMDL
