MODEL 1
REMARK VINA RESULT:      -5.3      0.000      0.000
REMARK  4 active torsions:
REMARK  status: ('A' for Active; 'I' for Inactive)
REMARK    1  A    between atoms: C2_2  and  C9_9 
REMARK    2  A    between atoms: C2_2  and  C10_10 
REMARK    3  A    between atoms: C3_3  and  C5_5 
REMARK    4  A    between atoms: C3_3  and  C9_9 
ROOT
HETATM    1  C3  UNL     1     -33.699   5.789   2.928  1.00 20.00     0.135 C 
HETATM    2  O11 UNL     1     -34.042   4.790   2.307  1.00 20.00    -0.297 OA
ENDROOT
BRANCH   1   3
HETATM    3  C5  UNL     1     -32.429   6.485   2.569  1.00 20.00     0.060 A 
HETATM    4  C4  UNL     1     -31.802   7.389   3.579  1.00 20.00     0.017 A 
HETATM    5  C6  UNL     1     -32.470   7.975   2.364  1.00 20.00    -0.007 A 
HETATM    6  C7  UNL     1     -31.651   8.588   1.281  1.00 20.00     0.011 C 
ENDBRANCH   1   3
BRANCH   1   7
HETATM    7  C9  UNL     1     -34.457   6.385   4.099  1.00 20.00     0.111 C 
BRANCH   7   8
HETATM    8  C2  UNL     1     -34.652   5.373   5.199  1.00 20.00    -0.083 C 
HETATM    9  C1  UNL     1     -35.096   4.134   4.931  1.00 20.00     0.014 C 
BRANCH   8  10
HETATM   10  C10 UNL     1     -34.336   5.800   6.614  1.00 20.00     0.029 C 
HETATM   11  C8  UNL     1     -33.630   7.148   6.676  1.00 20.00     0.010 C 
ENDBRANCH   8  10
ENDBRANCH   7   8
ENDBRANCH   1   7
TORSDOF 4
ENDMDL
MODEL 2
REMARK VINA RESULT:      -5.1      0.619      1.585
REMARK  4 active torsions:
REMARK  status: ('A' for Active; 'I' for Inactive)
REMARK    1  A    between atoms: C2_2  and  C9_9 
REMARK    2  A    between atoms: C2_2  and  C10_10 
REMARK    3  A    between atoms: C3_3  and  C5_5 
REMARK    4  A    between atoms: C3_3  and  C9_9 
ROOT
HETATM    1  C3  UNL     1     -33.634   6.015   3.074  1.00 20.00     0.135 C 
HETATM    2  O11 UNL     1     -33.975   4.911   2.666  1.00 20.00    -0.297 OA
ENDROOT
BRANCH   1   3
HETATM    3  C5  UNL     1     -32.370   6.633   2.575  1.00 20.00     0.060 A 
HETATM    4  C4  UNL     1     -31.616   7.546   3.486  1.00 20.00     0.017 A 
HETATM    5  C6  UNL     1     -32.360   8.112   2.306  1.00 20.00    -0.007 A 
HETATM    6  C7  UNL     1     -31.613   8.637   1.129  1.00 20.00     0.011 C 
ENDBRANCH   1   3
BRANCH   1   7
HETATM    7  C9  UNL     1     -34.389   6.829   4.107  1.00 20.00     0.111 C 
BRANCH   7   8
HETATM    8  C2  UNL     1     -34.373   6.156   5.455  1.00 20.00    -0.083 C 
HETATM    9  C1  UNL     1     -33.668   6.666   6.478  1.00 20.00     0.014 C 
BRANCH   8  10
HETATM   10  C10 UNL     1     -35.173   4.883   5.616  1.00 20.00     0.029 C 
HETATM   11  C8  UNL     1     -34.305   3.687   5.979  1.00 20.00     0.010 C 
ENDBRANCH   8  10
ENDBRANCH   7   8
ENDBRANCH   1   7
TORSDOF 4
ENDMDL
MODEL 3
REMARK VINA RESULT:      -5.1     11.123     12.385
REMARK  4 active torsions:
REMARK  status: ('A' for Active; 'I' for Inactive)
REMARK    1  A    between atoms: C2_2  and  C9_9 
REMARK    2  A    between atoms: C2_2  and  C10_10 
REMARK    3  A    between atoms: C3_3  and  C5_5 
REMARK    4  A    between atoms: C3_3  and  C9_9 
ROOT
HETATM    1  C3  UNL     1     -35.017  13.788  -4.781  1.00 20.00     0.135 C 
HETATM    2  O11 UNL     1     -34.710  12.636  -5.061  1.00 20.00    -0.297 OA
ENDROOT
BRANCH   1   3
HETATM    3  C5  UNL     1     -35.446  14.724  -5.862  1.00 20.00     0.060 A 
HETATM    4  C4  UNL     1     -35.374  14.258  -7.279  1.00 20.00     0.017 A 
HETATM    5  C6  UNL     1     -34.391  15.282  -6.778  1.00 20.00    -0.007 A 
HETATM    6  C7  UNL     1     -34.487  16.698  -7.229  1.00 20.00     0.011 C 
ENDBRANCH   1   3
BRANCH   1   7
HETATM    7  C9  UNL     1     -34.964  14.386  -3.388  1.00 20.00     0.111 C 
BRANCH   7   8
HETATM    8  C2  UNL     1     -33.733  15.235  -3.202  1.00 20.00    -0.083 C 
HETATM    9  C1  UNL     1     -32.525  14.801  -3.597  1.00 20.00     0.014 C 
BRANCH   8  10
HETATM   10  C10 UNL     1     -33.902  16.588  -2.551  1.00 20.00     0.029 C 
HETATM   11  C8  UNL     1     -34.583  16.505  -1.193  1.00 20.00     0.010 C 
ENDBRANCH   8  10
ENDBRANCH   7   8
ENDBRANCH   1   7
TORSDOF 4
ENDMDL
MODEL 4
REMARK VINA RESULT:      -4.9      0.938      4.323
REMARK  4 active torsions:
REMARK  status: ('A' for Active; 'I' for Inactive)
REMARK    1  A    between atoms: C2_2  and  C9_9 
REMARK    2  A    between atoms: C2_2  and  C10_10 
REMARK    3  A    between atoms: C3_3  and  C5_5 
REMARK    4  A    between atoms: C3_3  and  C9_9 
ROOT
HETATM    1  C3  UNL     1     -33.909   5.660   3.626  1.00 20.00     0.135 C 
HETATM    2  O11 UNL     1     -35.057   5.519   3.223  1.00 20.00    -0.297 OA
ENDROOT
BRANCH   1   3
HETATM    3  C5  UNL     1     -33.628   5.625   5.092  1.00 20.00     0.060 A 
HETATM    4  C4  UNL     1     -34.738   5.255   6.021  1.00 20.00     0.017 A 
HETATM    5  C6  UNL     1     -34.255   6.680   5.961  1.00 20.00    -0.007 A 
HETATM    6  C7  UNL     1     -33.475   7.256   7.091  1.00 20.00     0.011 C 
ENDBRANCH   1   3
BRANCH   1   7
HETATM    7  C9  UNL     1     -32.703   5.916   2.741  1.00 20.00     0.111 C 
BRANCH   7   8
HETATM    8  C2  UNL     1     -32.173   7.314   2.927  1.00 20.00    -0.083 C 
HETATM    9  C1  UNL     1     -31.268   7.592   3.880  1.00 20.00     0.014 C 
BRANCH   8  10
HETATM   10  C10 UNL     1     -32.697   8.394   2.009  1.00 20.00     0.029 C 
HETATM   11  C8  UNL     1     -31.743   8.704   0.864  1.00 20.00     0.010 C 
ENDBRANCH   8  10
ENDBRANCH   7   8
ENDBRANCH   1   7
TORSDOF 4
ENDMDL
MODEL 5
REMARK VINA RESULT:      -4.9      1.602      1.918
REMARK  4 active torsions:
REMARK  status: ('A' for Active; 'I' for Inactive)
REMARK    1  A    between atoms: C2_2  and  C9_9 
REMARK    2  A    between atoms: C2_2  and  C10_10 
REMARK    3  A    between atoms: C3_3  and  C5_5 
REMARK    4  A    between atoms: C3_3  and  C9_9 
ROOT
HETATM    1  C3  UNL     1     -32.969   6.399   3.689  1.00 20.00     0.135 C 
HETATM    2  O11 UNL     1     -33.049   6.784   4.849  1.00 20.00    -0.297 OA
ENDROOT
BRANCH   1   3
HETATM    3  C5  UNL     1     -31.981   7.030   2.765  1.00 20.00     0.060 A 
HETATM    4  C4  UNL     1     -31.171   8.181   3.267  1.00 20.00     0.017 A 
HETATM    5  C6  UNL     1     -32.266   8.419   2.261  1.00 20.00    -0.007 A 
HETATM    6  C7  UNL     1     -31.928   8.770   0.854  1.00 20.00     0.011 C 
ENDBRANCH   1   3
BRANCH   1   7
HETATM    7  C9  UNL     1     -33.842   5.325   3.069  1.00 20.00     0.111 C 
BRANCH   7   8
HETATM    8  C2  UNL     1     -35.094   5.101   3.876  1.00 20.00    -0.083 C 
HETATM    9  C1  UNL     1     -36.197   5.837   3.663  1.00 20.00     0.014 C 
BRANCH   8  10
HETATM   10  C10 UNL     1     -35.066   4.024   4.936  1.00 20.00     0.029 C 
HETATM   11  C8  UNL     1     -35.011   4.593   6.348  1.00 20.00     0.010 C 
ENDBRANCH   8  10
ENDBRANCH   7   8
ENDBRANCH   1   7
TORSDOF 4
ENDMDL
MODEL 6
REMARK VINA RESULT:      -4.8     11.289     12.447
REMARK  4 active torsions:
REMARK  status: ('A' for Active; 'I' for Inactive)
REMARK    1  A    between atoms: C2_2  and  C9_9 
REMARK    2  A    between atoms: C2_2  and  C10_10 
REMARK    3  A    between atoms: C3_3  and  C5_5 
REMARK    4  A    between atoms: C3_3  and  C9_9 
ROOT
HETATM    1  C3  UNL     1     -34.198  14.336  -4.038  1.00 20.00     0.135 C 
HETATM    2  O11 UNL     1     -34.341  13.167  -3.700  1.00 20.00    -0.297 OA
ENDROOT
BRANCH   1   3
HETATM    3  C5  UNL     1     -35.017  14.890  -5.157  1.00 20.00     0.060 A 
HETATM    4  C4  UNL     1     -35.052  14.145  -6.451  1.00 20.00     0.017 A 
HETATM    5  C6  UNL     1     -34.298  15.445  -6.356  1.00 20.00    -0.007 A 
HETATM    6  C7  UNL     1     -34.825  16.668  -7.023  1.00 20.00     0.011 C 
ENDBRANCH   1   3
BRANCH   1   7
HETATM    7  C9  UNL     1     -33.199  15.300  -3.427  1.00 20.00     0.111 C 
BRANCH   7   8
HETATM    8  C2  UNL     1     -33.893  16.463  -2.765  1.00 20.00    -0.083 C 
HETATM    9  C1  UNL     1     -33.736  17.715  -3.222  1.00 20.00     0.014 C 
BRANCH   8  10
HETATM   10  C10 UNL     1     -34.767  16.172  -1.567  1.00 20.00     0.029 C 
HETATM   11  C8  UNL     1     -34.507  17.124  -0.407  1.00 20.00     0.010 C 
ENDBRANCH   8  10
ENDBRANCH   7   8
ENDBRANCH   1   7
TORSDOF 4
ENDMDL
MODEL 7
REMARK VINA RESULT:      -4.8      1.138      2.048
REMARK  4 active torsions:
REMARK  status: ('A' for Active; 'I' for Inactive)
REMARK    1  A    between atoms: C2_2  and  C9_9 
REMARK    2  A    between atoms: C2_2  and  C10_10 
REMARK    3  A    between atoms: C3_3  and  C5_5 
REMARK    4  A    between atoms: C3_3  and  C9_9 
ROOT
HETATM    1  C3  UNL     1     -32.554   6.691   3.160  1.00 20.00     0.135 C 
HETATM    2  O11 UNL     1     -31.955   5.627   3.259  1.00 20.00    -0.297 OA
ENDROOT
BRANCH   1   3
HETATM    3  C5  UNL     1     -31.864   7.878   2.575  1.00 20.00     0.060 A 
HETATM    4  C4  UNL     1     -32.606   9.173   2.512  1.00 20.00     0.017 A 
HETATM    5  C6  UNL     1     -32.346   8.397   1.248  1.00 20.00    -0.007 A 
HETATM    6  C7  UNL     1     -31.355   8.894   0.253  1.00 20.00     0.011 C 
ENDBRANCH   1   3
BRANCH   1   7
HETATM    7  C9  UNL     1     -33.975   6.934   3.632  1.00 20.00     0.111 C 
BRANCH   7   8
HETATM    8  C2  UNL     1     -34.283   6.143   4.877  1.00 20.00    -0.083 C 
HETATM    9  C1  UNL     1     -33.828   6.536   6.078  1.00 20.00     0.014 C 
BRANCH   8  10
HETATM   10  C10 UNL     1     -35.117   4.892   4.729  1.00 20.00     0.029 C 
HETATM   11  C8  UNL     1     -34.876   3.890   5.850  1.00 20.00     0.010 C 
ENDBRANCH   8  10
ENDBRANCH   7   8
ENDBRANCH   1   7
TORSDOF 4
ENDMDL
MODEL 8
REMARK VINA RESULT:      -4.7     11.271     12.792
REMARK  4 active torsions:
REMARK  status: ('A' for Active; 'I' for Inactive)
REMARK    1  A    between atoms: C2_2  and  C9_9 
REMARK    2  A    between atoms: C2_2  and  C10_10 
REMARK    3  A    between atoms: C3_3  and  C5_5 
REMARK    4  A    between atoms: C3_3  and  C9_9 
ROOT
HETATM    1  C3  UNL     1     -34.576  13.946  -4.554  1.00 20.00     0.135 C 
HETATM    2  O11 UNL     1     -34.935  12.790  -4.367  1.00 20.00    -0.297 OA
ENDROOT
BRANCH   1   3
HETATM    3  C5  UNL     1     -35.205  14.751  -5.642  1.00 20.00     0.060 A 
HETATM    4  C4  UNL     1     -35.313  14.148  -7.004  1.00 20.00     0.017 A 
HETATM    5  C6  UNL     1     -34.325  15.255  -6.752  1.00 20.00    -0.007 A 
HETATM    6  C7  UNL     1     -34.562  16.614  -7.315  1.00 20.00     0.011 C 
ENDBRANCH   1   3
BRANCH   1   7
HETATM    7  C9  UNL     1     -33.481  14.651  -3.777  1.00 20.00     0.111 C 
BRANCH   7   8
HETATM    8  C2  UNL     1     -34.001  15.891  -3.096  1.00 20.00    -0.083 C 
HETATM    9  C1  UNL     1     -34.782  15.808  -2.007  1.00 20.00     0.014 C 
BRANCH   8  10
HETATM   10  C10 UNL     1     -33.619  17.230  -3.683  1.00 20.00     0.029 C 
HETATM   11  C8  UNL     1     -34.824  18.125  -3.937  1.00 20.00     0.010 C 
ENDBRANCH   8  10
ENDBRANCH   7   8
ENDBRANCH   1   7
TORSDOF 4
ENDMDL
MODEL 9
REMARK VINA RESULT:      -4.7     11.115     12.256
REMARK  4 active torsions:
REMARK  status: ('A' for Active; 'I' for Inactive)
REMARK    1  A    between atoms: C2_2  and  C9_9 
REMARK    2  A    between atoms: C2_2  and  C10_10 
REMARK    3  A    between atoms: C3_3  and  C5_5 
REMARK    4  A    between atoms: C3_3  and  C9_9 
ROOT
HETATM    1  C3  UNL     1     -33.339  15.170  -3.637  1.00 20.00     0.135 C 
HETATM    2  O11 UNL     1     -32.259  14.597  -3.566  1.00 20.00    -0.297 OA
ENDROOT
BRANCH   1   3
HETATM    3  C5  UNL     1     -34.602  14.400  -3.435  1.00 20.00     0.060 A 
HETATM    4  C4  UNL     1     -34.914  13.283  -4.376  1.00 20.00     0.017 A 
HETATM    5  C6  UNL     1     -35.703  14.564  -4.447  1.00 20.00    -0.007 A 
HETATM    6  C7  UNL     1     -37.120  14.598  -3.988  1.00 20.00     0.011 C 
ENDBRANCH   1   3
BRANCH   1   7
HETATM    7  C9  UNL     1     -33.521  16.640  -3.963  1.00 20.00     0.111 C 
BRANCH   7   8
HETATM    8  C2  UNL     1     -34.238  17.364  -2.852  1.00 20.00    -0.083 C 
HETATM    9  C1  UNL     1     -35.341  18.090  -3.095  1.00 20.00     0.014 C 
BRANCH   8  10
HETATM   10  C10 UNL     1     -33.670  17.249  -1.456  1.00 20.00     0.029 C 
HETATM   11  C8  UNL     1     -34.726  16.884  -0.422  1.00 20.00     0.010 C 
ENDBRANCH   8  10
ENDBRANCH   7   8
ENDBRANCH   1   7
TORSDOF 4
ENDMDL
