MODEL 1
REMARK VINA RESULT:      -4.7      0.000      0.000
REMARK  4 active torsions:
REMARK  status: ('A' for Active; 'I' for Inactive)
REMARK    1  A    between atoms: C4_4  and  C5_5 
REMARK    2  A    between atoms: C5_5  and  C8_8 
REMARK    3  A    between atoms: C6_6  and  C8_8 
REMARK    4  A    between atoms: C7_7  and  C8_8 
ROOT
HETATM    1  C8  UNL     1     -33.904   6.297   4.243  1.00 20.00     0.003 C 
ENDROOT
BRANCH   1   2
HETATM    2  C5  UNL     1     -32.528   6.228   3.524  1.00 20.00     0.005 C 
BRANCH   2   3
HETATM    3  C4  UNL     1     -31.791   7.558   3.332  1.00 20.00    -0.004 C 
HETATM    4  C1  UNL     1     -32.077   8.223   1.995  1.00 20.00     0.005 C 
ENDBRANCH   2   3
ENDBRANCH   1   2
BRANCH   1   5
HETATM    5  C6  UNL     1     -34.960   5.491   3.454  1.00 20.00     0.119 C 
HETATM    6 CL9  UNL     1     -34.330   4.899   1.891  1.00 20.00    -0.130 Cl
ENDBRANCH   1   5
BRANCH   1   7
HETATM    7  C7  UNL     1     -33.834   5.849   5.736  1.00 20.00    -0.018 C 
HETATM    8  C2  UNL     1     -34.954   4.866   6.097  1.00 20.00     0.010 C 
HETATM    9  C3  UNL     1     -33.831   7.013   6.731  1.00 20.00     0.010 C 
ENDBRANCH   1   7
TORSDOF 4
ENDMDL
MODEL 2
REMARK VINA RESULT:      -4.3      0.388      1.237
REMARK  4 active torsions:
REMARK  status: ('A' for Active; 'I' for Inactive)
REMARK    1  A    between atoms: C4_4  and  C5_5 
REMARK    2  A    between atoms: C5_5  and  C8_8 
REMARK    3  A    between atoms: C6_6  and  C8_8 
REMARK    4  A    between atoms: C7_7  and  C8_8 
ROOT
HETATM    1  C8  UNL     1     -34.165   6.398   4.230  1.00 20.00     0.003 C 
ENDROOT
BRANCH   1   2
HETATM    2  C5  UNL     1     -32.681   6.159   3.838  1.00 20.00     0.005 C 
BRANCH   2   3
HETATM    3  C4  UNL     1     -31.850   7.407   3.519  1.00 20.00    -0.004 C 
HETATM    4  C1  UNL     1     -32.162   8.013   2.159  1.00 20.00     0.005 C 
ENDBRANCH   2   3
ENDBRANCH   1   2
BRANCH   1   5
HETATM    5  C6  UNL     1     -35.099   5.588   3.304  1.00 20.00     0.119 C 
HETATM    6 CL9  UNL     1     -34.228   4.881   1.915  1.00 20.00    -0.130 Cl
ENDBRANCH   1   5
BRANCH   1   7
HETATM    7  C7  UNL     1     -34.451   6.106   5.737  1.00 20.00    -0.018 C 
HETATM    8  C2  UNL     1     -33.540   6.919   6.665  1.00 20.00     0.010 C 
HETATM    9  C3  UNL     1     -34.369   4.623   6.106  1.00 20.00     0.010 C 
ENDBRANCH   1   7
TORSDOF 4
ENDMDL
MODEL 3
REMARK VINA RESULT:      -4.3      2.177      2.845
REMARK  4 active torsions:
REMARK  status: ('A' for Active; 'I' for Inactive)
REMARK    1  A    between atoms: C4_4  and  C5_5 
REMARK    2  A    between atoms: C5_5  and  C8_8 
REMARK    3  A    between atoms: C6_6  and  C8_8 
REMARK    4  A    between atoms: C7_7  and  C8_8 
ROOT
HETATM    1  C8  UNL     1     -33.668   5.923   5.052  1.00 20.00     0.003 C 
ENDROOT
BRANCH   1   2
HETATM    2  C5  UNL     1     -33.434   7.068   4.029  1.00 20.00     0.005 C 
BRANCH   2   3
HETATM    3  C4  UNL     1     -32.246   6.900   3.075  1.00 20.00    -0.004 C 
HETATM    4  C1  UNL     1     -32.048   8.079   2.136  1.00 20.00     0.005 C 
ENDBRANCH   2   3
ENDBRANCH   1   2
BRANCH   1   5
HETATM    5  C6  UNL     1     -34.138   6.502   6.404  1.00 20.00     0.119 C 
HETATM    6 CL9  UNL     1     -32.980   7.685   7.074  1.00 20.00    -0.130 Cl
ENDBRANCH   1   5
BRANCH   1   7
HETATM    7  C7  UNL     1     -34.642   4.824   4.523  1.00 20.00    -0.018 C 
HETATM    8  C2  UNL     1     -35.795   5.421   3.706  1.00 20.00     0.010 C 
HETATM    9  C3  UNL     1     -35.206   3.918   5.621  1.00 20.00     0.010 C 
ENDBRANCH   1   7
TORSDOF 4
ENDMDL
MODEL 4
REMARK VINA RESULT:      -4.0     11.358     12.394
REMARK  4 active torsions:
REMARK  status: ('A' for Active; 'I' for Inactive)
REMARK    1  A    between atoms: C4_4  and  C5_5 
REMARK    2  A    between atoms: C5_5  and  C8_8 
REMARK    3  A    between atoms: C6_6  and  C8_8 
REMARK    4  A    between atoms: C7_7  and  C8_8 
ROOT
HETATM    1  C8  UNL     1     -33.518  16.203  -3.068  1.00 20.00     0.003 C 
ENDROOT
BRANCH   1   2
HETATM    2  C5  UNL     1     -33.081  14.863  -3.722  1.00 20.00     0.005 C 
BRANCH   2   3
HETATM    3  C4  UNL     1     -34.042  13.680  -3.560  1.00 20.00    -0.004 C 
HETATM    4  C1  UNL     1     -34.780  13.317  -4.839  1.00 20.00     0.005 C 
ENDBRANCH   2   3
ENDBRANCH   1   2
BRANCH   1   5
HETATM    5  C6  UNL     1     -33.693  17.293  -4.149  1.00 20.00     0.119 C 
HETATM    6 CL9  UNL     1     -33.659  16.618  -5.802  1.00 20.00    -0.130 Cl
ENDBRANCH   1   5
BRANCH   1   7
HETATM    7  C7  UNL     1     -34.793  16.060  -2.180  1.00 20.00    -0.018 C 
HETATM    8  C2  UNL     1     -36.032  16.668  -2.847  1.00 20.00     0.010 C 
HETATM    9  C3  UNL     1     -34.633  16.637  -0.771  1.00 20.00     0.010 C 
ENDBRANCH   1   7
TORSDOF 4
ENDMDL
MODEL 5
REMARK VINA RESULT:      -4.0     11.408     12.401
REMARK  4 active torsions:
REMARK  status: ('A' for Active; 'I' for Inactive)
REMARK    1  A    between atoms: C4_4  and  C5_5 
REMARK    2  A    between atoms: C5_5  and  C8_8 
REMARK    3  A    between atoms: C6_6  and  C8_8 
REMARK    4  A    between atoms: C7_7  and  C8_8 
ROOT
HETATM    1  C8  UNL     1     -34.234  15.973  -3.524  1.00 20.00     0.003 C 
ENDROOT
BRANCH   1   2
HETATM    2  C5  UNL     1     -33.781  16.639  -2.196  1.00 20.00     0.005 C 
BRANCH   2   3
HETATM    3  C4  UNL     1     -34.723  16.482  -0.997  1.00 20.00    -0.004 C 
HETATM    4  C1  UNL     1     -34.512  17.529   0.084  1.00 20.00     0.005 C 
ENDBRANCH   2   3
ENDBRANCH   1   2
BRANCH   1   5
HETATM    5  C6  UNL     1     -33.202  16.250  -4.640  1.00 20.00     0.119 C 
HETATM    6 CL9  UNL     1     -33.950  16.285  -6.261  1.00 20.00    -0.130 Cl
ENDBRANCH   1   5
BRANCH   1   7
HETATM    7  C7  UNL     1     -34.524  14.447  -3.372  1.00 20.00    -0.018 C 
HETATM    8  C2  UNL     1     -33.315  13.589  -3.764  1.00 20.00     0.010 C 
HETATM    9  C3  UNL     1     -35.761  13.974  -4.139  1.00 20.00     0.010 C 
ENDBRANCH   1   7
TORSDOF 4
ENDMDL
MODEL 6
REMARK VINA RESULT:      -3.9     11.448     12.433
REMARK  4 active torsions:
REMARK  status: ('A' for Active; 'I' for Inactive)
REMARK    1  A    between atoms: C4_4  and  C5_5 
REMARK    2  A    between atoms: C5_5  and  C8_8 
REMARK    3  A    between atoms: C6_6  and  C8_8 
REMARK    4  A    between atoms: C7_7  and  C8_8 
ROOT
HETATM    1  C8  UNL     1     -34.244  14.997  -3.067  1.00 20.00     0.003 C 
ENDROOT
BRANCH   1   2
HETATM    2  C5  UNL     1     -33.148  15.546  -4.020  1.00 20.00     0.005 C 
BRANCH   2   3
HETATM    3  C4  UNL     1     -33.446  16.886  -4.703  1.00 20.00    -0.004 C 
HETATM    4  C1  UNL     1     -34.049  16.740  -6.091  1.00 20.00     0.005 C 
ENDBRANCH   2   3
ENDBRANCH   1   2
BRANCH   1   5
HETATM    5  C6  UNL     1     -35.070  16.160  -2.476  1.00 20.00     0.119 C 
HETATM    6 CL9  UNL     1     -34.625  16.514  -0.783  1.00 20.00    -0.130 Cl
ENDBRANCH   1   5
BRANCH   1   7
HETATM    7  C7  UNL     1     -35.157  13.926  -3.743  1.00 20.00    -0.018 C 
HETATM    8  C2  UNL     1     -34.458  13.231  -4.917  1.00 20.00     0.010 C 
HETATM    9  C3  UNL     1     -36.513  14.469  -4.200  1.00 20.00     0.010 C 
ENDBRANCH   1   7
TORSDOF 4
ENDMDL
MODEL 7
REMARK VINA RESULT:      -3.9      1.036      3.719
REMARK  4 active torsions:
REMARK  status: ('A' for Active; 'I' for Inactive)
REMARK    1  A    between atoms: C4_4  and  C5_5 
REMARK    2  A    between atoms: C5_5  and  C8_8 
REMARK    3  A    between atoms: C6_6  and  C8_8 
REMARK    4  A    between atoms: C7_7  and  C8_8 
ROOT
HETATM    1  C8  UNL     1     -33.101   6.043   3.887  1.00 20.00     0.003 C 
ENDROOT
BRANCH   1   2
HETATM    2  C5  UNL     1     -33.918   6.759   4.997  1.00 20.00     0.005 C 
BRANCH   2   3
HETATM    3  C4  UNL     1     -34.030   6.030   6.340  1.00 20.00    -0.004 C 
HETATM    4  C1  UNL     1     -34.758   4.697   6.249  1.00 20.00     0.005 C 
ENDBRANCH   2   3
ENDBRANCH   1   2
BRANCH   1   5
HETATM    5  C6  UNL     1     -34.048   5.493   2.798  1.00 20.00     0.119 C 
HETATM    6 CL9  UNL     1     -35.767   5.771   3.193  1.00 20.00    -0.130 Cl
ENDBRANCH   1   5
BRANCH   1   7
HETATM    7  C7  UNL     1     -31.981   6.943   3.278  1.00 20.00    -0.018 C 
HETATM    8  C2  UNL     1     -31.264   7.776   4.348  1.00 20.00     0.010 C 
HETATM    9  C3  UNL     1     -32.468   7.862   2.154  1.00 20.00     0.010 C 
ENDBRANCH   1   7
TORSDOF 4
ENDMDL
MODEL 8
REMARK VINA RESULT:      -3.9     11.321     12.894
REMARK  4 active torsions:
REMARK  status: ('A' for Active; 'I' for Inactive)
REMARK    1  A    between atoms: C4_4  and  C5_5 
REMARK    2  A    between atoms: C5_5  and  C8_8 
REMARK    3  A    between atoms: C6_6  and  C8_8 
REMARK    4  A    between atoms: C7_7  and  C8_8 
ROOT
HETATM    1  C8  UNL     1     -33.441  15.674  -3.613  1.00 20.00     0.003 C 
ENDROOT
BRANCH   1   2
HETATM    2  C5  UNL     1     -34.776  16.013  -2.895  1.00 20.00     0.005 C 
BRANCH   2   3
HETATM    3  C4  UNL     1     -34.683  16.332  -1.398  1.00 20.00    -0.004 C 
HETATM    4  C1  UNL     1     -33.678  17.425  -1.071  1.00 20.00     0.005 C 
ENDBRANCH   2   3
ENDBRANCH   1   2
BRANCH   1   5
HETATM    5  C6  UNL     1     -33.338  14.153  -3.858  1.00 20.00     0.119 C 
HETATM    6 CL9  UNL     1     -34.940  13.364  -3.908  1.00 20.00    -0.130 Cl
ENDBRANCH   1   5
BRANCH   1   7
HETATM    7  C7  UNL     1     -33.236  16.486  -4.930  1.00 20.00    -0.018 C 
HETATM    8  C2  UNL     1     -33.598  17.966  -4.758  1.00 20.00     0.010 C 
HETATM    9  C3  UNL     1     -33.985  15.911  -6.135  1.00 20.00     0.010 C 
ENDBRANCH   1   7
TORSDOF 4
ENDMDL
MODEL 9
REMARK VINA RESULT:      -3.9     11.254     12.318
REMARK  4 active torsions:
REMARK  status: ('A' for Active; 'I' for Inactive)
REMARK    1  A    between atoms: C4_4  and  C5_5 
REMARK    2  A    between atoms: C5_5  and  C8_8 
REMARK    3  A    between atoms: C6_6  and  C8_8 
REMARK    4  A    between atoms: C7_7  and  C8_8 
ROOT
HETATM    1  C8  UNL     1     -34.468  15.764  -2.473  1.00 20.00     0.003 C 
ENDROOT
BRANCH   1   2
HETATM    2  C5  UNL     1     -33.988  16.869  -1.494  1.00 20.00     0.005 C 
BRANCH   2   3
HETATM    3  C4  UNL     1     -34.791  17.029  -0.198  1.00 20.00    -0.004 C 
HETATM    4  C1  UNL     1     -34.242  18.101   0.730  1.00 20.00     0.005 C 
ENDBRANCH   2   3
ENDBRANCH   1   2
BRANCH   1   5
HETATM    5  C6  UNL     1     -35.718  16.240  -3.245  1.00 20.00     0.119 C 
HETATM    6 CL9  UNL     1     -36.896  14.923  -3.505  1.00 20.00    -0.130 Cl
ENDBRANCH   1   5
BRANCH   1   7
HETATM    7  C7  UNL     1     -33.344  15.276  -3.440  1.00 20.00    -0.018 C 
HETATM    8  C2  UNL     1     -33.254  16.142  -4.703  1.00 20.00     0.010 C 
HETATM    9  C3  UNL     1     -33.464  13.802  -3.835  1.00 20.00     0.010 C 
ENDBRANCH   1   7
TORSDOF 4
ENDMDL
