MODEL 1
REMARK VINA RESULT:      -4.0      0.000      0.000
REMARK  2 active torsions:
REMARK  status: ('A' for Active; 'I' for Inactive)
REMARK    1  A    between atoms: C5_5  and  O9_9 
REMARK    2  A    between atoms: C7_7  and  O9_9 
ROOT
HETATM    1  C1  UNL     1     -33.748  15.998  -4.423  1.00 20.00     0.098 C 
HETATM    2  C2  UNL     1     -34.777  13.214  -4.898  1.00 20.00     0.008 C 
HETATM    3  C3  UNL     1     -35.712  14.423  -4.713  1.00 20.00     0.054 C 
HETATM    4  C4  UNL     1     -34.066  13.625  -3.597  1.00 20.00     0.054 C 
HETATM    5  C5  UNL     1     -34.643  15.058  -3.778  1.00 20.00     0.148 C 
HETATM    6  N8  UNL     1     -33.032  16.751  -4.939  1.00 20.00    -0.194 NA
ENDROOT
BRANCH   5   7
HETATM    7  O9  UNL     1     -35.158  15.673  -2.580  1.00 20.00    -0.366 OA
BRANCH   7   8
HETATM    8  C7  UNL     1     -34.161  16.451  -1.949  1.00 20.00     0.165 C 
HETATM    9  C6  UNL     1     -34.628  16.816  -0.556  1.00 20.00     0.033 C 
ENDBRANCH   7   8
ENDBRANCH   5   7
TORSDOF 2
ENDMDL
MODEL 2
REMARK VINA RESULT:      -4.0      2.137      2.561
REMARK  2 active torsions:
REMARK  status: ('A' for Active; 'I' for Inactive)
REMARK    1  A    between atoms: C5_5  and  O9_9 
REMARK    2  A    between atoms: C7_7  and  O9_9 
ROOT
HETATM    1  C1  UNL     1     -36.759  14.483  -3.942  1.00 20.00     0.098 C 
HETATM    2  C2  UNL     1     -34.894  14.216  -6.284  1.00 20.00     0.008 C 
HETATM    3  C3  UNL     1     -34.698  13.431  -4.975  1.00 20.00     0.054 C 
HETATM    4  C4  UNL     1     -34.991  15.501  -5.444  1.00 20.00     0.054 C 
HETATM    5  C5  UNL     1     -35.341  14.623  -4.209  1.00 20.00     0.148 C 
HETATM    6  N8  UNL     1     -37.893  14.370  -3.727  1.00 20.00    -0.194 NA
ENDROOT
BRANCH   5   7
HETATM    7  O9  UNL     1     -34.684  14.995  -2.981  1.00 20.00    -0.366 OA
BRANCH   7   8
HETATM    8  C7  UNL     1     -35.340  16.089  -2.373  1.00 20.00     0.165 C 
HETATM    9  C6  UNL     1     -34.552  16.523  -1.156  1.00 20.00     0.033 C 
ENDBRANCH   7   8
ENDBRANCH   5   7
TORSDOF 2
ENDMDL
MODEL 3
REMARK VINA RESULT:      -3.9     12.082     12.941
REMARK  2 active torsions:
REMARK  status: ('A' for Active; 'I' for Inactive)
REMARK    1  A    between atoms: C5_5  and  O9_9 
REMARK    2  A    between atoms: C7_7  and  O9_9 
ROOT
HETATM    1  C1  UNL     1     -35.411   5.653   3.873  1.00 20.00     0.098 C 
HETATM    2  C2  UNL     1     -35.104   4.652   6.691  1.00 20.00     0.008 C 
HETATM    3  C3  UNL     1     -34.418   5.935   6.188  1.00 20.00     0.054 C 
HETATM    4  C4  UNL     1     -34.508   3.914   5.480  1.00 20.00     0.054 C 
HETATM    5  C5  UNL     1     -34.335   5.290   4.774  1.00 20.00     0.148 C 
HETATM    6  N8  UNL     1     -36.272   5.944   3.152  1.00 20.00    -0.194 NA
ENDROOT
BRANCH   5   7
HETATM    7  O9  UNL     1     -33.084   5.476   4.083  1.00 20.00    -0.366 OA
BRANCH   7   8
HETATM    8  C7  UNL     1     -33.152   6.593   3.218  1.00 20.00     0.165 C 
HETATM    9  C6  UNL     1     -31.832   7.333   3.264  1.00 20.00     0.033 C 
ENDBRANCH   7   8
ENDBRANCH   5   7
TORSDOF 2
ENDMDL
MODEL 4
REMARK VINA RESULT:      -3.9      2.390      2.981
REMARK  2 active torsions:
REMARK  status: ('A' for Active; 'I' for Inactive)
REMARK    1  A    between atoms: C5_5  and  O9_9 
REMARK    2  A    between atoms: C7_7  and  O9_9 
ROOT
HETATM    1  C1  UNL     1     -34.717  13.718  -4.997  1.00 20.00     0.098 C 
HETATM    2  C2  UNL     1     -35.911  15.312  -7.248  1.00 20.00     0.008 C 
HETATM    3  C3  UNL     1     -34.403  15.025  -7.145  1.00 20.00     0.054 C 
HETATM    4  C4  UNL     1     -35.864  15.830  -5.800  1.00 20.00     0.054 C 
HETATM    5  C5  UNL     1     -34.547  15.027  -5.596  1.00 20.00     0.148 C 
HETATM    6  N8  UNL     1     -34.852  12.671  -4.517  1.00 20.00    -0.194 NA
ENDROOT
BRANCH   5   7
HETATM    7  O9  UNL     1     -33.506  15.721  -4.880  1.00 20.00    -0.366 OA
BRANCH   7   8
HETATM    8  C7  UNL     1     -33.374  15.209  -3.569  1.00 20.00     0.165 C 
HETATM    9  C6  UNL     1     -33.784  16.278  -2.579  1.00 20.00     0.033 C 
ENDBRANCH   7   8
ENDBRANCH   5   7
TORSDOF 2
ENDMDL
MODEL 5
REMARK VINA RESULT:      -3.8      2.011      3.746
REMARK  2 active torsions:
REMARK  status: ('A' for Active; 'I' for Inactive)
REMARK    1  A    between atoms: C5_5  and  O9_9 
REMARK    2  A    between atoms: C7_7  and  O9_9 
ROOT
HETATM    1  C1  UNL     1     -33.830  14.169  -3.717  1.00 20.00     0.098 C 
HETATM    2  C2  UNL     1     -34.694  16.198  -1.675  1.00 20.00     0.008 C 
HETATM    3  C3  UNL     1     -35.632  15.686  -2.782  1.00 20.00     0.054 C 
HETATM    4  C4  UNL     1     -33.654  16.510  -2.765  1.00 20.00     0.054 C 
HETATM    5  C5  UNL     1     -34.388  15.507  -3.700  1.00 20.00     0.148 C 
HETATM    6  N8  UNL     1     -33.385  13.098  -3.732  1.00 20.00    -0.194 NA
ENDROOT
BRANCH   5   7
HETATM    7  O9  UNL     1     -34.558  15.944  -5.063  1.00 20.00    -0.366 OA
BRANCH   7   8
HETATM    8  C7  UNL     1     -35.022  14.883  -5.874  1.00 20.00     0.165 C 
HETATM    9  C6  UNL     1     -34.440  15.034  -7.263  1.00 20.00     0.033 C 
ENDBRANCH   7   8
ENDBRANCH   5   7
TORSDOF 2
ENDMDL
MODEL 6
REMARK VINA RESULT:      -3.7     12.516     13.813
REMARK  2 active torsions:
REMARK  status: ('A' for Active; 'I' for Inactive)
REMARK    1  A    between atoms: C5_5  and  O9_9 
REMARK    2  A    between atoms: C7_7  and  O9_9 
ROOT
HETATM    1  C1  UNL     1     -42.552   5.363  -2.699  1.00 20.00     0.098 C 
HETATM    2  C2  UNL     1     -41.942   5.642   0.231  1.00 20.00     0.008 C 
HETATM    3  C3  UNL     1     -40.841   5.579  -0.842  1.00 20.00     0.054 C 
HETATM    4  C4  UNL     1     -42.539   4.359  -0.373  1.00 20.00     0.054 C 
HETATM    5  C5  UNL     1     -41.774   4.669  -1.691  1.00 20.00     0.148 C 
HETATM    6  N8  UNL     1     -43.174   5.918  -3.505  1.00 20.00    -0.194 NA
ENDROOT
BRANCH   5   7
HETATM    7  O9  UNL     1     -41.133   3.538  -2.314  1.00 20.00    -0.366 OA
BRANCH   7   8
HETATM    8  C7  UNL     1     -42.059   2.802  -3.088  1.00 20.00     0.165 C 
HETATM    9  C6  UNL     1     -41.313   1.754  -3.886  1.00 20.00     0.033 C 
ENDBRANCH   7   8
ENDBRANCH   5   7
TORSDOF 2
ENDMDL
MODEL 7
REMARK VINA RESULT:      -3.7      1.851      3.505
REMARK  2 active torsions:
REMARK  status: ('A' for Active; 'I' for Inactive)
REMARK    1  A    between atoms: C5_5  and  O9_9 
REMARK    2  A    between atoms: C7_7  and  O9_9 
ROOT
HETATM    1  C1  UNL     1     -34.321  14.301  -3.478  1.00 20.00     0.098 C 
HETATM    2  C2  UNL     1     -33.616  16.806  -1.973  1.00 20.00     0.008 C 
HETATM    3  C3  UNL     1     -34.969  16.093  -1.807  1.00 20.00     0.054 C 
HETATM    4  C4  UNL     1     -33.847  16.790  -3.494  1.00 20.00     0.054 C 
HETATM    5  C5  UNL     1     -34.865  15.632  -3.289  1.00 20.00     0.148 C 
HETATM    6  N8  UNL     1     -33.887  13.237  -3.629  1.00 20.00    -0.194 NA
ENDROOT
BRANCH   5   7
HETATM    7  O9  UNL     1     -36.082  15.736  -4.055  1.00 20.00    -0.366 OA
BRANCH   7   8
HETATM    8  C7  UNL     1     -36.801  14.521  -4.019  1.00 20.00     0.165 C 
HETATM    9  C6  UNL     1     -38.278  14.825  -3.884  1.00 20.00     0.033 C 
ENDBRANCH   7   8
ENDBRANCH   5   7
TORSDOF 2
ENDMDL
MODEL 8
REMARK VINA RESULT:      -3.7      2.560      4.103
REMARK  2 active torsions:
REMARK  status: ('A' for Active; 'I' for Inactive)
REMARK    1  A    between atoms: C5_5  and  O9_9 
REMARK    2  A    between atoms: C7_7  and  O9_9 
ROOT
HETATM    1  C1  UNL     1     -36.312  14.429  -4.121  1.00 20.00     0.098 C 
HETATM    2  C2  UNL     1     -33.758  15.558  -3.010  1.00 20.00     0.008 C 
HETATM    3  C3  UNL     1     -34.319  15.971  -4.382  1.00 20.00     0.054 C 
HETATM    4  C4  UNL     1     -33.893  14.090  -3.449  1.00 20.00     0.054 C 
HETATM    5  C5  UNL     1     -34.924  14.544  -4.521  1.00 20.00     0.148 C 
HETATM    6  N8  UNL     1     -37.423  14.337  -3.802  1.00 20.00    -0.194 NA
ENDROOT
BRANCH   5   7
HETATM    7  O9  UNL     1     -34.775  13.934  -5.819  1.00 20.00    -0.366 OA
BRANCH   7   8
HETATM    8  C7  UNL     1     -35.708  14.472  -6.735  1.00 20.00     0.165 C 
HETATM    9  C6  UNL     1     -34.961  15.050  -7.917  1.00 20.00     0.033 C 
ENDBRANCH   7   8
ENDBRANCH   5   7
TORSDOF 2
ENDMDL
MODEL 9
REMARK VINA RESULT:      -3.7      2.575      4.117
REMARK  2 active torsions:
REMARK  status: ('A' for Active; 'I' for Inactive)
REMARK    1  A    between atoms: C5_5  and  O9_9 
REMARK    2  A    between atoms: C7_7  and  O9_9 
ROOT
HETATM    1  C1  UNL     1     -36.772  14.511  -4.143  1.00 20.00     0.098 C 
HETATM    2  C2  UNL     1     -33.969  13.650  -3.482  1.00 20.00     0.008 C 
HETATM    3  C3  UNL     1     -34.380  15.130  -3.582  1.00 20.00     0.054 C 
HETATM    4  C4  UNL     1     -34.599  13.430  -4.868  1.00 20.00     0.054 C 
HETATM    5  C5  UNL     1     -35.433  14.725  -4.653  1.00 20.00     0.148 C 
HETATM    6  N8  UNL     1     -37.844  14.340  -3.734  1.00 20.00    -0.194 NA
ENDROOT
BRANCH   5   7
HETATM    7  O9  UNL     1     -35.519  15.601  -5.795  1.00 20.00    -0.366 OA
BRANCH   7   8
HETATM    8  C7  UNL     1     -36.555  15.190  -6.664  1.00 20.00     0.165 C 
HETATM    9  C6  UNL     1     -35.944  14.598  -7.916  1.00 20.00     0.033 C 
ENDBRANCH   7   8
ENDBRANCH   5   7
TORSDOF 2
ENDMDL
