MODEL 1
REMARK VINA RESULT:      -4.0      0.000      0.000
REMARK  4 active torsions:
REMARK  status: ('A' for Active; 'I' for Inactive)
REMARK    1  A    between atoms: C4_4  and  C5_5 
REMARK    2  A    between atoms: C5_5  and  C7_7 
REMARK    3  A    between atoms: C6_6  and  O9_9 
REMARK    4  A    between atoms: C7_7  and  O9_9 
ROOT
HETATM    1  C1  UNL     1     -34.266  13.730  -3.986  1.00 20.00     0.091 C 
HETATM    2  C7  UNL     1     -33.618  14.895  -3.369  1.00 20.00     0.227 C 
HETATM    3  N8  UNL     1     -34.777  12.809  -4.473  1.00 20.00    -0.195 NA
ENDROOT
BRANCH   2   4
HETATM    4  C5  UNL     1     -34.611  15.762  -2.591  1.00 20.00     0.046 C 
BRANCH   4   5
HETATM    5  C4  UNL     1     -33.932  16.751  -1.642  1.00 20.00    -0.001 C 
HETATM    6  C2  UNL     1     -34.743  16.946  -0.370  1.00 20.00     0.005 C 
ENDBRANCH   4   5
ENDBRANCH   2   4
BRANCH   2   7
HETATM    7  O9  UNL     1     -33.039  15.709  -4.389  1.00 20.00    -0.372 OA
BRANCH   7   8
HETATM    8  C6  UNL     1     -34.031  16.234  -5.256  1.00 20.00     0.165 C 
HETATM    9  C3  UNL     1     -33.656  17.651  -5.635  1.00 20.00     0.033 C 
ENDBRANCH   7   8
ENDBRANCH   2   7
TORSDOF 4
ENDMDL
MODEL 2
REMARK VINA RESULT:      -4.0     11.543     12.516
REMARK  4 active torsions:
REMARK  status: ('A' for Active; 'I' for Inactive)
REMARK    1  A    between atoms: C4_4  and  C5_5 
REMARK    2  A    between atoms: C5_5  and  C7_7 
REMARK    3  A    between atoms: C6_6  and  O9_9 
REMARK    4  A    between atoms: C7_7  and  O9_9 
ROOT
HETATM    1  C1  UNL     1     -33.624   6.742   5.361  1.00 20.00     0.091 C 
HETATM    2  C7  UNL     1     -33.643   6.526   3.908  1.00 20.00     0.227 C 
HETATM    3  N8  UNL     1     -33.609   6.914   6.508  1.00 20.00    -0.195 NA
ENDROOT
BRANCH   2   4
HETATM    4  C5  UNL     1     -34.507   5.325   3.516  1.00 20.00     0.046 C 
BRANCH   4   5
HETATM    5  C4  UNL     1     -35.482   4.901   4.616  1.00 20.00    -0.001 C 
HETATM    6  C2  UNL     1     -34.914   3.766   5.454  1.00 20.00     0.005 C 
ENDBRANCH   4   5
ENDBRANCH   2   4
BRANCH   2   7
HETATM    7  O9  UNL     1     -32.315   6.271   3.451  1.00 20.00    -0.372 OA
BRANCH   7   8
HETATM    8  C6  UNL     1     -31.585   7.477   3.289  1.00 20.00     0.165 C 
HETATM    9  C3  UNL     1     -32.092   8.200   2.060  1.00 20.00     0.033 C 
ENDBRANCH   7   8
ENDBRANCH   2   7
TORSDOF 4
ENDMDL
MODEL 3
REMARK VINA RESULT:      -3.9     11.723     12.936
REMARK  4 active torsions:
REMARK  status: ('A' for Active; 'I' for Inactive)
REMARK    1  A    between atoms: C4_4  and  C5_5 
REMARK    2  A    between atoms: C5_5  and  C7_7 
REMARK    3  A    between atoms: C6_6  and  O9_9 
REMARK    4  A    between atoms: C7_7  and  O9_9 
ROOT
HETATM    1  C1  UNL     1     -34.870   4.641   4.675  1.00 20.00     0.091 C 
HETATM    2  C7  UNL     1     -34.380   5.945   4.206  1.00 20.00     0.227 C 
HETATM    3  N8  UNL     1     -35.257   3.613   5.046  1.00 20.00    -0.195 NA
ENDROOT
BRANCH   2   4
HETATM    4  C5  UNL     1     -33.611   5.830   2.887  1.00 20.00     0.046 C 
BRANCH   4   5
HETATM    5  C4  UNL     1     -32.194   6.402   2.967  1.00 20.00    -0.001 C 
HETATM    6  C2  UNL     1     -32.122   7.792   2.354  1.00 20.00     0.005 C 
ENDBRANCH   4   5
ENDBRANCH   2   4
BRANCH   2   7
HETATM    7  O9  UNL     1     -33.492   6.494   5.179  1.00 20.00    -0.372 OA
BRANCH   7   8
HETATM    8  C6  UNL     1     -34.091   6.526   6.465  1.00 20.00     0.165 C 
HETATM    9  C3  UNL     1     -33.456   7.633   7.278  1.00 20.00     0.033 C 
ENDBRANCH   7   8
ENDBRANCH   2   7
TORSDOF 4
ENDMDL
MODEL 4
REMARK VINA RESULT:      -3.8      3.050      3.565
REMARK  4 active torsions:
REMARK  status: ('A' for Active; 'I' for Inactive)
REMARK    1  A    between atoms: C4_4  and  C5_5 
REMARK    2  A    between atoms: C5_5  and  C7_7 
REMARK    3  A    between atoms: C6_6  and  O9_9 
REMARK    4  A    between atoms: C7_7  and  O9_9 
ROOT
HETATM    1  C1  UNL     1     -35.370  13.587  -4.303  1.00 20.00     0.091 C 
HETATM    2  C7  UNL     1     -36.373  14.640  -4.090  1.00 20.00     0.227 C 
HETATM    3  N8  UNL     1     -34.579  12.756  -4.473  1.00 20.00    -0.195 NA
ENDROOT
BRANCH   2   4
HETATM    4  C5  UNL     1     -36.021  15.539  -2.901  1.00 20.00     0.046 C 
BRANCH   4   5
HETATM    5  C4  UNL     1     -34.514  15.727  -2.716  1.00 20.00    -0.001 C 
HETATM    6  C2  UNL     1     -34.210  16.625  -1.526  1.00 20.00     0.005 C 
ENDBRANCH   4   5
ENDBRANCH   2   4
BRANCH   2   7
HETATM    7  O9  UNL     1     -37.639  14.039  -3.818  1.00 20.00    -0.372 OA
BRANCH   7   8
HETATM    8  C6  UNL     1     -38.672  15.009  -3.773  1.00 20.00     0.165 C 
HETATM    9  C3  UNL     1     -39.833  14.535  -4.621  1.00 20.00     0.033 C 
ENDBRANCH   7   8
ENDBRANCH   2   7
TORSDOF 4
ENDMDL
MODEL 5
REMARK VINA RESULT:      -3.8      1.159      3.246
REMARK  4 active torsions:
REMARK  status: ('A' for Active; 'I' for Inactive)
REMARK    1  A    between atoms: C4_4  and  C5_5 
REMARK    2  A    between atoms: C5_5  and  C7_7 
REMARK    3  A    between atoms: C6_6  and  O9_9 
REMARK    4  A    between atoms: C7_7  and  O9_9 
ROOT
HETATM    1  C1  UNL     1     -34.834  13.904  -4.059  1.00 20.00     0.091 C 
HETATM    2  C7  UNL     1     -34.660  15.309  -3.666  1.00 20.00     0.227 C 
HETATM    3  N8  UNL     1     -34.972  12.795  -4.369  1.00 20.00    -0.195 NA
ENDROOT
BRANCH   2   4
HETATM    4  C5  UNL     1     -33.303  15.866  -4.104  1.00 20.00     0.046 C 
BRANCH   4   5
HETATM    5  C4  UNL     1     -33.371  16.650  -5.416  1.00 20.00    -0.001 C 
HETATM    6  C2  UNL     1     -33.528  18.142  -5.163  1.00 20.00     0.005 C 
ENDBRANCH   4   5
ENDBRANCH   2   4
BRANCH   2   7
HETATM    7  O9  UNL     1     -34.733  15.414  -2.244  1.00 20.00    -0.372 OA
BRANCH   7   8
HETATM    8  C6  UNL     1     -34.139  16.618  -1.784  1.00 20.00     0.165 C 
HETATM    9  C3  UNL     1     -34.679  16.941  -0.408  1.00 20.00     0.033 C 
ENDBRANCH   7   8
ENDBRANCH   2   7
TORSDOF 4
ENDMDL
MODEL 6
REMARK VINA RESULT:      -3.7      1.760      2.022
REMARK  4 active torsions:
REMARK  status: ('A' for Active; 'I' for Inactive)
REMARK    1  A    between atoms: C4_4  and  C5_5 
REMARK    2  A    between atoms: C5_5  and  C7_7 
REMARK    3  A    between atoms: C6_6  and  O9_9 
REMARK    4  A    between atoms: C7_7  and  O9_9 
ROOT
HETATM    1  C1  UNL     1     -36.217  14.252  -3.868  1.00 20.00     0.091 C 
HETATM    2  C7  UNL     1     -34.751  14.163  -3.820  1.00 20.00     0.227 C 
HETATM    3  N8  UNL     1     -37.374  14.322  -3.906  1.00 20.00    -0.195 NA
ENDROOT
BRANCH   2   4
HETATM    4  C5  UNL     1     -34.117  15.423  -3.225  1.00 20.00     0.046 C 
BRANCH   4   5
HETATM    5  C4  UNL     1     -34.827  15.915  -1.962  1.00 20.00    -0.001 C 
HETATM    6  C2  UNL     1     -34.030  17.010  -1.268  1.00 20.00     0.005 C 
ENDBRANCH   4   5
ENDBRANCH   2   4
BRANCH   2   7
HETATM    7  O9  UNL     1     -34.243  14.007  -5.145  1.00 20.00    -0.372 OA
BRANCH   7   8
HETATM    8  C6  UNL     1     -34.313  15.224  -5.871  1.00 20.00     0.165 C 
HETATM    9  C3  UNL     1     -34.630  14.917  -7.319  1.00 20.00     0.033 C 
ENDBRANCH   7   8
ENDBRANCH   2   7
TORSDOF 4
ENDMDL
MODEL 7
REMARK VINA RESULT:      -3.7      2.342      4.059
REMARK  4 active torsions:
REMARK  status: ('A' for Active; 'I' for Inactive)
REMARK    1  A    between atoms: C4_4  and  C5_5 
REMARK    2  A    between atoms: C5_5  and  C7_7 
REMARK    3  A    between atoms: C6_6  and  O9_9 
REMARK    4  A    between atoms: C7_7  and  O9_9 
ROOT
HETATM    1  C1  UNL     1     -37.408  14.724  -3.858  1.00 20.00     0.091 C 
HETATM    2  C7  UNL     1     -36.050  15.280  -3.778  1.00 20.00     0.227 C 
HETATM    3  N8  UNL     1     -38.480  14.287  -3.922  1.00 20.00    -0.195 NA
ENDROOT
BRANCH   2   4
HETATM    4  C5  UNL     1     -34.981  14.185  -3.741  1.00 20.00     0.046 C 
BRANCH   4   5
HETATM    5  C4  UNL     1     -34.797  13.480  -5.086  1.00 20.00    -0.001 C 
HETATM    6  C2  UNL     1     -34.611  14.480  -6.217  1.00 20.00     0.005 C 
ENDBRANCH   4   5
ENDBRANCH   2   4
BRANCH   2   7
HETATM    7  O9  UNL     1     -35.924  16.048  -2.581  1.00 20.00    -0.372 OA
BRANCH   7   8
HETATM    8  C6  UNL     1     -34.586  16.056  -2.111  1.00 20.00     0.165 C 
HETATM    9  C3  UNL     1     -34.542  16.724  -0.753  1.00 20.00     0.033 C 
ENDBRANCH   7   8
ENDBRANCH   2   7
TORSDOF 4
ENDMDL
MODEL 8
REMARK VINA RESULT:      -3.7      2.028      3.971
REMARK  4 active torsions:
REMARK  status: ('A' for Active; 'I' for Inactive)
REMARK    1  A    between atoms: C4_4  and  C5_5 
REMARK    2  A    between atoms: C5_5  and  C7_7 
REMARK    3  A    between atoms: C6_6  and  O9_9 
REMARK    4  A    between atoms: C7_7  and  O9_9 
ROOT
HETATM    1  C1  UNL     1     -33.441  16.763  -4.434  1.00 20.00     0.091 C 
HETATM    2  C7  UNL     1     -33.401  16.011  -3.172  1.00 20.00     0.227 C 
HETATM    3  N8  UNL     1     -33.471  17.356  -5.430  1.00 20.00    -0.195 NA
ENDROOT
BRANCH   2   4
HETATM    4  C5  UNL     1     -34.460  14.907  -3.126  1.00 20.00     0.046 C 
BRANCH   4   5
HETATM    5  C4  UNL     1     -33.990  13.596  -3.758  1.00 20.00    -0.001 C 
HETATM    6  C2  UNL     1     -34.841  13.224  -4.963  1.00 20.00     0.005 C 
ENDBRANCH   4   5
ENDBRANCH   2   4
BRANCH   2   7
HETATM    7  O9  UNL     1     -33.656  16.901  -2.084  1.00 20.00    -0.372 OA
BRANCH   7   8
HETATM    8  C6  UNL     1     -34.712  16.426  -1.265  1.00 20.00     0.165 C 
HETATM    9  C3  UNL     1     -34.755  17.242   0.008  1.00 20.00     0.033 C 
ENDBRANCH   7   8
ENDBRANCH   2   7
TORSDOF 4
ENDMDL
MODEL 9
REMARK VINA RESULT:      -3.6      2.089      2.938
REMARK  4 active torsions:
REMARK  status: ('A' for Active; 'I' for Inactive)
REMARK    1  A    between atoms: C4_4  and  C5_5 
REMARK    2  A    between atoms: C5_5  and  C7_7 
REMARK    3  A    between atoms: C6_6  and  O9_9 
REMARK    4  A    between atoms: C7_7  and  O9_9 
ROOT
HETATM    1  C1  UNL     1     -33.604  17.332  -4.585  1.00 20.00     0.091 C 
HETATM    2  C7  UNL     1     -33.776  16.201  -3.663  1.00 20.00     0.227 C 
HETATM    3  N8  UNL     1     -33.469  18.225  -5.313  1.00 20.00    -0.195 NA
ENDROOT
BRANCH   2   4
HETATM    4  C5  UNL     1     -33.581  16.613  -2.202  1.00 20.00     0.046 C 
BRANCH   4   5
HETATM    5  C4  UNL     1     -34.812  16.348  -1.333  1.00 20.00    -0.001 C 
HETATM    6  C2  UNL     1     -34.786  17.186  -0.063  1.00 20.00     0.005 C 
ENDBRANCH   4   5
ENDBRANCH   2   4
BRANCH   2   7
HETATM    7  O9  UNL     1     -32.806  15.196  -3.962  1.00 20.00    -0.372 OA
BRANCH   7   8
HETATM    8  C6  UNL     1     -33.296  13.900  -3.660  1.00 20.00     0.165 C 
HETATM    9  C3  UNL     1     -34.604  13.684  -4.389  1.00 20.00     0.033 C 
ENDBRANCH   7   8
ENDBRANCH   2   7
TORSDOF 4
ENDMDL
