MODEL 1
REMARK VINA RESULT:      -4.2      0.000      0.000
REMARK  1 active torsions:
REMARK  status: ('A' for Active; 'I' for Inactive)
REMARK    1  A    between atoms: C6_6  and  O9_9 
ROOT
HETATM    1  C1  UNL     1     -37.105  14.537  -3.941  1.00 20.00     0.098 C 
HETATM    2  C2  UNL     1     -33.537  15.216  -3.111  1.00 20.00     0.004 C 
HETATM    3  C3  UNL     1     -33.442  13.874  -3.838  1.00 20.00     0.004 C 
HETATM    4  C4  UNL     1     -35.029  15.520  -2.978  1.00 20.00     0.053 C 
HETATM    5  C5  UNL     1     -34.878  13.455  -4.156  1.00 20.00     0.053 C 
HETATM    6  C6  UNL     1     -35.670  14.759  -4.135  1.00 20.00     0.148 C 
HETATM    7  N8  UNL     1     -38.241  14.360  -3.787  1.00 20.00    -0.194 NA
ENDROOT
BRANCH   6   8
HETATM    8  O9  UNL     1     -35.448  15.455  -5.360  1.00 20.00    -0.370 OA
HETATM    9  C7  UNL     1     -35.816  14.667  -6.485  1.00 20.00     0.204 C 
ENDBRANCH   6   8
TORSDOF 1
ENDMDL
MODEL 2
REMARK VINA RESULT:      -4.1      1.499      2.062
REMARK  1 active torsions:
REMARK  status: ('A' for Active; 'I' for Inactive)
REMARK    1  A    between atoms: C6_6  and  O9_9 
ROOT
HETATM    1  C1  UNL     1     -36.703  14.670  -3.675  1.00 20.00     0.098 C 
HETATM    2  C2  UNL     1     -33.548  16.628  -3.971  1.00 20.00     0.004 C 
HETATM    3  C3  UNL     1     -33.706  16.514  -2.456  1.00 20.00     0.004 C 
HETATM    4  C4  UNL     1     -34.809  16.013  -4.577  1.00 20.00     0.053 C 
HETATM    5  C5  UNL     1     -35.031  15.789  -2.216  1.00 20.00     0.053 C 
HETATM    6  C6  UNL     1     -35.292  15.030  -3.514  1.00 20.00     0.148 C 
HETATM    7  N8  UNL     1     -37.821  14.386  -3.802  1.00 20.00    -0.194 NA
ENDROOT
BRANCH   6   8
HETATM    8  O9  UNL     1     -34.486  13.855  -3.532  1.00 20.00    -0.370 OA
HETATM    9  C7  UNL     1     -34.548  13.195  -4.790  1.00 20.00     0.204 C 
ENDBRANCH   6   8
TORSDOF 1
ENDMDL
MODEL 3
REMARK VINA RESULT:      -3.9      1.847      2.432
REMARK  1 active torsions:
REMARK  status: ('A' for Active; 'I' for Inactive)
REMARK    1  A    between atoms: C6_6  and  O9_9 
ROOT
HETATM    1  C1  UNL     1     -34.713  13.742  -4.481  1.00 20.00     0.098 C 
HETATM    2  C2  UNL     1     -35.147  16.561  -2.085  1.00 20.00     0.004 C 
HETATM    3  C3  UNL     1     -33.646  16.614  -2.365  1.00 20.00     0.004 C 
HETATM    4  C4  UNL     1     -35.669  15.320  -2.809  1.00 20.00     0.053 C 
HETATM    5  C5  UNL     1     -33.338  15.433  -3.287  1.00 20.00     0.053 C 
HETATM    6  C6  UNL     1     -34.675  15.105  -3.946  1.00 20.00     0.148 C 
HETATM    7  N8  UNL     1     -34.742  12.662  -4.905  1.00 20.00    -0.194 NA
ENDROOT
BRANCH   6   8
HETATM    8  O9  UNL     1     -34.917  16.044  -4.991  1.00 20.00    -0.370 OA
HETATM    9  C7  UNL     1     -33.911  15.984  -5.994  1.00 20.00     0.204 C 
ENDBRANCH   6   8
TORSDOF 1
ENDMDL
MODEL 4
REMARK VINA RESULT:      -3.8      1.577      2.389
REMARK  1 active torsions:
REMARK  status: ('A' for Active; 'I' for Inactive)
REMARK    1  A    between atoms: C6_6  and  O9_9 
ROOT
HETATM    1  C1  UNL     1     -36.658  14.743  -3.668  1.00 20.00     0.098 C 
HETATM    2  C2  UNL     1     -32.934  14.824  -3.736  1.00 20.00     0.004 C 
HETATM    3  C3  UNL     1     -33.290  16.092  -4.513  1.00 20.00     0.004 C 
HETATM    4  C4  UNL     1     -34.257  14.115  -3.453  1.00 20.00     0.053 C 
HETATM    5  C5  UNL     1     -34.816  16.116  -4.618  1.00 20.00     0.053 C 
HETATM    6  C6  UNL     1     -35.292  15.235  -3.466  1.00 20.00     0.148 C 
HETATM    7  N8  UNL     1     -37.739  14.353  -3.829  1.00 20.00    -0.194 NA
ENDROOT
BRANCH   6   8
HETATM    8  O9  UNL     1     -35.220  15.981  -2.254  1.00 20.00    -0.370 OA
HETATM    9  C7  UNL     1     -35.975  17.183  -2.331  1.00 20.00     0.204 C 
ENDBRANCH   6   8
TORSDOF 1
ENDMDL
MODEL 5
REMARK VINA RESULT:      -3.8      2.144      3.039
REMARK  1 active torsions:
REMARK  status: ('A' for Active; 'I' for Inactive)
REMARK    1  A    between atoms: C6_6  and  O9_9 
ROOT
HETATM    1  C1  UNL     1     -34.467  15.894  -2.302  1.00 20.00     0.098 C 
HETATM    2  C2  UNL     1     -34.499  13.278  -4.954  1.00 20.00     0.004 C 
HETATM    3  C3  UNL     1     -35.452  14.324  -5.532  1.00 20.00     0.004 C 
HETATM    4  C4  UNL     1     -34.135  13.766  -3.552  1.00 20.00     0.053 C 
HETATM    5  C5  UNL     1     -35.579  15.421  -4.474  1.00 20.00     0.053 C 
HETATM    6  C6  UNL     1     -34.320  15.279  -3.623  1.00 20.00     0.148 C 
HETATM    7  N8  UNL     1     -34.585  16.381  -1.255  1.00 20.00    -0.194 NA
ENDROOT
BRANCH   6   8
HETATM    8  O9  UNL     1     -33.225  15.873  -4.316  1.00 20.00    -0.370 OA
HETATM    9  C7  UNL     1     -33.488  17.230  -4.647  1.00 20.00     0.204 C 
ENDBRANCH   6   8
TORSDOF 1
ENDMDL
MODEL 6
REMARK VINA RESULT:      -3.8      1.903      2.534
REMARK  1 active torsions:
REMARK  status: ('A' for Active; 'I' for Inactive)
REMARK    1  A    between atoms: C6_6  and  O9_9 
ROOT
HETATM    1  C1  UNL     1     -34.803  13.718  -4.520  1.00 20.00     0.098 C 
HETATM    2  C2  UNL     1     -33.910  16.937  -2.872  1.00 20.00     0.004 C 
HETATM    3  C3  UNL     1     -33.575  17.229  -4.335  1.00 20.00     0.004 C 
HETATM    4  C4  UNL     1     -34.302  15.462  -2.814  1.00 20.00     0.053 C 
HETATM    5  C5  UNL     1     -33.831  15.930  -5.101  1.00 20.00     0.053 C 
HETATM    6  C6  UNL     1     -34.805  15.152  -4.221  1.00 20.00     0.148 C 
HETATM    7  N8  UNL     1     -34.802  12.582  -4.758  1.00 20.00    -0.194 NA
ENDROOT
BRANCH   6   8
HETATM    8  O9  UNL     1     -36.115  15.684  -4.400  1.00 20.00    -0.370 OA
HETATM    9  C7  UNL     1     -37.077  14.983  -3.622  1.00 20.00     0.204 C 
ENDBRANCH   6   8
TORSDOF 1
ENDMDL
MODEL 7
REMARK VINA RESULT:      -3.7      1.424      2.832
REMARK  1 active torsions:
REMARK  status: ('A' for Active; 'I' for Inactive)
REMARK    1  A    between atoms: C6_6  and  O9_9 
ROOT
HETATM    1  C1  UNL     1     -36.698  14.436  -4.404  1.00 20.00     0.098 C 
HETATM    2  C2  UNL     1     -34.559  15.170  -7.365  1.00 20.00     0.004 C 
HETATM    3  C3  UNL     1     -33.963  16.099  -6.308  1.00 20.00     0.004 C 
HETATM    4  C4  UNL     1     -35.787  14.528  -6.721  1.00 20.00     0.053 C 
HETATM    5  C5  UNL     1     -34.829  15.938  -5.057  1.00 20.00     0.053 C 
HETATM    6  C6  UNL     1     -35.492  14.574  -5.225  1.00 20.00     0.148 C 
HETATM    7  N8  UNL     1     -37.653  14.327  -3.755  1.00 20.00    -0.194 NA
ENDROOT
BRANCH   6   8
HETATM    8  O9  UNL     1     -34.552  13.558  -4.881  1.00 20.00    -0.370 OA
HETATM    9  C7  UNL     1     -34.059  13.725  -3.559  1.00 20.00     0.204 C 
ENDBRANCH   6   8
TORSDOF 1
ENDMDL
MODEL 8
REMARK VINA RESULT:      -3.7     11.349     12.259
REMARK  1 active torsions:
REMARK  status: ('A' for Active; 'I' for Inactive)
REMARK    1  A    between atoms: C6_6  and  O9_9 
ROOT
HETATM    1  C1  UNL     1     -41.911   3.689  -2.428  1.00 20.00     0.098 C 
HETATM    2  C2  UNL     1     -40.772   6.479  -0.237  1.00 20.00     0.004 C 
HETATM    3  C3  UNL     1     -41.494   7.231  -1.354  1.00 20.00     0.004 C 
HETATM    4  C4  UNL     1     -40.768   5.007  -0.650  1.00 20.00     0.053 C 
HETATM    5  C5  UNL     1     -41.938   6.173  -2.366  1.00 20.00     0.053 C 
HETATM    6  C6  UNL     1     -41.979   4.874  -1.568  1.00 20.00     0.148 C 
HETATM    7  N8  UNL     1     -41.856   2.751  -3.109  1.00 20.00    -0.194 NA
ENDROOT
BRANCH   6   8
HETATM    8  O9  UNL     1     -43.177   4.844  -0.796  1.00 20.00    -0.370 OA
HETATM    9  C7  UNL     1     -43.186   3.754   0.117  1.00 20.00     0.204 C 
ENDBRANCH   6   8
TORSDOF 1
ENDMDL
MODEL 9
REMARK VINA RESULT:      -3.7      2.143      3.554
REMARK  1 active torsions:
REMARK  status: ('A' for Active; 'I' for Inactive)
REMARK    1  A    between atoms: C6_6  and  O9_9 
ROOT
HETATM    1  C1  UNL     1     -34.701  13.776  -4.936  1.00 20.00     0.098 C 
HETATM    2  C2  UNL     1     -34.617  16.567  -7.401  1.00 20.00     0.004 C 
HETATM    3  C3  UNL     1     -35.515  17.142  -6.306  1.00 20.00     0.004 C 
HETATM    4  C4  UNL     1     -34.330  15.121  -6.998  1.00 20.00     0.053 C 
HETATM    5  C5  UNL     1     -35.687  16.033  -5.267  1.00 20.00     0.053 C 
HETATM    6  C6  UNL     1     -34.484  15.119  -5.481  1.00 20.00     0.148 C 
HETATM    7  N8  UNL     1     -34.874  12.713  -4.504  1.00 20.00    -0.194 NA
ENDROOT
BRANCH   6   8
HETATM    8  O9  UNL     1     -33.340  15.710  -4.871  1.00 20.00    -0.370 OA
HETATM    9  C7  UNL     1     -33.515  15.871  -3.470  1.00 20.00     0.204 C 
ENDBRANCH   6   8
TORSDOF 1
ENDMDL
