MODEL 1
REMARK VINA RESULT:      -4.0      0.000      0.000
REMARK  3 active torsions:
REMARK  status: ('A' for Active; 'I' for Inactive)
REMARK    1  A    between atoms: C6_6  and  C7_7 
REMARK    2  A    between atoms: C6_6  and  C8_8 
REMARK    3  A    between atoms: C8_8  and  O10_10 
ROOT
HETATM    1  C1  UNL     1     -35.015  13.937  -3.982  1.00 20.00     0.097 C 
HETATM    2  C4  UNL     1     -36.687  15.627  -3.361  1.00 20.00     0.062 C 
HETATM    3  C8  UNL     1     -35.206  15.363  -3.659  1.00 20.00     0.144 C 
HETATM    4  N9  UNL     1     -34.865  12.815  -4.234  1.00 20.00    -0.194 NA
ENDROOT
BRANCH   3   5
HETATM    5  C6  UNL     1     -34.353  15.790  -2.444  1.00 20.00     0.057 C 
BRANCH   5   6
HETATM    6  C7  UNL     1     -34.722  17.125  -1.750  1.00 20.00    -0.019 C 
HETATM    7  C2  UNL     1     -34.742  16.914  -0.231  1.00 20.00     0.009 C 
HETATM    8  C3  UNL     1     -33.776  18.276  -2.088  1.00 20.00     0.009 C 
ENDBRANCH   5   6
ENDBRANCH   3   5
BRANCH   3   9
HETATM    9  O10 UNL     1     -34.851  16.166  -4.784  1.00 20.00    -0.371 OA
HETATM   10  C5  UNL     1     -33.465  16.070  -5.070  1.00 20.00     0.204 C 
ENDBRANCH   3   9
TORSDOF 3
ENDMDL
MODEL 2
REMARK VINA RESULT:      -3.9      1.946      2.898
REMARK  3 active torsions:
REMARK  status: ('A' for Active; 'I' for Inactive)
REMARK    1  A    between atoms: C6_6  and  C7_7 
REMARK    2  A    between atoms: C6_6  and  C8_8 
REMARK    3  A    between atoms: C8_8  and  O10_10 
ROOT
HETATM    1  C1  UNL     1     -35.931  15.165  -5.443  1.00 20.00     0.097 C 
HETATM    2  C4  UNL     1     -34.853  13.676  -3.813  1.00 20.00     0.062 C 
HETATM    3  C8  UNL     1     -35.994  14.671  -4.056  1.00 20.00     0.144 C 
HETATM    4  N9  UNL     1     -35.879  15.555  -6.534  1.00 20.00    -0.194 NA
ENDROOT
BRANCH   3   5
HETATM    5  C6  UNL     1     -35.895  15.826  -3.035  1.00 20.00     0.057 C 
BRANCH   5   6
HETATM    6  C7  UNL     1     -34.525  16.055  -2.350  1.00 20.00    -0.019 C 
HETATM    7  C2  UNL     1     -33.724  17.085  -3.156  1.00 20.00     0.009 C 
HETATM    8  C3  UNL     1     -34.634  16.522  -0.899  1.00 20.00     0.009 C 
ENDBRANCH   5   6
ENDBRANCH   3   5
BRANCH   3   9
HETATM    9  O10 UNL     1     -37.219  13.968  -3.848  1.00 20.00    -0.371 OA
HETATM   10  C5  UNL     1     -38.330  14.851  -3.867  1.00 20.00     0.204 C 
ENDBRANCH   3   9
TORSDOF 3
ENDMDL
MODEL 3
REMARK VINA RESULT:      -3.9      2.313      4.225
REMARK  3 active torsions:
REMARK  status: ('A' for Active; 'I' for Inactive)
REMARK    1  A    between atoms: C6_6  and  C7_7 
REMARK    2  A    between atoms: C6_6  and  C8_8 
REMARK    3  A    between atoms: C8_8  and  O10_10 
ROOT
HETATM    1  C1  UNL     1     -35.368  13.544  -4.300  1.00 20.00     0.097 C 
HETATM    2  C4  UNL     1     -35.936  15.636  -3.144  1.00 20.00     0.062 C 
HETATM    3  C8  UNL     1     -36.369  14.622  -4.210  1.00 20.00     0.144 C 
HETATM    4  N9  UNL     1     -34.578  12.697  -4.373  1.00 20.00    -0.194 NA
ENDROOT
BRANCH   3   5
HETATM    5  C6  UNL     1     -36.552  15.345  -5.563  1.00 20.00     0.057 C 
BRANCH   5   6
HETATM    6  C7  UNL     1     -35.362  15.309  -6.555  1.00 20.00    -0.019 C 
HETATM    7  C2  UNL     1     -35.798  14.594  -7.839  1.00 20.00     0.009 C 
HETATM    8  C3  UNL     1     -34.815  16.692  -6.907  1.00 20.00     0.009 C 
ENDBRANCH   5   6
ENDBRANCH   3   5
BRANCH   3   9
HETATM    9  O10 UNL     1     -37.624  14.083  -3.795  1.00 20.00    -0.371 OA
HETATM   10  C5  UNL     1     -38.654  15.056  -3.871  1.00 20.00     0.204 C 
ENDBRANCH   3   9
TORSDOF 3
ENDMDL
MODEL 4
REMARK VINA RESULT:      -3.9      1.561      2.234
REMARK  3 active torsions:
REMARK  status: ('A' for Active; 'I' for Inactive)
REMARK    1  A    between atoms: C6_6  and  C7_7 
REMARK    2  A    between atoms: C6_6  and  C8_8 
REMARK    3  A    between atoms: C8_8  and  O10_10 
ROOT
HETATM    1  C1  UNL     1     -36.945  14.757  -3.736  1.00 20.00     0.097 C 
HETATM    2  C4  UNL     1     -35.157  15.858  -5.013  1.00 20.00     0.062 C 
HETATM    3  C8  UNL     1     -35.618  15.389  -3.626  1.00 20.00     0.144 C 
HETATM    4  N9  UNL     1     -37.990  14.261  -3.822  1.00 20.00    -0.194 NA
ENDROOT
BRANCH   3   5
HETATM    5  C6  UNL     1     -35.639  16.592  -2.658  1.00 20.00     0.057 C 
BRANCH   5   6
HETATM    6  C7  UNL     1     -34.410  16.783  -1.734  1.00 20.00    -0.019 C 
HETATM    7  C2  UNL     1     -33.615  18.010  -2.199  1.00 20.00     0.009 C 
HETATM    8  C3  UNL     1     -34.770  16.944  -0.258  1.00 20.00     0.009 C 
ENDBRANCH   5   6
ENDBRANCH   3   5
BRANCH   3   9
HETATM    9  O10 UNL     1     -34.663  14.434  -3.165  1.00 20.00    -0.371 OA
HETATM   10  C5  UNL     1     -34.230  13.587  -4.218  1.00 20.00     0.204 C 
ENDBRANCH   3   9
TORSDOF 3
ENDMDL
MODEL 5
REMARK VINA RESULT:      -3.9      1.571      3.487
REMARK  3 active torsions:
REMARK  status: ('A' for Active; 'I' for Inactive)
REMARK    1  A    between atoms: C6_6  and  C7_7 
REMARK    2  A    between atoms: C6_6  and  C8_8 
REMARK    3  A    between atoms: C8_8  and  O10_10 
ROOT
HETATM    1  C1  UNL     1     -34.746  13.786  -4.082  1.00 20.00     0.097 C 
HETATM    2  C4  UNL     1     -32.819  15.237  -3.614  1.00 20.00     0.062 C 
HETATM    3  C8  UNL     1     -34.349  15.152  -3.697  1.00 20.00     0.144 C 
HETATM    4  N9  UNL     1     -35.059  12.712  -4.389  1.00 20.00    -0.194 NA
ENDROOT
BRANCH   3   5
HETATM    5  C6  UNL     1     -34.868  16.202  -4.703  1.00 20.00     0.057 C 
BRANCH   5   6
HETATM    6  C7  UNL     1     -33.918  16.614  -5.856  1.00 20.00    -0.019 C 
HETATM    7  C2  UNL     1     -34.425  16.006  -7.169  1.00 20.00     0.009 C 
HETATM    8  C3  UNL     1     -33.773  18.126  -6.021  1.00 20.00     0.009 C 
ENDBRANCH   5   6
ENDBRANCH   3   5
BRANCH   3   9
HETATM    9  O10 UNL     1     -34.860  15.457  -2.399  1.00 20.00    -0.371 OA
HETATM   10  C5  UNL     1     -34.134  16.515  -1.794  1.00 20.00     0.204 C 
ENDBRANCH   3   9
TORSDOF 3
ENDMDL
MODEL 6
REMARK VINA RESULT:      -3.8      1.336      1.922
REMARK  3 active torsions:
REMARK  status: ('A' for Active; 'I' for Inactive)
REMARK    1  A    between atoms: C6_6  and  C7_7 
REMARK    2  A    between atoms: C6_6  and  C8_8 
REMARK    3  A    between atoms: C8_8  and  O10_10 
ROOT
HETATM    1  C1  UNL     1     -35.627  13.767  -4.357  1.00 20.00     0.097 C 
HETATM    2  C4  UNL     1     -37.798  14.766  -3.786  1.00 20.00     0.062 C 
HETATM    3  C8  UNL     1     -36.403  15.020  -4.371  1.00 20.00     0.144 C 
HETATM    4  N9  UNL     1     -35.016  12.781  -4.344  1.00 20.00    -0.194 NA
ENDROOT
BRANCH   3   5
HETATM    5  C6  UNL     1     -35.701  16.133  -3.561  1.00 20.00     0.057 C 
BRANCH   5   6
HETATM    6  C7  UNL     1     -34.624  15.697  -2.538  1.00 20.00    -0.019 C 
HETATM    7  C2  UNL     1     -33.233  15.903  -3.151  1.00 20.00     0.009 C 
HETATM    8  C3  UNL     1     -34.704  16.442  -1.206  1.00 20.00     0.009 C 
ENDBRANCH   5   6
ENDBRANCH   3   5
BRANCH   3   9
HETATM    9  O10 UNL     1     -36.583  15.464  -5.716  1.00 20.00    -0.371 OA
HETATM   10  C5  UNL     1     -35.352  15.871  -6.293  1.00 20.00     0.204 C 
ENDBRANCH   3   9
TORSDOF 3
ENDMDL
MODEL 7
REMARK VINA RESULT:      -3.7      2.101      2.733
REMARK  3 active torsions:
REMARK  status: ('A' for Active; 'I' for Inactive)
REMARK    1  A    between atoms: C6_6  and  C7_7 
REMARK    2  A    between atoms: C6_6  and  C8_8 
REMARK    3  A    between atoms: C8_8  and  O10_10 
ROOT
HETATM    1  C1  UNL     1     -37.179  14.756  -4.377  1.00 20.00     0.097 C 
HETATM    2  C4  UNL     1     -36.784  16.297  -6.249  1.00 20.00     0.062 C 
HETATM    3  C8  UNL     1     -36.137  15.339  -5.240  1.00 20.00     0.144 C 
HETATM    4  N9  UNL     1     -37.999  14.299  -3.695  1.00 20.00    -0.194 NA
ENDROOT
BRANCH   3   5
HETATM    5  C6  UNL     1     -35.074  16.101  -4.417  1.00 20.00     0.057 C 
BRANCH   5   6
HETATM    6  C7  UNL     1     -34.421  15.349  -3.230  1.00 20.00    -0.019 C 
HETATM    7  C2  UNL     1     -32.953  15.059  -3.565  1.00 20.00     0.009 C 
HETATM    8  C3  UNL     1     -34.497  16.108  -1.906  1.00 20.00     0.009 C 
ENDBRANCH   5   6
ENDBRANCH   3   5
BRANCH   3   9
HETATM    9  O10 UNL     1     -35.495  14.307  -5.989  1.00 20.00    -0.371 OA
HETATM   10  C5  UNL     1     -34.617  14.848  -6.965  1.00 20.00     0.204 C 
ENDBRANCH   3   9
TORSDOF 3
ENDMDL
MODEL 8
REMARK VINA RESULT:      -3.7      1.917      2.585
REMARK  3 active torsions:
REMARK  status: ('A' for Active; 'I' for Inactive)
REMARK    1  A    between atoms: C6_6  and  C7_7 
REMARK    2  A    between atoms: C6_6  and  C8_8 
REMARK    3  A    between atoms: C8_8  and  O10_10 
ROOT
HETATM    1  C1  UNL     1     -33.777  16.157  -4.876  1.00 20.00     0.097 C 
HETATM    2  C4  UNL     1     -32.557  14.492  -3.543  1.00 20.00     0.062 C 
HETATM    3  C8  UNL     1     -33.772  15.427  -3.596  1.00 20.00     0.144 C 
HETATM    4  N9  UNL     1     -33.779  16.734  -5.882  1.00 20.00    -0.194 NA
ENDROOT
BRANCH   3   5
HETATM    5  C6  UNL     1     -33.732  16.391  -2.389  1.00 20.00     0.057 C 
BRANCH   5   6
HETATM    6  C7  UNL     1     -35.056  16.622  -1.618  1.00 20.00    -0.019 C 
HETATM    7  C2  UNL     1     -34.734  17.017  -0.172  1.00 20.00     0.009 C 
HETATM    8  C3  UNL     1     -35.955  17.686  -2.245  1.00 20.00     0.009 C 
ENDBRANCH   5   6
ENDBRANCH   3   5
BRANCH   3   9
HETATM    9  O10 UNL     1     -34.939  14.609  -3.501  1.00 20.00    -0.371 OA
HETATM   10  C5  UNL     1     -34.790  13.411  -4.246  1.00 20.00     0.204 C 
ENDBRANCH   3   9
TORSDOF 3
ENDMDL
MODEL 9
REMARK VINA RESULT:      -3.6      2.156      3.754
REMARK  3 active torsions:
REMARK  status: ('A' for Active; 'I' for Inactive)
REMARK    1  A    between atoms: C6_6  and  C7_7 
REMARK    2  A    between atoms: C6_6  and  C8_8 
REMARK    3  A    between atoms: C8_8  and  O10_10 
ROOT
HETATM    1  C1  UNL     1     -37.438  14.578  -3.892  1.00 20.00     0.097 C 
HETATM    2  C4  UNL     1     -35.230  13.519  -4.092  1.00 20.00     0.062 C 
HETATM    3  C8  UNL     1     -35.991  14.846  -3.967  1.00 20.00     0.144 C 
HETATM    4  N9  UNL     1     -38.577  14.368  -3.835  1.00 20.00    -0.194 NA
ENDROOT
BRANCH   3   5
HETATM    5  C6  UNL     1     -35.641  15.754  -5.167  1.00 20.00     0.057 C 
BRANCH   5   6
HETATM    6  C7  UNL     1     -34.202  15.661  -5.734  1.00 20.00    -0.019 C 
HETATM    7  C2  UNL     1     -34.270  15.415  -7.246  1.00 20.00     0.009 C 
HETATM    8  C3  UNL     1     -33.353  16.903  -5.461  1.00 20.00     0.009 C 
ENDBRANCH   5   6
ENDBRANCH   3   5
BRANCH   3   9
HETATM    9  O10 UNL     1     -35.551  15.473  -2.763  1.00 20.00    -0.371 OA
HETATM   10  C5  UNL     1     -36.003  16.816  -2.686  1.00 20.00     0.204 C 
ENDBRANCH   3   9
TORSDOF 3
ENDMDL
