MODEL 1
REMARK VINA RESULT:      -4.7      0.000      0.000
REMARK  5 active torsions:
REMARK  status: ('A' for Active; 'I' for Inactive)
REMARK    1  A    between atoms: C2_2  and  C7_7 
REMARK    2  A    between atoms: C2_2  and  C8_8 
REMARK    3  A    between atoms: C3_3  and  C10_10 
REMARK    4  A    between atoms: C8_8  and  C10_10 
REMARK    5  A    between atoms: C9_9  and  C10_10 
ROOT
HETATM    1  C10 UNL     1     -33.940   6.319   4.395  1.00 20.00     0.058 C 
ENDROOT
BRANCH   1   2
HETATM    2  C3  UNL     1     -35.132   5.398   4.120  1.00 20.00     0.127 C 
HETATM    3  C4  UNL     1     -35.174   4.097   4.879  1.00 20.00     0.091 C 
HETATM    4  O11 UNL     1     -36.008   5.679   3.302  1.00 20.00    -0.298 OA
ENDBRANCH   1   2
BRANCH   1   5
HETATM    5  C8  UNL     1     -32.809   6.121   3.368  1.00 20.00     0.045 C 
BRANCH   5   6
HETATM    6  C2  UNL     1     -32.001   7.374   3.082  1.00 20.00    -0.089 C 
HETATM    7  C1  UNL     1     -31.216   7.915   4.028  1.00 20.00     0.014 C 
BRANCH   6   8
HETATM    8  C7  UNL     1     -32.104   8.010   1.713  1.00 20.00     0.029 C 
HETATM    9  C5  UNL     1     -32.477   9.485   1.764  1.00 20.00     0.010 C 
ENDBRANCH   6   8
ENDBRANCH   5   6
ENDBRANCH   1   5
BRANCH   1  10
HETATM   10  C9  UNL     1     -33.461   6.143   5.848  1.00 20.00     0.008 C 
HETATM   11  C6  UNL     1     -33.715   7.333   6.764  1.00 20.00     0.006 C 
ENDBRANCH   1  10
TORSDOF 5
ENDMDL
MODEL 2
REMARK VINA RESULT:      -4.6     10.680     11.980
REMARK  5 active torsions:
REMARK  status: ('A' for Active; 'I' for Inactive)
REMARK    1  A    between atoms: C2_2  and  C7_7 
REMARK    2  A    between atoms: C2_2  and  C8_8 
REMARK    3  A    between atoms: C3_3  and  C10_10 
REMARK    4  A    between atoms: C8_8  and  C10_10 
REMARK    5  A    between atoms: C9_9  and  C10_10 
ROOT
HETATM    1  C10 UNL     1     -33.883  15.166  -3.255  1.00 20.00     0.058 C 
ENDROOT
BRANCH   1   2
HETATM    2  C3  UNL     1     -33.883  13.734  -3.794  1.00 20.00     0.127 C 
HETATM    3  C4  UNL     1     -35.177  13.229  -4.379  1.00 20.00     0.091 C 
HETATM    4  O11 UNL     1     -32.891  13.007  -3.736  1.00 20.00    -0.298 OA
ENDBRANCH   1   2
BRANCH   1   5
HETATM    5  C8  UNL     1     -35.310  15.673  -2.966  1.00 20.00     0.045 C 
BRANCH   5   6
HETATM    6  C2  UNL     1     -35.375  16.823  -1.977  1.00 20.00    -0.089 C 
HETATM    7  C1  UNL     1     -36.149  17.893  -2.219  1.00 20.00     0.014 C 
BRANCH   6   8
HETATM    8  C7  UNL     1     -34.542  16.746  -0.716  1.00 20.00     0.029 C 
HETATM    9  C5  UNL     1     -33.517  17.866  -0.606  1.00 20.00     0.010 C 
ENDBRANCH   6   8
ENDBRANCH   5   6
ENDBRANCH   1   5
BRANCH   1  10
HETATM   10  C9  UNL     1     -33.106  16.091  -4.209  1.00 20.00     0.008 C 
HETATM   11  C6  UNL     1     -33.874  16.547  -5.442  1.00 20.00     0.006 C 
ENDBRANCH   1  10
TORSDOF 5
ENDMDL
MODEL 3
REMARK VINA RESULT:      -4.6     10.420     12.104
REMARK  5 active torsions:
REMARK  status: ('A' for Active; 'I' for Inactive)
REMARK    1  A    between atoms: C2_2  and  C7_7 
REMARK    2  A    between atoms: C2_2  and  C8_8 
REMARK    3  A    between atoms: C3_3  and  C10_10 
REMARK    4  A    between atoms: C8_8  and  C10_10 
REMARK    5  A    between atoms: C9_9  and  C10_10 
ROOT
HETATM    1  C10 UNL     1     -35.079  15.000  -3.466  1.00 20.00     0.058 C 
ENDROOT
BRANCH   1   2
HETATM    2  C3  UNL     1     -34.438  13.657  -3.822  1.00 20.00     0.127 C 
HETATM    3  C4  UNL     1     -32.955  13.530  -3.586  1.00 20.00     0.091 C 
HETATM    4  O11 UNL     1     -35.082  12.725  -4.302  1.00 20.00    -0.298 OA
ENDBRANCH   1   2
BRANCH   1   5
HETATM    5  C8  UNL     1     -35.522  15.778  -4.721  1.00 20.00     0.045 C 
BRANCH   5   6
HETATM    6  C2  UNL     1     -34.404  16.056  -5.710  1.00 20.00    -0.089 C 
HETATM    7  C1  UNL     1     -33.518  17.040  -5.484  1.00 20.00     0.014 C 
BRANCH   6   8
HETATM    8  C7  UNL     1     -34.313  15.210  -6.960  1.00 20.00     0.029 C 
HETATM    9  C5  UNL     1     -35.620  14.510  -7.307  1.00 20.00     0.010 C 
ENDBRANCH   6   8
ENDBRANCH   5   6
ENDBRANCH   1   5
BRANCH   1  10
HETATM   10  C9  UNL     1     -34.134  15.816  -2.564  1.00 20.00     0.008 C 
HETATM   11  C6  UNL     1     -34.787  16.445  -1.341  1.00 20.00     0.006 C 
ENDBRANCH   1  10
TORSDOF 5
ENDMDL
MODEL 4
REMARK VINA RESULT:      -4.5     10.905     12.319
REMARK  5 active torsions:
REMARK  status: ('A' for Active; 'I' for Inactive)
REMARK    1  A    between atoms: C2_2  and  C7_7 
REMARK    2  A    between atoms: C2_2  and  C8_8 
REMARK    3  A    between atoms: C3_3  and  C10_10 
REMARK    4  A    between atoms: C8_8  and  C10_10 
REMARK    5  A    between atoms: C9_9  and  C10_10 
ROOT
HETATM    1  C10 UNL     1     -33.689  16.472  -2.695  1.00 20.00     0.058 C 
ENDROOT
BRANCH   1   2
HETATM    2  C3  UNL     1     -33.832  17.260  -4.000  1.00 20.00     0.127 C 
HETATM    3  C4  UNL     1     -35.029  18.169  -4.115  1.00 20.00     0.091 C 
HETATM    4  O11 UNL     1     -33.032  17.150  -4.929  1.00 20.00    -0.298 OA
ENDBRANCH   1   2
BRANCH   1   5
HETATM    5  C8  UNL     1     -34.679  15.294  -2.622  1.00 20.00     0.045 C 
BRANCH   5   6
HETATM    6  C2  UNL     1     -34.433  14.207  -3.654  1.00 20.00    -0.089 C 
HETATM    7  C1  UNL     1     -33.264  13.548  -3.690  1.00 20.00     0.014 C 
BRANCH   6   8
HETATM    8  C7  UNL     1     -35.527  13.888  -4.649  1.00 20.00     0.029 C 
HETATM    9  C5  UNL     1     -35.148  14.229  -6.084  1.00 20.00     0.010 C 
ENDBRANCH   6   8
ENDBRANCH   5   6
ENDBRANCH   1   5
BRANCH   1  10
HETATM   10  C9  UNL     1     -33.803  17.421  -1.488  1.00 20.00     0.008 C 
HETATM   11  C6  UNL     1     -34.728  16.946  -0.375  1.00 20.00     0.006 C 
ENDBRANCH   1  10
TORSDOF 5
ENDMDL
MODEL 5
REMARK VINA RESULT:      -4.5     10.512     12.213
REMARK  5 active torsions:
REMARK  status: ('A' for Active; 'I' for Inactive)
REMARK    1  A    between atoms: C2_2  and  C7_7 
REMARK    2  A    between atoms: C2_2  and  C8_8 
REMARK    3  A    between atoms: C3_3  and  C10_10 
REMARK    4  A    between atoms: C8_8  and  C10_10 
REMARK    5  A    between atoms: C9_9  and  C10_10 
ROOT
HETATM    1  C10 UNL     1     -35.094  14.992  -4.544  1.00 20.00     0.058 C 
ENDROOT
BRANCH   1   2
HETATM    2  C3  UNL     1     -34.478  13.621  -4.259  1.00 20.00     0.127 C 
HETATM    3  C4  UNL     1     -33.087  13.608  -3.680  1.00 20.00     0.091 C 
HETATM    4  O11 UNL     1     -35.067  12.569  -4.508  1.00 20.00    -0.298 OA
ENDBRANCH   1   2
BRANCH   1   5
HETATM    5  C8  UNL     1     -36.154  15.378  -3.495  1.00 20.00     0.045 C 
BRANCH   5   6
HETATM    6  C2  UNL     1     -35.742  16.518  -2.581  1.00 20.00    -0.089 C 
HETATM    7  C1  UNL     1     -36.385  17.697  -2.622  1.00 20.00     0.014 C 
BRANCH   6   8
HETATM    8  C7  UNL     1     -34.585  16.306  -1.630  1.00 20.00     0.029 C 
HETATM    9  C5  UNL     1     -34.773  17.010  -0.293  1.00 20.00     0.010 C 
ENDBRANCH   6   8
ENDBRANCH   5   6
ENDBRANCH   1   5
BRANCH   1  10
HETATM   10  C9  UNL     1     -35.637  15.040  -5.984  1.00 20.00     0.008 C 
HETATM   11  C6  UNL     1     -34.578  15.059  -7.078  1.00 20.00     0.006 C 
ENDBRANCH   1  10
TORSDOF 5
ENDMDL
MODEL 6
REMARK VINA RESULT:      -4.5     10.408     12.144
REMARK  5 active torsions:
REMARK  status: ('A' for Active; 'I' for Inactive)
REMARK    1  A    between atoms: C2_2  and  C7_7 
REMARK    2  A    between atoms: C2_2  and  C8_8 
REMARK    3  A    between atoms: C3_3  and  C10_10 
REMARK    4  A    between atoms: C8_8  and  C10_10 
REMARK    5  A    between atoms: C9_9  and  C10_10 
ROOT
HETATM    1  C10 UNL     1     -35.086  15.014  -3.410  1.00 20.00     0.058 C 
ENDROOT
BRANCH   1   2
HETATM    2  C3  UNL     1     -34.447  13.674  -3.782  1.00 20.00     0.127 C 
HETATM    3  C4  UNL     1     -32.962  13.545  -3.556  1.00 20.00     0.091 C 
HETATM    4  O11 UNL     1     -35.094  12.746  -4.267  1.00 20.00    -0.298 OA
ENDBRANCH   1   2
BRANCH   1   5
HETATM    5  C8  UNL     1     -35.551  15.796  -4.654  1.00 20.00     0.045 C 
BRANCH   5   6
HETATM    6  C2  UNL     1     -34.508  15.900  -5.751  1.00 20.00    -0.089 C 
HETATM    7  C1  UNL     1     -34.633  15.192  -6.886  1.00 20.00     0.014 C 
BRANCH   6   8
HETATM    8  C7  UNL     1     -33.317  16.808  -5.540  1.00 20.00     0.029 C 
HETATM    9  C5  UNL     1     -33.705  18.266  -5.336  1.00 20.00     0.010 C 
ENDBRANCH   6   8
ENDBRANCH   5   6
ENDBRANCH   1   5
BRANCH   1  10
HETATM   10  C9  UNL     1     -34.130  15.828  -2.519  1.00 20.00     0.008 C 
HETATM   11  C6  UNL     1     -34.761  16.435  -1.273  1.00 20.00     0.006 C 
ENDBRANCH   1  10
TORSDOF 5
ENDMDL
MODEL 7
REMARK VINA RESULT:      -4.4     10.500     12.605
REMARK  5 active torsions:
REMARK  status: ('A' for Active; 'I' for Inactive)
REMARK    1  A    between atoms: C2_2  and  C7_7 
REMARK    2  A    between atoms: C2_2  and  C8_8 
REMARK    3  A    between atoms: C3_3  and  C10_10 
REMARK    4  A    between atoms: C8_8  and  C10_10 
REMARK    5  A    between atoms: C9_9  and  C10_10 
ROOT
HETATM    1  C10 UNL     1     -34.632  14.858  -5.259  1.00 20.00     0.058 C 
ENDROOT
BRANCH   1   2
HETATM    2  C3  UNL     1     -34.322  13.602  -4.440  1.00 20.00     0.127 C 
HETATM    3  C4  UNL     1     -33.055  13.621  -3.623  1.00 20.00     0.091 C 
HETATM    4  O11 UNL     1     -35.047  12.608  -4.456  1.00 20.00    -0.298 OA
ENDBRANCH   1   2
BRANCH   1   5
HETATM    5  C8  UNL     1     -35.226  15.982  -4.388  1.00 20.00     0.045 C 
BRANCH   5   6
HETATM    6  C2  UNL     1     -34.232  17.063  -4.002  1.00 20.00    -0.089 C 
HETATM    7  C1  UNL     1     -33.513  17.700  -4.941  1.00 20.00     0.014 C 
BRANCH   6   8
HETATM    8  C7  UNL     1     -34.058  17.403  -2.538  1.00 20.00     0.029 C 
HETATM    9  C5  UNL     1     -34.603  16.329  -1.606  1.00 20.00     0.010 C 
ENDBRANCH   6   8
ENDBRANCH   5   6
ENDBRANCH   1   5
BRANCH   1  10
HETATM   10  C9  UNL     1     -35.528  14.500  -6.459  1.00 20.00     0.008 C 
HETATM   11  C6  UNL     1     -34.959  14.860  -7.825  1.00 20.00     0.006 C 
ENDBRANCH   1  10
TORSDOF 5
ENDMDL
MODEL 8
REMARK VINA RESULT:      -4.4     11.047     12.020
REMARK  5 active torsions:
REMARK  status: ('A' for Active; 'I' for Inactive)
REMARK    1  A    between atoms: C2_2  and  C7_7 
REMARK    2  A    between atoms: C2_2  and  C8_8 
REMARK    3  A    between atoms: C3_3  and  C10_10 
REMARK    4  A    between atoms: C8_8  and  C10_10 
REMARK    5  A    between atoms: C9_9  and  C10_10 
ROOT
HETATM    1  C10 UNL     1     -35.614  15.009  -4.002  1.00 20.00     0.058 C 
ENDROOT
BRANCH   1   2
HETATM    2  C3  UNL     1     -35.172  13.828  -4.869  1.00 20.00     0.127 C 
HETATM    3  C4  UNL     1     -34.941  14.110  -6.332  1.00 20.00     0.091 C 
HETATM    4  O11 UNL     1     -35.032  12.693  -4.416  1.00 20.00    -0.298 OA
ENDBRANCH   1   2
BRANCH   1   5
HETATM    5  C8  UNL     1     -34.693  15.205  -2.782  1.00 20.00     0.045 C 
BRANCH   5   6
HETATM    6  C2  UNL     1     -33.994  16.552  -2.739  1.00 20.00    -0.089 C 
HETATM    7  C1  UNL     1     -33.644  17.180  -3.873  1.00 20.00     0.014 C 
BRANCH   6   8
HETATM    8  C7  UNL     1     -33.689  17.171  -1.392  1.00 20.00     0.029 C 
HETATM    9  C5  UNL     1     -34.774  16.914  -0.356  1.00 20.00     0.010 C 
ENDBRANCH   6   8
ENDBRANCH   5   6
ENDBRANCH   1   5
BRANCH   1  10
HETATM   10  C9  UNL     1     -37.095  14.853  -3.609  1.00 20.00     0.008 C 
HETATM   11  C6  UNL     1     -38.097  15.281  -4.673  1.00 20.00     0.006 C 
ENDBRANCH   1  10
TORSDOF 5
ENDMDL
MODEL 9
REMARK VINA RESULT:      -4.3     11.271     12.324
REMARK  5 active torsions:
REMARK  status: ('A' for Active; 'I' for Inactive)
REMARK    1  A    between atoms: C2_2  and  C7_7 
REMARK    2  A    between atoms: C2_2  and  C8_8 
REMARK    3  A    between atoms: C3_3  and  C10_10 
REMARK    4  A    between atoms: C8_8  and  C10_10 
REMARK    5  A    between atoms: C9_9  and  C10_10 
ROOT
HETATM    1  C10 UNL     1     -34.500  16.604  -3.213  1.00 20.00     0.058 C 
ENDROOT
BRANCH   1   2
HETATM    2  C3  UNL     1     -33.422  15.882  -4.024  1.00 20.00     0.127 C 
HETATM    3  C4  UNL     1     -33.113  14.461  -3.629  1.00 20.00     0.091 C 
HETATM    4  O11 UNL     1     -32.809  16.429  -4.942  1.00 20.00    -0.298 OA
ENDBRANCH   1   2
BRANCH   1   5
HETATM    5  C8  UNL     1     -34.520  16.143  -1.743  1.00 20.00     0.045 C 
BRANCH   5   6
HETATM    6  C2  UNL     1     -34.311  17.260  -0.736  1.00 20.00    -0.089 C 
HETATM    7  C1  UNL     1     -34.993  17.276   0.422  1.00 20.00     0.014 C 
BRANCH   6   8
HETATM    8  C7  UNL     1     -33.329  18.362  -1.065  1.00 20.00     0.029 C 
HETATM    9  C5  UNL     1     -32.438  18.740   0.111  1.00 20.00     0.010 C 
ENDBRANCH   6   8
ENDBRANCH   5   6
ENDBRANCH   1   5
BRANCH   1  10
HETATM   10  C9  UNL     1     -35.869  16.456  -3.901  1.00 20.00     0.008 C 
HETATM   11  C6  UNL     1     -36.728  15.303  -3.398  1.00 20.00     0.006 C 
ENDBRANCH   1  10
TORSDOF 5
ENDMDL
