MODEL 1
REMARK VINA RESULT:      -4.6      0.000      0.000
REMARK  3 active torsions:
REMARK  status: ('A' for Active; 'I' for Inactive)
REMARK    1  A    between atoms: C2_2  and  C9_9 
REMARK    2  A    between atoms: C2_2  and  C10_10 
REMARK    3  A    between atoms: C6_6  and  C9_9 
ROOT
HETATM    1  C3  UNL     1     -34.413  13.709  -3.673  1.00 20.00     0.006 C 
HETATM    2  C4  UNL     1     -34.774  13.238  -5.085  1.00 20.00     0.020 C 
HETATM    3  C5  UNL     1     -34.597  15.616  -5.164  1.00 20.00     0.025 C 
HETATM    4  C6  UNL     1     -34.544  15.240  -3.683  1.00 20.00    -0.009 C 
HETATM    5  C7  UNL     1     -35.384  14.459  -5.761  1.00 20.00     0.082 C 
HETATM    6 CL11 UNL     1     -35.251  14.393  -7.524  1.00 20.00    -0.125 Cl
ENDROOT
BRANCH   4   7
HETATM    7  C9  UNL     1     -33.425  15.942  -2.931  1.00 20.00     0.038 C 
BRANCH   7   8
HETATM    8  C2  UNL     1     -33.928  17.012  -1.990  1.00 20.00    -0.089 C 
HETATM    9  C1  UNL     1     -33.694  18.312  -2.239  1.00 20.00     0.014 C 
BRANCH   8  10
HETATM   10  C10 UNL     1     -34.700  16.587  -0.763  1.00 20.00     0.029 C 
HETATM   11  C8  UNL     1     -34.640  17.610   0.362  1.00 20.00     0.010 C 
ENDBRANCH   8  10
ENDBRANCH   7   8
ENDBRANCH   4   7
TORSDOF 3
ENDMDL
MODEL 2
REMARK VINA RESULT:      -4.6     11.136     12.332
REMARK  3 active torsions:
REMARK  status: ('A' for Active; 'I' for Inactive)
REMARK    1  A    between atoms: C2_2  and  C9_9 
REMARK    2  A    between atoms: C2_2  and  C10_10 
REMARK    3  A    between atoms: C6_6  and  C9_9 
ROOT
HETATM    1  C3  UNL     1     -34.501   5.102   3.145  1.00 20.00     0.006 C 
HETATM    2  C4  UNL     1     -35.245   4.404   4.287  1.00 20.00     0.020 C 
HETATM    3  C5  UNL     1     -33.997   6.192   5.255  1.00 20.00     0.025 C 
HETATM    4  C6  UNL     1     -33.521   6.084   3.806  1.00 20.00    -0.009 C 
HETATM    5  C7  UNL     1     -34.469   4.775   5.545  1.00 20.00     0.082 C 
HETATM    6 CL11 UNL     1     -35.463   4.682   7.005  1.00 20.00    -0.125 Cl
ENDROOT
BRANCH   4   7
HETATM    7  C9  UNL     1     -33.452   7.429   3.101  1.00 20.00     0.038 C 
BRANCH   7   8
HETATM    8  C2  UNL     1     -32.043   7.827   2.727  1.00 20.00    -0.089 C 
HETATM    9  C1  UNL     1     -31.024   7.635   3.582  1.00 20.00     0.014 C 
BRANCH   8  10
HETATM   10  C10 UNL     1     -31.806   8.445   1.369  1.00 20.00     0.029 C 
HETATM   11  C8  UNL     1     -32.424   9.829   1.230  1.00 20.00     0.010 C 
ENDBRANCH   8  10
ENDBRANCH   7   8
ENDBRANCH   4   7
TORSDOF 3
ENDMDL
MODEL 3
REMARK VINA RESULT:      -4.5     11.211     12.411
REMARK  3 active torsions:
REMARK  status: ('A' for Active; 'I' for Inactive)
REMARK    1  A    between atoms: C2_2  and  C9_9 
REMARK    2  A    between atoms: C2_2  and  C10_10 
REMARK    3  A    between atoms: C6_6  and  C9_9 
ROOT
HETATM    1  C3  UNL     1     -33.378   6.959   5.225  1.00 20.00     0.006 C 
HETATM    2  C4  UNL     1     -34.097   6.110   6.278  1.00 20.00     0.020 C 
HETATM    3  C5  UNL     1     -34.362   4.998   4.184  1.00 20.00     0.025 C 
HETATM    4  C6  UNL     1     -33.762   6.366   3.860  1.00 20.00    -0.009 C 
HETATM    5  C7  UNL     1     -35.093   5.269   5.490  1.00 20.00     0.082 C 
HETATM    6 CL11 UNL     1     -35.538   3.779   6.334  1.00 20.00    -0.125 Cl
ENDROOT
BRANCH   4   7
HETATM    7  C9  UNL     1     -32.595   6.290   2.890  1.00 20.00     0.038 C 
BRANCH   7   8
HETATM    8  C2  UNL     1     -31.872   7.607   2.730  1.00 20.00    -0.089 C 
HETATM    9  C1  UNL     1     -31.088   8.085   3.712  1.00 20.00     0.014 C 
BRANCH   8  10
HETATM   10  C10 UNL     1     -32.051   8.375   1.442  1.00 20.00     0.029 C 
HETATM   11  C8  UNL     1     -32.529   9.804   1.662  1.00 20.00     0.010 C 
ENDBRANCH   8  10
ENDBRANCH   7   8
ENDBRANCH   4   7
TORSDOF 3
ENDMDL
MODEL 4
REMARK VINA RESULT:      -4.5      1.782      2.131
REMARK  3 active torsions:
REMARK  status: ('A' for Active; 'I' for Inactive)
REMARK    1  A    between atoms: C2_2  and  C9_9 
REMARK    2  A    between atoms: C2_2  and  C10_10 
REMARK    3  A    between atoms: C6_6  and  C9_9 
ROOT
HETATM    1  C3  UNL     1     -34.412  14.222  -3.360  1.00 20.00     0.006 C 
HETATM    2  C4  UNL     1     -35.566  13.890  -4.311  1.00 20.00     0.020 C 
HETATM    3  C5  UNL     1     -36.038  16.026  -3.359  1.00 20.00     0.025 C 
HETATM    4  C6  UNL     1     -34.846  15.472  -2.578  1.00 20.00    -0.009 C 
HETATM    5  C7  UNL     1     -36.726  14.756  -3.837  1.00 20.00     0.082 C 
HETATM    6 CL11 UNL     1     -37.903  15.070  -5.120  1.00 20.00    -0.125 Cl
ENDROOT
BRANCH   4   7
HETATM    7  C9  UNL     1     -33.728  16.487  -2.402  1.00 20.00     0.038 C 
BRANCH   7   8
HETATM    8  C2  UNL     1     -33.911  17.359  -1.181  1.00 20.00    -0.089 C 
HETATM    9  C1  UNL     1     -34.729  16.983  -0.183  1.00 20.00     0.014 C 
BRANCH   8  10
HETATM   10  C10 UNL     1     -33.152  18.663  -1.108  1.00 20.00     0.029 C 
HETATM   11  C8  UNL     1     -32.311  18.792   0.155  1.00 20.00     0.010 C 
ENDBRANCH   8  10
ENDBRANCH   7   8
ENDBRANCH   4   7
TORSDOF 3
ENDMDL
MODEL 5
REMARK VINA RESULT:      -4.4      1.604      2.636
REMARK  3 active torsions:
REMARK  status: ('A' for Active; 'I' for Inactive)
REMARK    1  A    between atoms: C2_2  and  C9_9 
REMARK    2  A    between atoms: C2_2  and  C10_10 
REMARK    3  A    between atoms: C6_6  and  C9_9 
ROOT
HETATM    1  C3  UNL     1     -33.682  17.000  -3.716  1.00 20.00     0.006 C 
HETATM    2  C4  UNL     1     -33.662  15.914  -4.796  1.00 20.00     0.020 C 
HETATM    3  C5  UNL     1     -34.589  14.928  -2.832  1.00 20.00     0.025 C 
HETATM    4  C6  UNL     1     -34.048  16.292  -2.402  1.00 20.00    -0.009 C 
HETATM    5  C7  UNL     1     -33.713  14.598  -4.031  1.00 20.00     0.082 C 
HETATM    6 CL11 UNL     1     -34.372  13.275  -5.003  1.00 20.00    -0.125 Cl
ENDROOT
BRANCH   4   7
HETATM    7  C9  UNL     1     -35.030  17.079  -1.549  1.00 20.00     0.038 C 
BRANCH   7   8
HETATM    8  C2  UNL     1     -34.412  17.612  -0.277  1.00 20.00    -0.089 C 
HETATM    9  C1  UNL     1     -35.052  17.496   0.899  1.00 20.00     0.014 C 
BRANCH   8  10
HETATM   10  C10 UNL     1     -33.058  18.276  -0.359  1.00 20.00     0.029 C 
HETATM   11  C8  UNL     1     -32.589  18.835   0.978  1.00 20.00     0.010 C 
ENDBRANCH   8  10
ENDBRANCH   7   8
ENDBRANCH   4   7
TORSDOF 3
ENDMDL
MODEL 6
REMARK VINA RESULT:      -4.3      3.710      5.968
REMARK  3 active torsions:
REMARK  status: ('A' for Active; 'I' for Inactive)
REMARK    1  A    between atoms: C2_2  and  C9_9 
REMARK    2  A    between atoms: C2_2  and  C10_10 
REMARK    3  A    between atoms: C6_6  and  C9_9 
ROOT
HETATM    1  C3  UNL     1     -33.179  18.044  -0.805  1.00 20.00     0.006 C 
HETATM    2  C4  UNL     1     -33.001  18.601   0.611  1.00 20.00     0.020 C 
HETATM    3  C5  UNL     1     -35.030  17.346   0.605  1.00 20.00     0.025 C 
HETATM    4  C6  UNL     1     -34.596  17.451  -0.858  1.00 20.00    -0.009 C 
HETATM    5  C7  UNL     1     -34.398  18.587   1.217  1.00 20.00     0.082 C 
HETATM    6 CL11 UNL     1     -34.369  18.525   2.985  1.00 20.00    -0.125 Cl
ENDROOT
BRANCH   4   7
HETATM    7  C9  UNL     1     -34.664  16.123  -1.595  1.00 20.00     0.038 C 
BRANCH   7   8
HETATM    8  C2  UNL     1     -34.277  16.238  -3.052  1.00 20.00    -0.089 C 
HETATM    9  C1  UNL     1     -34.924  17.084  -3.871  1.00 20.00     0.014 C 
BRANCH   8  10
HETATM   10  C10 UNL     1     -33.145  15.378  -3.565  1.00 20.00     0.029 C 
HETATM   11  C8  UNL     1     -33.553  13.928  -3.785  1.00 20.00     0.010 C 
ENDBRANCH   8  10
ENDBRANCH   7   8
ENDBRANCH   4   7
TORSDOF 3
ENDMDL
MODEL 7
REMARK VINA RESULT:      -4.3      3.313      5.317
REMARK  3 active torsions:
REMARK  status: ('A' for Active; 'I' for Inactive)
REMARK    1  A    between atoms: C2_2  and  C9_9 
REMARK    2  A    between atoms: C2_2  and  C10_10 
REMARK    3  A    between atoms: C6_6  and  C9_9 
ROOT
HETATM    1  C3  UNL     1     -34.805  16.368  -1.391  1.00 20.00     0.006 C 
HETATM    2  C4  UNL     1     -34.982  17.049  -0.031  1.00 20.00     0.020 C 
HETATM    3  C5  UNL     1     -33.425  18.363  -1.272  1.00 20.00     0.025 C 
HETATM    4  C6  UNL     1     -33.628  17.079  -2.077  1.00 20.00    -0.009 C 
HETATM    5  C7  UNL     1     -33.734  17.904   0.145  1.00 20.00     0.082 C 
HETATM    6 CL11 UNL     1     -33.995  19.262   1.250  1.00 20.00    -0.125 Cl
ENDROOT
BRANCH   4   7
HETATM    7  C9  UNL     1     -33.863  17.336  -3.557  1.00 20.00     0.038 C 
BRANCH   7   8
HETATM    8  C2  UNL     1     -33.435  16.181  -4.432  1.00 20.00    -0.089 C 
HETATM    9  C1  UNL     1     -33.695  16.184  -5.751  1.00 20.00     0.014 C 
BRANCH   8  10
HETATM   10  C10 UNL     1     -32.706  15.024  -3.790  1.00 20.00     0.029 C 
HETATM   11  C8  UNL     1     -33.503  13.727  -3.826  1.00 20.00     0.010 C 
ENDBRANCH   8  10
ENDBRANCH   7   8
ENDBRANCH   4   7
TORSDOF 3
ENDMDL
MODEL 8
REMARK VINA RESULT:      -4.3     12.887     14.544
REMARK  3 active torsions:
REMARK  status: ('A' for Active; 'I' for Inactive)
REMARK    1  A    between atoms: C2_2  and  C9_9 
REMARK    2  A    between atoms: C2_2  and  C10_10 
REMARK    3  A    between atoms: C6_6  and  C9_9 
ROOT
HETATM    1  C3  UNL     1     -43.342   2.357  -2.150  1.00 20.00     0.006 C 
HETATM    2  C4  UNL     1     -43.214   0.927  -2.684  1.00 20.00     0.020 C 
HETATM    3  C5  UNL     1     -41.307   2.134  -3.457  1.00 20.00     0.025 C 
HETATM    4  C6  UNL     1     -42.248   3.177  -2.852  1.00 20.00    -0.009 C 
HETATM    5  C7  UNL     1     -42.273   1.036  -3.876  1.00 20.00     0.082 C 
HETATM    6 CL11 UNL     1     -41.448  -0.488  -4.228  1.00 20.00    -0.125 Cl
ENDROOT
BRANCH   4   7
HETATM    7  C9  UNL     1     -41.538   4.149  -1.923  1.00 20.00     0.038 C 
BRANCH   7   8
HETATM    8  C2  UNL     1     -41.939   5.588  -2.157  1.00 20.00    -0.089 C 
HETATM    9  C1  UNL     1     -42.855   5.903  -3.089  1.00 20.00     0.014 C 
BRANCH   8  10
HETATM   10  C10 UNL     1     -41.287   6.662  -1.320  1.00 20.00     0.029 C 
HETATM   11  C8  UNL     1     -40.682   6.125  -0.030  1.00 20.00     0.010 C 
ENDBRANCH   8  10
ENDBRANCH   7   8
ENDBRANCH   4   7
TORSDOF 3
ENDMDL
MODEL 9
REMARK VINA RESULT:      -4.2      1.484      2.372
REMARK  3 active torsions:
REMARK  status: ('A' for Active; 'I' for Inactive)
REMARK    1  A    between atoms: C2_2  and  C9_9 
REMARK    2  A    between atoms: C2_2  and  C10_10 
REMARK    3  A    between atoms: C6_6  and  C9_9 
ROOT
HETATM    1  C3  UNL     1     -34.904  14.106  -5.924  1.00 20.00     0.006 C 
HETATM    2  C4  UNL     1     -34.510  14.961  -7.132  1.00 20.00     0.020 C 
HETATM    3  C5  UNL     1     -35.220  16.460  -5.418  1.00 20.00     0.025 C 
HETATM    4  C6  UNL     1     -35.583  15.059  -4.928  1.00 20.00    -0.009 C 
HETATM    5  C7  UNL     1     -35.235  16.285  -6.929  1.00 20.00     0.082 C 
HETATM    6 CL11 UNL     1     -34.443  17.625  -7.770  1.00 20.00    -0.125 Cl
ENDROOT
BRANCH   4   7
HETATM    7  C9  UNL     1     -35.174  14.809  -3.485  1.00 20.00     0.038 C 
BRANCH   7   8
HETATM    8  C2  UNL     1     -33.831  15.411  -3.140  1.00 20.00    -0.089 C 
HETATM    9  C1  UNL     1     -32.694  14.864  -3.602  1.00 20.00     0.014 C 
BRANCH   8  10
HETATM   10  C10 UNL     1     -33.798  16.641  -2.264  1.00 20.00     0.029 C 
HETATM   11  C8  UNL     1     -34.672  16.513  -1.025  1.00 20.00     0.010 C 
ENDBRANCH   8  10
ENDBRANCH   7   8
ENDBRANCH   4   7
TORSDOF 3
ENDMDL
