MODEL 1
REMARK VINA RESULT:      -4.6      0.000      0.000
REMARK  5 active torsions:
REMARK  status: ('A' for Active; 'I' for Inactive)
REMARK    1  A    between atoms: C2_2  and  C8_8 
REMARK    2  A    between atoms: C2_2  and  C9_9 
REMARK    3  A    between atoms: C3_3  and  C10_10 
REMARK    4  A    between atoms: C9_9  and  C10_10 
REMARK    5  A    between atoms: C10_10  and  C11_11 
ROOT
HETATM    1  C10 UNL     1     -34.886  14.984  -4.920  1.00 20.00     0.062 C 
ENDROOT
BRANCH   1   2
HETATM    2  C3  UNL     1     -34.403  13.657  -4.326  1.00 20.00     0.127 C 
HETATM    3  C4  UNL     1     -33.058  13.668  -3.645  1.00 20.00     0.091 C 
HETATM    4  O12 UNL     1     -35.076  12.629  -4.379  1.00 20.00    -0.298 OA
ENDBRANCH   1   2
BRANCH   1   5
HETATM    5  C9  UNL     1     -34.411  16.160  -4.042  1.00 20.00     0.045 C 
BRANCH   5   6
HETATM    6  C2  UNL     1     -35.304  16.441  -2.848  1.00 20.00    -0.089 C 
HETATM    7  C1  UNL     1     -36.587  16.805  -3.019  1.00 20.00     0.014 C 
BRANCH   6   8
HETATM    8  C8  UNL     1     -34.720  16.312  -1.459  1.00 20.00     0.029 C 
HETATM    9  C5  UNL     1     -33.705  17.398  -1.134  1.00 20.00     0.010 C 
ENDBRANCH   6   8
ENDBRANCH   5   6
ENDBRANCH   1   5
BRANCH   1  10
HETATM   10  C11 UNL     1     -34.466  15.159  -6.405  1.00 20.00    -0.011 C 
HETATM   11  C6  UNL     1     -34.307  16.611  -6.862  1.00 20.00     0.010 C 
HETATM   12  C7  UNL     1     -35.416  14.420  -7.354  1.00 20.00     0.010 C 
ENDBRANCH   1  10
TORSDOF 5
ENDMDL
MODEL 2
REMARK VINA RESULT:      -4.6      1.514      2.786
REMARK  5 active torsions:
REMARK  status: ('A' for Active; 'I' for Inactive)
REMARK    1  A    between atoms: C2_2  and  C8_8 
REMARK    2  A    between atoms: C2_2  and  C9_9 
REMARK    3  A    between atoms: C3_3  and  C10_10 
REMARK    4  A    between atoms: C9_9  and  C10_10 
REMARK    5  A    between atoms: C10_10  and  C11_11 
ROOT
HETATM    1  C10 UNL     1     -35.755  15.268  -4.120  1.00 20.00     0.062 C 
ENDROOT
BRANCH   1   2
HETATM    2  C3  UNL     1     -37.236  15.213  -3.737  1.00 20.00     0.127 C 
HETATM    3  C4  UNL     1     -37.892  16.519  -3.370  1.00 20.00     0.091 C 
HETATM    4  O12 UNL     1     -37.878  14.163  -3.739  1.00 20.00    -0.298 OA
ENDBRANCH   1   2
BRANCH   1   5
HETATM    5  C9  UNL     1     -34.884  15.356  -2.848  1.00 20.00     0.045 C 
BRANCH   5   6
HETATM    6  C2  UNL     1     -34.077  16.637  -2.738  1.00 20.00    -0.089 C 
HETATM    7  C1  UNL     1     -33.708  17.314  -3.838  1.00 20.00     0.014 C 
BRANCH   6   8
HETATM    8  C8  UNL     1     -33.689  17.133  -1.363  1.00 20.00     0.029 C 
HETATM    9  C5  UNL     1     -34.798  16.969  -0.334  1.00 20.00     0.010 C 
ENDBRANCH   6   8
ENDBRANCH   5   6
ENDBRANCH   1   5
BRANCH   1  10
HETATM   10  C11 UNL     1     -35.332  14.088  -5.036  1.00 20.00    -0.011 C 
HETATM   11  C6  UNL     1     -34.189  13.228  -4.490  1.00 20.00     0.010 C 
HETATM   12  C7  UNL     1     -34.989  14.563  -6.452  1.00 20.00     0.010 C 
ENDBRANCH   1  10
TORSDOF 5
ENDMDL
MODEL 3
REMARK VINA RESULT:      -4.5      1.314      1.677
REMARK  5 active torsions:
REMARK  status: ('A' for Active; 'I' for Inactive)
REMARK    1  A    between atoms: C2_2  and  C8_8 
REMARK    2  A    between atoms: C2_2  and  C9_9 
REMARK    3  A    between atoms: C3_3  and  C10_10 
REMARK    4  A    between atoms: C9_9  and  C10_10 
REMARK    5  A    between atoms: C10_10  and  C11_11 
ROOT
HETATM    1  C10 UNL     1     -34.227  15.501  -3.968  1.00 20.00     0.062 C 
ENDROOT
BRANCH   1   2
HETATM    2  C3  UNL     1     -34.064  13.978  -3.979  1.00 20.00     0.127 C 
HETATM    3  C4  UNL     1     -35.281  13.168  -4.346  1.00 20.00     0.091 C 
HETATM    4  O12 UNL     1     -32.995  13.429  -3.719  1.00 20.00    -0.298 OA
ENDBRANCH   1   2
BRANCH   1   5
HETATM    5  C9  UNL     1     -33.784  16.069  -2.603  1.00 20.00     0.045 C 
BRANCH   5   6
HETATM    6  C2  UNL     1     -34.903  16.718  -1.810  1.00 20.00    -0.089 C 
HETATM    7  C1  UNL     1     -36.070  17.031  -2.398  1.00 20.00     0.014 C 
BRANCH   6   8
HETATM    8  C8  UNL     1     -34.677  17.012  -0.344  1.00 20.00     0.029 C 
HETATM    9  C5  UNL     1     -33.579  18.039  -0.104  1.00 20.00     0.010 C 
ENDBRANCH   6   8
ENDBRANCH   5   6
ENDBRANCH   1   5
BRANCH   1  10
HETATM   10  C11 UNL     1     -33.492  16.187  -5.152  1.00 20.00    -0.011 C 
HETATM   11  C6  UNL     1     -33.453  17.715  -5.085  1.00 20.00     0.010 C 
HETATM   12  C7  UNL     1     -34.060  15.744  -6.505  1.00 20.00     0.010 C 
ENDBRANCH   1  10
TORSDOF 5
ENDMDL
MODEL 4
REMARK VINA RESULT:      -4.5      2.039      4.263
REMARK  5 active torsions:
REMARK  status: ('A' for Active; 'I' for Inactive)
REMARK    1  A    between atoms: C2_2  and  C8_8 
REMARK    2  A    between atoms: C2_2  and  C9_9 
REMARK    3  A    between atoms: C3_3  and  C10_10 
REMARK    4  A    between atoms: C9_9  and  C10_10 
REMARK    5  A    between atoms: C10_10  and  C11_11 
ROOT
HETATM    1  C10 UNL     1     -33.939  16.450  -2.664  1.00 20.00     0.062 C 
ENDROOT
BRANCH   1   2
HETATM    2  C3  UNL     1     -34.048  17.046  -1.258  1.00 20.00     0.127 C 
HETATM    3  C4  UNL     1     -33.296  18.328  -1.003  1.00 20.00     0.091 C 
HETATM    4  O12 UNL     1     -34.725  16.525  -0.373  1.00 20.00    -0.298 OA
ENDBRANCH   1   2
BRANCH   1   5
HETATM    5  C9  UNL     1     -34.791  15.167  -2.762  1.00 20.00     0.045 C 
BRANCH   5   6
HETATM    6  C2  UNL     1     -34.181  14.083  -3.630  1.00 20.00    -0.089 C 
HETATM    7  C1  UNL     1     -32.886  13.748  -3.502  1.00 20.00     0.014 C 
BRANCH   6   8
HETATM    8  C8  UNL     1     -35.058  13.389  -4.648  1.00 20.00     0.029 C 
HETATM    9  C5  UNL     1     -35.085  14.098  -5.994  1.00 20.00     0.010 C 
ENDBRANCH   6   8
ENDBRANCH   5   6
ENDBRANCH   1   5
BRANCH   1  10
HETATM   10  C11 UNL     1     -34.298  17.475  -3.775  1.00 20.00    -0.011 C 
HETATM   11  C6  UNL     1     -35.772  17.489  -4.184  1.00 20.00     0.010 C 
HETATM   12  C7  UNL     1     -33.419  17.295  -5.018  1.00 20.00     0.010 C 
ENDBRANCH   1  10
TORSDOF 5
ENDMDL
MODEL 5
REMARK VINA RESULT:      -4.5      1.122      1.347
REMARK  5 active torsions:
REMARK  status: ('A' for Active; 'I' for Inactive)
REMARK    1  A    between atoms: C2_2  and  C8_8 
REMARK    2  A    between atoms: C2_2  and  C9_9 
REMARK    3  A    between atoms: C3_3  and  C10_10 
REMARK    4  A    between atoms: C9_9  and  C10_10 
REMARK    5  A    between atoms: C10_10  and  C11_11 
ROOT
HETATM    1  C10 UNL     1     -34.879  15.064  -4.641  1.00 20.00     0.062 C 
ENDROOT
BRANCH   1   2
HETATM    2  C3  UNL     1     -34.390  13.684  -4.193  1.00 20.00     0.127 C 
HETATM    3  C4  UNL     1     -33.025  13.621  -3.557  1.00 20.00     0.091 C 
HETATM    4  O12 UNL     1     -35.072  12.669  -4.324  1.00 20.00    -0.298 OA
ENDBRANCH   1   2
BRANCH   1   5
HETATM    5  C9  UNL     1     -33.754  16.106  -4.466  1.00 20.00     0.045 C 
BRANCH   5   6
HETATM    6  C2  UNL     1     -34.058  17.177  -3.435  1.00 20.00    -0.089 C 
HETATM    7  C1  UNL     1     -34.702  18.304  -3.784  1.00 20.00     0.014 C 
BRANCH   6   8
HETATM    8  C8  UNL     1     -33.614  16.956  -2.006  1.00 20.00     0.029 C 
HETATM    9  C5  UNL     1     -34.750  16.526  -1.088  1.00 20.00     0.010 C 
ENDBRANCH   6   8
ENDBRANCH   5   6
ENDBRANCH   1   5
BRANCH   1  10
HETATM   10  C11 UNL     1     -35.445  15.054  -6.088  1.00 20.00    -0.011 C 
HETATM   11  C6  UNL     1     -34.394  15.210  -7.189  1.00 20.00     0.010 C 
HETATM   12  C7  UNL     1     -36.546  16.104  -6.273  1.00 20.00     0.010 C 
ENDBRANCH   1  10
TORSDOF 5
ENDMDL
MODEL 6
REMARK VINA RESULT:      -4.4      1.630      2.866
REMARK  5 active torsions:
REMARK  status: ('A' for Active; 'I' for Inactive)
REMARK    1  A    between atoms: C2_2  and  C8_8 
REMARK    2  A    between atoms: C2_2  and  C9_9 
REMARK    3  A    between atoms: C3_3  and  C10_10 
REMARK    4  A    between atoms: C9_9  and  C10_10 
REMARK    5  A    between atoms: C10_10  and  C11_11 
ROOT
HETATM    1  C10 UNL     1     -35.969  15.219  -4.535  1.00 20.00     0.062 C 
ENDROOT
BRANCH   1   2
HETATM    2  C3  UNL     1     -37.347  15.197  -3.868  1.00 20.00     0.127 C 
HETATM    3  C4  UNL     1     -37.883  16.515  -3.371  1.00 20.00     0.091 C 
HETATM    4  O12 UNL     1     -38.003  14.163  -3.749  1.00 20.00    -0.298 OA
ENDBRANCH   1   2
BRANCH   1   5
HETATM    5  C9  UNL     1     -34.957  14.421  -3.686  1.00 20.00     0.045 C 
BRANCH   5   6
HETATM    6  C2  UNL     1     -33.725  15.211  -3.285  1.00 20.00    -0.089 C 
HETATM    7  C1  UNL     1     -32.493  14.746  -3.553  1.00 20.00     0.014 C 
BRANCH   6   8
HETATM    8  C8  UNL     1     -33.911  16.531  -2.570  1.00 20.00     0.029 C 
HETATM    9  C5  UNL     1     -34.626  16.391  -1.234  1.00 20.00     0.010 C 
ENDBRANCH   6   8
ENDBRANCH   5   6
ENDBRANCH   1   5
BRANCH   1  10
HETATM   10  C11 UNL     1     -36.012  14.726  -6.007  1.00 20.00    -0.011 C 
HETATM   11  C6  UNL     1     -34.667  14.762  -6.737  1.00 20.00     0.010 C 
HETATM   12  C7  UNL     1     -37.065  15.479  -6.827  1.00 20.00     0.010 C 
ENDBRANCH   1  10
TORSDOF 5
ENDMDL
MODEL 7
REMARK VINA RESULT:      -4.4      1.340      4.262
REMARK  5 active torsions:
REMARK  status: ('A' for Active; 'I' for Inactive)
REMARK    1  A    between atoms: C2_2  and  C8_8 
REMARK    2  A    between atoms: C2_2  and  C9_9 
REMARK    3  A    between atoms: C3_3  and  C10_10 
REMARK    4  A    between atoms: C9_9  and  C10_10 
REMARK    5  A    between atoms: C10_10  and  C11_11 
ROOT
HETATM    1  C10 UNL     1     -33.815  15.482  -4.205  1.00 20.00     0.062 C 
ENDROOT
BRANCH   1   2
HETATM    2  C3  UNL     1     -33.928  13.974  -3.965  1.00 20.00     0.127 C 
HETATM    3  C4  UNL     1     -35.249  13.330  -4.303  1.00 20.00     0.091 C 
HETATM    4  O12 UNL     1     -32.991  13.304  -3.532  1.00 20.00    -0.298 OA
ENDBRANCH   1   2
BRANCH   1   5
HETATM    5  C9  UNL     1     -34.987  15.966  -5.086  1.00 20.00     0.045 C 
BRANCH   5   6
HETATM    6  C2  UNL     1     -34.604  16.249  -6.526  1.00 20.00    -0.089 C 
HETATM    7  C1  UNL     1     -34.464  17.512  -6.965  1.00 20.00     0.014 C 
BRANCH   6   8
HETATM    8  C8  UNL     1     -34.389  15.081  -7.462  1.00 20.00     0.029 C 
HETATM    9  C5  UNL     1     -35.689  14.434  -7.918  1.00 20.00     0.010 C 
ENDBRANCH   6   8
ENDBRANCH   5   6
ENDBRANCH   1   5
BRANCH   1  10
HETATM   10  C11 UNL     1     -33.707  16.289  -2.883  1.00 20.00    -0.011 C 
HETATM   11  C6  UNL     1     -34.775  15.959  -1.839  1.00 20.00     0.010 C 
HETATM   12  C7  UNL     1     -33.687  17.800  -3.141  1.00 20.00     0.010 C 
ENDBRANCH   1  10
TORSDOF 5
ENDMDL
MODEL 8
REMARK VINA RESULT:      -4.3      1.993      4.397
REMARK  5 active torsions:
REMARK  status: ('A' for Active; 'I' for Inactive)
REMARK    1  A    between atoms: C2_2  and  C8_8 
REMARK    2  A    between atoms: C2_2  and  C9_9 
REMARK    3  A    between atoms: C3_3  and  C10_10 
REMARK    4  A    between atoms: C9_9  and  C10_10 
REMARK    5  A    between atoms: C10_10  and  C11_11 
ROOT
HETATM    1  C10 UNL     1     -34.700  16.196  -3.914  1.00 20.00     0.062 C 
ENDROOT
BRANCH   1   2
HETATM    2  C3  UNL     1     -34.183  17.063  -2.763  1.00 20.00     0.127 C 
HETATM    3  C4  UNL     1     -34.443  16.561  -1.365  1.00 20.00     0.091 C 
HETATM    4  O12 UNL     1     -33.569  18.112  -2.953  1.00 20.00    -0.298 OA
ENDBRANCH   1   2
BRANCH   1   5
HETATM    5  C9  UNL     1     -33.628  16.091  -5.020  1.00 20.00     0.045 C 
BRANCH   5   6
HETATM    6  C2  UNL     1     -34.175  16.224  -6.428  1.00 20.00    -0.089 C 
HETATM    7  C1  UNL     1     -34.523  17.425  -6.920  1.00 20.00     0.014 C 
BRANCH   6   8
HETATM    8  C8  UNL     1     -34.330  14.975  -7.267  1.00 20.00     0.029 C 
HETATM    9  C5  UNL     1     -35.781  14.651  -7.593  1.00 20.00     0.010 C 
ENDBRANCH   6   8
ENDBRANCH   5   6
ENDBRANCH   1   5
BRANCH   1  10
HETATM   10  C11 UNL     1     -35.184  14.799  -3.437  1.00 20.00    -0.011 C 
HETATM   11  C6  UNL     1     -34.224  13.647  -3.744  1.00 20.00     0.010 C 
HETATM   12  C7  UNL     1     -36.579  14.467  -3.978  1.00 20.00     0.010 C 
ENDBRANCH   1  10
TORSDOF 5
ENDMDL
MODEL 9
REMARK VINA RESULT:      -4.3      1.392      2.180
REMARK  5 active torsions:
REMARK  status: ('A' for Active; 'I' for Inactive)
REMARK    1  A    between atoms: C2_2  and  C8_8 
REMARK    2  A    between atoms: C2_2  and  C9_9 
REMARK    3  A    between atoms: C3_3  and  C10_10 
REMARK    4  A    between atoms: C9_9  and  C10_10 
REMARK    5  A    between atoms: C10_10  and  C11_11 
ROOT
HETATM    1  C10 UNL     1     -34.752  15.055  -4.657  1.00 20.00     0.062 C 
ENDROOT
BRANCH   1   2
HETATM    2  C3  UNL     1     -34.346  13.640  -4.235  1.00 20.00     0.127 C 
HETATM    3  C4  UNL     1     -33.025  13.496  -3.524  1.00 20.00     0.091 C 
HETATM    4  O12 UNL     1     -35.061  12.660  -4.446  1.00 20.00    -0.298 OA
ENDBRANCH   1   2
BRANCH   1   5
HETATM    5  C9  UNL     1     -33.539  16.004  -4.557  1.00 20.00     0.045 C 
BRANCH   5   6
HETATM    6  C2  UNL     1     -33.740  17.167  -3.604  1.00 20.00    -0.089 C 
HETATM    7  C1  UNL     1     -33.904  16.956  -2.287  1.00 20.00     0.014 C 
BRANCH   6   8
HETATM    8  C8  UNL     1     -33.760  18.571  -4.166  1.00 20.00     0.029 C 
HETATM    9  C5  UNL     1     -33.577  18.612  -5.676  1.00 20.00     0.010 C 
ENDBRANCH   6   8
ENDBRANCH   5   6
ENDBRANCH   1   5
BRANCH   1  10
HETATM   10  C11 UNL     1     -35.406  15.092  -6.065  1.00 20.00    -0.011 C 
HETATM   11  C6  UNL     1     -34.417  15.123  -7.233  1.00 20.00     0.010 C 
HETATM   12  C7  UNL     1     -36.400  16.251  -6.199  1.00 20.00     0.010 C 
ENDBRANCH   1  10
TORSDOF 5
ENDMDL
