MODEL 1
REMARK VINA RESULT:      -5.3      0.000      0.000
REMARK  5 active torsions:
REMARK  status: ('A' for Active; 'I' for Inactive)
REMARK    1  A    between atoms: C4_4  and  C7_7 
REMARK    2  A    between atoms: C4_4  and  C8_8 
REMARK    3  A    between atoms: C6_6  and  C9_9 
REMARK    4  A    between atoms: C8_8  and  N10_10 
REMARK    5  A    between atoms: C9_9  and  N10_10 
ROOT
HETATM    1  C1  UNL     1     -32.110   8.899   1.062  1.00 20.00     0.012 C 
HETATM    2  C2  UNL     1     -32.046   8.250   2.069  1.00 20.00    -0.116 C 
HETATM    3  C6  UNL     1     -31.968   7.456   3.305  1.00 20.00     0.123 C 
ENDROOT
BRANCH   3   4
HETATM    4  C9  UNL     1     -32.192   5.970   3.046  1.00 20.00     0.282 C 
BRANCH   4   5
HETATM    5  N10 UNL     1     -33.611   5.673   2.921  1.00 20.00     0.088 N 
HETATM    6  H25 UNL     1     -33.956   6.037   2.034  1.00 20.00     0.316 HD
BRANCH   5   7
HETATM    7  C8  UNL     1     -34.367   6.282   4.011  1.00 20.00     0.302 C 
BRANCH   7   8
HETATM    8  C4  UNL     1     -34.664   5.313   5.132  1.00 20.00    -0.062 C 
HETATM    9  C3  UNL     1     -35.139   4.085   4.870  1.00 20.00     0.016 C 
BRANCH   8  10
HETATM   10  C7  UNL     1     -34.413   5.761   6.555  1.00 20.00     0.030 C 
HETATM   11  C5  UNL     1     -33.644   7.072   6.636  1.00 20.00     0.010 C 
ENDBRANCH   8  10
ENDBRANCH   7   8
ENDBRANCH   5   7
ENDBRANCH   4   5
ENDBRANCH   3   4
TORSDOF 5
ENDMDL
MODEL 2
REMARK VINA RESULT:      -4.8      0.780      1.871
REMARK  5 active torsions:
REMARK  status: ('A' for Active; 'I' for Inactive)
REMARK    1  A    between atoms: C4_4  and  C7_7 
REMARK    2  A    between atoms: C4_4  and  C8_8 
REMARK    3  A    between atoms: C6_6  and  C9_9 
REMARK    4  A    between atoms: C8_8  and  N10_10 
REMARK    5  A    between atoms: C9_9  and  N10_10 
ROOT
HETATM    1  C1  UNL     1     -32.404   9.531   0.754  1.00 20.00     0.012 C 
HETATM    2  C2  UNL     1     -32.138   8.784   1.655  1.00 20.00    -0.116 C 
HETATM    3  C6  UNL     1     -31.812   7.871   2.761  1.00 20.00     0.123 C 
ENDROOT
BRANCH   3   4
HETATM    4  C9  UNL     1     -32.416   6.485   2.557  1.00 20.00     0.282 C 
BRANCH   4   5
HETATM    5  N10 UNL     1     -32.722   5.859   3.834  1.00 20.00     0.088 N 
HETATM    6  H25 UNL     1     -32.740   4.846   3.719  1.00 20.00     0.316 HD
BRANCH   5   7
HETATM    7  C8  UNL     1     -34.019   6.304   4.334  1.00 20.00     0.302 C 
BRANCH   7   8
HETATM    8  C4  UNL     1     -34.164   6.130   5.828  1.00 20.00    -0.062 C 
HETATM    9  C3  UNL     1     -33.704   7.064   6.676  1.00 20.00     0.016 C 
BRANCH   8  10
HETATM   10  C7  UNL     1     -34.841   4.879   6.344  1.00 20.00     0.030 C 
HETATM   11  C5  UNL     1     -35.135   3.869   5.244  1.00 20.00     0.010 C 
ENDBRANCH   8  10
ENDBRANCH   7   8
ENDBRANCH   5   7
ENDBRANCH   4   5
ENDBRANCH   3   4
TORSDOF 5
ENDMDL
MODEL 3
REMARK VINA RESULT:      -4.8      0.856      4.576
REMARK  5 active torsions:
REMARK  status: ('A' for Active; 'I' for Inactive)
REMARK    1  A    between atoms: C4_4  and  C7_7 
REMARK    2  A    between atoms: C4_4  and  C8_8 
REMARK    3  A    between atoms: C6_6  and  C9_9 
REMARK    4  A    between atoms: C8_8  and  N10_10 
REMARK    5  A    between atoms: C9_9  and  N10_10 
ROOT
HETATM    1  C1  UNL     1     -33.676   7.085   6.803  1.00 20.00     0.012 C 
HETATM    2  C2  UNL     1     -34.181   6.137   6.269  1.00 20.00    -0.116 C 
HETATM    3  C6  UNL     1     -34.802   4.973   5.617  1.00 20.00     0.123 C 
ENDROOT
BRANCH   3   4
HETATM    4  C9  UNL     1     -34.884   5.142   4.103  1.00 20.00     0.282 C 
BRANCH   4   5
HETATM    5  N10 UNL     1     -34.265   6.392   3.686  1.00 20.00     0.088 N 
HETATM    6  H25 UNL     1     -34.910   6.906   3.088  1.00 20.00     0.316 HD
BRANCH   5   7
HETATM    7  C8  UNL     1     -33.031   6.140   2.949  1.00 20.00     0.302 C 
BRANCH   7   8
HETATM    8  C4  UNL     1     -32.125   7.348   2.889  1.00 20.00    -0.062 C 
HETATM    9  C3  UNL     1     -31.407   7.721   3.961  1.00 20.00     0.016 C 
BRANCH   8  10
HETATM   10  C7  UNL     1     -32.047   8.125   1.594  1.00 20.00     0.030 C 
HETATM   11  C5  UNL     1     -32.476   9.577   1.748  1.00 20.00     0.010 C 
ENDBRANCH   8  10
ENDBRANCH   7   8
ENDBRANCH   5   7
ENDBRANCH   4   5
ENDBRANCH   3   4
TORSDOF 5
ENDMDL
MODEL 4
REMARK VINA RESULT:      -4.1      1.371      5.398
REMARK  5 active torsions:
REMARK  status: ('A' for Active; 'I' for Inactive)
REMARK    1  A    between atoms: C4_4  and  C7_7 
REMARK    2  A    between atoms: C4_4  and  C8_8 
REMARK    3  A    between atoms: C6_6  and  C9_9 
REMARK    4  A    between atoms: C8_8  and  N10_10 
REMARK    5  A    between atoms: C9_9  and  N10_10 
ROOT
HETATM    1  C1  UNL     1     -35.139   4.245   6.018  1.00 20.00     0.012 C 
HETATM    2  C2  UNL     1     -34.954   4.786   4.963  1.00 20.00    -0.116 C 
HETATM    3  C6  UNL     1     -34.731   5.447   3.668  1.00 20.00     0.123 C 
ENDROOT
BRANCH   3   4
HETATM    4  C9  UNL     1     -33.820   6.664   3.796  1.00 20.00     0.282 C 
BRANCH   4   5
HETATM    5  N10 UNL     1     -32.628   6.509   2.975  1.00 20.00     0.088 N 
HETATM    6  H25 UNL     1     -32.084   5.717   3.314  1.00 20.00     0.316 HD
BRANCH   5   7
HETATM    7  C8  UNL     1     -31.802   7.711   3.026  1.00 20.00     0.302 C 
BRANCH   7   8
HETATM    8  C4  UNL     1     -32.112   8.685   1.912  1.00 20.00    -0.062 C 
HETATM    9  C3  UNL     1     -32.718   9.855   2.172  1.00 20.00     0.016 C 
BRANCH   8  10
HETATM   10  C7  UNL     1     -31.722   8.309   0.500  1.00 20.00     0.030 C 
HETATM   11  C5  UNL     1     -32.721   8.800  -0.539  1.00 20.00     0.010 C 
ENDBRANCH   8  10
ENDBRANCH   7   8
ENDBRANCH   5   7
ENDBRANCH   4   5
ENDBRANCH   3   4
TORSDOF 5
ENDMDL
MODEL 5
REMARK VINA RESULT:      -4.1     11.181     12.737
REMARK  5 active torsions:
REMARK  status: ('A' for Active; 'I' for Inactive)
REMARK    1  A    between atoms: C4_4  and  C7_7 
REMARK    2  A    between atoms: C4_4  and  C8_8 
REMARK    3  A    between atoms: C6_6  and  C9_9 
REMARK    4  A    between atoms: C8_8  and  N10_10 
REMARK    5  A    between atoms: C9_9  and  N10_10 
ROOT
HETATM    1  C1  UNL     1     -35.215  14.529  -7.296  1.00 20.00     0.012 C 
HETATM    2  C2  UNL     1     -34.769  15.614  -7.047  1.00 20.00    -0.116 C 
HETATM    3  C6  UNL     1     -34.224  16.947  -6.744  1.00 20.00     0.123 C 
ENDROOT
BRANCH   3   4
HETATM    4  C9  UNL     1     -33.585  17.002  -5.360  1.00 20.00     0.282 C 
BRANCH   4   5
HETATM    5  N10 UNL     1     -32.807  15.800  -5.100  1.00 20.00     0.088 N 
HETATM    6  H25 UNL     1     -33.162  15.036  -5.673  1.00 20.00     0.316 HD
BRANCH   5   7
HETATM    7  C8  UNL     1     -32.896  15.419  -3.693  1.00 20.00     0.302 C 
BRANCH   7   8
HETATM    8  C4  UNL     1     -34.236  14.823  -3.329  1.00 20.00    -0.062 C 
HETATM    9  C3  UNL     1     -34.608  13.626  -3.810  1.00 20.00     0.016 C 
BRANCH   8  10
HETATM   10  C7  UNL     1     -35.147  15.608  -2.411  1.00 20.00     0.030 C 
HETATM   11  C5  UNL     1     -34.388  16.552  -1.490  1.00 20.00     0.010 C 
ENDBRANCH   8  10
ENDBRANCH   7   8
ENDBRANCH   5   7
ENDBRANCH   4   5
ENDBRANCH   3   4
TORSDOF 5
ENDMDL
MODEL 6
REMARK VINA RESULT:      -4.1     10.850     12.524
REMARK  5 active torsions:
REMARK  status: ('A' for Active; 'I' for Inactive)
REMARK    1  A    between atoms: C4_4  and  C7_7 
REMARK    2  A    between atoms: C4_4  and  C8_8 
REMARK    3  A    between atoms: C6_6  and  C9_9 
REMARK    4  A    between atoms: C8_8  and  N10_10 
REMARK    5  A    between atoms: C9_9  and  N10_10 
ROOT
HETATM    1  C1  UNL     1     -34.679  16.393  -1.711  1.00 20.00     0.012 C 
HETATM    2  C2  UNL     1     -33.924  15.946  -2.531  1.00 20.00    -0.116 C 
HETATM    3  C6  UNL     1     -32.998  15.401  -3.535  1.00 20.00     0.123 C 
ENDROOT
BRANCH   3   4
HETATM    4  C9  UNL     1     -33.051  13.878  -3.595  1.00 20.00     0.282 C 
BRANCH   4   5
HETATM    5  N10 UNL     1     -34.426  13.410  -3.693  1.00 20.00     0.088 N 
HETATM    6  H25 UNL     1     -34.534  12.557  -3.145  1.00 20.00     0.316 HD
BRANCH   5   7
HETATM    7  C8  UNL     1     -34.782  13.132  -5.081  1.00 20.00     0.302 C 
BRANCH   7   8
HETATM    8  C4  UNL     1     -35.359  14.334  -5.792  1.00 20.00    -0.062 C 
HETATM    9  C3  UNL     1     -36.499  14.902  -5.365  1.00 20.00     0.016 C 
BRANCH   8  10
HETATM   10  C7  UNL     1     -34.622  14.882  -6.994  1.00 20.00     0.030 C 
HETATM   11  C5  UNL     1     -34.355  16.377  -6.892  1.00 20.00     0.010 C 
ENDBRANCH   8  10
ENDBRANCH   7   8
ENDBRANCH   5   7
ENDBRANCH   4   5
ENDBRANCH   3   4
TORSDOF 5
ENDMDL
MODEL 7
REMARK VINA RESULT:      -4.0     10.977     12.170
REMARK  5 active torsions:
REMARK  status: ('A' for Active; 'I' for Inactive)
REMARK    1  A    between atoms: C4_4  and  C7_7 
REMARK    2  A    between atoms: C4_4  and  C8_8 
REMARK    3  A    between atoms: C6_6  and  C9_9 
REMARK    4  A    between atoms: C8_8  and  N10_10 
REMARK    5  A    between atoms: C9_9  and  N10_10 
ROOT
HETATM    1  C1  UNL     1     -34.930  17.631   0.780  1.00 20.00     0.012 C 
HETATM    2  C2  UNL     1     -34.785  17.039  -0.254  1.00 20.00    -0.116 C 
HETATM    3  C6  UNL     1     -34.606  16.311  -1.520  1.00 20.00     0.123 C 
ENDROOT
BRANCH   3   4
HETATM    4  C9  UNL     1     -35.682  16.666  -2.541  1.00 20.00     0.282 C 
BRANCH   4   5
HETATM    5  N10 UNL     1     -36.407  15.477  -2.965  1.00 20.00     0.088 N 
HETATM    6  H25 UNL     1     -35.926  14.647  -2.622  1.00 20.00     0.316 HD
BRANCH   5   7
HETATM    7  C8  UNL     1     -36.490  15.411  -4.421  1.00 20.00     0.302 C 
BRANCH   7   8
HETATM    8  C4  UNL     1     -35.546  14.393  -5.017  1.00 20.00    -0.062 C 
HETATM    9  C3  UNL     1     -35.282  14.391  -6.334  1.00 20.00     0.016 C 
BRANCH   8  10
HETATM   10  C7  UNL     1     -34.906  13.378  -4.096  1.00 20.00     0.030 C 
HETATM   11  C5  UNL     1     -33.436  13.671  -3.825  1.00 20.00     0.010 C 
ENDBRANCH   8  10
ENDBRANCH   7   8
ENDBRANCH   5   7
ENDBRANCH   4   5
ENDBRANCH   3   4
TORSDOF 5
ENDMDL
MODEL 8
REMARK VINA RESULT:      -4.0     11.471     12.920
REMARK  5 active torsions:
REMARK  status: ('A' for Active; 'I' for Inactive)
REMARK    1  A    between atoms: C4_4  and  C7_7 
REMARK    2  A    between atoms: C4_4  and  C8_8 
REMARK    3  A    between atoms: C6_6  and  C9_9 
REMARK    4  A    between atoms: C8_8  and  N10_10 
REMARK    5  A    between atoms: C9_9  and  N10_10 
ROOT
HETATM    1  C1  UNL     1     -34.749  14.795  -7.518  1.00 20.00     0.012 C 
HETATM    2  C2  UNL     1     -34.546  15.873  -7.031  1.00 20.00    -0.116 C 
HETATM    3  C6  UNL     1     -34.300  17.196  -6.435  1.00 20.00     0.123 C 
ENDROOT
BRANCH   3   4
HETATM    4  C9  UNL     1     -33.396  17.112  -5.210  1.00 20.00     0.282 C 
BRANCH   4   5
HETATM    5  N10 UNL     1     -32.862  15.768  -5.050  1.00 20.00     0.088 N 
HETATM    6  H25 UNL     1     -33.413  15.116  -5.607  1.00 20.00     0.316 HD
BRANCH   5   7
HETATM    7  C8  UNL     1     -32.907  15.354  -3.651  1.00 20.00     0.302 C 
BRANCH   7   8
HETATM    8  C4  UNL     1     -34.314  15.122  -3.152  1.00 20.00    -0.062 C 
HETATM    9  C3  UNL     1     -34.811  15.849  -2.138  1.00 20.00     0.016 C 
BRANCH   8  10
HETATM   10  C7  UNL     1     -35.148  14.053  -3.822  1.00 20.00     0.030 C 
HETATM   11  C5  UNL     1     -36.574  14.506  -4.104  1.00 20.00     0.010 C 
ENDBRANCH   8  10
ENDBRANCH   7   8
ENDBRANCH   5   7
ENDBRANCH   4   5
ENDBRANCH   3   4
TORSDOF 5
ENDMDL
MODEL 9
REMARK VINA RESULT:      -4.0     11.085     12.429
REMARK  5 active torsions:
REMARK  status: ('A' for Active; 'I' for Inactive)
REMARK    1  A    between atoms: C4_4  and  C7_7 
REMARK    2  A    between atoms: C4_4  and  C8_8 
REMARK    3  A    between atoms: C6_6  and  C9_9 
REMARK    4  A    between atoms: C8_8  and  N10_10 
REMARK    5  A    between atoms: C9_9  and  N10_10 
ROOT
HETATM    1  C1  UNL     1     -33.695  17.652  -5.627  1.00 20.00     0.012 C 
HETATM    2  C2  UNL     1     -33.960  16.639  -6.213  1.00 20.00    -0.116 C 
HETATM    3  C6  UNL     1     -34.284  15.398  -6.934  1.00 20.00     0.123 C 
ENDROOT
BRANCH   3   4
HETATM    4  C9  UNL     1     -34.715  14.282  -5.987  1.00 20.00     0.282 C 
BRANCH   4   5
HETATM    5  N10 UNL     1     -33.814  14.192  -4.847  1.00 20.00     0.088 N 
HETATM    6  H25 UNL     1     -33.171  13.414  -4.984  1.00 20.00     0.316 HD
BRANCH   5   7
HETATM    7  C8  UNL     1     -34.561  13.980  -3.611  1.00 20.00     0.302 C 
BRANCH   7   8
HETATM    8  C4  UNL     1     -35.037  15.270  -2.984  1.00 20.00    -0.062 C 
HETATM    9  C3  UNL     1     -36.314  15.665  -3.110  1.00 20.00     0.016 C 
BRANCH   8  10
HETATM   10  C7  UNL     1     -34.040  16.103  -2.209  1.00 20.00     0.030 C 
HETATM   11  C5  UNL     1     -34.607  16.641  -0.903  1.00 20.00     0.010 C 
ENDBRANCH   8  10
ENDBRANCH   7   8
ENDBRANCH   5   7
ENDBRANCH   4   5
ENDBRANCH   3   4
TORSDOF 5
ENDMDL
