MODEL 1
REMARK VINA RESULT:      -4.3      0.000      0.000
REMARK  5 active torsions:
REMARK  status: ('A' for Active; 'I' for Inactive)
REMARK    1  A    between atoms: C4_4  and  C5_5 
REMARK    2  A    between atoms: C4_4  and  C8_8 
REMARK    3  A    between atoms: C5_5  and  O9_9 
REMARK    4  A    between atoms: C6_6  and  C8_8 
REMARK    5  A    between atoms: C7_7  and  C8_8 
ROOT
HETATM    1  C8  UNL     1     -33.870   6.302   4.213  1.00 20.00     0.005 C 
ENDROOT
BRANCH   1   2
HETATM    2  C4  UNL     1     -32.471   6.304   3.544  1.00 20.00     0.032 C 
BRANCH   2   3
HETATM    3  C5  UNL     1     -31.925   7.689   3.208  1.00 20.00     0.167 C 
BRANCH   3   4
HETATM    4  O9  UNL     1     -32.136   7.937   1.822  1.00 20.00    -0.396 OA
HETATM    5  C3  UNL     1     -32.327   9.321   1.565  1.00 20.00     0.201 C 
ENDBRANCH   3   4
ENDBRANCH   2   3
ENDBRANCH   1   2
BRANCH   1   6
HETATM    6  C6  UNL     1     -34.911   5.509   3.395  1.00 20.00     0.119 C 
HETATM    7 CL10 UNL     1     -34.269   4.878   1.860  1.00 20.00    -0.130 Cl
ENDBRANCH   1   6
BRANCH   1   8
HETATM    8  C7  UNL     1     -33.783   5.843   5.707  1.00 20.00    -0.017 C 
HETATM    9  C1  UNL     1     -33.796   7.028   6.683  1.00 20.00     0.010 C 
HETATM   10  C2  UNL     1     -34.925   4.893   6.094  1.00 20.00     0.010 C 
ENDBRANCH   1   8
TORSDOF 5
ENDMDL
MODEL 2
REMARK VINA RESULT:      -4.0      2.114      2.751
REMARK  5 active torsions:
REMARK  status: ('A' for Active; 'I' for Inactive)
REMARK    1  A    between atoms: C4_4  and  C5_5 
REMARK    2  A    between atoms: C4_4  and  C8_8 
REMARK    3  A    between atoms: C5_5  and  O9_9 
REMARK    4  A    between atoms: C6_6  and  C8_8 
REMARK    5  A    between atoms: C7_7  and  C8_8 
ROOT
HETATM    1  C8  UNL     1     -33.698   5.925   5.048  1.00 20.00     0.005 C 
ENDROOT
BRANCH   1   2
HETATM    2  C4  UNL     1     -33.470   7.046   4.001  1.00 20.00     0.032 C 
BRANCH   2   3
HETATM    3  C5  UNL     1     -32.348   6.771   3.004  1.00 20.00     0.167 C 
BRANCH   3   4
HETATM    4  O9  UNL     1     -31.653   7.987   2.753  1.00 20.00    -0.396 OA
HETATM    5  C3  UNL     1     -32.060   8.575   1.526  1.00 20.00     0.201 C 
ENDBRANCH   3   4
ENDBRANCH   2   3
ENDBRANCH   1   2
BRANCH   1   6
HETATM    6  C6  UNL     1     -34.133   6.483   6.420  1.00 20.00     0.119 C 
HETATM    7 CL10 UNL     1     -33.006   7.693   7.077  1.00 20.00    -0.130 Cl
ENDBRANCH   1   6
BRANCH   1   8
HETATM    8  C7  UNL     1     -34.665   4.824   4.498  1.00 20.00    -0.017 C 
HETATM    9  C1  UNL     1     -35.218   3.924   5.613  1.00 20.00     0.010 C 
HETATM   10  C2  UNL     1     -35.854   5.419   3.730  1.00 20.00     0.010 C 
ENDBRANCH   1   8
TORSDOF 5
ENDMDL
MODEL 3
REMARK VINA RESULT:      -4.0     10.946     12.040
REMARK  5 active torsions:
REMARK  status: ('A' for Active; 'I' for Inactive)
REMARK    1  A    between atoms: C4_4  and  C5_5 
REMARK    2  A    between atoms: C4_4  and  C8_8 
REMARK    3  A    between atoms: C5_5  and  O9_9 
REMARK    4  A    between atoms: C6_6  and  C8_8 
REMARK    5  A    between atoms: C7_7  and  C8_8 
ROOT
HETATM    1  C8  UNL     1     -33.609  16.107  -3.112  1.00 20.00     0.005 C 
ENDROOT
BRANCH   1   2
HETATM    2  C4  UNL     1     -33.375  14.804  -3.919  1.00 20.00     0.032 C 
BRANCH   2   3
HETATM    3  C5  UNL     1     -34.209  13.610  -3.462  1.00 20.00     0.167 C 
BRANCH   3   4
HETATM    4  O9  UNL     1     -34.584  12.853  -4.606  1.00 20.00    -0.396 OA
HETATM    5  C3  UNL     1     -35.027  13.692  -5.664  1.00 20.00     0.201 C 
ENDBRANCH   3   4
ENDBRANCH   2   3
ENDBRANCH   1   2
BRANCH   1   6
HETATM    6  C6  UNL     1     -33.629  17.360  -4.013  1.00 20.00     0.119 C 
HETATM    7 CL10 UNL     1     -33.568  16.980  -5.750  1.00 20.00    -0.130 Cl
ENDBRANCH   1   6
BRANCH   1   8
HETATM    8  C7  UNL     1     -34.874  15.987  -2.198  1.00 20.00    -0.017 C 
HETATM    9  C1  UNL     1     -34.650  16.603  -0.809  1.00 20.00     0.010 C 
HETATM   10  C2  UNL     1     -36.111  16.650  -2.821  1.00 20.00     0.010 C 
ENDBRANCH   1   8
TORSDOF 5
ENDMDL
MODEL 4
REMARK VINA RESULT:      -3.8     10.956     12.125
REMARK  5 active torsions:
REMARK  status: ('A' for Active; 'I' for Inactive)
REMARK    1  A    between atoms: C4_4  and  C5_5 
REMARK    2  A    between atoms: C4_4  and  C8_8 
REMARK    3  A    between atoms: C5_5  and  O9_9 
REMARK    4  A    between atoms: C6_6  and  C8_8 
REMARK    5  A    between atoms: C7_7  and  C8_8 
ROOT
HETATM    1  C8  UNL     1     -33.573  16.189  -3.167  1.00 20.00     0.005 C 
ENDROOT
BRANCH   1   2
HETATM    2  C4  UNL     1     -34.492  14.941  -3.123  1.00 20.00     0.032 C 
BRANCH   2   3
HETATM    3  C5  UNL     1     -33.824  13.639  -3.557  1.00 20.00     0.167 C 
BRANCH   3   4
HETATM    4  O9  UNL     1     -34.741  12.903  -4.359  1.00 20.00    -0.396 OA
HETATM    5  C3  UNL     1     -35.051  13.593  -5.562  1.00 20.00     0.201 C 
ENDBRANCH   3   4
ENDBRANCH   2   3
ENDBRANCH   1   2
BRANCH   1   6
HETATM    6  C6  UNL     1     -33.871  17.097  -4.379  1.00 20.00     0.119 C 
HETATM    7 CL10 UNL     1     -35.596  17.149  -4.812  1.00 20.00    -0.130 Cl
ENDBRANCH   1   6
BRANCH   1   8
HETATM    8  C7  UNL     1     -33.597  16.957  -1.803  1.00 20.00    -0.017 C 
HETATM    9  C1  UNL     1     -33.656  18.480  -1.993  1.00 20.00     0.010 C 
HETATM   10  C2  UNL     1     -34.779  16.540  -0.917  1.00 20.00     0.010 C 
ENDBRANCH   1   8
TORSDOF 5
ENDMDL
MODEL 5
REMARK VINA RESULT:      -3.8     11.178     11.957
REMARK  5 active torsions:
REMARK  status: ('A' for Active; 'I' for Inactive)
REMARK    1  A    between atoms: C4_4  and  C5_5 
REMARK    2  A    between atoms: C4_4  and  C8_8 
REMARK    3  A    between atoms: C5_5  and  O9_9 
REMARK    4  A    between atoms: C6_6  and  C8_8 
REMARK    5  A    between atoms: C7_7  and  C8_8 
ROOT
HETATM    1  C8  UNL     1     -34.870  15.125  -2.658  1.00 20.00     0.005 C 
ENDROOT
BRANCH   1   2
HETATM    2  C4  UNL     1     -36.268  15.498  -3.214  1.00 20.00     0.032 C 
BRANCH   2   3
HETATM    3  C5  UNL     1     -36.886  14.457  -4.143  1.00 20.00     0.167 C 
BRANCH   3   4
HETATM    4  O9  UNL     1     -38.232  14.231  -3.742  1.00 20.00    -0.396 OA
HETATM    5  C3  UNL     1     -38.884  15.445  -3.398  1.00 20.00     0.201 C 
ENDBRANCH   3   4
ENDBRANCH   2   3
ENDBRANCH   1   2
BRANCH   1   6
HETATM    6  C6  UNL     1     -34.023  14.334  -3.678  1.00 20.00     0.119 C 
HETATM    7 CL10 UNL     1     -32.278  14.645  -3.535  1.00 20.00    -0.130 Cl
ENDBRANCH   1   6
BRANCH   1   8
HETATM    8  C7  UNL     1     -34.131  16.383  -2.090  1.00 20.00    -0.017 C 
HETATM    9  C1  UNL     1     -34.307  17.616  -2.989  1.00 20.00     0.010 C 
HETATM   10  C2  UNL     1     -34.603  16.751  -0.676  1.00 20.00     0.010 C 
ENDBRANCH   1   8
TORSDOF 5
ENDMDL
MODEL 6
REMARK VINA RESULT:      -3.8     11.377     12.281
REMARK  5 active torsions:
REMARK  status: ('A' for Active; 'I' for Inactive)
REMARK    1  A    between atoms: C4_4  and  C5_5 
REMARK    2  A    between atoms: C4_4  and  C8_8 
REMARK    3  A    between atoms: C5_5  and  O9_9 
REMARK    4  A    between atoms: C6_6  and  C8_8 
REMARK    5  A    between atoms: C7_7  and  C8_8 
ROOT
HETATM    1  C8  UNL     1     -34.300  14.954  -3.060  1.00 20.00     0.005 C 
ENDROOT
BRANCH   1   2
HETATM    2  C4  UNL     1     -33.136  15.406  -3.979  1.00 20.00     0.032 C 
BRANCH   2   3
HETATM    3  C5  UNL     1     -33.355  16.745  -4.677  1.00 20.00     0.167 C 
BRANCH   3   4
HETATM    4  O9  UNL     1     -33.769  16.498  -6.016  1.00 20.00    -0.396 OA
HETATM    5  C3  UNL     1     -34.921  17.258  -6.353  1.00 20.00     0.201 C 
ENDBRANCH   3   4
ENDBRANCH   2   3
ENDBRANCH   1   2
BRANCH   1   6
HETATM    6  C6  UNL     1     -35.081  16.148  -2.469  1.00 20.00     0.119 C 
HETATM    7 CL10 UNL     1     -34.622  16.529  -0.793  1.00 20.00    -0.130 Cl
ENDBRANCH   1   6
BRANCH   1   8
HETATM    8  C7  UNL     1     -35.221  13.914  -3.782  1.00 20.00    -0.017 C 
HETATM    9  C1  UNL     1     -36.519  14.549  -4.302  1.00 20.00     0.010 C 
HETATM   10  C2  UNL     1     -34.518  13.229  -4.962  1.00 20.00     0.010 C 
ENDBRANCH   1   8
TORSDOF 5
ENDMDL
MODEL 7
REMARK VINA RESULT:      -3.7     11.383     12.202
REMARK  5 active torsions:
REMARK  status: ('A' for Active; 'I' for Inactive)
REMARK    1  A    between atoms: C4_4  and  C5_5 
REMARK    2  A    between atoms: C4_4  and  C8_8 
REMARK    3  A    between atoms: C5_5  and  O9_9 
REMARK    4  A    between atoms: C6_6  and  C8_8 
REMARK    5  A    between atoms: C7_7  and  C8_8 
ROOT
HETATM    1  C8  UNL     1     -34.095  16.547  -2.654  1.00 20.00     0.005 C 
ENDROOT
BRANCH   1   2
HETATM    2  C4  UNL     1     -35.559  16.035  -2.650  1.00 20.00     0.032 C 
BRANCH   2   3
HETATM    3  C5  UNL     1     -35.813  14.818  -3.536  1.00 20.00     0.167 C 
BRANCH   3   4
HETATM    4  O9  UNL     1     -34.648  14.000  -3.531  1.00 20.00    -0.396 OA
HETATM    5  C3  UNL     1     -34.511  13.282  -4.749  1.00 20.00     0.201 C 
ENDBRANCH   3   4
ENDBRANCH   2   3
ENDBRANCH   1   2
BRANCH   1   6
HETATM    6  C6  UNL     1     -33.807  17.495  -3.838  1.00 20.00     0.119 C 
HETATM    7 CL10 UNL     1     -33.199  16.653  -5.282  1.00 20.00    -0.130 Cl
ENDBRANCH   1   6
BRANCH   1   8
HETATM    8  C7  UNL     1     -33.706  17.160  -1.267  1.00 20.00    -0.017 C 
HETATM    9  C1  UNL     1     -33.379  18.657  -1.363  1.00 20.00     0.010 C 
HETATM   10  C2  UNL     1     -34.811  16.979  -0.216  1.00 20.00     0.010 C 
ENDBRANCH   1   8
TORSDOF 5
ENDMDL
MODEL 8
REMARK VINA RESULT:      -3.7     10.769     11.936
REMARK  5 active torsions:
REMARK  status: ('A' for Active; 'I' for Inactive)
REMARK    1  A    between atoms: C4_4  and  C5_5 
REMARK    2  A    between atoms: C4_4  and  C8_8 
REMARK    3  A    between atoms: C5_5  and  O9_9 
REMARK    4  A    between atoms: C6_6  and  C8_8 
REMARK    5  A    between atoms: C7_7  and  C8_8 
ROOT
HETATM    1  C8  UNL     1     -34.849  15.594  -2.650  1.00 20.00     0.005 C 
ENDROOT
BRANCH   1   2
HETATM    2  C4  UNL     1     -34.011  15.006  -3.814  1.00 20.00     0.032 C 
BRANCH   2   3
HETATM    3  C5  UNL     1     -33.750  13.505  -3.718  1.00 20.00     0.167 C 
BRANCH   3   4
HETATM    4  O9  UNL     1     -34.616  12.834  -4.627  1.00 20.00    -0.396 OA
HETATM    5  C3  UNL     1     -34.866  13.620  -5.783  1.00 20.00     0.201 C 
ENDBRANCH   3   4
ENDBRANCH   2   3
ENDBRANCH   1   2
BRANCH   1   6
HETATM    6  C6  UNL     1     -34.039  16.580  -1.781  1.00 20.00     0.119 C 
HETATM    7 CL10 UNL     1     -34.788  16.903  -0.199  1.00 20.00    -0.130 Cl
ENDBRANCH   1   6
BRANCH   1   8
HETATM    8  C7  UNL     1     -36.196  16.200  -3.172  1.00 20.00    -0.017 C 
HETATM    9  C1  UNL     1     -35.996  17.079  -4.416  1.00 20.00     0.010 C 
HETATM   10  C2  UNL     1     -37.231  15.118  -3.512  1.00 20.00     0.010 C 
ENDBRANCH   1   8
TORSDOF 5
ENDMDL
MODEL 9
REMARK VINA RESULT:      -3.7     11.174     12.098
REMARK  5 active torsions:
REMARK  status: ('A' for Active; 'I' for Inactive)
REMARK    1  A    between atoms: C4_4  and  C5_5 
REMARK    2  A    between atoms: C4_4  and  C8_8 
REMARK    3  A    between atoms: C5_5  and  O9_9 
REMARK    4  A    between atoms: C6_6  and  C8_8 
REMARK    5  A    between atoms: C7_7  and  C8_8 
ROOT
HETATM    1  C8  UNL     1     -34.173  15.969  -3.523  1.00 20.00     0.005 C 
ENDROOT
BRANCH   1   2
HETATM    2  C4  UNL     1     -33.721  16.611  -2.187  1.00 20.00     0.032 C 
BRANCH   2   3
HETATM    3  C5  UNL     1     -34.782  16.618  -1.090  1.00 20.00     0.167 C 
BRANCH   3   4
HETATM    4  O9  UNL     1     -34.270  17.326   0.033  1.00 20.00    -0.396 OA
HETATM    5  C3  UNL     1     -33.350  18.334  -0.362  1.00 20.00     0.201 C 
ENDBRANCH   3   4
ENDBRANCH   2   3
ENDBRANCH   1   2
BRANCH   1   6
HETATM    6  C6  UNL     1     -33.170  16.225  -4.668  1.00 20.00     0.119 C 
HETATM    7 CL10 UNL     1     -33.943  16.353  -6.266  1.00 20.00    -0.130 Cl
ENDBRANCH   1   6
BRANCH   1   8
HETATM    8  C7  UNL     1     -34.516  14.453  -3.336  1.00 20.00    -0.017 C 
HETATM    9  C1  UNL     1     -35.806  14.052  -4.067  1.00 20.00     0.010 C 
HETATM   10  C2  UNL     1     -33.387  13.533  -3.821  1.00 20.00     0.010 C 
ENDBRANCH   1   8
TORSDOF 5
ENDMDL
