MODEL 1
REMARK VINA RESULT:      -4.2      0.000      0.000
REMARK  4 active torsions:
REMARK  status: ('A' for Active; 'I' for Inactive)
REMARK    1  A    between atoms: C3_3  and  C5_5 
REMARK    2  A    between atoms: C3_3  and  C6_6 
REMARK    3  A    between atoms: C5_5  and  C7_7 
REMARK    4  A    between atoms: C7_7  and  O8_8 
ROOT
HETATM    1  C1  UNL     1     -35.570   5.377   4.100  1.00 20.00     0.011 A 
HETATM    2  C2  UNL     1     -34.955   4.108   4.618  1.00 20.00     0.011 A 
HETATM    3  C3  UNL     1     -34.341   5.441   4.977  1.00 20.00    -0.026 A 
ENDROOT
BRANCH   3   4
HETATM    4  C5  UNL     1     -33.033   5.812   4.334  1.00 20.00     0.037 C 
BRANCH   4   5
HETATM    5  C7  UNL     1     -33.211   6.789   3.176  1.00 20.00     0.167 C 
BRANCH   5   6
HETATM    6  O8  UNL     1     -31.978   7.445   2.918  1.00 20.00    -0.396 OA
HETATM    7  C4  UNL     1     -32.100   8.396   1.868  1.00 20.00     0.201 C 
ENDBRANCH   5   6
ENDBRANCH   4   5
ENDBRANCH   3   4
BRANCH   3   8
HETATM    8  C6  UNL     1     -34.507   5.935   6.387  1.00 20.00     0.124 C 
HETATM    9 CL9  UNL     1     -33.347   7.239   6.743  1.00 20.00    -0.130 Cl
ENDBRANCH   3   8
TORSDOF 4
ENDMDL
MODEL 2
REMARK VINA RESULT:      -3.8      1.766      2.254
REMARK  4 active torsions:
REMARK  status: ('A' for Active; 'I' for Inactive)
REMARK    1  A    between atoms: C3_3  and  C5_5 
REMARK    2  A    between atoms: C3_3  and  C6_6 
REMARK    3  A    between atoms: C5_5  and  C7_7 
REMARK    4  A    between atoms: C7_7  and  O8_8 
ROOT
HETATM    1  C1  UNL     1     -33.790   4.504   6.235  1.00 20.00     0.011 A 
HETATM    2  C2  UNL     1     -34.933   5.411   6.596  1.00 20.00     0.011 A 
HETATM    3  C3  UNL     1     -34.413   5.384   5.176  1.00 20.00    -0.026 A 
ENDROOT
BRANCH   3   4
HETATM    4  C5  UNL     1     -33.627   6.570   4.691  1.00 20.00     0.037 C 
BRANCH   4   5
HETATM    5  C7  UNL     1     -32.731   6.226   3.504  1.00 20.00     0.167 C 
BRANCH   5   6
HETATM    6  O8  UNL     1     -31.768   7.255   3.327  1.00 20.00    -0.396 OA
HETATM    7  C4  UNL     1     -32.083   8.082   2.214  1.00 20.00     0.201 C 
ENDBRANCH   5   6
ENDBRANCH   4   5
ENDBRANCH   3   4
BRANCH   3   8
HETATM    8  C6  UNL     1     -35.267   4.727   4.127  1.00 20.00     0.124 C 
HETATM    9 CL9  UNL     1     -36.256   5.933   3.267  1.00 20.00    -0.130 Cl
ENDBRANCH   3   8
TORSDOF 4
ENDMDL
MODEL 3
REMARK VINA RESULT:      -3.7     11.290     12.470
REMARK  4 active torsions:
REMARK  status: ('A' for Active; 'I' for Inactive)
REMARK    1  A    between atoms: C3_3  and  C5_5 
REMARK    2  A    between atoms: C3_3  and  C6_6 
REMARK    3  A    between atoms: C5_5  and  C7_7 
REMARK    4  A    between atoms: C7_7  and  O8_8 
ROOT
HETATM    1  C1  UNL     1     -33.361  16.763  -4.591  1.00 20.00     0.011 A 
HETATM    2  C2  UNL     1     -34.796  17.149  -4.371  1.00 20.00     0.011 A 
HETATM    3  C3  UNL     1     -34.061  16.356  -3.315  1.00 20.00    -0.026 A 
ENDROOT
BRANCH   3   4
HETATM    4  C5  UNL     1     -34.424  14.908  -3.140  1.00 20.00     0.037 C 
BRANCH   4   5
HETATM    5  C7  UNL     1     -33.348  13.969  -3.676  1.00 20.00     0.167 C 
BRANCH   5   6
HETATM    6  O8  UNL     1     -33.959  12.925  -4.421  1.00 20.00    -0.396 OA
HETATM    7  C4  UNL     1     -34.950  13.427  -5.309  1.00 20.00     0.201 C 
ENDBRANCH   5   6
ENDBRANCH   4   5
ENDBRANCH   3   4
BRANCH   3   8
HETATM    8  C6  UNL     1     -33.676  17.062  -2.045  1.00 20.00     0.124 C 
HETATM    9 CL9  UNL     1     -34.693  16.523  -0.686  1.00 20.00    -0.130 Cl
ENDBRANCH   3   8
TORSDOF 4
ENDMDL
MODEL 4
REMARK VINA RESULT:      -3.6     11.780     12.785
REMARK  4 active torsions:
REMARK  status: ('A' for Active; 'I' for Inactive)
REMARK    1  A    between atoms: C3_3  and  C5_5 
REMARK    2  A    between atoms: C3_3  and  C6_6 
REMARK    3  A    between atoms: C5_5  and  C7_7 
REMARK    4  A    between atoms: C7_7  and  O8_8 
ROOT
HETATM    1  C1  UNL     1     -34.884  16.278  -1.602  1.00 20.00     0.011 A 
HETATM    2  C2  UNL     1     -33.596  17.053  -1.591  1.00 20.00     0.011 A 
HETATM    3  C3  UNL     1     -34.078  16.414  -2.873  1.00 20.00    -0.026 A 
ENDROOT
BRANCH   3   4
HETATM    4  C5  UNL     1     -33.344  15.203  -3.377  1.00 20.00     0.037 C 
BRANCH   4   5
HETATM    5  C7  UNL     1     -34.257  13.989  -3.523  1.00 20.00     0.167 C 
BRANCH   5   6
HETATM    6  O8  UNL     1     -34.086  13.421  -4.814  1.00 20.00    -0.396 OA
HETATM    7  C4  UNL     1     -34.943  14.029  -5.771  1.00 20.00     0.201 C 
ENDBRANCH   5   6
ENDBRANCH   4   5
ENDBRANCH   3   4
BRANCH   3   8
HETATM    8  C6  UNL     1     -34.611  17.316  -3.952  1.00 20.00     0.124 C 
HETATM    9 CL9  UNL     1     -33.450  17.452  -5.295  1.00 20.00    -0.130 Cl
ENDBRANCH   3   8
TORSDOF 4
ENDMDL
MODEL 5
REMARK VINA RESULT:      -3.6     12.265     13.040
REMARK  4 active torsions:
REMARK  status: ('A' for Active; 'I' for Inactive)
REMARK    1  A    between atoms: C3_3  and  C5_5 
REMARK    2  A    between atoms: C3_3  and  C6_6 
REMARK    3  A    between atoms: C5_5  and  C7_7 
REMARK    4  A    between atoms: C7_7  and  O8_8 
ROOT
HETATM    1  C1  UNL     1     -33.669  15.786  -3.012  1.00 20.00     0.011 A 
HETATM    2  C2  UNL     1     -32.871  14.660  -3.606  1.00 20.00     0.011 A 
HETATM    3  C3  UNL     1     -34.145  15.116  -4.279  1.00 20.00    -0.026 A 
ENDROOT
BRANCH   3   4
HETATM    4  C5  UNL     1     -35.348  14.218  -4.194  1.00 20.00     0.037 C 
BRANCH   4   5
HETATM    5  C7  UNL     1     -36.576  14.941  -3.650  1.00 20.00     0.167 C 
BRANCH   5   6
HETATM    6  O8  UNL     1     -37.708  14.088  -3.749  1.00 20.00    -0.396 OA
HETATM    7  C4  UNL     1     -38.897  14.825  -4.002  1.00 20.00     0.201 C 
ENDBRANCH   5   6
ENDBRANCH   4   5
ENDBRANCH   3   4
BRANCH   3   8
HETATM    8  C6  UNL     1     -34.025  15.880  -5.569  1.00 20.00     0.124 C 
HETATM    9 CL9  UNL     1     -34.401  14.837  -6.962  1.00 20.00    -0.130 Cl
ENDBRANCH   3   8
TORSDOF 4
ENDMDL
MODEL 6
REMARK VINA RESULT:      -3.6     11.724     12.460
REMARK  4 active torsions:
REMARK  status: ('A' for Active; 'I' for Inactive)
REMARK    1  A    between atoms: C3_3  and  C5_5 
REMARK    2  A    between atoms: C3_3  and  C6_6 
REMARK    3  A    between atoms: C5_5  and  C7_7 
REMARK    4  A    between atoms: C7_7  and  O8_8 
ROOT
HETATM    1  C1  UNL     1     -33.621  13.814  -3.839  1.00 20.00     0.011 A 
HETATM    2  C2  UNL     1     -34.987  13.307  -4.206  1.00 20.00     0.011 A 
HETATM    3  C3  UNL     1     -34.750  14.794  -4.063  1.00 20.00    -0.026 A 
ENDROOT
BRANCH   3   4
HETATM    4  C5  UNL     1     -35.330  15.488  -2.862  1.00 20.00     0.037 C 
BRANCH   4   5
HETATM    5  C7  UNL     1     -34.270  16.223  -2.047  1.00 20.00     0.167 C 
BRANCH   5   6
HETATM    6  O8  UNL     1     -34.714  16.352  -0.703  1.00 20.00    -0.396 OA
HETATM    7  C4  UNL     1     -34.322  17.597  -0.140  1.00 20.00     0.201 C 
ENDBRANCH   5   6
ENDBRANCH   4   5
ENDBRANCH   3   4
BRANCH   3   8
HETATM    8  C6  UNL     1     -34.723  15.626  -5.315  1.00 20.00     0.124 C 
HETATM    9 CL9  UNL     1     -33.205  16.549  -5.431  1.00 20.00    -0.130 Cl
ENDBRANCH   3   8
TORSDOF 4
ENDMDL
MODEL 7
REMARK VINA RESULT:      -3.6     11.618     12.531
REMARK  4 active torsions:
REMARK  status: ('A' for Active; 'I' for Inactive)
REMARK    1  A    between atoms: C3_3  and  C5_5 
REMARK    2  A    between atoms: C3_3  and  C6_6 
REMARK    3  A    between atoms: C5_5  and  C7_7 
REMARK    4  A    between atoms: C7_7  and  O8_8 
ROOT
HETATM    1  C1  UNL     1     -34.095  17.040  -2.458  1.00 20.00     0.011 A 
HETATM    2  C2  UNL     1     -34.691  16.307  -1.290  1.00 20.00     0.011 A 
HETATM    3  C3  UNL     1     -34.930  15.803  -2.695  1.00 20.00    -0.026 A 
ENDROOT
BRANCH   3   4
HETATM    4  C5  UNL     1     -36.302  15.979  -3.283  1.00 20.00     0.037 C 
BRANCH   4   5
HETATM    5  C7  UNL     1     -36.714  14.800  -4.160  1.00 20.00     0.167 C 
BRANCH   5   6
HETATM    6  O8  UNL     1     -37.908  14.225  -3.649  1.00 20.00    -0.396 OA
HETATM    7  C4  UNL     1     -38.934  15.197  -3.498  1.00 20.00     0.201 C 
ENDBRANCH   5   6
ENDBRANCH   4   5
ENDBRANCH   3   4
BRANCH   3   8
HETATM    8  C6  UNL     1     -34.222  14.547  -3.122  1.00 20.00     0.124 C 
HETATM    9 CL9  UNL     1     -32.580  14.911  -3.705  1.00 20.00    -0.130 Cl
ENDBRANCH   3   8
TORSDOF 4
ENDMDL
MODEL 8
REMARK VINA RESULT:      -3.5     11.617     12.914
REMARK  4 active torsions:
REMARK  status: ('A' for Active; 'I' for Inactive)
REMARK    1  A    between atoms: C3_3  and  C5_5 
REMARK    2  A    between atoms: C3_3  and  C6_6 
REMARK    3  A    between atoms: C5_5  and  C7_7 
REMARK    4  A    between atoms: C7_7  and  O8_8 
ROOT
HETATM    1  C1  UNL     1     -34.344  13.849  -4.929  1.00 20.00     0.011 A 
HETATM    2  C2  UNL     1     -33.489  13.567  -3.727  1.00 20.00     0.011 A 
HETATM    3  C3  UNL     1     -34.089  14.941  -3.916  1.00 20.00    -0.026 A 
ENDROOT
BRANCH   3   4
HETATM    4  C5  UNL     1     -33.170  16.065  -4.306  1.00 20.00     0.037 C 
BRANCH   4   5
HETATM    5  C7  UNL     1     -33.642  16.792  -5.562  1.00 20.00     0.167 C 
BRANCH   5   6
HETATM    6  O8  UNL     1     -33.371  18.181  -5.433  1.00 20.00    -0.396 OA
HETATM    7  C4  UNL     1     -33.712  18.662  -4.139  1.00 20.00     0.201 C 
ENDBRANCH   5   6
ENDBRANCH   4   5
ENDBRANCH   3   4
BRANCH   3   8
HETATM    8  C6  UNL     1     -35.223  15.344  -3.014  1.00 20.00     0.124 C 
HETATM    9 CL9  UNL     1     -34.613  16.181  -1.566  1.00 20.00    -0.130 Cl
ENDBRANCH   3   8
TORSDOF 4
ENDMDL
MODEL 9
REMARK VINA RESULT:      -3.5     11.613     12.613
REMARK  4 active torsions:
REMARK  status: ('A' for Active; 'I' for Inactive)
REMARK    1  A    between atoms: C3_3  and  C5_5 
REMARK    2  A    between atoms: C3_3  and  C6_6 
REMARK    3  A    between atoms: C5_5  and  C7_7 
REMARK    4  A    between atoms: C7_7  and  O8_8 
ROOT
HETATM    1  C1  UNL     1     -34.748  16.162  -4.856  1.00 20.00     0.011 A 
HETATM    2  C2  UNL     1     -33.283  16.381  -5.101  1.00 20.00     0.011 A 
HETATM    3  C3  UNL     1     -33.734  15.611  -3.880  1.00 20.00    -0.026 A 
ENDROOT
BRANCH   3   4
HETATM    4  C5  UNL     1     -33.610  16.279  -2.540  1.00 20.00     0.037 C 
BRANCH   4   5
HETATM    5  C7  UNL     1     -34.896  16.191  -1.724  1.00 20.00     0.167 C 
BRANCH   5   6
HETATM    6  O8  UNL     1     -34.657  16.673  -0.410  1.00 20.00    -0.396 OA
HETATM    7  C4  UNL     1     -33.807  17.812  -0.417  1.00 20.00     0.201 C 
ENDBRANCH   5   6
ENDBRANCH   4   5
ENDBRANCH   3   4
BRANCH   3   8
HETATM    8  C6  UNL     1     -33.508  14.125  -3.863  1.00 20.00     0.124 C 
HETATM    9 CL9  UNL     1     -35.021  13.249  -4.205  1.00 20.00    -0.130 Cl
ENDBRANCH   3   8
TORSDOF 4
ENDMDL
