MODEL 1
REMARK VINA RESULT:      -5.2      0.000      0.000
REMARK  4 active torsions:
REMARK  status: ('A' for Active; 'I' for Inactive)
REMARK    1  A    between atoms: C2_2  and  C7_7 
REMARK    2  A    between atoms: C2_2  and  C8_8 
REMARK    3  A    between atoms: C3_3  and  C9_9 
REMARK    4  A    between atoms: C8_8  and  C9_9 
ROOT
HETATM    1  C8  UNL     1     -32.784   6.097   3.488  1.00 20.00     0.045 C 
ENDROOT
BRANCH   1   2
HETATM    2  C2  UNL     1     -31.993   7.355   3.181  1.00 20.00    -0.089 C 
HETATM    3  C1  UNL     1     -31.236   7.936   4.127  1.00 20.00     0.014 C 
BRANCH   2   4
HETATM    4  C7  UNL     1     -32.068   7.938   1.789  1.00 20.00     0.029 C 
HETATM    5  C5  UNL     1     -32.445   9.413   1.777  1.00 20.00     0.010 C 
ENDBRANCH   2   4
ENDBRANCH   1   2
BRANCH   1   6
HETATM    6  C9  UNL     1     -34.151   6.354   4.144  1.00 20.00     0.055 C 
HETATM    7  C6  UNL     1     -35.242   5.526   3.466  1.00 20.00     0.018 C 
BRANCH   6   8
HETATM    8  C3  UNL     1     -34.137   6.012   5.631  1.00 20.00     0.127 C 
HETATM    9  C4  UNL     1     -34.700   4.670   6.023  1.00 20.00     0.091 C 
HETATM   10  O10 UNL     1     -33.658   6.769   6.475  1.00 20.00    -0.298 OA
ENDBRANCH   6   8
ENDBRANCH   1   6
TORSDOF 4
ENDMDL
MODEL 2
REMARK VINA RESULT:      -5.0      1.405      4.237
REMARK  4 active torsions:
REMARK  status: ('A' for Active; 'I' for Inactive)
REMARK    1  A    between atoms: C2_2  and  C7_7 
REMARK    2  A    between atoms: C2_2  and  C8_8 
REMARK    3  A    between atoms: C3_3  and  C9_9 
REMARK    4  A    between atoms: C8_8  and  C9_9 
ROOT
HETATM    1  C8  UNL     1     -34.074   6.528   4.309  1.00 20.00     0.045 C 
ENDROOT
BRANCH   1   2
HETATM    2  C2  UNL     1     -34.078   6.224   5.795  1.00 20.00    -0.089 C 
HETATM    3  C1  UNL     1     -33.626   7.128   6.680  1.00 20.00     0.014 C 
BRANCH   2   4
HETATM    4  C7  UNL     1     -34.605   4.886   6.261  1.00 20.00     0.029 C 
HETATM    5  C5  UNL     1     -35.155   4.031   5.128  1.00 20.00     0.010 C 
ENDBRANCH   2   4
ENDBRANCH   1   2
BRANCH   1   6
HETATM    6  C9  UNL     1     -32.762   6.167   3.592  1.00 20.00     0.055 C 
HETATM    7  C6  UNL     1     -33.045   5.484   2.255  1.00 20.00     0.018 C 
BRANCH   6   8
HETATM    8  C3  UNL     1     -31.902   7.400   3.333  1.00 20.00     0.127 C 
HETATM    9  C4  UNL     1     -32.123   8.119   2.027  1.00 20.00     0.091 C 
HETATM   10  O10 UNL     1     -31.090   7.820   4.158  1.00 20.00    -0.298 OA
ENDBRANCH   6   8
ENDBRANCH   1   6
TORSDOF 4
ENDMDL
MODEL 3
REMARK VINA RESULT:      -4.9      0.864      1.065
REMARK  4 active torsions:
REMARK  status: ('A' for Active; 'I' for Inactive)
REMARK    1  A    between atoms: C2_2  and  C7_7 
REMARK    2  A    between atoms: C2_2  and  C8_8 
REMARK    3  A    between atoms: C3_3  and  C9_9 
REMARK    4  A    between atoms: C8_8  and  C9_9 
ROOT
HETATM    1  C8  UNL     1     -32.763   6.062   3.388  1.00 20.00     0.045 C 
ENDROOT
BRANCH   1   2
HETATM    2  C2  UNL     1     -31.982   7.335   3.118  1.00 20.00    -0.089 C 
HETATM    3  C1  UNL     1     -31.248   7.906   4.088  1.00 20.00     0.014 C 
BRANCH   2   4
HETATM    4  C7  UNL     1     -32.044   7.945   1.737  1.00 20.00     0.029 C 
HETATM    5  C5  UNL     1     -32.424   9.419   1.749  1.00 20.00     0.010 C 
ENDBRANCH   2   4
ENDBRANCH   1   2
BRANCH   1   6
HETATM    6  C9  UNL     1     -34.122   6.286   4.074  1.00 20.00     0.055 C 
HETATM    7  C6  UNL     1     -35.234   5.555   3.325  1.00 20.00     0.018 C 
BRANCH   6   8
HETATM    8  C3  UNL     1     -34.111   5.800   5.520  1.00 20.00     0.127 C 
HETATM    9  C4  UNL     1     -33.832   6.834   6.580  1.00 20.00     0.091 C 
HETATM   10  O10 UNL     1     -34.351   4.631   5.822  1.00 20.00    -0.298 OA
ENDBRANCH   6   8
ENDBRANCH   1   6
TORSDOF 4
ENDMDL
MODEL 4
REMARK VINA RESULT:      -4.8      1.521      2.047
REMARK  4 active torsions:
REMARK  status: ('A' for Active; 'I' for Inactive)
REMARK    1  A    between atoms: C2_2  and  C7_7 
REMARK    2  A    between atoms: C2_2  and  C8_8 
REMARK    3  A    between atoms: C3_3  and  C9_9 
REMARK    4  A    between atoms: C8_8  and  C9_9 
ROOT
HETATM    1  C8  UNL     1     -33.749   7.075   3.954  1.00 20.00     0.045 C 
ENDROOT
BRANCH   1   2
HETATM    2  C2  UNL     1     -32.558   6.916   3.027  1.00 20.00    -0.089 C 
HETATM    3  C1  UNL     1     -32.214   5.706   2.555  1.00 20.00     0.014 C 
BRANCH   2   4
HETATM    4  C7  UNL     1     -31.769   8.146   2.641  1.00 20.00     0.029 C 
HETATM    5  C5  UNL     1     -32.140   8.691   1.269  1.00 20.00     0.010 C 
ENDBRANCH   2   4
ENDBRANCH   1   2
BRANCH   1   6
HETATM    6  C9  UNL     1     -33.818   6.030   5.081  1.00 20.00     0.055 C 
HETATM    7  C6  UNL     1     -33.961   6.709   6.442  1.00 20.00     0.018 C 
BRANCH   6   8
HETATM    8  C3  UNL     1     -34.991   5.073   4.891  1.00 20.00     0.127 C 
HETATM    9  C4  UNL     1     -35.139   3.972   5.909  1.00 20.00     0.091 C 
HETATM   10  O10 UNL     1     -35.805   5.204   3.976  1.00 20.00    -0.298 OA
ENDBRANCH   6   8
ENDBRANCH   1   6
TORSDOF 4
ENDMDL
MODEL 5
REMARK VINA RESULT:      -4.7      1.487      4.239
REMARK  4 active torsions:
REMARK  status: ('A' for Active; 'I' for Inactive)
REMARK    1  A    between atoms: C2_2  and  C7_7 
REMARK    2  A    between atoms: C2_2  and  C8_8 
REMARK    3  A    between atoms: C3_3  and  C9_9 
REMARK    4  A    between atoms: C8_8  and  C9_9 
ROOT
HETATM    1  C8  UNL     1     -34.075   6.406   3.977  1.00 20.00     0.045 C 
ENDROOT
BRANCH   1   2
HETATM    2  C2  UNL     1     -34.571   5.445   5.041  1.00 20.00    -0.089 C 
HETATM    3  C1  UNL     1     -35.168   4.292   4.698  1.00 20.00     0.014 C 
BRANCH   2   4
HETATM    4  C7  UNL     1     -34.378   5.810   6.495  1.00 20.00     0.029 C 
HETATM    5  C5  UNL     1     -33.674   7.145   6.690  1.00 20.00     0.010 C 
ENDBRANCH   2   4
ENDBRANCH   1   2
BRANCH   1   6
HETATM    6  C9  UNL     1     -32.635   6.139   3.506  1.00 20.00     0.055 C 
HETATM    7  C6  UNL     1     -32.630   5.368   2.187  1.00 20.00     0.018 C 
BRANCH   6   8
HETATM    8  C3  UNL     1     -31.856   7.437   3.311  1.00 20.00     0.127 C 
HETATM    9  C4  UNL     1     -32.111   8.195   2.034  1.00 20.00     0.091 C 
HETATM   10  O10 UNL     1     -31.081   7.872   4.163  1.00 20.00    -0.298 OA
ENDBRANCH   6   8
ENDBRANCH   1   6
TORSDOF 4
ENDMDL
MODEL 6
REMARK VINA RESULT:      -4.5      1.964      4.791
REMARK  4 active torsions:
REMARK  status: ('A' for Active; 'I' for Inactive)
REMARK    1  A    between atoms: C2_2  and  C7_7 
REMARK    2  A    between atoms: C2_2  and  C8_8 
REMARK    3  A    between atoms: C3_3  and  C9_9 
REMARK    4  A    between atoms: C8_8  and  C9_9 
ROOT
HETATM    1  C8  UNL     1     -32.876   6.347   3.040  1.00 20.00     0.045 C 
ENDROOT
BRANCH   1   2
HETATM    2  C2  UNL     1     -34.028   5.994   3.962  1.00 20.00    -0.089 C 
HETATM    3  C1  UNL     1     -35.146   5.428   3.476  1.00 20.00     0.014 C 
BRANCH   2   4
HETATM    4  C7  UNL     1     -33.892   6.288   5.439  1.00 20.00     0.029 C 
HETATM    5  C5  UNL     1     -34.621   5.282   6.319  1.00 20.00     0.010 C 
ENDBRANCH   2   4
ENDBRANCH   1   2
BRANCH   1   6
HETATM    6  C9  UNL     1     -32.322   7.769   3.235  1.00 20.00     0.055 C 
HETATM    7  C6  UNL     1     -30.969   7.732   3.941  1.00 20.00     0.018 C 
BRANCH   6   8
HETATM    8  C3  UNL     1     -32.154   8.496   1.904  1.00 20.00     0.127 C 
HETATM    9  C4  UNL     1     -32.704   9.897   1.822  1.00 20.00     0.091 C 
HETATM   10  O10 UNL     1     -31.568   7.989   0.947  1.00 20.00    -0.298 OA
ENDBRANCH   6   8
ENDBRANCH   1   6
TORSDOF 4
ENDMDL
MODEL 7
REMARK VINA RESULT:      -4.4     10.661     11.865
REMARK  4 active torsions:
REMARK  status: ('A' for Active; 'I' for Inactive)
REMARK    1  A    between atoms: C2_2  and  C7_7 
REMARK    2  A    between atoms: C2_2  and  C8_8 
REMARK    3  A    between atoms: C3_3  and  C9_9 
REMARK    4  A    between atoms: C8_8  and  C9_9 
ROOT
HETATM    1  C8  UNL     1     -34.901  15.205  -2.979  1.00 20.00     0.045 C 
ENDROOT
BRANCH   1   2
HETATM    2  C2  UNL     1     -34.435  16.502  -2.346  1.00 20.00    -0.089 C 
HETATM    3  C1  UNL     1     -33.911  17.483  -3.100  1.00 20.00     0.014 C 
BRANCH   2   4
HETATM    4  C7  UNL     1     -34.575  16.671  -0.850  1.00 20.00     0.029 C 
HETATM    5  C5  UNL     1     -33.759  17.832  -0.299  1.00 20.00     0.010 C 
ENDBRANCH   2   4
ENDBRANCH   1   2
BRANCH   1   6
HETATM    6  C9  UNL     1     -33.973  14.670  -4.083  1.00 20.00     0.055 C 
HETATM    7  C6  UNL     1     -32.782  13.930  -3.479  1.00 20.00     0.018 C 
BRANCH   6   8
HETATM    8  C3  UNL     1     -34.707  13.719  -5.024  1.00 20.00     0.127 C 
HETATM    9  C4  UNL     1     -35.112  14.272  -6.366  1.00 20.00     0.091 C 
HETATM   10  O10 UNL     1     -34.932  12.545  -4.729  1.00 20.00    -0.298 OA
ENDBRANCH   6   8
ENDBRANCH   1   6
TORSDOF 4
ENDMDL
MODEL 8
REMARK VINA RESULT:      -4.3     10.721     11.600
REMARK  4 active torsions:
REMARK  status: ('A' for Active; 'I' for Inactive)
REMARK    1  A    between atoms: C2_2  and  C7_7 
REMARK    2  A    between atoms: C2_2  and  C8_8 
REMARK    3  A    between atoms: C3_3  and  C9_9 
REMARK    4  A    between atoms: C8_8  and  C9_9 
ROOT
HETATM    1  C8  UNL     1     -33.606  16.055  -2.938  1.00 20.00     0.045 C 
ENDROOT
BRANCH   1   2
HETATM    2  C2  UNL     1     -33.946  17.084  -1.877  1.00 20.00    -0.089 C 
HETATM    3  C1  UNL     1     -33.614  18.375  -2.043  1.00 20.00     0.014 C 
BRANCH   2   4
HETATM    4  C7  UNL     1     -34.668  16.628  -0.629  1.00 20.00     0.029 C 
HETATM    5  C5  UNL     1     -34.718  17.694   0.457  1.00 20.00     0.010 C 
ENDBRANCH   2   4
ENDBRANCH   1   2
BRANCH   1   6
HETATM    6  C9  UNL     1     -34.628  14.911  -3.061  1.00 20.00     0.055 C 
HETATM    7  C6  UNL     1     -35.903  15.394  -3.750  1.00 20.00     0.018 C 
BRANCH   6   8
HETATM    8  C3  UNL     1     -34.065  13.736  -3.854  1.00 20.00     0.127 C 
HETATM    9  C4  UNL     1     -34.862  13.279  -5.048  1.00 20.00     0.091 C 
HETATM   10  O10 UNL     1     -32.995  13.200  -3.565  1.00 20.00    -0.298 OA
ENDBRANCH   6   8
ENDBRANCH   1   6
TORSDOF 4
ENDMDL
MODEL 9
REMARK VINA RESULT:      -4.2     11.251     11.822
REMARK  4 active torsions:
REMARK  status: ('A' for Active; 'I' for Inactive)
REMARK    1  A    between atoms: C2_2  and  C7_7 
REMARK    2  A    between atoms: C2_2  and  C8_8 
REMARK    3  A    between atoms: C3_3  and  C9_9 
REMARK    4  A    between atoms: C8_8  and  C9_9 
ROOT
HETATM    1  C8  UNL     1     -35.142  15.963  -3.783  1.00 20.00     0.045 C 
ENDROOT
BRANCH   1   2
HETATM    2  C2  UNL     1     -33.803  16.021  -3.073  1.00 20.00    -0.089 C 
HETATM    3  C1  UNL     1     -32.755  15.314  -3.529  1.00 20.00     0.014 C 
BRANCH   2   4
HETATM    4  C7  UNL     1     -33.669  16.893  -1.845  1.00 20.00     0.029 C 
HETATM    5  C5  UNL     1     -34.731  16.611  -0.792  1.00 20.00     0.010 C 
ENDBRANCH   2   4
ENDBRANCH   1   2
BRANCH   1   6
HETATM    6  C9  UNL     1     -35.809  14.577  -3.765  1.00 20.00     0.055 C 
HETATM    7  C6  UNL     1     -37.324  14.702  -3.919  1.00 20.00     0.018 C 
BRANCH   6   8
HETATM    8  C3  UNL     1     -35.281  13.683  -4.883  1.00 20.00     0.127 C 
HETATM    9  C4  UNL     1     -35.238  14.280  -6.265  1.00 20.00     0.091 C 
HETATM   10  O10 UNL     1     -34.874  12.540  -4.673  1.00 20.00    -0.298 OA
ENDBRANCH   6   8
ENDBRANCH   1   6
TORSDOF 4
ENDMDL
