MODEL 1
REMARK VINA RESULT:      -5.5      0.000      0.000
REMARK  5 active torsions:
REMARK  status: ('A' for Active; 'I' for Inactive)
REMARK    1  A    between atoms: C2_2  and  C8_8 
REMARK    2  A    between atoms: C2_2  and  C9_9 
REMARK    3  A    between atoms: C6_6  and  C10_10 
REMARK    4  A    between atoms: C9_9  and  C10_10 
REMARK    5  A    between atoms: C10_10  and  O11_11 
ROOT
HETATM    1  C10 UNL     1     -34.092   6.213   3.712  1.00 20.00     0.126 C 
ENDROOT
BRANCH   1   2
HETATM    2  C6  UNL     1     -33.950   5.362   4.957  1.00 20.00     0.015 C 
HETATM    3  C4  UNL     1     -35.034   4.276   5.184  1.00 20.00     0.007 C 
HETATM    4  C3  UNL     1     -34.930   4.592   6.691  1.00 20.00     0.001 C 
HETATM    5  C5  UNL     1     -34.430   5.995   6.289  1.00 20.00     0.007 C 
ENDBRANCH   1   2
BRANCH   1   6
HETATM    6  C9  UNL     1     -32.800   6.153   2.889  1.00 20.00     0.065 C 
BRANCH   6   7
HETATM    7  C2  UNL     1     -32.013   7.451   2.911  1.00 20.00    -0.087 C 
HETATM    8  C1  UNL     1     -31.373   7.827   4.031  1.00 20.00     0.014 C 
BRANCH   7   9
HETATM    9  C8  UNL     1     -31.985   8.222   1.606  1.00 20.00     0.029 C 
HETATM   10  C7  UNL     1     -32.523   9.649   1.632  1.00 20.00     0.010 C 
ENDBRANCH   7   9
ENDBRANCH   6   7
ENDBRANCH   1   6
BRANCH   1  11
HETATM   11  O11 UNL     1     -35.166   5.692   2.933  1.00 20.00    -0.395 OA
HETATM   12  H29 UNL     1     -35.415   4.847   3.338  1.00 20.00     0.210 HD
ENDBRANCH   1  11
TORSDOF 5
ENDMDL
MODEL 2
REMARK VINA RESULT:      -5.0     11.247     12.514
REMARK  5 active torsions:
REMARK  status: ('A' for Active; 'I' for Inactive)
REMARK    1  A    between atoms: C2_2  and  C8_8 
REMARK    2  A    between atoms: C2_2  and  C9_9 
REMARK    3  A    between atoms: C6_6  and  C10_10 
REMARK    4  A    between atoms: C9_9  and  C10_10 
REMARK    5  A    between atoms: C10_10  and  O11_11 
ROOT
HETATM    1  C10 UNL     1     -34.716  13.709  -4.569  1.00 20.00     0.126 C 
ENDROOT
BRANCH   1   2
HETATM    2  C6  UNL     1     -35.300  14.164  -5.890  1.00 20.00     0.015 C 
HETATM    3  C4  UNL     1     -34.367  14.988  -6.816  1.00 20.00     0.007 C 
HETATM    4  C3  UNL     1     -35.608  15.815  -7.209  1.00 20.00     0.001 C 
HETATM    5  C5  UNL     1     -36.217  15.414  -5.849  1.00 20.00     0.007 C 
ENDBRANCH   1   2
BRANCH   1   6
HETATM    6  C9  UNL     1     -34.934  14.788  -3.502  1.00 20.00     0.065 C 
BRANCH   6   7
HETATM    7  C2  UNL     1     -33.660  15.517  -3.115  1.00 20.00    -0.087 C 
HETATM    8  C1  UNL     1     -32.476  15.090  -3.584  1.00 20.00     0.014 C 
BRANCH   7   9
HETATM    9  C8  UNL     1     -33.844  16.733  -2.229  1.00 20.00     0.029 C 
HETATM   10  C7  UNL     1     -34.650  16.543  -0.948  1.00 20.00     0.010 C 
ENDBRANCH   7   9
ENDBRANCH   6   7
ENDBRANCH   1   6
BRANCH   1  11
HETATM   11  O11 UNL     1     -35.388  12.517  -4.169  1.00 20.00    -0.395 OA
HETATM   12  H29 UNL     1     -35.353  12.492  -3.200  1.00 20.00     0.210 HD
ENDBRANCH   1  11
TORSDOF 5
ENDMDL
MODEL 3
REMARK VINA RESULT:      -4.8     11.011     12.597
REMARK  5 active torsions:
REMARK  status: ('A' for Active; 'I' for Inactive)
REMARK    1  A    between atoms: C2_2  and  C8_8 
REMARK    2  A    between atoms: C2_2  and  C9_9 
REMARK    3  A    between atoms: C6_6  and  C10_10 
REMARK    4  A    between atoms: C9_9  and  C10_10 
REMARK    5  A    between atoms: C10_10  and  O11_11 
ROOT
HETATM    1  C10 UNL     1     -35.241  13.923  -4.373  1.00 20.00     0.126 C 
ENDROOT
BRANCH   1   2
HETATM    2  C6  UNL     1     -34.590  14.562  -3.165  1.00 20.00     0.015 C 
HETATM    3  C4  UNL     1     -35.213  15.889  -2.658  1.00 20.00     0.007 C 
HETATM    4  C3  UNL     1     -33.778  16.356  -2.338  1.00 20.00     0.001 C 
HETATM    5  C5  UNL     1     -33.293  15.372  -3.423  1.00 20.00     0.007 C 
ENDBRANCH   1   2
BRANCH   1   6
HETATM    6  C9  UNL     1     -34.417  14.223  -5.630  1.00 20.00     0.065 C 
BRANCH   6   7
HETATM    7  C2  UNL     1     -35.190  14.993  -6.686  1.00 20.00    -0.087 C 
HETATM    8  C1  UNL     1     -35.543  14.388  -7.832  1.00 20.00     0.014 C 
BRANCH   7   9
HETATM    9  C8  UNL     1     -35.543  16.423  -6.327  1.00 20.00     0.029 C 
HETATM   10  C7  UNL     1     -34.400  17.432  -6.287  1.00 20.00     0.010 C 
ENDBRANCH   7   9
ENDBRANCH   6   7
ENDBRANCH   1   6
BRANCH   1  11
HETATM   11  O11 UNL     1     -35.281  12.513  -4.168  1.00 20.00    -0.395 OA
HETATM   12  H29 UNL     1     -35.449  12.113  -5.035  1.00 20.00     0.210 HD
ENDBRANCH   1  11
TORSDOF 5
ENDMDL
MODEL 4
REMARK VINA RESULT:      -4.8     11.342     12.770
REMARK  5 active torsions:
REMARK  status: ('A' for Active; 'I' for Inactive)
REMARK    1  A    between atoms: C2_2  and  C8_8 
REMARK    2  A    between atoms: C2_2  and  C9_9 
REMARK    3  A    between atoms: C6_6  and  C10_10 
REMARK    4  A    between atoms: C9_9  and  C10_10 
REMARK    5  A    between atoms: C10_10  and  O11_11 
ROOT
HETATM    1  C10 UNL     1     -34.831  13.903  -4.549  1.00 20.00     0.126 C 
ENDROOT
BRANCH   1   2
HETATM    2  C6  UNL     1     -35.380  14.089  -5.948  1.00 20.00     0.015 C 
HETATM    3  C4  UNL     1     -34.468  14.832  -6.959  1.00 20.00     0.007 C 
HETATM    4  C3  UNL     1     -35.749  15.475  -7.529  1.00 20.00     0.001 C 
HETATM    5  C5  UNL     1     -36.394  15.246  -6.147  1.00 20.00     0.007 C 
ENDBRANCH   1   2
BRANCH   1   6
HETATM    6  C9  UNL     1     -35.495  14.898  -3.591  1.00 20.00     0.065 C 
BRANCH   6   7
HETATM    7  C2  UNL     1     -34.508  15.832  -2.914  1.00 20.00    -0.087 C 
HETATM    8  C1  UNL     1     -34.684  16.174  -1.627  1.00 20.00     0.014 C 
BRANCH   7   9
HETATM    9  C8  UNL     1     -33.343  16.287  -3.771  1.00 20.00     0.029 C 
HETATM   10  C7  UNL     1     -33.576  17.492  -4.677  1.00 20.00     0.010 C 
ENDBRANCH   7   9
ENDBRANCH   6   7
ENDBRANCH   1   6
BRANCH   1  11
HETATM   11  O11 UNL     1     -35.131  12.576  -4.123  1.00 20.00    -0.395 OA
HETATM   12  H29 UNL     1     -35.128  12.024  -4.920  1.00 20.00     0.210 HD
ENDBRANCH   1  11
TORSDOF 5
ENDMDL
MODEL 5
REMARK VINA RESULT:      -4.7      1.628      5.242
REMARK  5 active torsions:
REMARK  status: ('A' for Active; 'I' for Inactive)
REMARK    1  A    between atoms: C2_2  and  C8_8 
REMARK    2  A    between atoms: C2_2  and  C9_9 
REMARK    3  A    between atoms: C6_6  and  C10_10 
REMARK    4  A    between atoms: C9_9  and  C10_10 
REMARK    5  A    between atoms: C10_10  and  O11_11 
ROOT
HETATM    1  C10 UNL     1     -32.373   7.618   3.362  1.00 20.00     0.126 C 
ENDROOT
BRANCH   1   2
HETATM    2  C6  UNL     1     -32.708   8.257   2.031  1.00 20.00     0.015 C 
HETATM    3  C4  UNL     1     -31.556   8.360   0.998  1.00 20.00     0.007 C 
HETATM    4  C3  UNL     1     -32.146   9.723   0.585  1.00 20.00     0.001 C 
HETATM    5  C5  UNL     1     -32.758   9.807   1.998  1.00 20.00     0.007 C 
ENDBRANCH   1   2
BRANCH   1   6
HETATM    6  C9  UNL     1     -32.781   6.141   3.350  1.00 20.00     0.065 C 
BRANCH   6   7
HETATM    7  C2  UNL     1     -34.082   5.870   4.084  1.00 20.00    -0.087 C 
HETATM    8  C1  UNL     1     -35.169   5.478   3.398  1.00 20.00     0.014 C 
BRANCH   7   9
HETATM    9  C8  UNL     1     -34.032   6.038   5.589  1.00 20.00     0.029 C 
HETATM   10  C7  UNL     1     -34.779   5.007   6.428  1.00 20.00     0.010 C 
ENDBRANCH   7   9
ENDBRANCH   6   7
ENDBRANCH   1   6
BRANCH   1  11
HETATM   11  O11 UNL     1     -30.964   7.710   3.561  1.00 20.00    -0.395 OA
HETATM   12  H29 UNL     1     -30.632   8.332   2.895  1.00 20.00     0.210 HD
ENDBRANCH   1  11
TORSDOF 5
ENDMDL
MODEL 6
REMARK VINA RESULT:      -4.7      1.288      5.040
REMARK  5 active torsions:
REMARK  status: ('A' for Active; 'I' for Inactive)
REMARK    1  A    between atoms: C2_2  and  C8_8 
REMARK    2  A    between atoms: C2_2  and  C9_9 
REMARK    3  A    between atoms: C6_6  and  C10_10 
REMARK    4  A    between atoms: C9_9  and  C10_10 
REMARK    5  A    between atoms: C10_10  and  O11_11 
ROOT
HETATM    1  C10 UNL     1     -32.270   6.927   3.414  1.00 20.00     0.126 C 
ENDROOT
BRANCH   1   2
HETATM    2  C6  UNL     1     -31.823   8.142   2.629  1.00 20.00     0.015 C 
HETATM    3  C4  UNL     1     -32.868   9.273   2.441  1.00 20.00     0.007 C 
HETATM    4  C3  UNL     1     -32.283   9.479   1.029  1.00 20.00     0.001 C 
HETATM    5  C5  UNL     1     -31.820   8.009   1.084  1.00 20.00     0.007 C 
ENDBRANCH   1   2
BRANCH   1   6
HETATM    6  C9  UNL     1     -33.750   7.063   3.788  1.00 20.00     0.065 C 
BRANCH   6   7
HETATM    7  C2  UNL     1     -34.142   6.238   5.000  1.00 20.00    -0.087 C 
HETATM    8  C1  UNL     1     -33.801   6.652   6.231  1.00 20.00     0.014 C 
BRANCH   7   9
HETATM    9  C8  UNL     1     -34.947   4.987   4.708  1.00 20.00     0.029 C 
HETATM   10  C7  UNL     1     -35.014   3.932   5.808  1.00 20.00     0.010 C 
ENDBRANCH   7   9
ENDBRANCH   6   7
ENDBRANCH   1   6
BRANCH   1  11
HETATM   11  O11 UNL     1     -32.103   5.775   2.590  1.00 20.00    -0.395 OA
HETATM   12  H29 UNL     1     -32.966   5.597   2.186  1.00 20.00     0.210 HD
ENDBRANCH   1  11
TORSDOF 5
ENDMDL
MODEL 7
REMARK VINA RESULT:      -4.5     11.426     12.858
REMARK  5 active torsions:
REMARK  status: ('A' for Active; 'I' for Inactive)
REMARK    1  A    between atoms: C2_2  and  C8_8 
REMARK    2  A    between atoms: C2_2  and  C9_9 
REMARK    3  A    between atoms: C6_6  and  C10_10 
REMARK    4  A    between atoms: C9_9  and  C10_10 
REMARK    5  A    between atoms: C10_10  and  O11_11 
ROOT
HETATM    1  C10 UNL     1     -33.297  15.098  -4.029  1.00 20.00     0.126 C 
ENDROOT
BRANCH   1   2
HETATM    2  C6  UNL     1     -33.982  15.382  -2.708  1.00 20.00     0.015 C 
HETATM    3  C4  UNL     1     -35.472  15.809  -2.774  1.00 20.00     0.007 C 
HETATM    4  C3  UNL     1     -35.175  16.762  -1.598  1.00 20.00     0.001 C 
HETATM    5  C5  UNL     1     -33.705  16.767  -2.066  1.00 20.00     0.007 C 
ENDBRANCH   1   2
BRANCH   1   6
HETATM    6  C9  UNL     1     -33.305  16.358  -4.902  1.00 20.00     0.065 C 
BRANCH   6   7
HETATM    7  C2  UNL     1     -34.109  16.199  -6.180  1.00 20.00    -0.087 C 
HETATM    8  C1  UNL     1     -34.414  17.279  -6.918  1.00 20.00     0.014 C 
BRANCH   7   9
HETATM    9  C8  UNL     1     -34.484  14.776  -6.545  1.00 20.00     0.029 C 
HETATM   10  C7  UNL     1     -35.408  14.587  -7.744  1.00 20.00     0.010 C 
ENDBRANCH   7   9
ENDBRANCH   6   7
ENDBRANCH   1   6
BRANCH   1  11
HETATM   11  O11 UNL     1     -31.948  14.725  -3.763  1.00 20.00    -0.395 OA
HETATM   12  H29 UNL     1     -31.466  14.817  -4.599  1.00 20.00     0.210 HD
ENDBRANCH   1  11
TORSDOF 5
ENDMDL
MODEL 8
REMARK VINA RESULT:      -4.5     11.633     12.990
REMARK  5 active torsions:
REMARK  status: ('A' for Active; 'I' for Inactive)
REMARK    1  A    between atoms: C2_2  and  C8_8 
REMARK    2  A    between atoms: C2_2  and  C9_9 
REMARK    3  A    between atoms: C6_6  and  C10_10 
REMARK    4  A    between atoms: C9_9  and  C10_10 
REMARK    5  A    between atoms: C10_10  and  O11_11 
ROOT
HETATM    1  C10 UNL     1     -33.442  16.305  -4.286  1.00 20.00     0.126 C 
ENDROOT
BRANCH   1   2
HETATM    2  C6  UNL     1     -34.526  15.819  -5.227  1.00 20.00     0.015 C 
HETATM    3  C4  UNL     1     -34.770  14.289  -5.275  1.00 20.00     0.007 C 
HETATM    4  C3  UNL     1     -35.026  14.451  -6.788  1.00 20.00     0.001 C 
HETATM    5  C5  UNL     1     -34.148  15.718  -6.727  1.00 20.00     0.007 C 
ENDBRANCH   1   2
BRANCH   1   6
HETATM    6  C9  UNL     1     -33.764  15.871  -2.852  1.00 20.00     0.065 C 
BRANCH   6   7
HETATM    7  C2  UNL     1     -34.039  17.037  -1.919  1.00 20.00    -0.087 C 
HETATM    8  C1  UNL     1     -33.711  18.285  -2.292  1.00 20.00     0.014 C 
BRANCH   7   9
HETATM    9  C8  UNL     1     -34.719  16.683  -0.611  1.00 20.00     0.029 C 
HETATM   10  C7  UNL     1     -34.606  17.693   0.526  1.00 20.00     0.010 C 
ENDBRANCH   7   9
ENDBRANCH   6   7
ENDBRANCH   1   6
BRANCH   1  11
HETATM   11  O11 UNL     1     -32.207  15.717  -4.685  1.00 20.00    -0.395 OA
HETATM   12  H29 UNL     1     -31.614  15.774  -3.919  1.00 20.00     0.210 HD
ENDBRANCH   1  11
TORSDOF 5
ENDMDL
MODEL 9
REMARK VINA RESULT:      -4.4     11.648     13.035
REMARK  5 active torsions:
REMARK  status: ('A' for Active; 'I' for Inactive)
REMARK    1  A    between atoms: C2_2  and  C8_8 
REMARK    2  A    between atoms: C2_2  and  C9_9 
REMARK    3  A    between atoms: C6_6  and  C10_10 
REMARK    4  A    between atoms: C9_9  and  C10_10 
REMARK    5  A    between atoms: C10_10  and  O11_11 
ROOT
HETATM    1  C10 UNL     1     -33.658  15.805  -4.669  1.00 20.00     0.126 C 
ENDROOT
BRANCH   1   2
HETATM    2  C6  UNL     1     -34.127  15.331  -6.029  1.00 20.00     0.015 C 
HETATM    3  C4  UNL     1     -35.389  16.022  -6.609  1.00 20.00     0.007 C 
HETATM    4  C3  UNL     1     -35.788  14.647  -7.184  1.00 20.00     0.001 C 
HETATM    5  C5  UNL     1     -34.943  14.012  -6.060  1.00 20.00     0.007 C 
ENDBRANCH   1   2
BRANCH   1   6
HETATM    6  C9  UNL     1     -34.360  15.005  -3.567  1.00 20.00     0.065 C 
BRANCH   6   7
HETATM    7  C2  UNL     1     -35.189  15.868  -2.632  1.00 20.00    -0.087 C 
HETATM    8  C1  UNL     1     -34.655  16.315  -1.484  1.00 20.00     0.014 C 
BRANCH   7   9
HETATM    9  C8  UNL     1     -36.590  16.194  -3.112  1.00 20.00     0.029 C 
HETATM   10  C7  UNL     1     -37.435  15.034  -3.626  1.00 20.00     0.010 C 
ENDBRANCH   7   9
ENDBRANCH   6   7
ENDBRANCH   1   6
BRANCH   1  11
HETATM   11  O11 UNL     1     -32.252  15.587  -4.580  1.00 20.00    -0.395 OA
HETATM   12  H29 UNL     1     -32.116  14.964  -3.849  1.00 20.00     0.210 HD
ENDBRANCH   1  11
TORSDOF 5
ENDMDL
