MODEL 1
REMARK VINA RESULT:      -4.5      0.000      0.000
REMARK  6 active torsions:
REMARK  status: ('A' for Active; 'I' for Inactive)
REMARK    1  A    between atoms: C4_4  and  C6_6 
REMARK    2  A    between atoms: C4_4  and  C9_9 
REMARK    3  A    between atoms: C5_5  and  O10_10 
REMARK    4  A    between atoms: C6_6  and  O10_10 
REMARK    5  A    between atoms: C7_7  and  C9_9 
REMARK    6  A    between atoms: C8_8  and  C9_9 
ROOT
HETATM    1  C9  UNL     1     -33.856   5.486   4.290  1.00 20.00     0.005 C 
ENDROOT
BRANCH   1   2
HETATM    2  C4  UNL     1     -32.788   6.600   4.142  1.00 20.00     0.032 C 
BRANCH   2   3
HETATM    3  C6  UNL     1     -32.216   6.752   2.736  1.00 20.00     0.168 C 
BRANCH   3   4
HETATM    4  O10 UNL     1     -31.705   8.073   2.594  1.00 20.00    -0.391 OA
BRANCH   4   5
HETATM    5  C5  UNL     1     -31.872   8.555   1.268  1.00 20.00     0.163 C 
HETATM    6  C1  UNL     1     -32.495   9.933   1.320  1.00 20.00     0.033 C 
ENDBRANCH   4   5
ENDBRANCH   3   4
ENDBRANCH   2   3
ENDBRANCH   1   2
BRANCH   1   7
HETATM    7  C7  UNL     1     -34.751   5.352   3.040  1.00 20.00     0.119 C 
HETATM    8 CL11 UNL     1     -36.420   5.909   3.306  1.00 20.00    -0.130 Cl
ENDBRANCH   1   7
BRANCH   1   9
HETATM    9  C8  UNL     1     -34.685   5.661   5.606  1.00 20.00    -0.017 C 
HETATM   10  C2  UNL     1     -34.943   4.324   6.315  1.00 20.00     0.010 C 
HETATM   11  C3  UNL     1     -34.006   6.609   6.604  1.00 20.00     0.010 C 
ENDBRANCH   1   9
TORSDOF 6
ENDMDL
MODEL 2
REMARK VINA RESULT:      -4.4      1.754      2.336
REMARK  6 active torsions:
REMARK  status: ('A' for Active; 'I' for Inactive)
REMARK    1  A    between atoms: C4_4  and  C6_6 
REMARK    2  A    between atoms: C4_4  and  C9_9 
REMARK    3  A    between atoms: C5_5  and  O10_10 
REMARK    4  A    between atoms: C6_6  and  O10_10 
REMARK    5  A    between atoms: C7_7  and  C9_9 
REMARK    6  A    between atoms: C8_8  and  C9_9 
ROOT
HETATM    1  C9  UNL     1     -34.004   6.314   4.840  1.00 20.00     0.005 C 
ENDROOT
BRANCH   1   2
HETATM    2  C4  UNL     1     -32.589   6.444   4.220  1.00 20.00     0.032 C 
BRANCH   2   3
HETATM    3  C6  UNL     1     -32.573   6.842   2.748  1.00 20.00     0.168 C 
BRANCH   3   4
HETATM    4  O10 UNL     1     -31.720   7.972   2.592  1.00 20.00    -0.391 OA
BRANCH   4   5
HETATM    5  C5  UNL     1     -31.867   8.561   1.308  1.00 20.00     0.163 C 
HETATM    6  C1  UNL     1     -32.550   9.904   1.456  1.00 20.00     0.033 C 
ENDBRANCH   4   5
ENDBRANCH   3   4
ENDBRANCH   2   3
ENDBRANCH   1   2
BRANCH   1   7
HETATM    7  C7  UNL     1     -33.971   6.232   6.382  1.00 20.00     0.119 C 
HETATM    8 CL11 UNL     1     -33.272   7.678   7.148  1.00 20.00    -0.130 Cl
ENDBRANCH   1   7
BRANCH   1   9
HETATM    9  C8  UNL     1     -34.804   5.134   4.194  1.00 20.00    -0.017 C 
HETATM   10  C2  UNL     1     -35.122   4.023   5.204  1.00 20.00     0.010 C 
HETATM   11  C3  UNL     1     -36.123   5.598   3.562  1.00 20.00     0.010 C 
ENDBRANCH   1   9
TORSDOF 6
ENDMDL
MODEL 3
REMARK VINA RESULT:      -4.1     11.123     12.591
REMARK  6 active torsions:
REMARK  status: ('A' for Active; 'I' for Inactive)
REMARK    1  A    between atoms: C4_4  and  C6_6 
REMARK    2  A    between atoms: C4_4  and  C9_9 
REMARK    3  A    between atoms: C5_5  and  O10_10 
REMARK    4  A    between atoms: C6_6  and  O10_10 
REMARK    5  A    between atoms: C7_7  and  C9_9 
REMARK    6  A    between atoms: C8_8  and  C9_9 
ROOT
HETATM    1  C9  UNL     1     -34.257  16.257  -3.421  1.00 20.00     0.005 C 
ENDROOT
BRANCH   1   2
HETATM    2  C4  UNL     1     -33.262  16.372  -4.605  1.00 20.00     0.032 C 
BRANCH   2   3
HETATM    3  C6  UNL     1     -33.752  17.230  -5.768  1.00 20.00     0.168 C 
BRANCH   3   4
HETATM    4  O10 UNL     1     -34.776  16.520  -6.456  1.00 20.00    -0.391 OA
BRANCH   4   5
HETATM    5  C5  UNL     1     -34.268  15.351  -7.082  1.00 20.00     0.163 C 
HETATM    6  C1  UNL     1     -35.428  14.470  -7.495  1.00 20.00     0.033 C 
ENDBRANCH   4   5
ENDBRANCH   3   4
ENDBRANCH   2   3
ENDBRANCH   1   2
BRANCH   1   7
HETATM    7  C7  UNL     1     -33.719  16.907  -2.128  1.00 20.00     0.119 C 
HETATM    8 CL11 UNL     1     -34.689  16.518  -0.688  1.00 20.00    -0.130 Cl
ENDBRANCH   1   7
BRANCH   1   9
HETATM    9  C8  UNL     1     -34.715  14.777  -3.203  1.00 20.00    -0.017 C 
HETATM   10  C2  UNL     1     -36.098  14.499  -3.810  1.00 20.00     0.010 C 
HETATM   11  C3  UNL     1     -33.723  13.764  -3.790  1.00 20.00     0.010 C 
ENDBRANCH   1   9
TORSDOF 6
ENDMDL
MODEL 4
REMARK VINA RESULT:      -4.0     10.846     11.878
REMARK  6 active torsions:
REMARK  status: ('A' for Active; 'I' for Inactive)
REMARK    1  A    between atoms: C4_4  and  C6_6 
REMARK    2  A    between atoms: C4_4  and  C9_9 
REMARK    3  A    between atoms: C5_5  and  O10_10 
REMARK    4  A    between atoms: C6_6  and  O10_10 
REMARK    5  A    between atoms: C7_7  and  C9_9 
REMARK    6  A    between atoms: C8_8  and  C9_9 
ROOT
HETATM    1  C9  UNL     1     -34.668  15.725  -2.504  1.00 20.00     0.005 C 
ENDROOT
BRANCH   1   2
HETATM    2  C4  UNL     1     -33.713  15.256  -3.631  1.00 20.00     0.032 C 
BRANCH   2   3
HETATM    3  C6  UNL     1     -33.699  13.749  -3.869  1.00 20.00     0.168 C 
BRANCH   3   4
HETATM    4  O10 UNL     1     -34.408  13.473  -5.073  1.00 20.00    -0.391 OA
BRANCH   4   5
HETATM    5  C5  UNL     1     -34.388  14.586  -5.955  1.00 20.00     0.163 C 
HETATM    6  C1  UNL     1     -35.443  14.388  -7.022  1.00 20.00     0.033 C 
ENDBRANCH   4   5
ENDBRANCH   3   4
ENDBRANCH   2   3
ENDBRANCH   1   2
BRANCH   1   7
HETATM    7  C7  UNL     1     -36.023  16.230  -3.046  1.00 20.00     0.119 C 
HETATM    8 CL11 UNL     1     -37.122  14.916  -3.529  1.00 20.00    -0.130 Cl
ENDBRANCH   1   7
BRANCH   1   9
HETATM    9  C8  UNL     1     -33.973  16.764  -1.562  1.00 20.00    -0.017 C 
HETATM   10  C2  UNL     1     -33.776  18.126  -2.243  1.00 20.00     0.010 C 
HETATM   11  C3  UNL     1     -34.753  16.988  -0.260  1.00 20.00     0.010 C 
ENDBRANCH   1   9
TORSDOF 6
ENDMDL
MODEL 5
REMARK VINA RESULT:      -4.0     10.832     12.510
REMARK  6 active torsions:
REMARK  status: ('A' for Active; 'I' for Inactive)
REMARK    1  A    between atoms: C4_4  and  C6_6 
REMARK    2  A    between atoms: C4_4  and  C9_9 
REMARK    3  A    between atoms: C5_5  and  O10_10 
REMARK    4  A    between atoms: C6_6  and  O10_10 
REMARK    5  A    between atoms: C7_7  and  C9_9 
REMARK    6  A    between atoms: C8_8  and  C9_9 
ROOT
HETATM    1  C9  UNL     1     -33.637  16.322  -2.930  1.00 20.00     0.005 C 
ENDROOT
BRANCH   1   2
HETATM    2  C4  UNL     1     -33.064  15.086  -3.671  1.00 20.00     0.032 C 
BRANCH   2   3
HETATM    3  C6  UNL     1     -33.970  13.860  -3.659  1.00 20.00     0.168 C 
BRANCH   3   4
HETATM    4  O10 UNL     1     -34.220  13.467  -5.004  1.00 20.00    -0.391 OA
BRANCH   4   5
HETATM    5  C5  UNL     1     -35.381  14.101  -5.524  1.00 20.00     0.163 C 
HETATM    6  C1  UNL     1     -35.140  14.455  -6.976  1.00 20.00     0.033 C 
ENDBRANCH   4   5
ENDBRANCH   3   4
ENDBRANCH   2   3
ENDBRANCH   1   2
BRANCH   1   7
HETATM    7  C7  UNL     1     -34.792  15.958  -1.973  1.00 20.00     0.119 C 
HETATM    8 CL11 UNL     1     -34.683  16.775  -0.396  1.00 20.00    -0.130 Cl
ENDBRANCH   1   7
BRANCH   1   9
HETATM    9  C8  UNL     1     -34.024  17.459  -3.933  1.00 20.00    -0.017 C 
HETATM   10  C2  UNL     1     -33.393  17.255  -5.318  1.00 20.00     0.010 C 
HETATM   11  C3  UNL     1     -35.543  17.587  -4.115  1.00 20.00     0.010 C 
ENDBRANCH   1   9
TORSDOF 6
ENDMDL
MODEL 6
REMARK VINA RESULT:      -4.0     11.363     12.507
REMARK  6 active torsions:
REMARK  status: ('A' for Active; 'I' for Inactive)
REMARK    1  A    between atoms: C4_4  and  C6_6 
REMARK    2  A    between atoms: C4_4  and  C9_9 
REMARK    3  A    between atoms: C5_5  and  O10_10 
REMARK    4  A    between atoms: C6_6  and  O10_10 
REMARK    5  A    between atoms: C7_7  and  C9_9 
REMARK    6  A    between atoms: C8_8  and  C9_9 
ROOT
HETATM    1  C9  UNL     1     -33.568  16.033  -3.036  1.00 20.00     0.005 C 
ENDROOT
BRANCH   1   2
HETATM    2  C4  UNL     1     -33.622  17.182  -4.076  1.00 20.00     0.032 C 
BRANCH   2   3
HETATM    3  C6  UNL     1     -33.567  16.727  -5.531  1.00 20.00     0.168 C 
BRANCH   3   4
HETATM    4  O10 UNL     1     -34.805  17.052  -6.156  1.00 20.00    -0.391 OA
BRANCH   4   5
HETATM    5  C5  UNL     1     -35.488  15.886  -6.593  1.00 20.00     0.163 C 
HETATM    6  C1  UNL     1     -34.484  14.916  -7.177  1.00 20.00     0.033 C 
ENDBRANCH   4   5
ENDBRANCH   3   4
ENDBRANCH   2   3
ENDBRANCH   1   2
BRANCH   1   7
HETATM    7  C7  UNL     1     -33.260  14.664  -3.680  1.00 20.00     0.119 C 
HETATM    8 CL11 UNL     1     -34.673  13.583  -3.745  1.00 20.00    -0.130 Cl
ENDBRANCH   1   7
BRANCH   1   9
HETATM    9  C8  UNL     1     -34.859  16.003  -2.152  1.00 20.00    -0.017 C 
HETATM   10  C2  UNL     1     -34.627  16.616  -0.763  1.00 20.00     0.010 C 
HETATM   11  C3  UNL     1     -36.036  16.738  -2.808  1.00 20.00     0.010 C 
ENDBRANCH   1   9
TORSDOF 6
ENDMDL
MODEL 7
REMARK VINA RESULT:      -3.9     11.340     12.296
REMARK  6 active torsions:
REMARK  status: ('A' for Active; 'I' for Inactive)
REMARK    1  A    between atoms: C4_4  and  C6_6 
REMARK    2  A    between atoms: C4_4  and  C9_9 
REMARK    3  A    between atoms: C5_5  and  O10_10 
REMARK    4  A    between atoms: C6_6  and  O10_10 
REMARK    5  A    between atoms: C7_7  and  C9_9 
REMARK    6  A    between atoms: C8_8  and  C9_9 
ROOT
HETATM    1  C9  UNL     1     -34.106  16.197  -3.157  1.00 20.00     0.005 C 
ENDROOT
BRANCH   1   2
HETATM    2  C4  UNL     1     -35.397  15.356  -2.979  1.00 20.00     0.032 C 
BRANCH   2   3
HETATM    3  C6  UNL     1     -36.443  15.556  -4.070  1.00 20.00     0.168 C 
BRANCH   3   4
HETATM    4  O10 UNL     1     -36.214  14.599  -5.100  1.00 20.00    -0.391 OA
BRANCH   4   5
HETATM    5  C5  UNL     1     -36.049  15.225  -6.364  1.00 20.00     0.163 C 
HETATM    6  C1  UNL     1     -34.722  14.800  -6.954  1.00 20.00     0.033 C 
ENDBRANCH   4   5
ENDBRANCH   3   4
ENDBRANCH   2   3
ENDBRANCH   1   2
BRANCH   1   7
HETATM    7  C7  UNL     1     -32.937  15.373  -3.738  1.00 20.00     0.119 C 
HETATM    8 CL11 UNL     1     -33.235  13.618  -3.720  1.00 20.00    -0.130 Cl
ENDBRANCH   1   7
BRANCH   1   9
HETATM    9  C8  UNL     1     -33.720  16.936  -1.833  1.00 20.00    -0.017 C 
HETATM   10  C2  UNL     1     -33.634  18.458  -2.019  1.00 20.00     0.010 C 
HETATM   11  C3  UNL     1     -34.705  16.649  -0.692  1.00 20.00     0.010 C 
ENDBRANCH   1   9
TORSDOF 6
ENDMDL
MODEL 8
REMARK VINA RESULT:      -3.9     11.126     12.443
REMARK  6 active torsions:
REMARK  status: ('A' for Active; 'I' for Inactive)
REMARK    1  A    between atoms: C4_4  and  C6_6 
REMARK    2  A    between atoms: C4_4  and  C9_9 
REMARK    3  A    between atoms: C5_5  and  O10_10 
REMARK    4  A    between atoms: C6_6  and  O10_10 
REMARK    5  A    between atoms: C7_7  and  C9_9 
REMARK    6  A    between atoms: C8_8  and  C9_9 
ROOT
HETATM    1  C9  UNL     1     -35.232  15.154  -3.026  1.00 20.00     0.005 C 
ENDROOT
BRANCH   1   2
HETATM    2  C4  UNL     1     -36.231  15.441  -4.176  1.00 20.00     0.032 C 
BRANCH   2   3
HETATM    3  C6  UNL     1     -35.957  16.725  -4.953  1.00 20.00     0.168 C 
BRANCH   3   4
HETATM    4  O10 UNL     1     -35.683  16.386  -6.308  1.00 20.00    -0.391 OA
BRANCH   4   5
HETATM    5  C5  UNL     1     -34.302  16.525  -6.610  1.00 20.00     0.163 C 
HETATM    6  C1  UNL     1     -33.744  17.699  -5.835  1.00 20.00     0.033 C 
ENDBRANCH   4   5
ENDBRANCH   3   4
ENDBRANCH   2   3
ENDBRANCH   1   2
BRANCH   1   7
HETATM    7  C7  UNL     1     -34.584  16.440  -2.468  1.00 20.00     0.119 C 
HETATM    8 CL11 UNL     1     -34.637  16.541  -0.692  1.00 20.00    -0.130 Cl
ENDBRANCH   1   7
BRANCH   1   9
HETATM    9  C8  UNL     1     -34.173  14.082  -3.444  1.00 20.00    -0.017 C 
HETATM   10  C2  UNL     1     -34.599  13.298  -4.695  1.00 20.00     0.010 C 
HETATM   11  C3  UNL     1     -32.792  14.695  -3.712  1.00 20.00     0.010 C 
ENDBRANCH   1   9
TORSDOF 6
ENDMDL
MODEL 9
REMARK VINA RESULT:      -3.9     11.065     12.642
REMARK  6 active torsions:
REMARK  status: ('A' for Active; 'I' for Inactive)
REMARK    1  A    between atoms: C4_4  and  C6_6 
REMARK    2  A    between atoms: C4_4  and  C9_9 
REMARK    3  A    between atoms: C5_5  and  O10_10 
REMARK    4  A    between atoms: C6_6  and  O10_10 
REMARK    5  A    between atoms: C7_7  and  C9_9 
REMARK    6  A    between atoms: C8_8  and  C9_9 
ROOT
HETATM    1  C9  UNL     1     -35.582  14.516  -5.310  1.00 20.00     0.005 C 
ENDROOT
BRANCH   1   2
HETATM    2  C4  UNL     1     -36.276  15.741  -4.661  1.00 20.00     0.032 C 
BRANCH   2   3
HETATM    3  C6  UNL     1     -36.290  15.732  -3.136  1.00 20.00     0.168 C 
BRANCH   3   4
HETATM    4  O10 UNL     1     -35.403  16.743  -2.667  1.00 20.00    -0.391 OA
BRANCH   4   5
HETATM    5  C5  UNL     1     -34.501  16.232  -1.697  1.00 20.00     0.163 C 
HETATM    6  C1  UNL     1     -34.709  16.972  -0.393  1.00 20.00     0.033 C 
ENDBRANCH   4   5
ENDBRANCH   3   4
ENDBRANCH   2   3
ENDBRANCH   1   2
BRANCH   1   7
HETATM    7  C7  UNL     1     -35.141  13.465  -4.269  1.00 20.00     0.119 C 
HETATM    8 CL11 UNL     1     -33.407  13.548  -3.877  1.00 20.00    -0.130 Cl
ENDBRANCH   1   7
BRANCH   1   9
HETATM    9  C8  UNL     1     -34.412  14.956  -6.251  1.00 20.00    -0.017 C 
HETATM   10  C2  UNL     1     -34.784  14.839  -7.737  1.00 20.00     0.010 C 
HETATM   11  C3  UNL     1     -33.955  16.397  -5.985  1.00 20.00     0.010 C 
ENDBRANCH   1   9
TORSDOF 6
ENDMDL
