MODEL 1
REMARK VINA RESULT:      -4.8      0.000      0.000
REMARK  5 active torsions:
REMARK  status: ('A' for Active; 'I' for Inactive)
REMARK    1  A    between atoms: C2_2  and  C7_7 
REMARK    2  A    between atoms: C2_2  and  C8_8 
REMARK    3  A    between atoms: C3_3  and  C10_10 
REMARK    4  A    between atoms: C8_8  and  C10_10 
REMARK    5  A    between atoms: C9_9  and  C10_10 
ROOT
HETATM    1  C10 UNL     1     -33.970   5.703   5.045  1.00 20.00     0.058 C 
ENDROOT
BRANCH   1   2
HETATM    2  C3  UNL     1     -35.127   4.819   4.573  1.00 20.00     0.127 C 
HETATM    3  C4  UNL     1     -36.114   5.444   3.620  1.00 20.00     0.091 C 
HETATM    4  O11 UNL     1     -35.274   3.660   4.963  1.00 20.00    -0.298 OA
ENDBRANCH   1   2
BRANCH   1   5
HETATM    5  C8  UNL     1     -33.734   6.898   4.100  1.00 20.00     0.045 C 
BRANCH   5   6
HETATM    6  C2  UNL     1     -32.503   6.765   3.222  1.00 20.00    -0.089 C 
HETATM    7  C1  UNL     1     -32.100   5.559   2.784  1.00 20.00     0.014 C 
BRANCH   6   8
HETATM    8  C7  UNL     1     -31.729   8.012   2.859  1.00 20.00     0.029 C 
HETATM    9  C5  UNL     1     -32.059   8.538   1.468  1.00 20.00     0.010 C 
ENDBRANCH   6   8
ENDBRANCH   5   6
ENDBRANCH   1   5
BRANCH   1  10
HETATM   10  C9  UNL     1     -34.197   6.142   6.503  1.00 20.00     0.008 C 
HETATM   11  C6  UNL     1     -33.446   7.399   6.927  1.00 20.00     0.006 C 
ENDBRANCH   1  10
TORSDOF 5
ENDMDL
MODEL 2
REMARK VINA RESULT:      -4.6      2.097      4.655
REMARK  5 active torsions:
REMARK  status: ('A' for Active; 'I' for Inactive)
REMARK    1  A    between atoms: C2_2  and  C7_7 
REMARK    2  A    between atoms: C2_2  and  C8_8 
REMARK    3  A    between atoms: C3_3  and  C10_10 
REMARK    4  A    between atoms: C8_8  and  C10_10 
REMARK    5  A    between atoms: C9_9  and  C10_10 
ROOT
HETATM    1  C10 UNL     1     -32.719   6.249   3.737  1.00 20.00     0.058 C 
ENDROOT
BRANCH   1   2
HETATM    2  C3  UNL     1     -31.867   7.480   3.419  1.00 20.00     0.127 C 
HETATM    3  C4  UNL     1     -32.107   8.147   2.087  1.00 20.00     0.091 C 
HETATM    4  O11 UNL     1     -31.005   7.903   4.189  1.00 20.00    -0.298 OA
ENDBRANCH   1   2
BRANCH   1   5
HETATM    5  C8  UNL     1     -34.044   6.628   4.429  1.00 20.00     0.045 C 
BRANCH   5   6
HETATM    6  C2  UNL     1     -34.060   6.378   5.926  1.00 20.00    -0.089 C 
HETATM    7  C1  UNL     1     -33.368   7.172   6.762  1.00 20.00     0.014 C 
BRANCH   6   8
HETATM    8  C7  UNL     1     -34.858   5.210   6.460  1.00 20.00     0.029 C 
HETATM    9  C5  UNL     1     -34.872   4.013   5.519  1.00 20.00     0.010 C 
ENDBRANCH   6   8
ENDBRANCH   5   6
ENDBRANCH   1   5
BRANCH   1  10
HETATM   10  C9  UNL     1     -32.938   5.411   2.465  1.00 20.00     0.008 C 
HETATM   11  C6  UNL     1     -34.393   5.099   2.136  1.00 20.00     0.006 C 
ENDBRANCH   1  10
TORSDOF 5
ENDMDL
MODEL 3
REMARK VINA RESULT:      -4.6      1.634      2.761
REMARK  5 active torsions:
REMARK  status: ('A' for Active; 'I' for Inactive)
REMARK    1  A    between atoms: C2_2  and  C7_7 
REMARK    2  A    between atoms: C2_2  and  C8_8 
REMARK    3  A    between atoms: C3_3  and  C10_10 
REMARK    4  A    between atoms: C8_8  and  C10_10 
REMARK    5  A    between atoms: C9_9  and  C10_10 
ROOT
HETATM    1  C10 UNL     1     -33.994   6.405   4.263  1.00 20.00     0.058 C 
ENDROOT
BRANCH   1   2
HETATM    2  C3  UNL     1     -34.092   6.105   5.761  1.00 20.00     0.127 C 
HETATM    3  C4  UNL     1     -34.789   4.826   6.153  1.00 20.00     0.091 C 
HETATM    4  O11 UNL     1     -33.653   6.872   6.618  1.00 20.00    -0.298 OA
ENDBRANCH   1   2
BRANCH   1   5
HETATM    5  C8  UNL     1     -32.566   6.185   3.724  1.00 20.00     0.045 C 
BRANCH   5   6
HETATM    6  C2  UNL     1     -31.860   7.457   3.292  1.00 20.00    -0.089 C 
HETATM    7  C1  UNL     1     -31.112   8.156   4.163  1.00 20.00     0.014 C 
BRANCH   6   8
HETATM    8  C7  UNL     1     -32.022   7.932   1.866  1.00 20.00     0.029 C 
HETATM    9  C5  UNL     1     -32.446   9.392   1.764  1.00 20.00     0.010 C 
ENDBRANCH   6   8
ENDBRANCH   5   6
ENDBRANCH   1   5
BRANCH   1  10
HETATM   10  C9  UNL     1     -35.047   5.594   3.488  1.00 20.00     0.008 C 
HETATM   11  C6  UNL     1     -34.573   5.014   2.161  1.00 20.00     0.006 C 
ENDBRANCH   1  10
TORSDOF 5
ENDMDL
MODEL 4
REMARK VINA RESULT:      -4.5     11.370     12.581
REMARK  5 active torsions:
REMARK  status: ('A' for Active; 'I' for Inactive)
REMARK    1  A    between atoms: C2_2  and  C7_7 
REMARK    2  A    between atoms: C2_2  and  C8_8 
REMARK    3  A    between atoms: C3_3  and  C10_10 
REMARK    4  A    between atoms: C8_8  and  C10_10 
REMARK    5  A    between atoms: C9_9  and  C10_10 
ROOT
HETATM    1  C10 UNL     1     -34.308  14.782  -3.143  1.00 20.00     0.058 C 
ENDROOT
BRANCH   1   2
HETATM    2  C3  UNL     1     -35.238  13.871  -3.947  1.00 20.00     0.127 C 
HETATM    3  C4  UNL     1     -36.646  14.363  -4.169  1.00 20.00     0.091 C 
HETATM    4  O11 UNL     1     -34.879  12.774  -4.377  1.00 20.00    -0.298 OA
ENDBRANCH   1   2
BRANCH   1   5
HETATM    5  C8  UNL     1     -33.134  15.304  -3.995  1.00 20.00     0.045 C 
BRANCH   5   6
HETATM    6  C2  UNL     1     -33.541  16.275  -5.088  1.00 20.00    -0.089 C 
HETATM    7  C1  UNL     1     -33.500  17.602  -4.877  1.00 20.00     0.014 C 
BRANCH   6   8
HETATM    8  C7  UNL     1     -34.004  15.723  -6.417  1.00 20.00     0.029 C 
HETATM    9  C5  UNL     1     -35.188  16.481  -7.002  1.00 20.00     0.010 C 
ENDBRANCH   6   8
ENDBRANCH   5   6
ENDBRANCH   1   5
BRANCH   1  10
HETATM   10  C9  UNL     1     -35.113  15.920  -2.490  1.00 20.00     0.008 C 
HETATM   11  C6  UNL     1     -34.496  16.510  -1.227  1.00 20.00     0.006 C 
ENDBRANCH   1  10
TORSDOF 5
ENDMDL
MODEL 5
REMARK VINA RESULT:      -4.3     11.513     12.458
REMARK  5 active torsions:
REMARK  status: ('A' for Active; 'I' for Inactive)
REMARK    1  A    between atoms: C2_2  and  C7_7 
REMARK    2  A    between atoms: C2_2  and  C8_8 
REMARK    3  A    between atoms: C3_3  and  C10_10 
REMARK    4  A    between atoms: C8_8  and  C10_10 
REMARK    5  A    between atoms: C9_9  and  C10_10 
ROOT
HETATM    1  C10 UNL     1     -35.157  14.750  -3.354  1.00 20.00     0.058 C 
ENDROOT
BRANCH   1   2
HETATM    2  C3  UNL     1     -34.915  13.791  -4.522  1.00 20.00     0.127 C 
HETATM    3  C4  UNL     1     -34.597  14.414  -5.858  1.00 20.00     0.091 C 
HETATM    4  O11 UNL     1     -34.999  12.569  -4.400  1.00 20.00    -0.298 OA
ENDBRANCH   1   2
BRANCH   1   5
HETATM    5  C8  UNL     1     -33.897  15.571  -3.012  1.00 20.00     0.045 C 
BRANCH   5   6
HETATM    6  C2  UNL     1     -34.156  16.768  -2.116  1.00 20.00    -0.089 C 
HETATM    7  C1  UNL     1     -34.579  16.599  -0.851  1.00 20.00     0.014 C 
BRANCH   6   8
HETATM    8  C7  UNL     1     -33.943  18.156  -2.676  1.00 20.00     0.029 C 
HETATM    9  C5  UNL     1     -33.685  18.165  -4.177  1.00 20.00     0.010 C 
ENDBRANCH   6   8
ENDBRANCH   5   6
ENDBRANCH   1   5
BRANCH   1  10
HETATM   10  C9  UNL     1     -36.379  15.641  -3.641  1.00 20.00     0.008 C 
HETATM   11  C6  UNL     1     -37.707  14.904  -3.757  1.00 20.00     0.006 C 
ENDBRANCH   1  10
TORSDOF 5
ENDMDL
MODEL 6
REMARK VINA RESULT:      -4.3     10.847     13.038
REMARK  5 active torsions:
REMARK  status: ('A' for Active; 'I' for Inactive)
REMARK    1  A    between atoms: C2_2  and  C7_7 
REMARK    2  A    between atoms: C2_2  and  C8_8 
REMARK    3  A    between atoms: C3_3  and  C10_10 
REMARK    4  A    between atoms: C8_8  and  C10_10 
REMARK    5  A    between atoms: C9_9  and  C10_10 
ROOT
HETATM    1  C10 UNL     1     -34.369  14.964  -5.056  1.00 20.00     0.058 C 
ENDROOT
BRANCH   1   2
HETATM    2  C3  UNL     1     -34.100  13.618  -4.379  1.00 20.00     0.127 C 
HETATM    3  C4  UNL     1     -32.938  13.561  -3.419  1.00 20.00     0.091 C 
HETATM    4  O11 UNL     1     -34.772  12.614  -4.615  1.00 20.00    -0.298 OA
ENDBRANCH   1   2
BRANCH   1   5
HETATM    5  C8  UNL     1     -33.334  16.031  -4.648  1.00 20.00     0.045 C 
BRANCH   5   6
HETATM    6  C2  UNL     1     -33.887  17.124  -3.751  1.00 20.00    -0.089 C 
HETATM    7  C1  UNL     1     -34.545  18.173  -4.273  1.00 20.00     0.014 C 
BRANCH   6   8
HETATM    8  C7  UNL     1     -33.674  17.016  -2.258  1.00 20.00     0.029 C 
HETATM    9  C5  UNL     1     -34.789  16.261  -1.546  1.00 20.00     0.010 C 
ENDBRANCH   6   8
ENDBRANCH   5   6
ENDBRANCH   1   5
BRANCH   1  10
HETATM   10  C9  UNL     1     -34.457  14.783  -6.583  1.00 20.00     0.008 C 
HETATM   11  C6  UNL     1     -35.866  14.829  -7.161  1.00 20.00     0.006 C 
ENDBRANCH   1  10
TORSDOF 5
ENDMDL
MODEL 7
REMARK VINA RESULT:      -4.2     11.160     12.595
REMARK  5 active torsions:
REMARK  status: ('A' for Active; 'I' for Inactive)
REMARK    1  A    between atoms: C2_2  and  C7_7 
REMARK    2  A    between atoms: C2_2  and  C8_8 
REMARK    3  A    between atoms: C3_3  and  C10_10 
REMARK    4  A    between atoms: C8_8  and  C10_10 
REMARK    5  A    between atoms: C9_9  and  C10_10 
ROOT
HETATM    1  C10 UNL     1     -33.971  16.478  -2.574  1.00 20.00     0.058 C 
ENDROOT
BRANCH   1   2
HETATM    2  C3  UNL     1     -34.071  17.089  -1.175  1.00 20.00     0.127 C 
HETATM    3  C4  UNL     1     -33.253  18.330  -0.916  1.00 20.00     0.091 C 
HETATM    4  O11 UNL     1     -34.760  16.591  -0.284  1.00 20.00    -0.298 OA
ENDBRANCH   1   2
BRANCH   1   5
HETATM    5  C8  UNL     1     -34.831  15.205  -2.710  1.00 20.00     0.045 C 
BRANCH   5   6
HETATM    6  C2  UNL     1     -34.229  14.139  -3.608  1.00 20.00    -0.089 C 
HETATM    7  C1  UNL     1     -32.926  13.823  -3.519  1.00 20.00     0.014 C 
BRANCH   6   8
HETATM    8  C7  UNL     1     -35.121  13.446  -4.613  1.00 20.00     0.029 C 
HETATM    9  C5  UNL     1     -35.124  14.121  -5.978  1.00 20.00     0.010 C 
ENDBRANCH   6   8
ENDBRANCH   5   6
ENDBRANCH   1   5
BRANCH   1  10
HETATM   10  C9  UNL     1     -34.309  17.534  -3.642  1.00 20.00     0.008 C 
HETATM   11  C6  UNL     1     -33.460  17.474  -4.905  1.00 20.00     0.006 C 
ENDBRANCH   1  10
TORSDOF 5
ENDMDL
MODEL 8
REMARK VINA RESULT:      -4.2     11.588     12.902
REMARK  5 active torsions:
REMARK  status: ('A' for Active; 'I' for Inactive)
REMARK    1  A    between atoms: C2_2  and  C7_7 
REMARK    2  A    between atoms: C2_2  and  C8_8 
REMARK    3  A    between atoms: C3_3  and  C10_10 
REMARK    4  A    between atoms: C8_8  and  C10_10 
REMARK    5  A    between atoms: C9_9  and  C10_10 
ROOT
HETATM    1  C10 UNL     1     -33.935  16.385  -3.017  1.00 20.00     0.058 C 
ENDROOT
BRANCH   1   2
HETATM    2  C3  UNL     1     -34.975  16.779  -4.069  1.00 20.00     0.127 C 
HETATM    3  C4  UNL     1     -36.419  16.762  -3.635  1.00 20.00     0.091 C 
HETATM    4  O11 UNL     1     -34.667  17.074  -5.224  1.00 20.00    -0.298 OA
ENDBRANCH   1   2
BRANCH   1   5
HETATM    5  C8  UNL     1     -34.570  16.177  -1.628  1.00 20.00     0.045 C 
BRANCH   5   6
HETATM    6  C2  UNL     1     -34.307  17.306  -0.647  1.00 20.00    -0.089 C 
HETATM    7  C1  UNL     1     -34.968  17.366   0.522  1.00 20.00     0.014 C 
BRANCH   6   8
HETATM    8  C7  UNL     1     -33.298  18.369  -1.015  1.00 20.00     0.029 C 
HETATM    9  C5  UNL     1     -32.375  18.745   0.137  1.00 20.00     0.010 C 
ENDBRANCH   6   8
ENDBRANCH   5   6
ENDBRANCH   1   5
BRANCH   1  10
HETATM   10  C9  UNL     1     -33.140  15.154  -3.491  1.00 20.00     0.008 C 
HETATM   11  C6  UNL     1     -33.959  13.882  -3.671  1.00 20.00     0.006 C 
ENDBRANCH   1  10
TORSDOF 5
ENDMDL
MODEL 9
REMARK VINA RESULT:      -4.1     11.510     12.674
REMARK  5 active torsions:
REMARK  status: ('A' for Active; 'I' for Inactive)
REMARK    1  A    between atoms: C2_2  and  C7_7 
REMARK    2  A    between atoms: C2_2  and  C8_8 
REMARK    3  A    between atoms: C3_3  and  C10_10 
REMARK    4  A    between atoms: C8_8  and  C10_10 
REMARK    5  A    between atoms: C9_9  and  C10_10 
ROOT
HETATM    1  C10 UNL     1     -36.129  15.285  -4.587  1.00 20.00     0.058 C 
ENDROOT
BRANCH   1   2
HETATM    2  C3  UNL     1     -37.484  15.231  -3.878  1.00 20.00     0.127 C 
HETATM    3  C4  UNL     1     -38.021  16.534  -3.340  1.00 20.00     0.091 C 
HETATM    4  O11 UNL     1     -38.106  14.180  -3.722  1.00 20.00    -0.298 OA
ENDBRANCH   1   2
BRANCH   1   5
HETATM    5  C8  UNL     1     -35.085  14.378  -3.905  1.00 20.00     0.045 C 
BRANCH   5   6
HETATM    6  C2  UNL     1     -33.857  15.113  -3.397  1.00 20.00    -0.089 C 
HETATM    7  C1  UNL     1     -32.632  14.575  -3.530  1.00 20.00     0.014 C 
BRANCH   6   8
HETATM    8  C7  UNL     1     -34.039  16.456  -2.727  1.00 20.00     0.029 C 
HETATM    9  C5  UNL     1     -34.634  16.354  -1.329  1.00 20.00     0.010 C 
ENDBRANCH   6   8
ENDBRANCH   5   6
ENDBRANCH   1   5
BRANCH   1  10
HETATM   10  C9  UNL     1     -36.298  14.965  -6.083  1.00 20.00     0.008 C 
HETATM   11  C6  UNL     1     -35.043  14.464  -6.786  1.00 20.00     0.006 C 
ENDBRANCH   1  10
TORSDOF 5
ENDMDL
