MODEL 1
REMARK VINA RESULT:      -5.2      0.000      0.000
REMARK  5 active torsions:
REMARK  status: ('A' for Active; 'I' for Inactive)
REMARK    1  A    between atoms: C2_2  and  C4_4 
REMARK    2  A    between atoms: C2_2  and  C5_5 
REMARK    3  A    between atoms: C5_5  and  C6_6 
REMARK    4  A    between atoms: C6_6  and  C7_7 
REMARK    5  A    between atoms: C7_7  and  C8_8 
ROOT
HETATM    1  C5  UNL     1     -33.974   6.462   4.133  1.00 20.00     0.033 C 
ENDROOT
BRANCH   1   2
HETATM    2  C2  UNL     1     -34.034   6.166   5.615  1.00 20.00    -0.090 C 
HETATM    3  C1  UNL     1     -33.597   7.064   6.513  1.00 20.00     0.014 C 
BRANCH   2   4
HETATM    4  C4  UNL     1     -34.595   4.836   6.062  1.00 20.00     0.029 C 
HETATM    5  C3  UNL     1     -35.197   4.029   4.920  1.00 20.00     0.010 C 
ENDBRANCH   2   4
ENDBRANCH   1   2
BRANCH   1   6
HETATM    6  C6  UNL     1     -32.572   6.271   3.544  1.00 20.00     0.005 C 
BRANCH   6   7
HETATM    7  C7  UNL     1     -31.886   7.616   3.297  1.00 20.00     0.015 C 
BRANCH   7   8
HETATM    8  C8  UNL     1     -32.007   8.034   1.838  1.00 20.00     0.114 C 
HETATM    9 CL9  UNL     1     -32.547   9.724   1.720  1.00 20.00    -0.130 Cl
ENDBRANCH   7   8
ENDBRANCH   6   7
ENDBRANCH   1   6
TORSDOF 5
ENDMDL
MODEL 2
REMARK VINA RESULT:      -5.2      0.535      1.859
REMARK  5 active torsions:
REMARK  status: ('A' for Active; 'I' for Inactive)
REMARK    1  A    between atoms: C2_2  and  C4_4 
REMARK    2  A    between atoms: C2_2  and  C5_5 
REMARK    3  A    between atoms: C5_5  and  C6_6 
REMARK    4  A    between atoms: C6_6  and  C7_7 
REMARK    5  A    between atoms: C7_7  and  C8_8 
ROOT
HETATM    1  C5  UNL     1     -34.130   6.504   3.924  1.00 20.00     0.033 C 
ENDROOT
BRANCH   1   2
HETATM    2  C2  UNL     1     -34.545   5.469   4.946  1.00 20.00    -0.090 C 
HETATM    3  C1  UNL     1     -35.092   4.304   4.561  1.00 20.00     0.014 C 
BRANCH   2   4
HETATM    4  C4  UNL     1     -34.330   5.776   6.411  1.00 20.00     0.029 C 
HETATM    5  C3  UNL     1     -33.663   7.124   6.646  1.00 20.00     0.010 C 
ENDBRANCH   2   4
ENDBRANCH   1   2
BRANCH   1   6
HETATM    6  C6  UNL     1     -32.785   6.185   3.265  1.00 20.00     0.005 C 
BRANCH   6   7
HETATM    7  C7  UNL     1     -31.908   7.435   3.160  1.00 20.00     0.015 C 
BRANCH   7   8
HETATM    8  C8  UNL     1     -31.956   8.022   1.756  1.00 20.00     0.114 C 
HETATM    9 CL9  UNL     1     -32.568   9.691   1.803  1.00 20.00    -0.130 Cl
ENDBRANCH   7   8
ENDBRANCH   6   7
ENDBRANCH   1   6
TORSDOF 5
ENDMDL
MODEL 3
REMARK VINA RESULT:      -5.0      2.227      4.693
REMARK  5 active torsions:
REMARK  status: ('A' for Active; 'I' for Inactive)
REMARK    1  A    between atoms: C2_2  and  C4_4 
REMARK    2  A    between atoms: C2_2  and  C5_5 
REMARK    3  A    between atoms: C5_5  and  C6_6 
REMARK    4  A    between atoms: C6_6  and  C7_7 
REMARK    5  A    between atoms: C7_7  and  C8_8 
ROOT
HETATM    1  C5  UNL     1     -33.019   6.122   3.038  1.00 20.00     0.033 C 
ENDROOT
BRANCH   1   2
HETATM    2  C2  UNL     1     -32.111   7.329   2.950  1.00 20.00    -0.090 C 
HETATM    3  C1  UNL     1     -31.414   7.744   4.020  1.00 20.00     0.014 C 
BRANCH   2   4
HETATM    4  C4  UNL     1     -32.007   8.058   1.629  1.00 20.00     0.029 C 
HETATM    5  C3  UNL     1     -32.452   9.511   1.715  1.00 20.00     0.010 C 
ENDBRANCH   2   4
ENDBRANCH   1   2
BRANCH   1   6
HETATM    6  C6  UNL     1     -34.274   6.382   3.877  1.00 20.00     0.005 C 
BRANCH   6   7
HETATM    7  C7  UNL     1     -34.816   5.085   4.482  1.00 20.00     0.015 C 
BRANCH   7   8
HETATM    8  C8  UNL     1     -34.741   5.116   6.002  1.00 20.00     0.114 C 
HETATM    9 CL9  UNL     1     -34.002   6.636   6.556  1.00 20.00    -0.130 Cl
ENDBRANCH   7   8
ENDBRANCH   6   7
ENDBRANCH   1   6
TORSDOF 5
ENDMDL
MODEL 4
REMARK VINA RESULT:      -4.9      0.901      1.733
REMARK  5 active torsions:
REMARK  status: ('A' for Active; 'I' for Inactive)
REMARK    1  A    between atoms: C2_2  and  C4_4 
REMARK    2  A    between atoms: C2_2  and  C5_5 
REMARK    3  A    between atoms: C5_5  and  C6_6 
REMARK    4  A    between atoms: C6_6  and  C7_7 
REMARK    5  A    between atoms: C7_7  and  C8_8 
ROOT
HETATM    1  C5  UNL     1     -33.495   5.925   2.843  1.00 20.00     0.033 C 
ENDROOT
BRANCH   1   2
HETATM    2  C2  UNL     1     -34.463   5.798   3.998  1.00 20.00    -0.090 C 
HETATM    3  C1  UNL     1     -35.731   5.405   3.791  1.00 20.00     0.014 C 
BRANCH   2   4
HETATM    4  C4  UNL     1     -33.972   6.123   5.390  1.00 20.00     0.029 C 
HETATM    5  C3  UNL     1     -34.622   5.264   6.466  1.00 20.00     0.010 C 
ENDBRANCH   2   4
ENDBRANCH   1   2
BRANCH   1   6
HETATM    6  C6  UNL     1     -32.072   6.268   3.295  1.00 20.00     0.005 C 
BRANCH   6   7
HETATM    7  C7  UNL     1     -31.781   7.761   3.128  1.00 20.00     0.015 C 
BRANCH   7   8
HETATM    8  C8  UNL     1     -31.984   8.201   1.685  1.00 20.00     0.114 C 
HETATM    9 CL9  UNL     1     -32.557   9.883   1.624  1.00 20.00    -0.130 Cl
ENDBRANCH   7   8
ENDBRANCH   6   7
ENDBRANCH   1   6
TORSDOF 5
ENDMDL
MODEL 5
REMARK VINA RESULT:      -4.2      2.204      4.484
REMARK  5 active torsions:
REMARK  status: ('A' for Active; 'I' for Inactive)
REMARK    1  A    between atoms: C2_2  and  C4_4 
REMARK    2  A    between atoms: C2_2  and  C5_5 
REMARK    3  A    between atoms: C5_5  and  C6_6 
REMARK    4  A    between atoms: C6_6  and  C7_7 
REMARK    5  A    between atoms: C7_7  and  C8_8 
ROOT
HETATM    1  C5  UNL     1     -34.835   5.880   3.869  1.00 20.00     0.033 C 
ENDROOT
BRANCH   1   2
HETATM    2  C2  UNL     1     -33.607   5.754   2.995  1.00 20.00    -0.090 C 
HETATM    3  C1  UNL     1     -33.612   4.955   1.915  1.00 20.00     0.014 C 
BRANCH   2   4
HETATM    4  C4  UNL     1     -32.374   6.546   3.365  1.00 20.00     0.029 C 
HETATM    5  C3  UNL     1     -32.182   7.785   2.502  1.00 20.00     0.010 C 
ENDBRANCH   2   4
ENDBRANCH   1   2
BRANCH   1   6
HETATM    6  C6  UNL     1     -35.143   4.599   4.651  1.00 20.00     0.005 C 
BRANCH   6   7
HETATM    7  C7  UNL     1     -34.401   4.575   5.990  1.00 20.00     0.015 C 
BRANCH   7   8
HETATM    8  C8  UNL     1     -34.687   5.833   6.798  1.00 20.00     0.114 C 
HETATM    9 CL9  UNL     1     -33.327   6.972   6.673  1.00 20.00    -0.130 Cl
ENDBRANCH   7   8
ENDBRANCH   6   7
ENDBRANCH   1   6
TORSDOF 5
ENDMDL
MODEL 6
REMARK VINA RESULT:      -3.9     11.172     12.219
REMARK  5 active torsions:
REMARK  status: ('A' for Active; 'I' for Inactive)
REMARK    1  A    between atoms: C2_2  and  C4_4 
REMARK    2  A    between atoms: C2_2  and  C5_5 
REMARK    3  A    between atoms: C5_5  and  C6_6 
REMARK    4  A    between atoms: C6_6  and  C7_7 
REMARK    5  A    between atoms: C7_7  and  C8_8 
ROOT
HETATM    1  C5  UNL     1     -33.308  15.017  -3.572  1.00 20.00     0.033 C 
ENDROOT
BRANCH   1   2
HETATM    2  C2  UNL     1     -33.921  16.263  -2.972  1.00 20.00    -0.090 C 
HETATM    3  C1  UNL     1     -33.743  17.463  -3.550  1.00 20.00     0.014 C 
BRANCH   2   4
HETATM    4  C4  UNL     1     -34.736  16.128  -1.706  1.00 20.00     0.029 C 
HETATM    5  C3  UNL     1     -34.320  17.112  -0.622  1.00 20.00     0.010 C 
ENDBRANCH   2   4
ENDBRANCH   1   2
BRANCH   1   6
HETATM    6  C6  UNL     1     -34.263  13.819  -3.559  1.00 20.00     0.005 C 
BRANCH   6   7
HETATM    7  C7  UNL     1     -34.523  13.301  -4.976  1.00 20.00     0.015 C 
BRANCH   7   8
HETATM    8  C8  UNL     1     -35.311  14.314  -5.794  1.00 20.00     0.114 C 
HETATM    9 CL9  UNL     1     -34.305  14.970  -7.106  1.00 20.00    -0.130 Cl
ENDBRANCH   7   8
ENDBRANCH   6   7
ENDBRANCH   1   6
TORSDOF 5
ENDMDL
MODEL 7
REMARK VINA RESULT:      -3.9     11.119     11.942
REMARK  5 active torsions:
REMARK  status: ('A' for Active; 'I' for Inactive)
REMARK    1  A    between atoms: C2_2  and  C4_4 
REMARK    2  A    between atoms: C2_2  and  C5_5 
REMARK    3  A    between atoms: C5_5  and  C6_6 
REMARK    4  A    between atoms: C6_6  and  C7_7 
REMARK    5  A    between atoms: C7_7  and  C8_8 
ROOT
HETATM    1  C5  UNL     1     -34.699  15.788  -2.317  1.00 20.00     0.033 C 
ENDROOT
BRANCH   1   2
HETATM    2  C2  UNL     1     -33.859  15.306  -3.479  1.00 20.00    -0.090 C 
HETATM    3  C1  UNL     1     -33.192  16.178  -4.253  1.00 20.00     0.014 C 
BRANCH   2   4
HETATM    4  C4  UNL     1     -33.787  13.820  -3.750  1.00 20.00     0.029 C 
HETATM    5  C3  UNL     1     -35.067  13.264  -4.359  1.00 20.00     0.010 C 
ENDBRANCH   2   4
ENDBRANCH   1   2
BRANCH   1   6
HETATM    6  C6  UNL     1     -33.981  16.831  -1.455  1.00 20.00     0.005 C 
BRANCH   6   7
HETATM    7  C7  UNL     1     -34.760  17.121  -0.170  1.00 20.00     0.015 C 
BRANCH   7   8
HETATM    8  C8  UNL     1     -34.052  18.170   0.676  1.00 20.00     0.114 C 
HETATM    9 CL9  UNL     1     -32.509  18.635  -0.076  1.00 20.00    -0.130 Cl
ENDBRANCH   7   8
ENDBRANCH   6   7
ENDBRANCH   1   6
TORSDOF 5
ENDMDL
MODEL 8
REMARK VINA RESULT:      -3.8     10.957     12.041
REMARK  5 active torsions:
REMARK  status: ('A' for Active; 'I' for Inactive)
REMARK    1  A    between atoms: C2_2  and  C4_4 
REMARK    2  A    between atoms: C2_2  and  C5_5 
REMARK    3  A    between atoms: C5_5  and  C6_6 
REMARK    4  A    between atoms: C6_6  and  C7_7 
REMARK    5  A    between atoms: C7_7  and  C8_8 
ROOT
HETATM    1  C5  UNL     1     -34.509  16.181  -1.752  1.00 20.00     0.033 C 
ENDROOT
BRANCH   1   2
HETATM    2  C2  UNL     1     -34.286  17.288  -0.746  1.00 20.00    -0.090 C 
HETATM    3  C1  UNL     1     -34.959  17.305   0.416  1.00 20.00     0.014 C 
BRANCH   2   4
HETATM    4  C4  UNL     1     -33.290  18.375  -1.078  1.00 20.00     0.029 C 
HETATM    5  C3  UNL     1     -32.395  18.742   0.098  1.00 20.00     0.010 C 
ENDBRANCH   2   4
ENDBRANCH   1   2
BRANCH   1   6
HETATM    6  C6  UNL     1     -33.732  16.397  -3.056  1.00 20.00     0.005 C 
BRANCH   6   7
HETATM    7  C7  UNL     1     -33.251  15.067  -3.642  1.00 20.00     0.015 C 
BRANCH   7   8
HETATM    8  C8  UNL     1     -34.300  13.978  -3.464  1.00 20.00     0.114 C 
HETATM    9 CL9  UNL     1     -34.661  13.203  -5.022  1.00 20.00    -0.130 Cl
ENDBRANCH   7   8
ENDBRANCH   6   7
ENDBRANCH   1   6
TORSDOF 5
ENDMDL
MODEL 9
REMARK VINA RESULT:      -3.8     11.181     12.624
REMARK  5 active torsions:
REMARK  status: ('A' for Active; 'I' for Inactive)
REMARK    1  A    between atoms: C2_2  and  C4_4 
REMARK    2  A    between atoms: C2_2  and  C5_5 
REMARK    3  A    between atoms: C5_5  and  C6_6 
REMARK    4  A    between atoms: C6_6  and  C7_7 
REMARK    5  A    between atoms: C7_7  and  C8_8 
ROOT
HETATM    1  C5  UNL     1     -33.336  15.103  -3.530  1.00 20.00     0.033 C 
ENDROOT
BRANCH   1   2
HETATM    2  C2  UNL     1     -33.936  16.310  -2.843  1.00 20.00    -0.090 C 
HETATM    3  C1  UNL     1     -34.544  16.190  -1.652  1.00 20.00     0.014 C 
BRANCH   2   4
HETATM    4  C4  UNL     1     -33.835  17.654  -3.528  1.00 20.00     0.029 C 
HETATM    5  C3  UNL     1     -33.480  17.544  -5.005  1.00 20.00     0.010 C 
ENDBRANCH   2   4
ENDBRANCH   1   2
BRANCH   1   6
HETATM    6  C6  UNL     1     -34.265  13.885  -3.511  1.00 20.00     0.005 C 
BRANCH   6   7
HETATM    7  C7  UNL     1     -34.490  13.336  -4.922  1.00 20.00     0.015 C 
BRANCH   7   8
HETATM    8  C8  UNL     1     -35.305  14.306  -5.764  1.00 20.00     0.114 C 
HETATM    9 CL9  UNL     1     -34.361  14.855  -7.167  1.00 20.00    -0.130 Cl
ENDBRANCH   7   8
ENDBRANCH   6   7
ENDBRANCH   1   6
TORSDOF 5
ENDMDL
