MODEL 1
REMARK VINA RESULT:      -4.2      0.000      0.000
REMARK  3 active torsions:
REMARK  status: ('A' for Active; 'I' for Inactive)
REMARK    1  A    between atoms: C6_6  and  C8_8 
REMARK    2  A    between atoms: C7_7  and  C8_8 
REMARK    3  A    between atoms: C7_7  and  C9_9 
ROOT
HETATM    1  C8  UNL     1     -33.644  16.084  -2.824  1.00 20.00     0.042 C 
ENDROOT
BRANCH   1   2
HETATM    2  C6  UNL     1     -34.596  15.240  -3.649  1.00 20.00     0.122 C 
HETATM    3  C2  UNL     1     -34.306  13.752  -3.577  1.00 20.00     0.034 C 
HETATM    4  C1  UNL     1     -34.883  13.270  -4.884  1.00 20.00     0.029 C 
HETATM    5  C5  UNL     1     -34.522  14.401  -5.822  1.00 20.00     0.168 C 
HETATM    6  O10 UNL     1     -34.491  15.603  -5.036  1.00 20.00    -0.386 OA
ENDBRANCH   1   2
BRANCH   1   7
HETATM    7  C7  UNL     1     -34.367  17.084  -1.976  1.00 20.00    -0.025 A 
HETATM    8  C3  UNL     1     -34.645  16.722  -0.535  1.00 20.00     0.011 A 
HETATM    9  C4  UNL     1     -33.599  17.750  -0.858  1.00 20.00     0.011 A 
BRANCH   7  10
HETATM   10  C9  UNL     1     -35.395  17.900  -2.709  1.00 20.00     0.124 C 
HETATM   11 CL11 UNL     1     -34.625  18.932  -3.938  1.00 20.00    -0.130 Cl
ENDBRANCH   7  10
ENDBRANCH   1   7
TORSDOF 3
ENDMDL
MODEL 2
REMARK VINA RESULT:      -4.2      1.898      4.308
REMARK  3 active torsions:
REMARK  status: ('A' for Active; 'I' for Inactive)
REMARK    1  A    between atoms: C6_6  and  C8_8 
REMARK    2  A    between atoms: C7_7  and  C8_8 
REMARK    3  A    between atoms: C7_7  and  C9_9 
ROOT
HETATM    1  C8  UNL     1     -35.224  15.230  -3.031  1.00 20.00     0.042 C 
ENDROOT
BRANCH   1   2
HETATM    2  C6  UNL     1     -34.941  16.590  -2.423  1.00 20.00     0.122 C 
HETATM    3  C2  UNL     1     -34.574  16.532  -0.951  1.00 20.00     0.034 C 
HETATM    4  C1  UNL     1     -34.985  17.906  -0.485  1.00 20.00     0.029 C 
HETATM    5  C5  UNL     1     -36.252  18.140  -1.280  1.00 20.00     0.168 C 
HETATM    6  O10 UNL     1     -36.112  17.418  -2.513  1.00 20.00    -0.386 OA
ENDBRANCH   1   2
BRANCH   1   7
HETATM    7  C7  UNL     1     -34.182  14.830  -4.029  1.00 20.00    -0.025 A 
HETATM    8  C3  UNL     1     -33.298  13.650  -3.696  1.00 20.00     0.011 A 
HETATM    9  C4  UNL     1     -34.361  13.512  -4.747  1.00 20.00     0.011 A 
BRANCH   7  10
HETATM   10  C9  UNL     1     -33.575  15.973  -4.793  1.00 20.00     0.124 C 
HETATM   11 CL11 UNL     1     -34.007  15.884  -6.517  1.00 20.00    -0.130 Cl
ENDBRANCH   7  10
ENDBRANCH   1   7
TORSDOF 3
ENDMDL
MODEL 3
REMARK VINA RESULT:      -4.1      2.569      3.470
REMARK  3 active torsions:
REMARK  status: ('A' for Active; 'I' for Inactive)
REMARK    1  A    between atoms: C6_6  and  C8_8 
REMARK    2  A    between atoms: C7_7  and  C8_8 
REMARK    3  A    between atoms: C7_7  and  C9_9 
ROOT
HETATM    1  C8  UNL     1     -35.193  14.934  -2.857  1.00 20.00     0.042 C 
ENDROOT
BRANCH   1   2
HETATM    2  C6  UNL     1     -36.312  15.261  -3.826  1.00 20.00     0.122 C 
HETATM    3  C2  UNL     1     -37.079  16.521  -3.464  1.00 20.00     0.034 C 
HETATM    4  C1  UNL     1     -38.415  16.254  -4.110  1.00 20.00     0.029 C 
HETATM    5  C5  UNL     1     -38.589  14.770  -3.869  1.00 20.00     0.168 C 
HETATM    6  O10 UNL     1     -37.275  14.194  -3.837  1.00 20.00    -0.386 OA
ENDBRANCH   1   2
BRANCH   1   7
HETATM    7  C7  UNL     1     -33.964  15.750  -3.118  1.00 20.00    -0.025 A 
HETATM    8  C3  UNL     1     -32.747  15.041  -3.666  1.00 20.00     0.011 A 
HETATM    9  C4  UNL     1     -33.542  15.953  -4.555  1.00 20.00     0.011 A 
BRANCH   7  10
HETATM   10  C9  UNL     1     -33.746  16.881  -2.152  1.00 20.00     0.124 C 
HETATM   11 CL11 UNL     1     -34.652  16.610  -0.644  1.00 20.00    -0.130 Cl
ENDBRANCH   7  10
ENDBRANCH   1   7
TORSDOF 3
ENDMDL
MODEL 4
REMARK VINA RESULT:      -4.1      3.103      4.254
REMARK  3 active torsions:
REMARK  status: ('A' for Active; 'I' for Inactive)
REMARK    1  A    between atoms: C6_6  and  C8_8 
REMARK    2  A    between atoms: C7_7  and  C8_8 
REMARK    3  A    between atoms: C7_7  and  C9_9 
ROOT
HETATM    1  C8  UNL     1     -35.824  15.042  -3.694  1.00 20.00     0.042 C 
ENDROOT
BRANCH   1   2
HETATM    2  C6  UNL     1     -37.041  14.599  -4.481  1.00 20.00     0.122 C 
HETATM    3  C2  UNL     1     -37.579  15.666  -5.419  1.00 20.00     0.034 C 
HETATM    4  C1  UNL     1     -39.026  15.260  -5.537  1.00 20.00     0.029 C 
HETATM    5  C5  UNL     1     -39.337  14.796  -4.130  1.00 20.00     0.168 C 
HETATM    6  O10 UNL     1     -38.115  14.279  -3.581  1.00 20.00    -0.386 OA
ENDBRANCH   1   2
BRANCH   1   7
HETATM    7  C7  UNL     1     -34.544  14.662  -4.372  1.00 20.00    -0.025 A 
HETATM    8  C3  UNL     1     -33.602  13.737  -3.639  1.00 20.00     0.011 A 
HETATM    9  C4  UNL     1     -34.379  13.228  -4.818  1.00 20.00     0.011 A 
BRANCH   7  10
HETATM   10  C9  UNL     1     -33.946  15.742  -5.231  1.00 20.00     0.124 C 
HETATM   11 CL11 UNL     1     -34.216  15.401  -6.957  1.00 20.00    -0.130 Cl
ENDBRANCH   7  10
ENDBRANCH   1   7
TORSDOF 3
ENDMDL
MODEL 5
REMARK VINA RESULT:      -4.1      1.849      2.187
REMARK  3 active torsions:
REMARK  status: ('A' for Active; 'I' for Inactive)
REMARK    1  A    between atoms: C6_6  and  C8_8 
REMARK    2  A    between atoms: C7_7  and  C8_8 
REMARK    3  A    between atoms: C7_7  and  C9_9 
ROOT
HETATM    1  C8  UNL     1     -34.199  17.162  -2.879  1.00 20.00     0.042 C 
ENDROOT
BRANCH   1   2
HETATM    2  C6  UNL     1     -34.065  15.656  -2.761  1.00 20.00     0.122 C 
HETATM    3  C2  UNL     1     -32.979  15.073  -3.647  1.00 20.00     0.034 C 
HETATM    4  C1  UNL     1     -33.475  13.662  -3.840  1.00 20.00     0.029 C 
HETATM    5  C5  UNL     1     -34.971  13.868  -3.950  1.00 20.00     0.168 C 
HETATM    6  O10 UNL     1     -35.293  15.025  -3.163  1.00 20.00    -0.386 OA
ENDBRANCH   1   2
BRANCH   1   7
HETATM    7  C7  UNL     1     -34.262  17.830  -1.540  1.00 20.00    -0.025 A 
HETATM    8  C3  UNL     1     -35.614  17.970  -0.882  1.00 20.00     0.011 A 
HETATM    9  C4  UNL     1     -34.622  16.981  -0.343  1.00 20.00     0.011 A 
BRANCH   7  10
HETATM   10  C9  UNL     1     -33.264  18.937  -1.346  1.00 20.00     0.124 C 
HETATM   11 CL11 UNL     1     -32.255  18.636   0.089  1.00 20.00    -0.130 Cl
ENDBRANCH   7  10
ENDBRANCH   1   7
TORSDOF 3
ENDMDL
MODEL 6
REMARK VINA RESULT:      -4.1      2.163      4.568
REMARK  3 active torsions:
REMARK  status: ('A' for Active; 'I' for Inactive)
REMARK    1  A    between atoms: C6_6  and  C8_8 
REMARK    2  A    between atoms: C7_7  and  C8_8 
REMARK    3  A    between atoms: C7_7  and  C9_9 
ROOT
HETATM    1  C8  UNL     1     -35.556  15.998  -3.943  1.00 20.00     0.042 C 
ENDROOT
BRANCH   1   2
HETATM    2  C6  UNL     1     -34.400  16.443  -3.069  1.00 20.00     0.122 C 
HETATM    3  C2  UNL     1     -34.687  16.336  -1.581  1.00 20.00     0.034 C 
HETATM    4  C1  UNL     1     -33.752  17.378  -1.020  1.00 20.00     0.029 C 
HETATM    5  C5  UNL     1     -33.835  18.469  -2.066  1.00 20.00     0.168 C 
HETATM    6  O10 UNL     1     -34.101  17.826  -3.322  1.00 20.00    -0.386 OA
ENDBRANCH   1   2
BRANCH   1   7
HETATM    7  C7  UNL     1     -35.180  14.858  -4.838  1.00 20.00    -0.025 A 
HETATM    8  C3  UNL     1     -35.806  14.800  -6.212  1.00 20.00     0.011 A 
HETATM    9  C4  UNL     1     -34.358  15.165  -6.067  1.00 20.00     0.011 A 
BRANCH   7  10
HETATM   10  C9  UNL     1     -34.924  13.559  -4.124  1.00 20.00     0.124 C 
HETATM   11 CL11 UNL     1     -33.190  13.357  -3.779  1.00 20.00    -0.130 Cl
ENDBRANCH   7  10
ENDBRANCH   1   7
TORSDOF 3
ENDMDL
MODEL 7
REMARK VINA RESULT:      -4.0      1.531      2.129
REMARK  3 active torsions:
REMARK  status: ('A' for Active; 'I' for Inactive)
REMARK    1  A    between atoms: C6_6  and  C8_8 
REMARK    2  A    between atoms: C7_7  and  C8_8 
REMARK    3  A    between atoms: C7_7  and  C9_9 
ROOT
HETATM    1  C8  UNL     1     -33.474  16.540  -3.797  1.00 20.00     0.042 C 
ENDROOT
BRANCH   1   2
HETATM    2  C6  UNL     1     -34.572  15.525  -4.051  1.00 20.00     0.122 C 
HETATM    3  C2  UNL     1     -34.269  14.149  -3.485  1.00 20.00     0.034 C 
HETATM    4  C1  UNL     1     -35.099  13.266  -4.382  1.00 20.00     0.029 C 
HETATM    5  C5  UNL     1     -34.940  13.946  -5.725  1.00 20.00     0.168 C 
HETATM    6  O10 UNL     1     -34.753  15.346  -5.466  1.00 20.00    -0.386 OA
ENDBRANCH   1   2
BRANCH   1   7
HETATM    7  C7  UNL     1     -33.946  17.682  -2.952  1.00 20.00    -0.025 A 
HETATM    8  C3  UNL     1     -33.995  19.055  -3.580  1.00 20.00     0.011 A 
HETATM    9  C4  UNL     1     -35.272  18.318  -3.298  1.00 20.00     0.011 A 
BRANCH   7  10
HETATM   10  C9  UNL     1     -33.569  17.584  -1.499  1.00 20.00     0.124 C 
HETATM   11 CL11 UNL     1     -34.732  16.573  -0.610  1.00 20.00    -0.130 Cl
ENDBRANCH   7  10
ENDBRANCH   1   7
TORSDOF 3
ENDMDL
MODEL 8
REMARK VINA RESULT:      -4.0      2.682      3.508
REMARK  3 active torsions:
REMARK  status: ('A' for Active; 'I' for Inactive)
REMARK    1  A    between atoms: C6_6  and  C8_8 
REMARK    2  A    between atoms: C7_7  and  C8_8 
REMARK    3  A    between atoms: C7_7  and  C9_9 
ROOT
HETATM    1  C8  UNL     1     -33.428  16.302  -4.548  1.00 20.00     0.042 C 
ENDROOT
BRANCH   1   2
HETATM    2  C6  UNL     1     -34.451  16.611  -5.624  1.00 20.00     0.122 C 
HETATM    3  C2  UNL     1     -34.337  15.716  -6.845  1.00 20.00     0.034 C 
HETATM    4  C1  UNL     1     -34.935  16.592  -7.916  1.00 20.00     0.029 C 
HETATM    5  C5  UNL     1     -34.424  17.961  -7.523  1.00 20.00     0.168 C 
HETATM    6  O10 UNL     1     -34.273  17.957  -6.095  1.00 20.00    -0.386 OA
ENDBRANCH   1   2
BRANCH   1   7
HETATM    7  C7  UNL     1     -34.014  15.508  -3.423  1.00 20.00    -0.025 A 
HETATM    8  C3  UNL     1     -34.064  16.148  -2.055  1.00 20.00     0.011 A 
HETATM    9  C4  UNL     1     -35.330  15.969  -2.842  1.00 20.00     0.011 A 
BRANCH   7  10
HETATM   10  C9  UNL     1     -33.757  14.028  -3.500  1.00 20.00     0.124 C 
HETATM   11 CL11 UNL     1     -35.115  13.190  -4.288  1.00 20.00    -0.130 Cl
ENDBRANCH   7  10
ENDBRANCH   1   7
TORSDOF 3
ENDMDL
MODEL 9
REMARK VINA RESULT:      -3.9      2.641      3.972
REMARK  3 active torsions:
REMARK  status: ('A' for Active; 'I' for Inactive)
REMARK    1  A    between atoms: C6_6  and  C8_8 
REMARK    2  A    between atoms: C7_7  and  C8_8 
REMARK    3  A    between atoms: C7_7  and  C9_9 
ROOT
HETATM    1  C8  UNL     1     -33.256  15.983  -4.730  1.00 20.00     0.042 C 
ENDROOT
BRANCH   1   2
HETATM    2  C6  UNL     1     -34.119  17.078  -5.327  1.00 20.00     0.122 C 
HETATM    3  C2  UNL     1     -34.475  16.842  -6.785  1.00 20.00     0.034 C 
HETATM    4  C1  UNL     1     -34.713  18.251  -7.267  1.00 20.00     0.029 C 
HETATM    5  C5  UNL     1     -33.645  19.022  -6.521  1.00 20.00     0.168 C 
HETATM    6  O10 UNL     1     -33.417  18.331  -5.283  1.00 20.00    -0.386 OA
ENDBRANCH   1   2
BRANCH   1   7
HETATM    7  C7  UNL     1     -34.074  14.913  -4.077  1.00 20.00    -0.025 A 
HETATM    8  C3  UNL     1     -34.301  13.629  -4.841  1.00 20.00     0.011 A 
HETATM    9  C4  UNL     1     -33.372  13.640  -3.662  1.00 20.00     0.011 A 
BRANCH   7  10
HETATM   10  C9  UNL     1     -35.187  15.421  -3.204  1.00 20.00     0.124 C 
HETATM   11 CL11 UNL     1     -34.544  16.116  -1.697  1.00 20.00    -0.130 Cl
ENDBRANCH   7  10
ENDBRANCH   1   7
TORSDOF 3
ENDMDL
