MODEL 1
REMARK VINA RESULT:      -4.7      0.000      0.000
REMARK  1 active torsions:
REMARK  status: ('A' for Active; 'I' for Inactive)
REMARK    1  A    between atoms: C4_4  and  C8_8 
ROOT
HETATM    1  C1  UNL     1     -34.979  13.685  -4.250  1.00 20.00     0.218 C 
HETATM    2  C2  UNL     1     -33.881  14.301  -3.414  1.00 20.00     0.114 C 
HETATM    3  C3  UNL     1     -35.650  15.891  -3.750  1.00 20.00     0.088 C 
HETATM    4  C4  UNL     1     -34.118  15.821  -3.558  1.00 20.00    -0.016 C 
HETATM    5  C5  UNL     1     -36.189  17.106  -4.487  1.00 20.00     0.033 C 
HETATM    6  C6  UNL     1     -33.323  16.356  -4.764  1.00 20.00     0.018 C 
HETATM    7  N9  UNL     1     -35.953  14.658  -4.436  1.00 20.00    -0.356 N 
HETATM    8  O10 UNL     1     -35.004  12.530  -4.644  1.00 20.00    -0.274 OA
HETATM    9  H25 UNL     1     -36.789  14.517  -4.995  1.00 20.00     0.162 HD
ENDROOT
BRANCH   4  10
HETATM   10  C8  UNL     1     -33.677  16.568  -2.296  1.00 20.00     0.007 C 
HETATM   11  C7  UNL     1     -34.676  16.421  -1.197  1.00 20.00     0.006 C 
ENDBRANCH   4  10
TORSDOF 1
ENDMDL
MODEL 2
REMARK VINA RESULT:      -4.5      2.347      3.280
REMARK  1 active torsions:
REMARK  status: ('A' for Active; 'I' for Inactive)
REMARK    1  A    between atoms: C4_4  and  C8_8 
ROOT
HETATM    1  C1  UNL     1     -33.538  17.187  -5.016  1.00 20.00     0.218 C 
HETATM    2  C2  UNL     1     -34.308  17.468  -3.746  1.00 20.00     0.114 C 
HETATM    3  C3  UNL     1     -33.215  15.334  -3.593  1.00 20.00     0.088 C 
HETATM    4  C4  UNL     1     -34.484  16.071  -3.108  1.00 20.00    -0.016 C 
HETATM    5  C5  UNL     1     -33.296  13.818  -3.671  1.00 20.00     0.033 C 
HETATM    6  C6  UNL     1     -35.793  15.434  -3.610  1.00 20.00     0.018 C 
HETATM    7  N9  UNL     1     -32.957  15.933  -4.880  1.00 20.00    -0.356 N 
HETATM    8  O10 UNL     1     -33.426  17.956  -5.958  1.00 20.00    -0.274 OA
HETATM    9  H25 UNL     1     -32.410  15.485  -5.609  1.00 20.00     0.162 HD
ENDROOT
BRANCH   4  10
HETATM   10  C8  UNL     1     -34.527  16.166  -1.580  1.00 20.00     0.007 C 
HETATM   11  C7  UNL     1     -33.762  17.348  -1.085  1.00 20.00     0.006 C 
ENDBRANCH   4  10
TORSDOF 1
ENDMDL
MODEL 3
REMARK VINA RESULT:      -4.5      1.738      2.253
REMARK  1 active torsions:
REMARK  status: ('A' for Active; 'I' for Inactive)
REMARK    1  A    between atoms: C4_4  and  C8_8 
ROOT
HETATM    1  C1  UNL     1     -36.921  14.637  -4.080  1.00 20.00     0.218 C 
HETATM    2  C2  UNL     1     -35.807  15.043  -3.142  1.00 20.00     0.114 C 
HETATM    3  C3  UNL     1     -35.164  15.465  -5.418  1.00 20.00     0.088 C 
HETATM    4  C4  UNL     1     -34.557  15.076  -4.051  1.00 20.00    -0.016 C 
HETATM    5  C5  UNL     1     -34.386  15.043  -6.653  1.00 20.00     0.033 C 
HETATM    6  C6  UNL     1     -33.880  13.693  -4.051  1.00 20.00     0.018 C 
HETATM    7  N9  UNL     1     -36.480  14.874  -5.375  1.00 20.00    -0.356 N 
HETATM    8  O10 UNL     1     -38.015  14.219  -3.736  1.00 20.00    -0.274 OA
HETATM    9  H25 UNL     1     -37.025  14.654  -6.203  1.00 20.00     0.162 HD
ENDROOT
BRANCH   4  10
HETATM   10  C8  UNL     1     -33.553  16.126  -3.566  1.00 20.00     0.007 C 
HETATM   11  C7  UNL     1     -33.844  16.554  -2.166  1.00 20.00     0.006 C 
ENDBRANCH   4  10
TORSDOF 1
ENDMDL
MODEL 4
REMARK VINA RESULT:      -4.4      2.175      3.193
REMARK  1 active torsions:
REMARK  status: ('A' for Active; 'I' for Inactive)
REMARK    1  A    between atoms: C4_4  and  C8_8 
ROOT
HETATM    1  C1  UNL     1     -34.729  16.257  -1.679  1.00 20.00     0.218 C 
HETATM    2  C2  UNL     1     -33.701  16.107  -2.777  1.00 20.00     0.114 C 
HETATM    3  C3  UNL     1     -35.900  15.689  -3.646  1.00 20.00     0.088 C 
HETATM    4  C4  UNL     1     -34.428  15.264  -3.849  1.00 20.00    -0.016 C 
HETATM    5  C5  UNL     1     -36.962  14.693  -4.085  1.00 20.00     0.033 C 
HETATM    6  C6  UNL     1     -34.179  13.768  -3.587  1.00 20.00     0.018 C 
HETATM    7  N9  UNL     1     -35.971  15.973  -2.233  1.00 20.00    -0.356 N 
HETATM    8  O10 UNL     1     -34.493  16.605  -0.533  1.00 20.00    -0.274 OA
HETATM    9  H25 UNL     1     -36.835  15.965  -1.701  1.00 20.00     0.162 HD
ENDROOT
BRANCH   4  10
HETATM   10  C8  UNL     1     -33.933  15.617  -5.254  1.00 20.00     0.007 C 
HETATM   11  C7  UNL     1     -33.474  17.035  -5.332  1.00 20.00     0.006 C 
ENDBRANCH   4  10
TORSDOF 1
ENDMDL
MODEL 5
REMARK VINA RESULT:      -4.3      1.915      3.385
REMARK  1 active torsions:
REMARK  status: ('A' for Active; 'I' for Inactive)
REMARK    1  A    between atoms: C4_4  and  C8_8 
ROOT
HETATM    1  C1  UNL     1     -36.818  14.384  -4.145  1.00 20.00     0.218 C 
HETATM    2  C2  UNL     1     -36.333  15.487  -5.058  1.00 20.00     0.114 C 
HETATM    3  C3  UNL     1     -34.540  13.961  -4.586  1.00 20.00     0.088 C 
HETATM    4  C4  UNL     1     -34.797  15.454  -4.890  1.00 20.00    -0.016 C 
HETATM    5  C5  UNL     1     -33.277  13.632  -3.806  1.00 20.00     0.033 C 
HETATM    6  C6  UNL     1     -34.381  16.394  -3.743  1.00 20.00     0.018 C 
HETATM    7  N9  UNL     1     -35.734  13.555  -3.885  1.00 20.00    -0.356 N 
HETATM    8  O10 UNL     1     -37.966  14.244  -3.756  1.00 20.00    -0.274 OA
HETATM    9  H25 UNL     1     -35.777  12.752  -3.266  1.00 20.00     0.162 HD
ENDROOT
BRANCH   4  10
HETATM   10  C8  UNL     1     -34.094  15.892  -6.178  1.00 20.00     0.007 C 
HETATM   11  C7  UNL     1     -34.459  15.012  -7.326  1.00 20.00     0.006 C 
ENDBRANCH   4  10
TORSDOF 1
ENDMDL
MODEL 6
REMARK VINA RESULT:      -4.3      1.509      2.939
REMARK  1 active torsions:
REMARK  status: ('A' for Active; 'I' for Inactive)
REMARK    1  A    between atoms: C4_4  and  C8_8 
ROOT
HETATM    1  C1  UNL     1     -36.789  14.557  -3.925  1.00 20.00     0.218 C 
HETATM    2  C2  UNL     1     -36.288  15.983  -3.951  1.00 20.00     0.114 C 
HETATM    3  C3  UNL     1     -34.459  14.460  -4.280  1.00 20.00     0.088 C 
HETATM    4  C4  UNL     1     -34.774  15.845  -3.669  1.00 20.00    -0.016 C 
HETATM    5  C5  UNL     1     -33.257  13.724  -3.712  1.00 20.00     0.033 C 
HETATM    6  C6  UNL     1     -34.522  15.919  -2.152  1.00 20.00     0.018 C 
HETATM    7  N9  UNL     1     -35.687  13.727  -4.087  1.00 20.00    -0.356 N 
HETATM    8  O10 UNL     1     -37.959  14.222  -3.821  1.00 20.00    -0.274 OA
HETATM    9  H25 UNL     1     -35.741  12.713  -4.071  1.00 20.00     0.162 HD
ENDROOT
BRANCH   4  10
HETATM   10  C8  UNL     1     -33.983  16.956  -4.365  1.00 20.00     0.007 C 
HETATM   11  C7  UNL     1     -33.905  16.732  -5.838  1.00 20.00     0.006 C 
ENDBRANCH   4  10
TORSDOF 1
ENDMDL
MODEL 7
REMARK VINA RESULT:      -4.3      1.297      2.677
REMARK  1 active torsions:
REMARK  status: ('A' for Active; 'I' for Inactive)
REMARK    1  A    between atoms: C4_4  and  C8_8 
ROOT
HETATM    1  C1  UNL     1     -34.555  13.693  -4.511  1.00 20.00     0.218 C 
HETATM    2  C2  UNL     1     -34.385  14.806  -5.519  1.00 20.00     0.114 C 
HETATM    3  C3  UNL     1     -33.755  15.573  -3.332  1.00 20.00     0.088 C 
HETATM    4  C4  UNL     1     -34.369  16.086  -4.653  1.00 20.00    -0.016 C 
HETATM    5  C5  UNL     1     -34.101  16.351  -2.073  1.00 20.00     0.033 C 
HETATM    6  C6  UNL     1     -35.805  16.622  -4.496  1.00 20.00     0.018 C 
HETATM    7  N9  UNL     1     -34.208  14.204  -3.267  1.00 20.00    -0.356 N 
HETATM    8  O10 UNL     1     -34.896  12.550  -4.772  1.00 20.00    -0.274 OA
HETATM    9  H25 UNL     1     -34.267  13.672  -2.404  1.00 20.00     0.162 HD
ENDROOT
BRANCH   4  10
HETATM   10  C8  UNL     1     -33.497  17.171  -5.292  1.00 20.00     0.007 C 
HETATM   11  C7  UNL     1     -34.148  17.756  -6.500  1.00 20.00     0.006 C 
ENDBRANCH   4  10
TORSDOF 1
ENDMDL
MODEL 8
REMARK VINA RESULT:      -4.2      1.155      2.405
REMARK  1 active torsions:
REMARK  status: ('A' for Active; 'I' for Inactive)
REMARK    1  A    between atoms: C4_4  and  C8_8 
ROOT
HETATM    1  C1  UNL     1     -34.840  13.661  -4.690  1.00 20.00     0.218 C 
HETATM    2  C2  UNL     1     -35.873  14.389  -3.862  1.00 20.00     0.114 C 
HETATM    3  C3  UNL     1     -34.490  15.968  -5.029  1.00 20.00     0.088 C 
HETATM    4  C4  UNL     1     -35.289  15.813  -3.716  1.00 20.00    -0.016 C 
HETATM    5  C5  UNL     1     -33.333  16.953  -5.010  1.00 20.00     0.033 C 
HETATM    6  C6  UNL     1     -34.412  15.885  -2.452  1.00 20.00     0.018 C 
HETATM    7  N9  UNL     1     -34.055  14.622  -5.313  1.00 20.00    -0.356 N 
HETATM    8  O10 UNL     1     -34.756  12.448  -4.807  1.00 20.00    -0.274 OA
HETATM    9  H25 UNL     1     -33.259  14.401  -5.903  1.00 20.00     0.162 HD
ENDROOT
BRANCH   4  10
HETATM   10  C8  UNL     1     -36.405  16.856  -3.612  1.00 20.00     0.007 C 
HETATM   11  C7  UNL     1     -37.198  16.935  -4.873  1.00 20.00     0.006 C 
ENDBRANCH   4  10
TORSDOF 1
ENDMDL
MODEL 9
REMARK VINA RESULT:      -4.2      1.733      2.959
REMARK  1 active torsions:
REMARK  status: ('A' for Active; 'I' for Inactive)
REMARK    1  A    between atoms: C4_4  and  C8_8 
ROOT
HETATM    1  C1  UNL     1     -33.373  13.846  -3.885  1.00 20.00     0.218 C 
HETATM    2  C2  UNL     1     -34.880  13.881  -3.997  1.00 20.00     0.114 C 
HETATM    3  C3  UNL     1     -33.949  15.958  -4.763  1.00 20.00     0.088 C 
HETATM    4  C4  UNL     1     -35.207  15.390  -4.070  1.00 20.00    -0.016 C 
HETATM    5  C5  UNL     1     -33.628  17.420  -4.499  1.00 20.00     0.033 C 
HETATM    6  C6  UNL     1     -35.428  15.941  -2.649  1.00 20.00     0.018 C 
HETATM    7  N9  UNL     1     -32.897  15.080  -4.311  1.00 20.00    -0.356 N 
HETATM    8  O10 UNL     1     -32.714  12.884  -3.524  1.00 20.00    -0.274 OA
HETATM    9  H25 UNL     1     -31.915  15.337  -4.303  1.00 20.00     0.162 HD
ENDROOT
BRANCH   4  10
HETATM   10  C8  UNL     1     -36.467  15.638  -4.905  1.00 20.00     0.007 C 
HETATM   11  C7  UNL     1     -36.327  15.082  -6.283  1.00 20.00     0.006 C 
ENDBRANCH   4  10
TORSDOF 1
ENDMDL
