MODEL 1
REMARK VINA RESULT:      -4.6      0.000      0.000
REMARK  1 active torsions:
REMARK  status: ('A' for Active; 'I' for Inactive)
REMARK    1  A    between atoms: C3_3  and  C8_8 
ROOT
HETATM    1  C1  UNL     1     -36.756  14.562  -3.734  1.00 20.00     0.218 C 
HETATM    2  C2  UNL     1     -36.239  15.747  -2.956  1.00 20.00     0.109 C 
HETATM    3  C3  UNL     1     -34.750  15.423  -2.777  1.00 20.00     0.021 C 
HETATM    4  C4  UNL     1     -34.401  14.606  -4.042  1.00 20.00     0.029 C 
HETATM    5  C5  UNL     1     -33.292  13.588  -3.765  1.00 20.00     0.038 C 
HETATM    6  C6  UNL     1     -34.024  15.465  -5.256  1.00 20.00     0.038 C 
HETATM    7  N9  UNL     1     -35.658  13.930  -4.309  1.00 20.00    -0.352 N 
HETATM    8  O10 UNL     1     -37.932  14.254  -3.853  1.00 20.00    -0.274 OA
HETATM    9  H25 UNL     1     -35.730  13.082  -4.861  1.00 20.00     0.163 HD
ENDROOT
BRANCH   3  10
HETATM   10  C8  UNL     1     -33.910  16.667  -2.523  1.00 20.00     0.003 C 
HETATM   11  C7  UNL     1     -33.993  17.113  -1.098  1.00 20.00     0.005 C 
ENDBRANCH   3  10
TORSDOF 1
ENDMDL
MODEL 2
REMARK VINA RESULT:      -4.6      1.813      2.352
REMARK  1 active torsions:
REMARK  status: ('A' for Active; 'I' for Inactive)
REMARK    1  A    between atoms: C3_3  and  C8_8 
ROOT
HETATM    1  C1  UNL     1     -34.588  13.790  -4.517  1.00 20.00     0.218 C 
HETATM    2  C2  UNL     1     -34.284  14.442  -3.190  1.00 20.00     0.109 C 
HETATM    3  C3  UNL     1     -33.724  15.812  -3.596  1.00 20.00     0.021 C 
HETATM    4  C4  UNL     1     -34.458  16.128  -4.919  1.00 20.00     0.029 C 
HETATM    5  C5  UNL     1     -33.594  16.982  -5.850  1.00 20.00     0.038 C 
HETATM    6  C6  UNL     1     -35.828  16.793  -4.729  1.00 20.00     0.038 C 
HETATM    7  N9  UNL     1     -34.646  14.799  -5.473  1.00 20.00    -0.352 N 
HETATM    8  O10 UNL     1     -34.780  12.597  -4.690  1.00 20.00    -0.274 OA
HETATM    9  H25 UNL     1     -34.805  14.623  -6.459  1.00 20.00     0.163 HD
ENDROOT
BRANCH   3  10
HETATM   10  C8  UNL     1     -33.855  16.845  -2.486  1.00 20.00     0.003 C 
HETATM   11  C7  UNL     1     -34.623  16.314  -1.318  1.00 20.00     0.005 C 
ENDBRANCH   3  10
TORSDOF 1
ENDMDL
MODEL 3
REMARK VINA RESULT:      -4.4      1.388      2.823
REMARK  1 active torsions:
REMARK  status: ('A' for Active; 'I' for Inactive)
REMARK    1  A    between atoms: C3_3  and  C8_8 
ROOT
HETATM    1  C1  UNL     1     -36.948  14.891  -3.526  1.00 20.00     0.218 C 
HETATM    2  C2  UNL     1     -35.606  14.334  -3.930  1.00 20.00     0.109 C 
HETATM    3  C3  UNL     1     -34.713  15.582  -3.982  1.00 20.00     0.021 C 
HETATM    4  C4  UNL     1     -35.324  16.511  -2.909  1.00 20.00     0.029 C 
HETATM    5  C5  UNL     1     -35.131  17.987  -3.268  1.00 20.00     0.038 C 
HETATM    6  C6  UNL     1     -34.804  16.252  -1.489  1.00 20.00     0.038 C 
HETATM    7  N9  UNL     1     -36.729  16.149  -2.974  1.00 20.00    -0.352 N 
HETATM    8  O10 UNL     1     -38.016  14.310  -3.637  1.00 20.00    -0.274 OA
HETATM    9  H25 UNL     1     -37.477  16.754  -2.651  1.00 20.00     0.163 HD
ENDROOT
BRANCH   3  10
HETATM   10  C8  UNL     1     -33.237  15.247  -3.826  1.00 20.00     0.003 C 
HETATM   11  C7  UNL     1     -33.015  13.781  -3.630  1.00 20.00     0.005 C 
ENDBRANCH   3  10
TORSDOF 1
ENDMDL
MODEL 4
REMARK VINA RESULT:      -4.3      1.158      2.895
REMARK  1 active torsions:
REMARK  status: ('A' for Active; 'I' for Inactive)
REMARK    1  A    between atoms: C3_3  and  C8_8 
ROOT
HETATM    1  C1  UNL     1     -36.975  14.691  -3.919  1.00 20.00     0.218 C 
HETATM    2  C2  UNL     1     -36.390  15.001  -5.274  1.00 20.00     0.109 C 
HETATM    3  C3  UNL     1     -35.146  15.832  -4.933  1.00 20.00     0.021 C 
HETATM    4  C4  UNL     1     -34.700  15.276  -3.562  1.00 20.00     0.029 C 
HETATM    5  C5  UNL     1     -34.019  16.352  -2.713  1.00 20.00     0.038 C 
HETATM    6  C6  UNL     1     -33.797  14.039  -3.654  1.00 20.00     0.038 C 
HETATM    7  N9  UNL     1     -35.973  14.893  -2.976  1.00 20.00    -0.352 N 
HETATM    8  O10 UNL     1     -38.113  14.299  -3.714  1.00 20.00    -0.274 OA
HETATM    9  H25 UNL     1     -36.117  14.784  -1.977  1.00 20.00     0.163 HD
ENDROOT
BRANCH   3  10
HETATM   10  C8  UNL     1     -34.106  15.804  -6.044  1.00 20.00     0.003 C 
HETATM   11  C7  UNL     1     -34.530  14.932  -7.183  1.00 20.00     0.005 C 
ENDBRANCH   3  10
TORSDOF 1
ENDMDL
MODEL 5
REMARK VINA RESULT:      -4.2      2.565      3.909
REMARK  1 active torsions:
REMARK  status: ('A' for Active; 'I' for Inactive)
REMARK    1  A    between atoms: C3_3  and  C8_8 
ROOT
HETATM    1  C1  UNL     1     -33.695  17.355  -4.647  1.00 20.00     0.218 C 
HETATM    2  C2  UNL     1     -33.545  15.867  -4.843  1.00 20.00     0.109 C 
HETATM    3  C3  UNL     1     -33.788  15.304  -3.436  1.00 20.00     0.021 C 
HETATM    4  C4  UNL     1     -34.777  16.312  -2.806  1.00 20.00     0.029 C 
HETATM    5  C5  UNL     1     -34.589  16.411  -1.291  1.00 20.00     0.038 C 
HETATM    6  C6  UNL     1     -36.249  16.025  -3.128  1.00 20.00     0.038 C 
HETATM    7  N9  UNL     1     -34.381  17.551  -3.452  1.00 20.00    -0.352 N 
HETATM    8  O10 UNL     1     -33.310  18.213  -5.426  1.00 20.00    -0.274 OA
HETATM    9  H25 UNL     1     -34.584  18.469  -3.071  1.00 20.00     0.163 HD
ENDROOT
BRANCH   3  10
HETATM   10  C8  UNL     1     -34.231  13.848  -3.460  1.00 20.00     0.003 C 
HETATM   11  C7  UNL     1     -34.410  13.344  -4.857  1.00 20.00     0.005 C 
ENDBRANCH   3  10
TORSDOF 1
ENDMDL
MODEL 6
REMARK VINA RESULT:      -4.2      2.583      3.000
REMARK  1 active torsions:
REMARK  status: ('A' for Active; 'I' for Inactive)
REMARK    1  A    between atoms: C3_3  and  C8_8 
ROOT
HETATM    1  C1  UNL     1     -33.605  17.258  -5.210  1.00 20.00     0.218 C 
HETATM    2  C2  UNL     1     -34.109  17.421  -3.798  1.00 20.00     0.109 C 
HETATM    3  C3  UNL     1     -34.655  16.027  -3.460  1.00 20.00     0.021 C 
HETATM    4  C4  UNL     1     -33.758  15.075  -4.284  1.00 20.00     0.029 C 
HETATM    5  C5  UNL     1     -34.514  13.813  -4.703  1.00 20.00     0.038 C 
HETATM    6  C6  UNL     1     -32.450  14.686  -3.582  1.00 20.00     0.038 C 
HETATM    7  N9  UNL     1     -33.450  15.895  -5.443  1.00 20.00    -0.352 N 
HETATM    8  O10 UNL     1     -33.350  18.171  -5.980  1.00 20.00    -0.274 OA
HETATM    9  H25 UNL     1     -33.151  15.512  -6.334  1.00 20.00     0.163 HD
ENDROOT
BRANCH   3  10
HETATM   10  C8  UNL     1     -34.712  15.773  -1.961  1.00 20.00     0.003 C 
HETATM   11  C7  UNL     1     -34.219  16.947  -1.177  1.00 20.00     0.005 C 
ENDBRANCH   3  10
TORSDOF 1
ENDMDL
MODEL 7
REMARK VINA RESULT:      -4.2      2.600      3.547
REMARK  1 active torsions:
REMARK  status: ('A' for Active; 'I' for Inactive)
REMARK    1  A    between atoms: C3_3  and  C8_8 
ROOT
HETATM    1  C1  UNL     1     -33.657  13.757  -4.099  1.00 20.00     0.218 C 
HETATM    2  C2  UNL     1     -35.159  13.621  -4.141  1.00 20.00     0.109 C 
HETATM    3  C3  UNL     1     -35.629  15.049  -4.452  1.00 20.00     0.021 C 
HETATM    4  C4  UNL     1     -34.479  15.633  -5.303  1.00 20.00     0.029 C 
HETATM    5  C5  UNL     1     -34.344  17.145  -5.102  1.00 20.00     0.038 C 
HETATM    6  C6  UNL     1     -34.588  15.317  -6.801  1.00 20.00     0.038 C 
HETATM    7  N9  UNL     1     -33.327  14.940  -4.753  1.00 20.00    -0.352 N 
HETATM    8  O10 UNL     1     -32.887  12.946  -3.608  1.00 20.00    -0.274 OA
HETATM    9  H25 UNL     1     -32.376  15.284  -4.837  1.00 20.00     0.163 HD
ENDROOT
BRANCH   3  10
HETATM   10  C8  UNL     1     -37.016  15.080  -5.077  1.00 20.00     0.003 C 
HETATM   11  C7  UNL     1     -38.084  14.759  -4.080  1.00 20.00     0.005 C 
ENDBRANCH   3  10
TORSDOF 1
ENDMDL
MODEL 8
REMARK VINA RESULT:      -4.2      2.250      3.014
REMARK  1 active torsions:
REMARK  status: ('A' for Active; 'I' for Inactive)
REMARK    1  A    between atoms: C3_3  and  C8_8 
ROOT
HETATM    1  C1  UNL     1     -33.444  14.005  -4.027  1.00 20.00     0.218 C 
HETATM    2  C2  UNL     1     -33.158  15.431  -3.627  1.00 20.00     0.109 C 
HETATM    3  C3  UNL     1     -33.380  16.208  -4.932  1.00 20.00     0.021 C 
HETATM    4  C4  UNL     1     -34.466  15.389  -5.665  1.00 20.00     0.029 C 
HETATM    5  C5  UNL     1     -34.319  15.493  -7.185  1.00 20.00     0.038 C 
HETATM    6  C6  UNL     1     -35.901  15.750  -5.258  1.00 20.00     0.038 C 
HETATM    7  N9  UNL     1     -34.168  14.041  -5.214  1.00 20.00    -0.352 N 
HETATM    8  O10 UNL     1     -33.120  13.014  -3.390  1.00 20.00    -0.274 OA
HETATM    9  H25 UNL     1     -34.460  13.208  -5.715  1.00 20.00     0.163 HD
ENDROOT
BRANCH   3  10
HETATM   10  C8  UNL     1     -33.691  17.678  -4.688  1.00 20.00     0.003 C 
HETATM   11  C7  UNL     1     -33.805  17.988  -3.230  1.00 20.00     0.005 C 
ENDBRANCH   3  10
TORSDOF 1
ENDMDL
MODEL 9
REMARK VINA RESULT:      -4.2      1.211      1.713
REMARK  1 active torsions:
REMARK  status: ('A' for Active; 'I' for Inactive)
REMARK    1  A    between atoms: C3_3  and  C8_8 
ROOT
HETATM    1  C1  UNL     1     -36.954  14.648  -4.120  1.00 20.00     0.218 C 
HETATM    2  C2  UNL     1     -35.819  15.028  -3.202  1.00 20.00     0.109 C 
HETATM    3  C3  UNL     1     -34.611  15.083  -4.148  1.00 20.00     0.021 C 
HETATM    4  C4  UNL     1     -35.225  15.518  -5.498  1.00 20.00     0.029 C 
HETATM    5  C5  UNL     1     -34.444  14.943  -6.682  1.00 20.00     0.038 C 
HETATM    6  C6  UNL     1     -35.366  17.037  -5.659  1.00 20.00     0.038 C 
HETATM    7  N9  UNL     1     -36.548  14.923  -5.422  1.00 20.00    -0.352 N 
HETATM    8  O10 UNL     1     -38.038  14.215  -3.761  1.00 20.00    -0.274 OA
HETATM    9  H25 UNL     1     -37.119  14.726  -6.237  1.00 20.00     0.163 HD
ENDROOT
BRANCH   3  10
HETATM   10  C8  UNL     1     -33.487  15.954  -3.605  1.00 20.00     0.003 C 
HETATM   11  C7  UNL     1     -33.810  16.501  -2.251  1.00 20.00     0.005 C 
ENDBRANCH   3  10
TORSDOF 1
ENDMDL
