MODEL 1
REMARK VINA RESULT:      -4.8      0.000      0.000
REMARK  1 active torsions:
REMARK  status: ('A' for Active; 'I' for Inactive)
REMARK    1  A    between atoms: C3_3  and  C8_8 
ROOT
HETATM    1  C1  UNL     1     -34.700  13.676  -4.573  1.00 20.00     0.218 C 
HETATM    2  C2  UNL     1     -34.214  14.141  -3.223  1.00 20.00     0.109 C 
HETATM    3  C3  UNL     1     -34.681  15.602  -3.169  1.00 20.00     0.021 C 
HETATM    4  C4  UNL     1     -34.648  16.050  -4.648  1.00 20.00     0.029 C 
HETATM    5  C5  UNL     1     -33.276  16.554  -5.117  1.00 20.00     0.038 C 
HETATM    6  C6  UNL     1     -35.714  17.109  -4.937  1.00 20.00     0.038 C 
HETATM    7  N9  UNL     1     -34.959  14.809  -5.335  1.00 20.00    -0.352 N 
HETATM    8  O10 UNL     1     -34.804  12.511  -4.923  1.00 20.00    -0.274 OA
HETATM    9  H25 UNL     1     -35.330  14.773  -6.280  1.00 20.00     0.163 HD
ENDROOT
BRANCH   3  10
HETATM   10  C8  UNL     1     -33.866  16.437  -2.192  1.00 20.00     0.003 C 
HETATM   11  C7  UNL     1     -34.590  16.646  -0.901  1.00 20.00     0.005 C 
ENDBRANCH   3  10
TORSDOF 1
ENDMDL
MODEL 2
REMARK VINA RESULT:      -4.4      1.727      2.137
REMARK  1 active torsions:
REMARK  status: ('A' for Active; 'I' for Inactive)
REMARK    1  A    between atoms: C3_3  and  C8_8 
ROOT
HETATM    1  C1  UNL     1     -36.873  14.616  -3.898  1.00 20.00     0.218 C 
HETATM    2  C2  UNL     1     -36.205  15.496  -2.872  1.00 20.00     0.109 C 
HETATM    3  C3  UNL     1     -34.979  16.035  -3.621  1.00 20.00     0.021 C 
HETATM    4  C4  UNL     1     -34.623  14.897  -4.604  1.00 20.00     0.029 C 
HETATM    5  C5  UNL     1     -33.719  13.812  -4.002  1.00 20.00     0.038 C 
HETATM    6  C6  UNL     1     -33.991  15.441  -5.887  1.00 20.00     0.038 C 
HETATM    7  N9  UNL     1     -35.930  14.329  -4.878  1.00 20.00    -0.352 N 
HETATM    8  O10 UNL     1     -38.024  14.212  -3.839  1.00 20.00    -0.274 OA
HETATM    9  H25 UNL     1     -36.136  13.777  -5.705  1.00 20.00     0.163 HD
ENDROOT
BRANCH   3  10
HETATM   10  C8  UNL     1     -33.872  16.485  -2.678  1.00 20.00     0.003 C 
HETATM   11  C7  UNL     1     -34.360  16.617  -1.271  1.00 20.00     0.005 C 
ENDBRANCH   3  10
TORSDOF 1
ENDMDL
MODEL 3
REMARK VINA RESULT:      -4.4      2.145      3.042
REMARK  1 active torsions:
REMARK  status: ('A' for Active; 'I' for Inactive)
REMARK    1  A    between atoms: C3_3  and  C8_8 
ROOT
HETATM    1  C1  UNL     1     -33.646  17.071  -5.077  1.00 20.00     0.218 C 
HETATM    2  C2  UNL     1     -34.121  17.440  -3.694  1.00 20.00     0.109 C 
HETATM    3  C3  UNL     1     -33.815  16.180  -2.874  1.00 20.00     0.021 C 
HETATM    4  C4  UNL     1     -33.961  15.033  -3.899  1.00 20.00     0.029 C 
HETATM    5  C5  UNL     1     -35.399  14.521  -4.063  1.00 20.00     0.038 C 
HETATM    6  C6  UNL     1     -33.031  13.864  -3.568  1.00 20.00     0.038 C 
HETATM    7  N9  UNL     1     -33.545  15.686  -5.127  1.00 20.00    -0.352 N 
HETATM    8  O10 UNL     1     -33.430  17.861  -5.984  1.00 20.00    -0.274 OA
HETATM    9  H25 UNL     1     -33.214  15.180  -5.943  1.00 20.00     0.163 HD
ENDROOT
BRANCH   3  10
HETATM   10  C8  UNL     1     -34.673  16.080  -1.621  1.00 20.00     0.003 C 
HETATM   11  C7  UNL     1     -34.321  17.133  -0.619  1.00 20.00     0.005 C 
ENDBRANCH   3  10
TORSDOF 1
ENDMDL
MODEL 4
REMARK VINA RESULT:      -4.3      2.034      3.191
REMARK  1 active torsions:
REMARK  status: ('A' for Active; 'I' for Inactive)
REMARK    1  A    between atoms: C3_3  and  C8_8 
ROOT
HETATM    1  C1  UNL     1     -36.965  14.763  -3.712  1.00 20.00     0.218 C 
HETATM    2  C2  UNL     1     -35.881  14.762  -4.760  1.00 20.00     0.109 C 
HETATM    3  C3  UNL     1     -34.657  15.284  -3.994  1.00 20.00     0.021 C 
HETATM    4  C4  UNL     1     -35.266  16.229  -2.935  1.00 20.00     0.029 C 
HETATM    5  C5  UNL     1     -35.504  17.660  -3.437  1.00 20.00     0.038 C 
HETATM    6  C6  UNL     1     -34.419  16.263  -1.661  1.00 20.00     0.038 C 
HETATM    7  N9  UNL     1     -36.547  15.595  -2.680  1.00 20.00    -0.352 N 
HETATM    8  O10 UNL     1     -38.026  14.162  -3.793  1.00 20.00    -0.274 OA
HETATM    9  H25 UNL     1     -37.085  15.745  -1.832  1.00 20.00     0.163 HD
ENDROOT
BRANCH   3  10
HETATM   10  C8  UNL     1     -33.609  15.888  -4.918  1.00 20.00     0.003 C 
HETATM   11  C7  UNL     1     -34.043  15.859  -6.348  1.00 20.00     0.005 C 
ENDBRANCH   3  10
TORSDOF 1
ENDMDL
MODEL 5
REMARK VINA RESULT:      -4.2      1.831      2.650
REMARK  1 active torsions:
REMARK  status: ('A' for Active; 'I' for Inactive)
REMARK    1  A    between atoms: C3_3  and  C8_8 
ROOT
HETATM    1  C1  UNL     1     -33.509  13.881  -3.683  1.00 20.00     0.218 C 
HETATM    2  C2  UNL     1     -35.009  13.931  -3.825  1.00 20.00     0.109 C 
HETATM    3  C3  UNL     1     -35.287  15.421  -4.064  1.00 20.00     0.021 C 
HETATM    4  C4  UNL     1     -34.156  16.132  -3.286  1.00 20.00     0.029 C 
HETATM    5  C5  UNL     1     -34.467  16.359  -1.800  1.00 20.00     0.038 C 
HETATM    6  C6  UNL     1     -33.773  17.460  -3.943  1.00 20.00     0.038 C 
HETATM    7  N9  UNL     1     -33.074  15.172  -3.405  1.00 20.00    -0.352 N 
HETATM    8  O10 UNL     1     -32.825  12.873  -3.767  1.00 20.00    -0.274 OA
HETATM    9  H25 UNL     1     -32.095  15.418  -3.294  1.00 20.00     0.163 HD
ENDROOT
BRANCH   3  10
HETATM   10  C8  UNL     1     -36.711  15.813  -3.694  1.00 20.00     0.003 C 
HETATM   11  C7  UNL     1     -37.683  14.714  -3.980  1.00 20.00     0.005 C 
ENDBRANCH   3  10
TORSDOF 1
ENDMDL
MODEL 6
REMARK VINA RESULT:      -4.2      1.271      2.936
REMARK  1 active torsions:
REMARK  status: ('A' for Active; 'I' for Inactive)
REMARK    1  A    between atoms: C3_3  and  C8_8 
ROOT
HETATM    1  C1  UNL     1     -34.670  13.702  -4.619  1.00 20.00     0.218 C 
HETATM    2  C2  UNL     1     -34.342  14.708  -5.693  1.00 20.00     0.109 C 
HETATM    3  C3  UNL     1     -33.807  15.906  -4.897  1.00 20.00     0.021 C 
HETATM    4  C4  UNL     1     -34.575  15.825  -3.558  1.00 20.00     0.029 C 
HETATM    5  C5  UNL     1     -35.948  16.513  -3.583  1.00 20.00     0.038 C 
HETATM    6  C6  UNL     1     -33.742  16.378  -2.400  1.00 20.00     0.038 C 
HETATM    7  N9  UNL     1     -34.763  14.393  -3.416  1.00 20.00    -0.352 N 
HETATM    8  O10 UNL     1     -34.852  12.508  -4.801  1.00 20.00    -0.274 OA
HETATM    9  H25 UNL     1     -34.945  13.940  -2.525  1.00 20.00     0.163 HD
ENDROOT
BRANCH   3  10
HETATM   10  C8  UNL     1     -33.925  17.214  -5.666  1.00 20.00     0.003 C 
HETATM   11  C7  UNL     1     -34.496  17.007  -7.032  1.00 20.00     0.005 C 
ENDBRANCH   3  10
TORSDOF 1
ENDMDL
MODEL 7
REMARK VINA RESULT:      -4.2      1.948      2.709
REMARK  1 active torsions:
REMARK  status: ('A' for Active; 'I' for Inactive)
REMARK    1  A    between atoms: C3_3  and  C8_8 
ROOT
HETATM    1  C1  UNL     1     -33.881  13.815  -4.224  1.00 20.00     0.218 C 
HETATM    2  C2  UNL     1     -35.388  13.781  -4.185  1.00 20.00     0.109 C 
HETATM    3  C3  UNL     1     -35.787  14.644  -5.389  1.00 20.00     0.021 C 
HETATM    4  C4  UNL     1     -34.638  15.671  -5.499  1.00 20.00     0.029 C 
HETATM    5  C5  UNL     1     -34.820  16.909  -4.610  1.00 20.00     0.038 C 
HETATM    6  C6  UNL     1     -34.410  16.105  -6.948  1.00 20.00     0.038 C 
HETATM    7  N9  UNL     1     -33.509  14.898  -5.013  1.00 20.00    -0.352 N 
HETATM    8  O10 UNL     1     -33.141  13.043  -3.634  1.00 20.00    -0.274 OA
HETATM    9  H25 UNL     1     -32.543  15.127  -5.227  1.00 20.00     0.163 HD
ENDROOT
BRANCH   3  10
HETATM   10  C8  UNL     1     -37.192  15.213  -5.255  1.00 20.00     0.003 C 
HETATM   11  C7  UNL     1     -37.860  14.758  -3.997  1.00 20.00     0.005 C 
ENDBRANCH   3  10
TORSDOF 1
ENDMDL
MODEL 8
REMARK VINA RESULT:      -4.1      1.172      2.211
REMARK  1 active torsions:
REMARK  status: ('A' for Active; 'I' for Inactive)
REMARK    1  A    between atoms: C3_3  and  C8_8 
ROOT
HETATM    1  C1  UNL     1     -34.782  13.650  -4.590  1.00 20.00     0.218 C 
HETATM    2  C2  UNL     1     -35.998  14.428  -4.155  1.00 20.00     0.109 C 
HETATM    3  C3  UNL     1     -35.598  15.883  -4.432  1.00 20.00     0.021 C 
HETATM    4  C4  UNL     1     -34.067  15.886  -4.227  1.00 20.00     0.029 C 
HETATM    5  C5  UNL     1     -33.633  16.093  -2.769  1.00 20.00     0.038 C 
HETATM    6  C6  UNL     1     -33.383  16.922  -5.121  1.00 20.00     0.038 C 
HETATM    7  N9  UNL     1     -33.715  14.540  -4.641  1.00 20.00    -0.352 N 
HETATM    8  O10 UNL     1     -34.755  12.450  -4.817  1.00 20.00    -0.274 OA
HETATM    9  H25 UNL     1     -32.781  14.274  -4.939  1.00 20.00     0.163 HD
ENDROOT
BRANCH   3  10
HETATM   10  C8  UNL     1     -36.395  16.874  -3.595  1.00 20.00     0.003 C 
HETATM   11  C7  UNL     1     -36.919  18.005  -4.420  1.00 20.00     0.005 C 
ENDBRANCH   3  10
TORSDOF 1
ENDMDL
MODEL 9
REMARK VINA RESULT:      -4.1      1.750      2.550
REMARK  1 active torsions:
REMARK  status: ('A' for Active; 'I' for Inactive)
REMARK    1  A    between atoms: C3_3  and  C8_8 
ROOT
HETATM    1  C1  UNL     1     -33.465  13.651  -3.785  1.00 20.00     0.218 C 
HETATM    2  C2  UNL     1     -33.270  15.139  -3.932  1.00 20.00     0.109 C 
HETATM    3  C3  UNL     1     -34.705  15.682  -3.912  1.00 20.00     0.021 C 
HETATM    4  C4  UNL     1     -35.536  14.539  -4.537  1.00 20.00     0.029 C 
HETATM    5  C5  UNL     1     -35.593  14.575  -6.071  1.00 20.00     0.038 C 
HETATM    6  C6  UNL     1     -36.956  14.502  -3.968  1.00 20.00     0.038 C 
HETATM    7  N9  UNL     1     -34.786  13.369  -4.116  1.00 20.00    -0.352 N 
HETATM    8  O10 UNL     1     -32.598  12.852  -3.467  1.00 20.00    -0.274 OA
HETATM    9  H25 UNL     1     -35.187  12.437  -4.068  1.00 20.00     0.163 HD
ENDROOT
BRANCH   3  10
HETATM   10  C8  UNL     1     -34.820  17.045  -4.580  1.00 20.00     0.003 C 
HETATM   11  C7  UNL     1     -33.506  17.512  -5.120  1.00 20.00     0.005 C 
ENDBRANCH   3  10
TORSDOF 1
ENDMDL
