MODEL 1
REMARK VINA RESULT:      -5.0      0.000      0.000
REMARK  1 active torsions:
REMARK  status: ('A' for Active; 'I' for Inactive)
REMARK    1  A    between atoms: C5_5  and  C6_6 
ROOT
HETATM    1  C1  UNL     1     -34.373  13.815  -4.536  1.00 20.00     0.218 C 
HETATM    2  C2  UNL     1     -34.539  14.449  -3.176  1.00 20.00     0.110 C 
HETATM    3  C5  UNL     1     -34.018  15.876  -3.392  1.00 20.00     0.026 C 
HETATM    4  C7  UNL     1     -34.354  16.167  -4.872  1.00 20.00     0.030 C 
HETATM    5  C8  UNL     1     -33.339  17.125  -5.500  1.00 20.00     0.038 C 
HETATM    6  C9  UNL     1     -35.776  16.699  -5.097  1.00 20.00     0.038 C 
HETATM    7  N10 UNL     1     -34.242  14.845  -5.461  1.00 20.00    -0.352 N 
HETATM    8  O11 UNL     1     -34.389  12.616  -4.762  1.00 20.00    -0.274 OA
HETATM    9  H26 UNL     1     -34.085  14.687  -6.451  1.00 20.00     0.163 HD
ENDROOT
BRANCH   3  10
HETATM   10  C6  UNL     1     -34.570  16.858  -2.368  1.00 20.00    -0.008 A 
HETATM   11  C3  UNL     1     -34.683  16.453  -0.929  1.00 20.00     0.005 A 
HETATM   12  C4  UNL     1     -33.656  17.469  -1.349  1.00 20.00     0.005 A 
ENDBRANCH   3  10
TORSDOF 1
ENDMDL
MODEL 2
REMARK VINA RESULT:      -4.8      1.808      2.354
REMARK  1 active torsions:
REMARK  status: ('A' for Active; 'I' for Inactive)
REMARK    1  A    between atoms: C5_5  and  C6_6 
ROOT
HETATM    1  C1  UNL     1     -36.738  14.560  -3.714  1.00 20.00     0.218 C 
HETATM    2  C2  UNL     1     -36.207  15.729  -2.921  1.00 20.00     0.110 C 
HETATM    3  C5  UNL     1     -34.719  15.390  -2.755  1.00 20.00     0.026 C 
HETATM    4  C7  UNL     1     -34.384  14.588  -4.034  1.00 20.00     0.030 C 
HETATM    5  C8  UNL     1     -33.282  13.557  -3.776  1.00 20.00     0.038 C 
HETATM    6  C9  UNL     1     -34.006  15.462  -5.237  1.00 20.00     0.038 C 
HETATM    7  N10 UNL     1     -35.649  13.928  -4.303  1.00 20.00    -0.352 N 
HETATM    8  O11 UNL     1     -37.917  14.263  -3.831  1.00 20.00    -0.274 OA
HETATM    9  H26 UNL     1     -35.731  13.088  -4.868  1.00 20.00     0.163 HD
ENDROOT
BRANCH   3  10
HETATM   10  C6  UNL     1     -33.868  16.622  -2.487  1.00 20.00    -0.008 A 
HETATM   11  C3  UNL     1     -34.525  17.951  -2.263  1.00 20.00     0.005 A 
HETATM   12  C4  UNL     1     -33.853  17.239  -1.121  1.00 20.00     0.005 A 
ENDBRANCH   3  10
TORSDOF 1
ENDMDL
MODEL 3
REMARK VINA RESULT:      -4.6      2.262      3.919
REMARK  1 active torsions:
REMARK  status: ('A' for Active; 'I' for Inactive)
REMARK    1  A    between atoms: C5_5  and  C6_6 
ROOT
HETATM    1  C1  UNL     1     -37.110  14.709  -3.898  1.00 20.00     0.218 C 
HETATM    2  C2  UNL     1     -36.526  15.024  -5.253  1.00 20.00     0.110 C 
HETATM    3  C5  UNL     1     -35.268  15.835  -4.910  1.00 20.00     0.026 C 
HETATM    4  C7  UNL     1     -34.826  15.261  -3.545  1.00 20.00     0.030 C 
HETATM    5  C8  UNL     1     -34.127  16.322  -2.690  1.00 20.00     0.038 C 
HETATM    6  C9  UNL     1     -33.939  14.014  -3.650  1.00 20.00     0.038 C 
HETATM    7  N10 UNL     1     -36.101  14.890  -2.958  1.00 20.00    -0.352 N 
HETATM    8  O11 UNL     1     -38.252  14.331  -3.692  1.00 20.00    -0.274 OA
HETATM    9  H26 UNL     1     -36.243  14.774  -1.960  1.00 20.00     0.163 HD
ENDROOT
BRANCH   3  10
HETATM   10  C6  UNL     1     -34.233  15.803  -6.025  1.00 20.00    -0.008 A 
HETATM   11  C3  UNL     1     -34.468  14.958  -7.240  1.00 20.00     0.005 A 
HETATM   12  C4  UNL     1     -34.530  16.457  -7.340  1.00 20.00     0.005 A 
ENDBRANCH   3  10
TORSDOF 1
ENDMDL
MODEL 4
REMARK VINA RESULT:      -4.6      1.929      2.900
REMARK  1 active torsions:
REMARK  status: ('A' for Active; 'I' for Inactive)
REMARK    1  A    between atoms: C5_5  and  C6_6 
ROOT
HETATM    1  C1  UNL     1     -33.758  17.031  -5.358  1.00 20.00     0.218 C 
HETATM    2  C2  UNL     1     -33.978  17.459  -3.928  1.00 20.00     0.110 C 
HETATM    3  C5  UNL     1     -34.507  16.182  -3.260  1.00 20.00     0.026 C 
HETATM    4  C7  UNL     1     -33.825  15.045  -4.055  1.00 20.00     0.030 C 
HETATM    5  C8  UNL     1     -34.701  13.791  -4.105  1.00 20.00     0.038 C 
HETATM    6  C9  UNL     1     -32.425  14.680  -3.543  1.00 20.00     0.038 C 
HETATM    7  N10 UNL     1     -33.708  15.642  -5.374  1.00 20.00    -0.352 N 
HETATM    8  O11 UNL     1     -33.617  17.786  -6.307  1.00 20.00    -0.274 OA
HETATM    9  H26 UNL     1     -33.601  15.098  -6.224  1.00 20.00     0.163 HD
ENDROOT
BRANCH   3  10
HETATM   10  C6  UNL     1     -34.290  16.180  -1.754  1.00 20.00    -0.008 A 
HETATM   11  C3  UNL     1     -33.638  17.355  -1.090  1.00 20.00     0.005 A 
HETATM   12  C4  UNL     1     -35.102  17.086  -0.879  1.00 20.00     0.005 A 
ENDBRANCH   3  10
TORSDOF 1
ENDMDL
MODEL 5
REMARK VINA RESULT:      -4.6      1.711      2.663
REMARK  1 active torsions:
REMARK  status: ('A' for Active; 'I' for Inactive)
REMARK    1  A    between atoms: C5_5  and  C6_6 
ROOT
HETATM    1  C1  UNL     1     -34.349  16.053  -5.985  1.00 20.00     0.218 C 
HETATM    2  C2  UNL     1     -33.664  16.569  -4.743  1.00 20.00     0.110 C 
HETATM    3  C5  UNL     1     -34.655  16.214  -3.626  1.00 20.00     0.026 C 
HETATM    4  C7  UNL     1     -35.338  14.927  -4.142  1.00 20.00     0.030 C 
HETATM    5  C8  UNL     1     -36.779  14.815  -3.636  1.00 20.00     0.038 C 
HETATM    6  C9  UNL     1     -34.572  13.638  -3.812  1.00 20.00     0.038 C 
HETATM    7  N10 UNL     1     -35.315  15.140  -5.578  1.00 20.00    -0.352 N 
HETATM    8  O11 UNL     1     -34.064  16.367  -7.130  1.00 20.00    -0.274 OA
HETATM    9  H26 UNL     1     -35.942  14.669  -6.222  1.00 20.00     0.163 HD
ENDROOT
BRANCH   3  10
HETATM   10  C6  UNL     1     -33.986  16.125  -2.262  1.00 20.00    -0.008 A 
HETATM   11  C3  UNL     1     -33.626  17.377  -1.522  1.00 20.00     0.005 A 
HETATM   12  C4  UNL     1     -34.749  16.506  -1.029  1.00 20.00     0.005 A 
ENDBRANCH   3  10
TORSDOF 1
ENDMDL
MODEL 6
REMARK VINA RESULT:      -4.4      1.910      2.654
REMARK  1 active torsions:
REMARK  status: ('A' for Active; 'I' for Inactive)
REMARK    1  A    between atoms: C5_5  and  C6_6 
ROOT
HETATM    1  C1  UNL     1     -33.325  13.760  -3.823  1.00 20.00     0.218 C 
HETATM    2  C2  UNL     1     -34.828  13.673  -3.931  1.00 20.00     0.110 C 
HETATM    3  C5  UNL     1     -35.259  15.146  -3.977  1.00 20.00     0.026 C 
HETATM    4  C7  UNL     1     -34.070  15.852  -4.669  1.00 20.00     0.030 C 
HETATM    5  C8  UNL     1     -33.912  17.293  -4.180  1.00 20.00     0.038 C 
HETATM    6  C9  UNL     1     -34.137  15.829  -6.202  1.00 20.00     0.038 C 
HETATM    7  N10 UNL     1     -32.952  15.036  -4.230  1.00 20.00    -0.352 N 
HETATM    8  O11 UNL     1     -32.589  12.851  -3.474  1.00 20.00    -0.274 OA
HETATM    9  H26 UNL     1     -31.992  15.365  -4.221  1.00 20.00     0.163 HD
ENDROOT
BRANCH   3  10
HETATM   10  C6  UNL     1     -36.625  15.332  -4.622  1.00 20.00    -0.008 A 
HETATM   11  C3  UNL     1     -37.860  14.886  -3.900  1.00 20.00     0.005 A 
HETATM   12  C4  UNL     1     -37.577  16.352  -4.075  1.00 20.00     0.005 A 
ENDBRANCH   3  10
TORSDOF 1
ENDMDL
MODEL 7
REMARK VINA RESULT:      -4.3      2.459      3.915
REMARK  1 active torsions:
REMARK  status: ('A' for Active; 'I' for Inactive)
REMARK    1  A    between atoms: C5_5  and  C6_6 
ROOT
HETATM    1  C1  UNL     1     -33.637  17.992  -4.257  1.00 20.00     0.218 C 
HETATM    2  C2  UNL     1     -33.546  16.524  -4.594  1.00 20.00     0.110 C 
HETATM    3  C5  UNL     1     -33.786  15.840  -3.241  1.00 20.00     0.026 C 
HETATM    4  C7  UNL     1     -34.724  16.819  -2.499  1.00 20.00     0.030 C 
HETATM    5  C8  UNL     1     -34.506  16.768  -0.985  1.00 20.00     0.038 C 
HETATM    6  C9  UNL     1     -36.212  16.618  -2.815  1.00 20.00     0.038 C 
HETATM    7  N10 UNL     1     -34.293  18.098  -3.036  1.00 20.00    -0.352 N 
HETATM    8  O11 UNL     1     -33.232  18.904  -4.960  1.00 20.00    -0.274 OA
HETATM    9  H26 UNL     1     -34.455  18.983  -2.566  1.00 20.00     0.163 HD
ENDROOT
BRANCH   3  10
HETATM   10  C6  UNL     1     -34.283  14.410  -3.392  1.00 20.00    -0.008 A 
HETATM   11  C3  UNL     1     -34.456  13.818  -4.758  1.00 20.00     0.005 A 
HETATM   12  C4  UNL     1     -33.347  13.338  -3.863  1.00 20.00     0.005 A 
ENDBRANCH   3  10
TORSDOF 1
ENDMDL
MODEL 8
REMARK VINA RESULT:      -4.3      2.772      4.021
REMARK  1 active torsions:
REMARK  status: ('A' for Active; 'I' for Inactive)
REMARK    1  A    between atoms: C5_5  and  C6_6 
ROOT
HETATM    1  C1  UNL     1     -35.390  17.155  -1.439  1.00 20.00     0.218 C 
HETATM    2  C2  UNL     1     -34.257  16.342  -2.016  1.00 20.00     0.110 C 
HETATM    3  C5  UNL     1     -34.980  15.324  -2.909  1.00 20.00     0.026 C 
HETATM    4  C7  UNL     1     -36.240  16.084  -3.382  1.00 20.00     0.030 C 
HETATM    5  C8  UNL     1     -37.413  15.131  -3.621  1.00 20.00     0.038 C 
HETATM    6  C9  UNL     1     -36.015  16.952  -4.627  1.00 20.00     0.038 C 
HETATM    7  N10 UNL     1     -36.504  16.945  -2.243  1.00 20.00    -0.352 N 
HETATM    8  O11 UNL     1     -35.309  17.884  -0.463  1.00 20.00    -0.274 OA
HETATM    9  H26 UNL     1     -37.413  17.355  -2.053  1.00 20.00     0.163 HD
ENDROOT
BRANCH   3  10
HETATM   10  C6  UNL     1     -34.078  14.764  -4.000  1.00 20.00    -0.008 A 
HETATM   11  C3  UNL     1     -33.111  13.664  -3.681  1.00 20.00     0.005 A 
HETATM   12  C4  UNL     1     -34.318  13.384  -4.534  1.00 20.00     0.005 A 
ENDBRANCH   3  10
TORSDOF 1
ENDMDL
MODEL 9
REMARK VINA RESULT:      -4.3      1.985      2.868
REMARK  1 active torsions:
REMARK  status: ('A' for Active; 'I' for Inactive)
REMARK    1  A    between atoms: C5_5  and  C6_6 
ROOT
HETATM    1  C1  UNL     1     -35.146  13.728  -4.047  1.00 20.00     0.218 C 
HETATM    2  C2  UNL     1     -36.374  14.557  -4.335  1.00 20.00     0.110 C 
HETATM    3  C5  UNL     1     -36.327  15.638  -3.247  1.00 20.00     0.026 C 
HETATM    4  C7  UNL     1     -34.815  15.828  -2.987  1.00 20.00     0.030 C 
HETATM    5  C8  UNL     1     -34.542  16.236  -1.537  1.00 20.00     0.038 C 
HETATM    6  C9  UNL     1     -34.138  16.822  -3.941  1.00 20.00     0.038 C 
HETATM    7  N10 UNL     1     -34.305  14.494  -3.249  1.00 20.00    -0.352 N 
HETATM    8  O11 UNL     1     -34.936  12.604  -4.476  1.00 20.00    -0.274 OA
HETATM    9  H26 UNL     1     -33.420  14.155  -2.885  1.00 20.00     0.163 HD
ENDROOT
BRANCH   3  10
HETATM   10  C6  UNL     1     -37.110  16.885  -3.631  1.00 20.00    -0.008 A 
HETATM   11  C3  UNL     1     -38.600  16.911  -3.474  1.00 20.00     0.005 A 
HETATM   12  C4  UNL     1     -37.731  17.737  -2.566  1.00 20.00     0.005 A 
ENDBRANCH   3  10
TORSDOF 1
ENDMDL
