MODEL 1
REMARK VINA RESULT:      -5.2      0.000      0.000
REMARK  2 active torsions:
REMARK  status: ('A' for Active; 'I' for Inactive)
REMARK    1  A    between atoms: C4_4  and  C7_7 
REMARK    2  A    between atoms: C7_7  and  C8_8 
ROOT
HETATM    1  C1  UNL     1     -34.481  13.484  -4.075  1.00 20.00     0.218 C 
HETATM    2  C2  UNL     1     -34.937  14.805  -3.504  1.00 20.00     0.113 C 
HETATM    3  C3  UNL     1     -32.541  14.638  -3.401  1.00 20.00     0.132 C 
HETATM    4  C4  UNL     1     -33.663  15.673  -3.522  1.00 20.00    -0.020 C 
HETATM    5  C5  UNL     1     -33.552  16.439  -4.851  1.00 20.00     0.017 C 
HETATM    6  N9  UNL     1     -33.096  13.452  -3.995  1.00 20.00    -0.360 N 
HETATM    7  O10 UNL     1     -35.218  12.603  -4.491  1.00 20.00    -0.274 OA
HETATM    8  H25 UNL     1     -32.533  12.673  -4.321  1.00 20.00     0.162 HD
ENDROOT
BRANCH   4   9
HETATM    9  C7  UNL     1     -33.641  16.664  -2.358  1.00 20.00     0.011 C 
BRANCH   9  10
HETATM   10  C8  UNL     1     -34.744  16.351  -1.359  1.00 20.00    -0.004 C 
HETATM   11  C6  UNL     1     -34.630  17.238  -0.130  1.00 20.00     0.005 C 
ENDBRANCH   9  10
ENDBRANCH   4   9
TORSDOF 2
ENDMDL
MODEL 2
REMARK VINA RESULT:      -4.4      1.630      1.925
REMARK  2 active torsions:
REMARK  status: ('A' for Active; 'I' for Inactive)
REMARK    1  A    between atoms: C4_4  and  C7_7 
REMARK    2  A    between atoms: C7_7  and  C8_8 
ROOT
HETATM    1  C1  UNL     1     -34.942  14.325  -6.037  1.00 20.00     0.218 C 
HETATM    2  C2  UNL     1     -35.042  15.531  -5.134  1.00 20.00     0.113 C 
HETATM    3  C3  UNL     1     -34.729  13.539  -3.826  1.00 20.00     0.132 C 
HETATM    4  C4  UNL     1     -34.445  15.043  -3.800  1.00 20.00    -0.020 C 
HETATM    5  C5  UNL     1     -32.931  15.308  -3.759  1.00 20.00     0.017 C 
HETATM    6  N9  UNL     1     -34.754  13.214  -5.227  1.00 20.00    -0.360 N 
HETATM    7  O10 UNL     1     -35.047  14.343  -7.254  1.00 20.00    -0.274 OA
HETATM    8  H25 UNL     1     -34.646  12.270  -5.585  1.00 20.00     0.162 HD
ENDROOT
BRANCH   4   9
HETATM    9  C7  UNL     1     -35.114  15.720  -2.603  1.00 20.00     0.011 C 
BRANCH   9  10
HETATM   10  C8  UNL     1     -34.101  16.519  -1.796  1.00 20.00    -0.004 C 
HETATM   11  C6  UNL     1     -34.673  16.911  -0.444  1.00 20.00     0.005 C 
ENDBRANCH   9  10
ENDBRANCH   4   9
TORSDOF 2
ENDMDL
MODEL 3
REMARK VINA RESULT:      -4.4      1.567      1.732
REMARK  2 active torsions:
REMARK  status: ('A' for Active; 'I' for Inactive)
REMARK    1  A    between atoms: C4_4  and  C7_7 
REMARK    2  A    between atoms: C7_7  and  C8_8 
ROOT
HETATM    1  C1  UNL     1     -36.669  14.407  -3.815  1.00 20.00     0.218 C 
HETATM    2  C2  UNL     1     -36.135  15.635  -3.118  1.00 20.00     0.113 C 
HETATM    3  C3  UNL     1     -34.321  14.211  -3.795  1.00 20.00     0.132 C 
HETATM    4  C4  UNL     1     -34.653  15.684  -3.540  1.00 20.00    -0.020 C 
HETATM    5  C5  UNL     1     -34.487  16.508  -4.827  1.00 20.00     0.017 C 
HETATM    6  N9  UNL     1     -35.578  13.633  -4.187  1.00 20.00    -0.360 N 
HETATM    7  O10 UNL     1     -37.850  14.144  -3.977  1.00 20.00    -0.274 OA
HETATM    8  H25 UNL     1     -35.658  12.751  -4.684  1.00 20.00     0.162 HD
ENDROOT
BRANCH   4   9
HETATM    9  C7  UNL     1     -33.774  16.275  -2.437  1.00 20.00     0.011 C 
BRANCH   9  10
HETATM   10  C8  UNL     1     -34.575  16.492  -1.163  1.00 20.00    -0.004 C 
HETATM   11  C6  UNL     1     -34.015  17.657  -0.362  1.00 20.00     0.005 C 
ENDBRANCH   9  10
ENDBRANCH   4   9
TORSDOF 2
ENDMDL
MODEL 4
REMARK VINA RESULT:      -4.2      2.448      2.953
REMARK  2 active torsions:
REMARK  status: ('A' for Active; 'I' for Inactive)
REMARK    1  A    between atoms: C4_4  and  C7_7 
REMARK    2  A    between atoms: C7_7  and  C8_8 
ROOT
HETATM    1  C1  UNL     1     -36.344  14.263  -4.100  1.00 20.00     0.218 C 
HETATM    2  C2  UNL     1     -35.662  15.548  -4.502  1.00 20.00     0.113 C 
HETATM    3  C3  UNL     1     -34.071  13.747  -4.440  1.00 20.00     0.132 C 
HETATM    4  C4  UNL     1     -34.342  15.078  -5.146  1.00 20.00    -0.020 C 
HETATM    5  C5  UNL     1     -34.528  14.862  -6.657  1.00 20.00     0.017 C 
HETATM    6  N9  UNL     1     -35.379  13.265  -4.090  1.00 20.00    -0.360 N 
HETATM    7  O10 UNL     1     -37.524  14.153  -3.804  1.00 20.00    -0.274 OA
HETATM    8  H25 UNL     1     -35.576  12.296  -3.860  1.00 20.00     0.162 HD
ENDROOT
BRANCH   4   9
HETATM    9  C7  UNL     1     -33.212  16.081  -4.909  1.00 20.00     0.011 C 
BRANCH   9  10
HETATM   10  C8  UNL     1     -33.770  17.453  -4.564  1.00 20.00    -0.004 C 
HETATM   11  C6  UNL     1     -33.590  18.419  -5.724  1.00 20.00     0.005 C 
ENDBRANCH   9  10
ENDBRANCH   4   9
TORSDOF 2
ENDMDL
MODEL 5
REMARK VINA RESULT:      -4.2      2.331      3.923
REMARK  2 active torsions:
REMARK  status: ('A' for Active; 'I' for Inactive)
REMARK    1  A    between atoms: C4_4  and  C7_7 
REMARK    2  A    between atoms: C7_7  and  C8_8 
ROOT
HETATM    1  C1  UNL     1     -37.047  14.697  -3.814  1.00 20.00     0.218 C 
HETATM    2  C2  UNL     1     -36.066  14.593  -4.956  1.00 20.00     0.113 C 
HETATM    3  C3  UNL     1     -35.168  15.985  -3.215  1.00 20.00     0.132 C 
HETATM    4  C4  UNL     1     -34.728  15.038  -4.334  1.00 20.00    -0.020 C 
HETATM    5  C5  UNL     1     -33.975  13.829  -3.756  1.00 20.00     0.017 C 
HETATM    6  N9  UNL     1     -36.470  15.503  -2.842  1.00 20.00    -0.360 N 
HETATM    7  O10 UNL     1     -38.157  14.187  -3.788  1.00 20.00    -0.274 OA
HETATM    8  H25 UNL     1     -36.920  15.728  -1.960  1.00 20.00     0.162 HD
ENDROOT
BRANCH   4   9
HETATM    9  C7  UNL     1     -33.841  15.750  -5.356  1.00 20.00     0.011 C 
BRANCH   9  10
HETATM   10  C8  UNL     1     -34.329  15.487  -6.773  1.00 20.00    -0.004 C 
HETATM   11  C6  UNL     1     -34.608  16.792  -7.501  1.00 20.00     0.005 C 
ENDBRANCH   9  10
ENDBRANCH   4   9
TORSDOF 2
ENDMDL
MODEL 6
REMARK VINA RESULT:      -4.1     10.816     11.581
REMARK  2 active torsions:
REMARK  status: ('A' for Active; 'I' for Inactive)
REMARK    1  A    between atoms: C4_4  and  C7_7 
REMARK    2  A    between atoms: C7_7  and  C8_8 
ROOT
HETATM    1  C1  UNL     1     -34.814   4.791   4.688  1.00 20.00     0.218 C 
HETATM    2  C2  UNL     1     -34.569   5.485   3.370  1.00 20.00     0.113 C 
HETATM    3  C3  UNL     1     -33.491   6.684   5.153  1.00 20.00     0.132 C 
HETATM    4  C4  UNL     1     -33.361   6.399   3.654  1.00 20.00    -0.020 C 
HETATM    5  C5  UNL     1     -32.046   5.661   3.356  1.00 20.00     0.017 C 
HETATM    6  N9  UNL     1     -34.163   5.523   5.671  1.00 20.00    -0.360 N 
HETATM    7  O10 UNL     1     -35.497   3.790   4.843  1.00 20.00    -0.274 OA
HETATM    8  H25 UNL     1     -34.161   5.267   6.654  1.00 20.00     0.162 HD
ENDROOT
BRANCH   4   9
HETATM    9  C7  UNL     1     -33.422   7.685   2.830  1.00 20.00     0.011 C 
BRANCH   9  10
HETATM   10  C8  UNL     1     -32.063   8.011   2.232  1.00 20.00    -0.004 C 
HETATM   11  C6  UNL     1     -32.185   9.079   1.157  1.00 20.00     0.005 C 
ENDBRANCH   9  10
ENDBRANCH   4   9
TORSDOF 2
ENDMDL
MODEL 7
REMARK VINA RESULT:      -4.1      1.595      3.150
REMARK  2 active torsions:
REMARK  status: ('A' for Active; 'I' for Inactive)
REMARK    1  A    between atoms: C4_4  and  C7_7 
REMARK    2  A    between atoms: C7_7  and  C8_8 
ROOT
HETATM    1  C1  UNL     1     -35.168  13.832  -4.103  1.00 20.00     0.218 C 
HETATM    2  C2  UNL     1     -34.033  14.818  -3.973  1.00 20.00     0.113 C 
HETATM    3  C3  UNL     1     -36.144  15.964  -3.870  1.00 20.00     0.132 C 
HETATM    4  C4  UNL     1     -34.700  16.071  -3.371  1.00 20.00    -0.020 C 
HETATM    5  C5  UNL     1     -34.652  16.020  -1.835  1.00 20.00     0.017 C 
HETATM    6  N9  UNL     1     -36.354  14.550  -4.028  1.00 20.00    -0.360 N 
HETATM    7  O10 UNL     1     -35.043  12.630  -4.280  1.00 20.00    -0.274 OA
HETATM    8  H25 UNL     1     -37.273  14.123  -4.079  1.00 20.00     0.162 HD
ENDROOT
BRANCH   4   9
HETATM    9  C7  UNL     1     -34.030  17.355  -3.860  1.00 20.00     0.011 C 
BRANCH   9  10
HETATM   10  C8  UNL     1     -33.371  17.141  -5.214  1.00 20.00    -0.004 C 
HETATM   11  C6  UNL     1     -34.047  17.983  -6.285  1.00 20.00     0.005 C 
ENDBRANCH   9  10
ENDBRANCH   4   9
TORSDOF 2
ENDMDL
MODEL 8
REMARK VINA RESULT:      -4.1      2.560      3.414
REMARK  2 active torsions:
REMARK  status: ('A' for Active; 'I' for Inactive)
REMARK    1  A    between atoms: C4_4  and  C7_7 
REMARK    2  A    between atoms: C7_7  and  C8_8 
ROOT
HETATM    1  C1  UNL     1     -33.646  13.798  -4.052  1.00 20.00     0.218 C 
HETATM    2  C2  UNL     1     -35.121  13.648  -4.339  1.00 20.00     0.113 C 
HETATM    3  C3  UNL     1     -34.362  15.830  -5.005  1.00 20.00     0.132 C 
HETATM    4  C4  UNL     1     -35.415  14.773  -5.351  1.00 20.00    -0.020 C 
HETATM    5  C5  UNL     1     -35.222  14.267  -6.789  1.00 20.00     0.017 C 
HETATM    6  N9  UNL     1     -33.269  15.068  -4.464  1.00 20.00    -0.360 N 
HETATM    7  O10 UNL     1     -32.942  12.954  -3.518  1.00 20.00    -0.274 OA
HETATM    8  H25 UNL     1     -32.320  15.424  -4.392  1.00 20.00     0.162 HD
ENDROOT
BRANCH   4   9
HETATM    9  C7  UNL     1     -36.834  15.320  -5.188  1.00 20.00     0.011 C 
BRANCH   9  10
HETATM   10  C8  UNL     1     -37.519  14.696  -3.981  1.00 20.00    -0.004 C 
HETATM   11  C6  UNL     1     -39.032  14.762  -4.123  1.00 20.00     0.005 C 
ENDBRANCH   9  10
ENDBRANCH   4   9
TORSDOF 2
ENDMDL
MODEL 9
REMARK VINA RESULT:      -4.1     11.731     12.602
REMARK  2 active torsions:
REMARK  status: ('A' for Active; 'I' for Inactive)
REMARK    1  A    between atoms: C4_4  and  C7_7 
REMARK    2  A    between atoms: C7_7  and  C8_8 
ROOT
HETATM    1  C1  UNL     1     -34.731   5.528   6.215  1.00 20.00     0.218 C 
HETATM    2  C2  UNL     1     -34.101   6.248   5.047  1.00 20.00     0.113 C 
HETATM    3  C3  UNL     1     -34.801   4.046   4.385  1.00 20.00     0.132 C 
HETATM    4  C4  UNL     1     -34.585   5.452   3.819  1.00 20.00    -0.020 C 
HETATM    5  C5  UNL     1     -35.907   6.031   3.289  1.00 20.00     0.017 C 
HETATM    6  N9  UNL     1     -35.119   4.273   5.769  1.00 20.00    -0.360 N 
HETATM    7  O10 UNL     1     -34.835   5.975   7.347  1.00 20.00    -0.274 OA
HETATM    8  H25 UNL     1     -35.580   3.585   6.358  1.00 20.00     0.162 HD
ENDROOT
BRANCH   4   9
HETATM    9  C7  UNL     1     -33.543   5.454   2.701  1.00 20.00     0.011 C 
BRANCH   9  10
HETATM   10  C8  UNL     1     -32.289   6.200   3.130  1.00 20.00    -0.004 C 
HETATM   11  C6  UNL     1     -32.211   7.561   2.457  1.00 20.00     0.005 C 
ENDBRANCH   9  10
ENDBRANCH   4   9
TORSDOF 2
ENDMDL
