MODEL 1
REMARK VINA RESULT:      -4.6      0.000      0.000
REMARK  0 active torsions:
REMARK  status: ('A' for Active; 'I' for Inactive)
ROOT
HETATM    1  C1  UNL     1     -33.798  16.888  -4.803  1.00 20.00     0.010 A 
HETATM    2  C2  UNL     1     -33.676  17.514  -3.560  1.00 20.00     0.019 A 
HETATM    3  C3  UNL     1     -34.565  15.550  -2.431  1.00 20.00     0.026 A 
HETATM    4  C4  UNL     1     -34.298  15.596  -4.842  1.00 20.00    -0.033 A 
HETATM    5  C5  UNL     1     -34.672  14.932  -3.665  1.00 20.00    -0.049 A 
HETATM    6  C6  UNL     1     -34.058  16.850  -2.384  1.00 20.00     0.011 A 
HETATM    7  C7  UNL     1     -35.209  13.569  -3.969  1.00 20.00     0.041 C 
HETATM    8  C8  UNL     1     -34.660  13.346  -5.388  1.00 20.00     0.030 C 
HETATM    9  C9  UNL     1     -34.544  14.734  -6.042  1.00 20.00     0.116 C 
HETATM   10 CL10 UNL     1     -36.062  15.207  -6.835  1.00 20.00    -0.120 Cl
HETATM   11 BR11 UNL     1     -33.890  17.731  -0.718  1.00 20.00    -0.051 Br
ENDROOT
TORSDOF 0
ENDMDL
MODEL 2
REMARK VINA RESULT:      -4.6      1.783      2.586
REMARK  0 active torsions:
REMARK  status: ('A' for Active; 'I' for Inactive)
ROOT
HETATM    1  C1  UNL     1     -33.624  18.681  -2.372  1.00 20.00     0.010 A 
HETATM    2  C2  UNL     1     -33.980  18.855  -1.032  1.00 20.00     0.019 A 
HETATM    3  C3  UNL     1     -34.651  16.522  -0.860  1.00 20.00     0.026 A 
HETATM    4  C4  UNL     1     -33.782  17.426  -2.937  1.00 20.00    -0.033 A 
HETATM    5  C5  UNL     1     -34.285  16.355  -2.185  1.00 20.00    -0.049 A 
HETATM    6  C6  UNL     1     -34.491  17.784  -0.283  1.00 20.00     0.011 A 
HETATM    7  C7  UNL     1     -34.393  15.119  -3.021  1.00 20.00     0.041 C 
HETATM    8  C8  UNL     1     -33.456  15.472  -4.189  1.00 20.00     0.030 C 
HETATM    9  C9  UNL     1     -33.500  17.002  -4.345  1.00 20.00     0.116 C 
HETATM   10 CL10 UNL     1     -34.824  17.508  -5.415  1.00 20.00    -0.120 Cl
HETATM   11 BR11 UNL     1     -34.973  18.055   1.526  1.00 20.00    -0.051 Br
ENDROOT
TORSDOF 0
ENDMDL
MODEL 3
REMARK VINA RESULT:      -4.5      5.382      6.869
REMARK  0 active torsions:
REMARK  status: ('A' for Active; 'I' for Inactive)
ROOT
HETATM    1  C1  UNL     1     -35.014  18.140   2.277  1.00 20.00     0.010 A 
HETATM    2  C2  UNL     1     -34.509  18.268   3.573  1.00 20.00     0.019 A 
HETATM    3  C3  UNL     1     -32.316  18.875   2.709  1.00 20.00     0.026 A 
HETATM    4  C4  UNL     1     -34.162  18.388   1.212  1.00 20.00    -0.033 A 
HETATM    5  C5  UNL     1     -32.828  18.758   1.427  1.00 20.00    -0.049 A 
HETATM    6  C6  UNL     1     -33.170  18.631   3.786  1.00 20.00     0.011 A 
HETATM    7  C7  UNL     1     -32.107  18.937   0.128  1.00 20.00     0.041 C 
HETATM    8  C8  UNL     1     -33.288  19.096  -0.844  1.00 20.00     0.030 C 
HETATM    9  C9  UNL     1     -34.460  18.292  -0.253  1.00 20.00     0.116 C 
HETATM   10 CL10 UNL     1     -34.414  16.596  -0.778  1.00 20.00    -0.120 Cl
HETATM   11 BR11 UNL     1     -32.514  18.785   5.554  1.00 20.00    -0.051 Br
ENDROOT
TORSDOF 0
ENDMDL
MODEL 4
REMARK VINA RESULT:      -4.4      3.487      4.988
REMARK  0 active torsions:
REMARK  status: ('A' for Active; 'I' for Inactive)
ROOT
HETATM    1  C1  UNL     1     -33.665  18.108  -3.142  1.00 20.00     0.010 A 
HETATM    2  C2  UNL     1     -33.874  16.953  -3.899  1.00 20.00     0.019 A 
HETATM    3  C3  UNL     1     -34.754  15.783  -1.954  1.00 20.00     0.026 A 
HETATM    4  C4  UNL     1     -34.010  18.087  -1.800  1.00 20.00    -0.033 A 
HETATM    5  C5  UNL     1     -34.555  16.937  -1.214  1.00 20.00    -0.049 A 
HETATM    6  C6  UNL     1     -34.413  15.799  -3.308  1.00 20.00     0.011 A 
HETATM    7  C7  UNL     1     -34.811  17.151   0.244  1.00 20.00     0.041 C 
HETATM    8  C8  UNL     1     -34.802  18.687   0.322  1.00 20.00     0.030 C 
HETATM    9  C9  UNL     1     -33.858  19.181  -0.788  1.00 20.00     0.116 C 
HETATM   10 CL10 UNL     1     -32.176  19.263  -0.222  1.00 20.00    -0.120 Cl
HETATM   11 BR11 UNL     1     -34.673  14.247  -4.357  1.00 20.00    -0.051 Br
ENDROOT
TORSDOF 0
ENDMDL
MODEL 5
REMARK VINA RESULT:      -4.4      2.609      3.482
REMARK  0 active torsions:
REMARK  status: ('A' for Active; 'I' for Inactive)
ROOT
HETATM    1  C1  UNL     1     -34.445  15.152  -6.779  1.00 20.00     0.010 A 
HETATM    2  C2  UNL     1     -34.419  16.438  -7.324  1.00 20.00     0.019 A 
HETATM    3  C3  UNL     1     -33.581  17.356  -5.231  1.00 20.00     0.026 A 
HETATM    4  C4  UNL     1     -34.033  14.984  -5.467  1.00 20.00    -0.033 A 
HETATM    5  C5  UNL     1     -33.599  16.077  -4.703  1.00 20.00    -0.049 A 
HETATM    6  C6  UNL     1     -33.992  17.532  -6.554  1.00 20.00     0.011 A 
HETATM    7  C7  UNL     1     -33.240  15.648  -3.315  1.00 20.00     0.041 C 
HETATM    8  C8  UNL     1     -33.060  14.134  -3.512  1.00 20.00     0.030 C 
HETATM    9  C9  UNL     1     -33.997  13.722  -4.662  1.00 20.00     0.116 C 
HETATM   10 CL10 UNL     1     -35.622  13.328  -4.066  1.00 20.00    -0.120 Cl
HETATM   11 BR11 UNL     1     -33.977  19.262  -7.318  1.00 20.00    -0.051 Br
ENDROOT
TORSDOF 0
ENDMDL
MODEL 6
REMARK VINA RESULT:      -4.4      1.506      2.436
REMARK  0 active torsions:
REMARK  status: ('A' for Active; 'I' for Inactive)
ROOT
HETATM    1  C1  UNL     1     -34.956  15.653  -2.177  1.00 20.00     0.010 A 
HETATM    2  C2  UNL     1     -34.463  16.743  -1.456  1.00 20.00     0.019 A 
HETATM    3  C3  UNL     1     -33.669  17.797  -3.501  1.00 20.00     0.026 A 
HETATM    4  C4  UNL     1     -34.803  15.652  -3.554  1.00 20.00    -0.033 A 
HETATM    5  C5  UNL     1     -34.171  16.718  -4.210  1.00 20.00    -0.049 A 
HETATM    6  C6  UNL     1     -33.823  17.806  -2.113  1.00 20.00     0.011 A 
HETATM    7  C7  UNL     1     -34.099  16.471  -5.684  1.00 20.00     0.041 C 
HETATM    8  C8  UNL     1     -35.174  15.384  -5.852  1.00 20.00     0.030 C 
HETATM    9  C9  UNL     1     -35.219  14.596  -4.531  1.00 20.00     0.116 C 
HETATM   10 CL10 UNL     1     -34.046  13.263  -4.530  1.00 20.00    -0.120 Cl
HETATM   11 BR11 UNL     1     -33.158  19.262  -1.106  1.00 20.00    -0.051 Br
ENDROOT
TORSDOF 0
ENDMDL
MODEL 7
REMARK VINA RESULT:      -4.3      3.288      4.222
REMARK  0 active torsions:
REMARK  status: ('A' for Active; 'I' for Inactive)
ROOT
HETATM    1  C1  UNL     1     -34.423  14.884  -6.436  1.00 20.00     0.010 A 
HETATM    2  C2  UNL     1     -35.594  14.907  -7.198  1.00 20.00     0.019 A 
HETATM    3  C3  UNL     1     -36.926  15.397  -5.221  1.00 20.00     0.026 A 
HETATM    4  C4  UNL     1     -34.519  15.125  -5.075  1.00 20.00    -0.033 A 
HETATM    5  C5  UNL     1     -35.759  15.385  -4.475  1.00 20.00    -0.049 A 
HETATM    6  C6  UNL     1     -36.836  15.159  -6.594  1.00 20.00     0.011 A 
HETATM    7  C7  UNL     1     -35.608  15.579  -2.999  1.00 20.00     0.041 C 
HETATM    8  C8  UNL     1     -34.102  15.874  -2.894  1.00 20.00     0.030 C 
HETATM    9  C9  UNL     1     -33.422  15.128  -4.056  1.00 20.00     0.116 C 
HETATM   10 CL10 UNL     1     -33.003  13.463  -3.601  1.00 20.00    -0.120 Cl
HETATM   11 BR11 UNL     1     -38.404  15.173  -7.652  1.00 20.00    -0.051 Br
ENDROOT
TORSDOF 0
ENDMDL
MODEL 8
REMARK VINA RESULT:      -4.3      3.144      4.560
REMARK  0 active torsions:
REMARK  status: ('A' for Active; 'I' for Inactive)
ROOT
HETATM    1  C1  UNL     1     -33.648  14.932  -3.413  1.00 20.00     0.010 A 
HETATM    2  C2  UNL     1     -34.061  14.450  -4.657  1.00 20.00     0.019 A 
HETATM    3  C3  UNL     1     -34.981  16.626  -5.245  1.00 20.00     0.026 A 
HETATM    4  C4  UNL     1     -33.902  16.259  -3.103  1.00 20.00    -0.033 A 
HETATM    5  C5  UNL     1     -34.557  17.098  -4.014  1.00 20.00    -0.049 A 
HETATM    6  C6  UNL     1     -34.724  15.291  -5.565  1.00 20.00     0.011 A 
HETATM    7  C7  UNL     1     -34.744  18.467  -3.440  1.00 20.00     0.041 C 
HETATM    8  C8  UNL     1     -33.708  18.452  -2.302  1.00 20.00     0.030 C 
HETATM    9  C9  UNL     1     -33.583  16.991  -1.836  1.00 20.00     0.116 C 
HETATM   10 CL10 UNL     1     -34.782  16.603  -0.585  1.00 20.00    -0.120 Cl
HETATM   11 BR11 UNL     1     -35.281  14.605  -7.238  1.00 20.00    -0.051 Br
ENDROOT
TORSDOF 0
ENDMDL
MODEL 9
REMARK VINA RESULT:      -4.3     12.858     13.961
REMARK  0 active torsions:
REMARK  status: ('A' for Active; 'I' for Inactive)
ROOT
HETATM    1  C1  UNL     1     -43.417   4.788  -3.038  1.00 20.00     0.010 A 
HETATM    2  C2  UNL     1     -43.103   3.526  -3.547  1.00 20.00     0.019 A 
HETATM    3  C3  UNL     1     -41.098   3.420  -2.171  1.00 20.00     0.026 A 
HETATM    4  C4  UNL     1     -42.569   5.348  -2.096  1.00 20.00    -0.033 A 
HETATM    5  C5  UNL     1     -41.424   4.666  -1.663  1.00 20.00    -0.049 A 
HETATM    6  C6  UNL     1     -41.951   2.848  -3.117  1.00 20.00     0.011 A 
HETATM    7  C7  UNL     1     -40.657   5.487  -0.674  1.00 20.00     0.041 C 
HETATM    8  C8  UNL     1     -41.730   6.496  -0.234  1.00 20.00     0.030 C 
HETATM    9  C9  UNL     1     -42.678   6.685  -1.431  1.00 20.00     0.116 C 
HETATM   10 CL10 UNL     1     -42.099   7.962  -2.522  1.00 20.00    -0.120 Cl
HETATM   11 BR11 UNL     1     -41.548   1.144  -3.833  1.00 20.00    -0.051 Br
ENDROOT
TORSDOF 0
ENDMDL
