MODEL 1
REMARK VINA RESULT:      -3.8      0.000      0.000
REMARK  1 active torsions:
REMARK  status: ('A' for Active; 'I' for Inactive)
REMARK    1  A    between atoms: C3_3  and  C6_6 
ROOT
HETATM    1  C1  UNL     1     -34.364  13.710  -3.457  1.00 20.00     0.131 A 
HETATM    2  C2  UNL     1     -34.870  13.680  -5.590  1.00 20.00     0.166 A 
HETATM    3  C3  UNL     1     -34.191  15.051  -3.729  1.00 20.00     0.005 A 
HETATM    4  N7  UNL     1     -34.754  12.923  -4.522  1.00 20.00    -0.265 NA
HETATM    5  S8  UNL     1     -34.525  15.349  -5.384  1.00 20.00    -0.085 SA
ENDROOT
BRANCH   3   6
HETATM    6  C6  UNL     1     -33.773  16.183  -2.809  1.00 20.00     0.019 C 
HETATM    7  C4  UNL     1     -34.638  16.231  -1.547  1.00 20.00     0.015 C 
HETATM    8  C5  UNL     1     -33.789  17.532  -3.533  1.00 20.00     0.015 C 
ENDBRANCH   3   6
TORSDOF 1
ENDMDL
MODEL 2
REMARK VINA RESULT:      -3.8      1.369      1.417
REMARK  1 active torsions:
REMARK  status: ('A' for Active; 'I' for Inactive)
REMARK    1  A    between atoms: C3_3  and  C6_6 
ROOT
HETATM    1  C1  UNL     1     -35.965  15.037  -3.383  1.00 20.00     0.131 A 
HETATM    2  C2  UNL     1     -35.171  13.277  -4.423  1.00 20.00     0.166 A 
HETATM    3  C3  UNL     1     -34.627  15.217  -3.102  1.00 20.00     0.005 A 
HETATM    4  N7  UNL     1     -36.279  13.926  -4.141  1.00 20.00    -0.265 NA
HETATM    5  S8  UNL     1     -33.715  13.947  -3.807  1.00 20.00    -0.085 SA
ENDROOT
BRANCH   3   6
HETATM    6  C6  UNL     1     -33.940  16.312  -2.308  1.00 20.00     0.019 C 
HETATM    7  C4  UNL     1     -34.641  16.562  -0.970  1.00 20.00     0.015 C 
HETATM    8  C5  UNL     1     -33.827  17.608  -3.115  1.00 20.00     0.015 C 
ENDBRANCH   3   6
TORSDOF 1
ENDMDL
MODEL 3
REMARK VINA RESULT:      -3.6      1.900      3.482
REMARK  1 active torsions:
REMARK  status: ('A' for Active; 'I' for Inactive)
REMARK    1  A    between atoms: C3_3  and  C6_6 
ROOT
HETATM    1  C1  UNL     1     -34.803  13.275  -5.332  1.00 20.00     0.131 A 
HETATM    2  C2  UNL     1     -34.129  14.057  -3.397  1.00 20.00     0.166 A 
HETATM    3  C3  UNL     1     -34.421  14.536  -5.741  1.00 20.00     0.005 A 
HETATM    4  N7  UNL     1     -34.636  12.999  -3.989  1.00 20.00    -0.265 NA
HETATM    5  S8  UNL     1     -33.829  15.421  -4.396  1.00 20.00    -0.085 SA
ENDROOT
BRANCH   3   6
HETATM    6  C6  UNL     1     -34.466  15.165  -7.120  1.00 20.00     0.019 C 
HETATM    7  C4  UNL     1     -34.429  16.693  -7.043  1.00 20.00     0.015 C 
HETATM    8  C5  UNL     1     -35.682  14.688  -7.918  1.00 20.00     0.015 C 
ENDBRANCH   3   6
TORSDOF 1
ENDMDL
MODEL 4
REMARK VINA RESULT:      -3.6     11.801     12.684
REMARK  1 active torsions:
REMARK  status: ('A' for Active; 'I' for Inactive)
REMARK    1  A    between atoms: C3_3  and  C6_6 
ROOT
HETATM    1  C1  UNL     1     -33.669   6.529   5.822  1.00 20.00     0.131 A 
HETATM    2  C2  UNL     1     -35.185   4.949   5.938  1.00 20.00     0.166 A 
HETATM    3  C3  UNL     1     -33.710   6.185   4.488  1.00 20.00     0.005 A 
HETATM    4  N7  UNL     1     -34.514   5.822   6.655  1.00 20.00    -0.265 NA
HETATM    5  S8  UNL     1     -34.849   4.923   4.255  1.00 20.00    -0.085 SA
ENDROOT
BRANCH   3   6
HETATM    6  C6  UNL     1     -32.929   6.746   3.314  1.00 20.00     0.019 C 
HETATM    7  C4  UNL     1     -32.499   5.643   2.345  1.00 20.00     0.015 C 
HETATM    8  C5  UNL     1     -31.723   7.565   3.781  1.00 20.00     0.015 C 
ENDBRANCH   3   6
TORSDOF 1
ENDMDL
MODEL 5
REMARK VINA RESULT:      -3.4      1.552      1.977
REMARK  1 active torsions:
REMARK  status: ('A' for Active; 'I' for Inactive)
REMARK    1  A    between atoms: C3_3  and  C6_6 
ROOT
HETATM    1  C1  UNL     1     -33.419  14.583  -3.776  1.00 20.00     0.131 A 
HETATM    2  C2  UNL     1     -34.728  13.128  -4.764  1.00 20.00     0.166 A 
HETATM    3  C3  UNL     1     -33.820  15.358  -4.845  1.00 20.00     0.005 A 
HETATM    4  N7  UNL     1     -33.939  13.305  -3.728  1.00 20.00    -0.265 NA
HETATM    5  S8  UNL     1     -34.890  14.458  -5.838  1.00 20.00    -0.085 SA
ENDROOT
BRANCH   3   6
HETATM    6  C6  UNL     1     -33.449  16.785  -5.204  1.00 20.00     0.019 C 
HETATM    7  C4  UNL     1     -33.725  17.746  -4.045  1.00 20.00     0.015 C 
HETATM    8  C5  UNL     1     -34.160  17.248  -6.478  1.00 20.00     0.015 C 
ENDBRANCH   3   6
TORSDOF 1
ENDMDL
MODEL 6
REMARK VINA RESULT:      -3.4      1.999      2.891
REMARK  1 active torsions:
REMARK  status: ('A' for Active; 'I' for Inactive)
REMARK    1  A    between atoms: C3_3  and  C6_6 
ROOT
HETATM    1  C1  UNL     1     -35.007  13.887  -5.536  1.00 20.00     0.131 A 
HETATM    2  C2  UNL     1     -33.855  13.397  -3.736  1.00 20.00     0.166 A 
HETATM    3  C3  UNL     1     -34.486  15.138  -5.278  1.00 20.00     0.005 A 
HETATM    4  N7  UNL     1     -34.646  12.888  -4.654  1.00 20.00    -0.265 NA
HETATM    5  S8  UNL     1     -33.504  15.073  -3.874  1.00 20.00    -0.085 SA
ENDROOT
BRANCH   3   6
HETATM    6  C6  UNL     1     -34.672  16.443  -6.030  1.00 20.00     0.019 C 
HETATM    7  C4  UNL     1     -34.672  16.224  -7.545  1.00 20.00     0.015 C 
HETATM    8  C5  UNL     1     -33.621  17.480  -5.627  1.00 20.00     0.015 C 
ENDBRANCH   3   6
TORSDOF 1
ENDMDL
MODEL 7
REMARK VINA RESULT:      -3.3      2.631      3.684
REMARK  1 active torsions:
REMARK  status: ('A' for Active; 'I' for Inactive)
REMARK    1  A    between atoms: C3_3  and  C6_6 
ROOT
HETATM    1  C1  UNL     1     -33.523  16.955  -5.022  1.00 20.00     0.131 A 
HETATM    2  C2  UNL     1     -33.628  19.138  -4.841  1.00 20.00     0.166 A 
HETATM    3  C3  UNL     1     -33.727  17.040  -3.661  1.00 20.00     0.005 A 
HETATM    4  N7  UNL     1     -33.467  18.157  -5.701  1.00 20.00    -0.265 NA
HETATM    5  S8  UNL     1     -33.851  18.687  -3.200  1.00 20.00    -0.085 SA
ENDROOT
BRANCH   3   6
HETATM    6  C6  UNL     1     -33.839  15.938  -2.624  1.00 20.00     0.019 C 
HETATM    7  C4  UNL     1     -34.419  14.656  -3.227  1.00 20.00     0.015 C 
HETATM    8  C5  UNL     1     -34.654  16.388  -1.409  1.00 20.00     0.015 C 
ENDBRANCH   3   6
TORSDOF 1
ENDMDL
MODEL 8
REMARK VINA RESULT:      -3.3     11.744     12.526
REMARK  1 active torsions:
REMARK  status: ('A' for Active; 'I' for Inactive)
REMARK    1  A    between atoms: C3_3  and  C6_6 
ROOT
HETATM    1  C1  UNL     1     -41.450   4.071  -1.943  1.00 20.00     0.131 A 
HETATM    2  C2  UNL     1     -43.167   3.949  -3.302  1.00 20.00     0.166 A 
HETATM    3  C3  UNL     1     -41.793   5.407  -1.963  1.00 20.00     0.005 A 
HETATM    4  N7  UNL     1     -42.236   3.234  -2.709  1.00 20.00    -0.265 NA
HETATM    5  S8  UNL     1     -43.154   5.636  -2.982  1.00 20.00    -0.085 SA
ENDROOT
BRANCH   3   6
HETATM    6  C6  UNL     1     -41.155   6.585  -1.250  1.00 20.00     0.019 C 
HETATM    7  C4  UNL     1     -40.588   6.179   0.112  1.00 20.00     0.015 C 
HETATM    8  C5  UNL     1     -42.133   7.754  -1.108  1.00 20.00     0.015 C 
ENDBRANCH   3   6
TORSDOF 1
ENDMDL
MODEL 9
REMARK VINA RESULT:      -3.3      2.192      3.724
REMARK  1 active torsions:
REMARK  status: ('A' for Active; 'I' for Inactive)
REMARK    1  A    between atoms: C3_3  and  C6_6 
ROOT
HETATM    1  C1  UNL     1     -33.617  15.705  -4.676  1.00 20.00     0.131 A 
HETATM    2  C2  UNL     1     -34.206  13.983  -3.453  1.00 20.00     0.166 A 
HETATM    3  C3  UNL     1     -34.217  14.948  -5.661  1.00 20.00     0.005 A 
HETATM    4  N7  UNL     1     -33.611  15.154  -3.410  1.00 20.00    -0.265 NA
HETATM    5  S8  UNL     1     -34.797  13.482  -4.985  1.00 20.00    -0.085 SA
ENDROOT
BRANCH   3   6
HETATM    6  C6  UNL     1     -34.398  15.242  -7.138  1.00 20.00     0.019 C 
HETATM    7  C4  UNL     1     -34.587  16.739  -7.394  1.00 20.00     0.015 C 
HETATM    8  C5  UNL     1     -35.555  14.435  -7.735  1.00 20.00     0.015 C 
ENDBRANCH   3   6
TORSDOF 1
ENDMDL
