MODEL 1
REMARK VINA RESULT:      -4.3      0.000      0.000
REMARK  4 active torsions:
REMARK  status: ('A' for Active; 'I' for Inactive)
REMARK    1  A    between atoms: C5_5  and  C6_6 
REMARK    2  A    between atoms: C6_6  and  S10_10 
REMARK    3  A    between atoms: C7_7  and  C8_8 
REMARK    4  A    between atoms: C7_7  and  S10_10 
ROOT
HETATM    1  C1  UNL     1     -34.713  13.749  -4.899  1.00 20.00     0.074 C 
HETATM    2  C7  UNL     1     -34.593  15.156  -5.322  1.00 20.00     0.157 C 
HETATM    3  N9  UNL     1     -34.813  12.643  -4.566  1.00 20.00    -0.196 NA
ENDROOT
BRANCH   2   4
HETATM    4  C8  UNL     1     -34.393  15.315  -6.850  1.00 20.00     0.005 C 
HETATM    5  C3  UNL     1     -34.487  16.790  -7.265  1.00 20.00     0.011 C 
HETATM    6  C4  UNL     1     -35.351  14.483  -7.713  1.00 20.00     0.011 C 
ENDBRANCH   2   4
BRANCH   2   7
HETATM    7  S10 UNL     1     -33.272  15.998  -4.372  1.00 20.00    -0.149 SA
BRANCH   7   8
HETATM    8  C6  UNL     1     -34.331  16.877  -3.204  1.00 20.00     0.075 C 
BRANCH   8   9
HETATM    9  C5  UNL     1     -34.652  15.993  -2.004  1.00 20.00     0.006 C 
HETATM   10  C2  UNL     1     -34.570  16.782  -0.705  1.00 20.00     0.006 C 
ENDBRANCH   8   9
ENDBRANCH   7   8
ENDBRANCH   2   7
TORSDOF 4
ENDMDL
MODEL 2
REMARK VINA RESULT:      -4.1      0.600      1.223
REMARK  4 active torsions:
REMARK  status: ('A' for Active; 'I' for Inactive)
REMARK    1  A    between atoms: C5_5  and  C6_6 
REMARK    2  A    between atoms: C6_6  and  S10_10 
REMARK    3  A    between atoms: C7_7  and  C8_8 
REMARK    4  A    between atoms: C7_7  and  S10_10 
ROOT
HETATM    1  C1  UNL     1     -34.908  13.804  -4.654  1.00 20.00     0.074 C 
HETATM    2  C7  UNL     1     -34.877  15.271  -4.789  1.00 20.00     0.157 C 
HETATM    3  N9  UNL     1     -34.938  12.649  -4.545  1.00 20.00    -0.196 NA
ENDROOT
BRANCH   2   4
HETATM    4  C8  UNL     1     -35.213  15.755  -6.222  1.00 20.00     0.005 C 
HETATM    5  C3  UNL     1     -34.441  14.940  -7.271  1.00 20.00     0.011 C 
HETATM    6  C4  UNL     1     -34.977  17.250  -6.467  1.00 20.00     0.011 C 
ENDBRANCH   2   4
BRANCH   2   7
HETATM    7  S10 UNL     1     -33.270  15.931  -4.207  1.00 20.00    -0.149 SA
BRANCH   7   8
HETATM    8  C6  UNL     1     -33.903  16.991  -2.890  1.00 20.00     0.075 C 
BRANCH   8   9
HETATM    9  C5  UNL     1     -34.651  16.162  -1.851  1.00 20.00     0.006 C 
HETATM   10  C2  UNL     1     -34.637  16.845  -0.491  1.00 20.00     0.006 C 
ENDBRANCH   8   9
ENDBRANCH   7   8
ENDBRANCH   2   7
TORSDOF 4
ENDMDL
MODEL 3
REMARK VINA RESULT:      -4.1     11.399     12.789
REMARK  4 active torsions:
REMARK  status: ('A' for Active; 'I' for Inactive)
REMARK    1  A    between atoms: C5_5  and  C6_6 
REMARK    2  A    between atoms: C6_6  and  S10_10 
REMARK    3  A    between atoms: C7_7  and  C8_8 
REMARK    4  A    between atoms: C7_7  and  S10_10 
ROOT
HETATM    1  C1  UNL     1     -33.662   6.683   5.519  1.00 20.00     0.074 C 
HETATM    2  C7  UNL     1     -33.922   6.388   4.099  1.00 20.00     0.157 C 
HETATM    3  N9  UNL     1     -33.459   6.920   6.637  1.00 20.00    -0.196 NA
ENDROOT
BRANCH   2   4
HETATM    4  C8  UNL     1     -34.907   5.208   3.896  1.00 20.00     0.005 C 
HETATM    5  C3  UNL     1     -36.300   5.719   3.501  1.00 20.00     0.011 C 
HETATM    6  C4  UNL     1     -35.034   4.264   5.098  1.00 20.00     0.011 C 
ENDBRANCH   2   4
BRANCH   2   7
HETATM    7  S10 UNL     1     -32.346   6.121   3.202  1.00 20.00    -0.149 SA
BRANCH   7   8
HETATM    8  C6  UNL     1     -31.850   7.850   3.058  1.00 20.00     0.075 C 
BRANCH   8   9
HETATM    9  C5  UNL     1     -31.905   8.302   1.602  1.00 20.00     0.006 C 
HETATM   10  C2  UNL     1     -32.490   9.702   1.486  1.00 20.00     0.006 C 
ENDBRANCH   8   9
ENDBRANCH   7   8
ENDBRANCH   2   7
TORSDOF 4
ENDMDL
MODEL 4
REMARK VINA RESULT:      -4.1      1.961      4.263
REMARK  4 active torsions:
REMARK  status: ('A' for Active; 'I' for Inactive)
REMARK    1  A    between atoms: C5_5  and  C6_6 
REMARK    2  A    between atoms: C6_6  and  S10_10 
REMARK    3  A    between atoms: C7_7  and  C8_8 
REMARK    4  A    between atoms: C7_7  and  S10_10 
ROOT
HETATM    1  C1  UNL     1     -36.714  14.345  -3.764  1.00 20.00     0.074 C 
HETATM    2  C7  UNL     1     -35.253  14.182  -3.664  1.00 20.00     0.157 C 
HETATM    3  N9  UNL     1     -37.865  14.472  -3.837  1.00 20.00    -0.196 NA
ENDROOT
BRANCH   2   4
HETATM    4  C8  UNL     1     -34.512  15.515  -3.389  1.00 20.00     0.005 C 
HETATM    5  C3  UNL     1     -33.007  15.370  -3.657  1.00 20.00     0.011 C 
HETATM    6  C4  UNL     1     -34.724  16.089  -1.983  1.00 20.00     0.011 C 
ENDBRANCH   2   4
BRANCH   2   7
HETATM    7  S10 UNL     1     -34.602  13.336  -5.154  1.00 20.00    -0.149 SA
BRANCH   7   8
HETATM    8  C6  UNL     1     -35.389  14.384  -6.395  1.00 20.00     0.075 C 
BRANCH   8   9
HETATM    9  C5  UNL     1     -34.338  15.161  -7.181  1.00 20.00     0.006 C 
HETATM   10  C2  UNL     1     -34.481  16.660  -6.955  1.00 20.00     0.006 C 
ENDBRANCH   8   9
ENDBRANCH   7   8
ENDBRANCH   2   7
TORSDOF 4
ENDMDL
MODEL 5
REMARK VINA RESULT:      -4.0      1.898      2.022
REMARK  4 active torsions:
REMARK  status: ('A' for Active; 'I' for Inactive)
REMARK    1  A    between atoms: C5_5  and  C6_6 
REMARK    2  A    between atoms: C6_6  and  S10_10 
REMARK    3  A    between atoms: C7_7  and  C8_8 
REMARK    4  A    between atoms: C7_7  and  S10_10 
ROOT
HETATM    1  C1  UNL     1     -36.903  14.525  -4.185  1.00 20.00     0.074 C 
HETATM    2  C7  UNL     1     -35.587  14.799  -4.789  1.00 20.00     0.157 C 
HETATM    3  N9  UNL     1     -37.940  14.314  -3.709  1.00 20.00    -0.196 NA
ENDROOT
BRANCH   2   4
HETATM    4  C8  UNL     1     -35.564  14.569  -6.321  1.00 20.00     0.005 C 
HETATM    5  C3  UNL     1     -34.294  15.167  -6.946  1.00 20.00     0.011 C 
HETATM    6  C4  UNL     1     -36.795  15.098  -7.068  1.00 20.00     0.011 C 
ENDBRANCH   2   4
BRANCH   2   7
HETATM    7  S10 UNL     1     -34.281  13.838  -3.936  1.00 20.00    -0.149 SA
BRANCH   7   8
HETATM    8  C6  UNL     1     -33.230  15.224  -3.456  1.00 20.00     0.075 C 
BRANCH   8   9
HETATM    9  C5  UNL     1     -34.081  16.417  -3.031  1.00 20.00     0.006 C 
HETATM   10  C2  UNL     1     -34.481  16.309  -1.566  1.00 20.00     0.006 C 
ENDBRANCH   8   9
ENDBRANCH   7   8
ENDBRANCH   2   7
TORSDOF 4
ENDMDL
MODEL 6
REMARK VINA RESULT:      -4.0      1.681      2.075
REMARK  4 active torsions:
REMARK  status: ('A' for Active; 'I' for Inactive)
REMARK    1  A    between atoms: C5_5  and  C6_6 
REMARK    2  A    between atoms: C6_6  and  S10_10 
REMARK    3  A    between atoms: C7_7  and  C8_8 
REMARK    4  A    between atoms: C7_7  and  S10_10 
ROOT
HETATM    1  C1  UNL     1     -36.923  14.886  -4.270  1.00 20.00     0.074 C 
HETATM    2  C7  UNL     1     -35.898  15.656  -4.996  1.00 20.00     0.157 C 
HETATM    3  N9  UNL     1     -37.734  14.280  -3.703  1.00 20.00    -0.196 NA
ENDROOT
BRANCH   2   4
HETATM    4  C8  UNL     1     -34.672  14.799  -5.403  1.00 20.00     0.005 C 
HETATM    5  C3  UNL     1     -34.418  14.888  -6.915  1.00 20.00     0.011 C 
HETATM    6  C4  UNL     1     -34.753  13.324  -4.988  1.00 20.00     0.011 C 
ENDBRANCH   2   4
BRANCH   2   7
HETATM    7  S10 UNL     1     -35.405  17.133  -4.030  1.00 20.00    -0.149 SA
BRANCH   7   8
HETATM    8  C6  UNL     1     -34.162  16.341  -2.988  1.00 20.00     0.075 C 
BRANCH   8   9
HETATM    9  C5  UNL     1     -34.659  16.236  -1.550  1.00 20.00     0.006 C 
HETATM   10  C2  UNL     1     -34.074  17.345  -0.686  1.00 20.00     0.006 C 
ENDBRANCH   8   9
ENDBRANCH   7   8
ENDBRANCH   2   7
TORSDOF 4
ENDMDL
MODEL 7
REMARK VINA RESULT:      -4.0      1.989      4.162
REMARK  4 active torsions:
REMARK  status: ('A' for Active; 'I' for Inactive)
REMARK    1  A    between atoms: C5_5  and  C6_6 
REMARK    2  A    between atoms: C6_6  and  S10_10 
REMARK    3  A    between atoms: C7_7  and  C8_8 
REMARK    4  A    between atoms: C7_7  and  S10_10 
ROOT
HETATM    1  C1  UNL     1     -37.029  14.690  -3.960  1.00 20.00     0.074 C 
HETATM    2  C7  UNL     1     -35.669  15.134  -4.309  1.00 20.00     0.157 C 
HETATM    3  N9  UNL     1     -38.100  14.336  -3.689  1.00 20.00    -0.196 NA
ENDROOT
BRANCH   2   4
HETATM    4  C8  UNL     1     -34.607  14.716  -3.261  1.00 20.00     0.005 C 
HETATM    5  C3  UNL     1     -33.934  15.948  -2.639  1.00 20.00     0.011 C 
HETATM    6  C4  UNL     1     -33.528  13.760  -3.787  1.00 20.00     0.011 C 
ENDBRANCH   2   4
BRANCH   2   7
HETATM    7  S10 UNL     1     -35.646  16.941  -4.616  1.00 20.00    -0.149 SA
BRANCH   7   8
HETATM    8  C6  UNL     1     -35.445  16.883  -6.409  1.00 20.00     0.075 C 
BRANCH   8   9
HETATM    9  C5  UNL     1     -34.322  15.923  -6.789  1.00 20.00     0.006 C 
HETATM   10  C2  UNL     1     -34.819  14.852  -7.751  1.00 20.00     0.006 C 
ENDBRANCH   8   9
ENDBRANCH   7   8
ENDBRANCH   2   7
TORSDOF 4
ENDMDL
MODEL 8
REMARK VINA RESULT:      -4.0      2.088      4.274
REMARK  4 active torsions:
REMARK  status: ('A' for Active; 'I' for Inactive)
REMARK    1  A    between atoms: C5_5  and  C6_6 
REMARK    2  A    between atoms: C6_6  and  S10_10 
REMARK    3  A    between atoms: C7_7  and  C8_8 
REMARK    4  A    between atoms: C7_7  and  S10_10 
ROOT
HETATM    1  C1  UNL     1     -34.693  16.176  -1.828  1.00 20.00     0.074 C 
HETATM    2  C7  UNL     1     -34.757  15.660  -3.207  1.00 20.00     0.157 C 
HETATM    3  N9  UNL     1     -34.648  16.582  -0.742  1.00 20.00    -0.196 NA
ENDROOT
BRANCH   2   4
HETATM    4  C8  UNL     1     -34.426  14.149  -3.305  1.00 20.00     0.005 C 
HETATM    5  C3  UNL     1     -32.956  13.934  -3.693  1.00 20.00     0.011 C 
HETATM    6  C4  UNL     1     -35.325  13.356  -4.261  1.00 20.00     0.011 C 
ENDBRANCH   2   4
BRANCH   2   7
HETATM    7  S10 UNL     1     -33.695  16.663  -4.314  1.00 20.00    -0.149 SA
BRANCH   7   8
HETATM    8  C6  UNL     1     -34.747  16.607  -5.779  1.00 20.00     0.075 C 
BRANCH   8   9
HETATM    9  C5  UNL     1     -34.079  15.797  -6.886  1.00 20.00     0.006 C 
HETATM   10  C2  UNL     1     -35.055  14.803  -7.501  1.00 20.00     0.006 C 
ENDBRANCH   8   9
ENDBRANCH   7   8
ENDBRANCH   2   7
TORSDOF 4
ENDMDL
MODEL 9
REMARK VINA RESULT:      -3.9      1.014      4.291
REMARK  4 active torsions:
REMARK  status: ('A' for Active; 'I' for Inactive)
REMARK    1  A    between atoms: C5_5  and  C6_6 
REMARK    2  A    between atoms: C6_6  and  S10_10 
REMARK    3  A    between atoms: C7_7  and  C8_8 
REMARK    4  A    between atoms: C7_7  and  S10_10 
ROOT
HETATM    1  C1  UNL     1     -34.382  13.756  -3.974  1.00 20.00     0.074 C 
HETATM    2  C7  UNL     1     -33.695  14.948  -3.447  1.00 20.00     0.157 C 
HETATM    3  N9  UNL     1     -34.920  12.814  -4.387  1.00 20.00    -0.196 NA
ENDROOT
BRANCH   2   4
HETATM    4  C8  UNL     1     -34.489  15.656  -2.320  1.00 20.00     0.005 C 
HETATM    5  C3  UNL     1     -35.929  15.949  -2.764  1.00 20.00     0.011 C 
HETATM    6  C4  UNL     1     -33.847  16.947  -1.796  1.00 20.00     0.011 C 
ENDBRANCH   2   4
BRANCH   2   7
HETATM    7  S10 UNL     1     -33.276  16.099  -4.810  1.00 20.00    -0.149 SA
BRANCH   7   8
HETATM    8  C6  UNL     1     -34.764  15.856  -5.802  1.00 20.00     0.075 C 
BRANCH   8   9
HETATM    9  C5  UNL     1     -34.399  15.380  -7.205  1.00 20.00     0.006 C 
HETATM   10  C2  UNL     1     -35.463  14.444  -7.760  1.00 20.00     0.006 C 
ENDBRANCH   8   9
ENDBRANCH   7   8
ENDBRANCH   2   7
TORSDOF 4
ENDMDL
