MODEL 1
REMARK VINA RESULT:      -4.3      0.000      0.000
REMARK  0 active torsions:
REMARK  status: ('A' for Active; 'I' for Inactive)
ROOT
HETATM    1  C1  UNL     1     -35.254   4.276   5.837  1.00 20.00     0.019 A 
HETATM    2  C2  UNL     1     -34.632   5.315   6.612  1.00 20.00     0.031 A 
HETATM    3  C3  UNL     1     -35.115   4.265   4.508  1.00 20.00     0.094 A 
HETATM    4  C4  UNL     1     -33.912   6.275   6.017  1.00 20.00     0.102 A 
HETATM    5  C5  UNL     1     -33.742   6.283   4.526  1.00 20.00     0.268 A 
HETATM    6  C6  UNL     1     -34.267   5.164   2.393  1.00 20.00     0.159 C 
HETATM    7  N7  UNL     1     -34.381   5.234   3.846  1.00 20.00    -0.328 N 
HETATM    8  O8  UNL     1     -33.080   7.167   3.985  1.00 20.00    -0.266 OA
HETATM    9 CL9  UNL     1     -33.158   7.528   6.923  1.00 20.00    -0.078 Cl
ENDROOT
TORSDOF 0
ENDMDL
MODEL 2
REMARK VINA RESULT:      -4.2      2.111      2.952
REMARK  0 active torsions:
REMARK  status: ('A' for Active; 'I' for Inactive)
ROOT
HETATM    1  C1  UNL     1     -35.215   4.350   5.955  1.00 20.00     0.019 A 
HETATM    2  C2  UNL     1     -35.125   4.264   4.522  1.00 20.00     0.031 A 
HETATM    3  C3  UNL     1     -34.612   5.354   6.598  1.00 20.00     0.094 A 
HETATM    4  C4  UNL     1     -34.443   5.179   3.823  1.00 20.00     0.102 A 
HETATM    5  C5  UNL     1     -33.757   6.314   4.523  1.00 20.00     0.268 A 
HETATM    6  C6  UNL     1     -33.260   7.395   6.683  1.00 20.00     0.159 C 
HETATM    7  N7  UNL     1     -33.894   6.325   5.921  1.00 20.00    -0.328 N 
HETATM    8  O8  UNL     1     -33.132   7.153   3.876  1.00 20.00    -0.266 OA
HETATM    9 CL9  UNL     1     -34.322   5.096   2.109  1.00 20.00    -0.078 Cl
ENDROOT
TORSDOF 0
ENDMDL
MODEL 3
REMARK VINA RESULT:      -4.1     10.021     10.898
REMARK  0 active torsions:
REMARK  status: ('A' for Active; 'I' for Inactive)
ROOT
HETATM    1  C1  UNL     1     -40.708   6.040  -0.484  1.00 20.00     0.019 A 
HETATM    2  C2  UNL     1     -40.820   4.724  -1.053  1.00 20.00     0.031 A 
HETATM    3  C3  UNL     1     -41.439   7.043  -0.981  1.00 20.00     0.094 A 
HETATM    4  C4  UNL     1     -41.650   4.489  -2.077  1.00 20.00     0.102 A 
HETATM    5  C5  UNL     1     -42.480   5.599  -2.652  1.00 20.00     0.268 A 
HETATM    6  C6  UNL     1     -43.080   7.987  -2.535  1.00 20.00     0.159 C 
HETATM    7  N7  UNL     1     -42.311   6.851  -2.040  1.00 20.00    -0.328 N 
HETATM    8  O8  UNL     1     -43.241   5.377  -3.593  1.00 20.00    -0.266 OA
HETATM    9 CL9  UNL     1     -41.801   2.923  -2.773  1.00 20.00    -0.078 Cl
ENDROOT
TORSDOF 0
ENDMDL
MODEL 4
REMARK VINA RESULT:      -4.1      9.901     10.738
REMARK  0 active torsions:
REMARK  status: ('A' for Active; 'I' for Inactive)
ROOT
HETATM    1  C1  UNL     1     -40.662   5.862  -0.503  1.00 20.00     0.019 A 
HETATM    2  C2  UNL     1     -41.392   6.998  -0.998  1.00 20.00     0.031 A 
HETATM    3  C3  UNL     1     -40.835   4.664  -1.070  1.00 20.00     0.094 A 
HETATM    4  C4  UNL     1     -42.245   6.872  -2.021  1.00 20.00     0.102 A 
HETATM    5  C5  UNL     1     -42.456   5.537  -2.673  1.00 20.00     0.268 A 
HETATM    6  C6  UNL     1     -41.849   3.148  -2.705  1.00 20.00     0.159 C 
HETATM    7  N7  UNL     1     -41.706   4.481  -2.131  1.00 20.00    -0.328 N 
HETATM    8  O8  UNL     1     -43.242   5.426  -3.613  1.00 20.00    -0.266 OA
HETATM    9 CL9  UNL     1     -43.129   8.216  -2.629  1.00 20.00    -0.078 Cl
ENDROOT
TORSDOF 0
ENDMDL
MODEL 5
REMARK VINA RESULT:      -3.8     12.681     13.593
REMARK  0 active torsions:
REMARK  status: ('A' for Active; 'I' for Inactive)
ROOT
HETATM    1  C1  UNL     1     -34.850  13.291  -4.485  1.00 20.00     0.019 A 
HETATM    2  C2  UNL     1     -34.476  14.123  -3.373  1.00 20.00     0.031 A 
HETATM    3  C3  UNL     1     -34.827  13.790  -5.724  1.00 20.00     0.094 A 
HETATM    4  C4  UNL     1     -34.105  15.395  -3.564  1.00 20.00     0.102 A 
HETATM    5  C5  UNL     1     -34.072  15.977  -4.946  1.00 20.00     0.268 A 
HETATM    6  C6  UNL     1     -34.447  15.582  -7.350  1.00 20.00     0.159 C 
HETATM    7  N7  UNL     1     -34.451  15.099  -5.974  1.00 20.00    -0.328 N 
HETATM    8  O8  UNL     1     -33.730  17.146  -5.115  1.00 20.00    -0.266 OA
HETATM    9 CL9  UNL     1     -33.654  16.408  -2.249  1.00 20.00    -0.078 Cl
ENDROOT
TORSDOF 0
ENDMDL
MODEL 6
REMARK VINA RESULT:      -3.7     12.450     12.780
REMARK  0 active torsions:
REMARK  status: ('A' for Active; 'I' for Inactive)
ROOT
HETATM    1  C1  UNL     1     -34.316  13.634  -4.074  1.00 20.00     0.019 A 
HETATM    2  C2  UNL     1     -33.684  14.661  -3.290  1.00 20.00     0.031 A 
HETATM    3  C3  UNL     1     -35.630  13.697  -4.313  1.00 20.00     0.094 A 
HETATM    4  C4  UNL     1     -34.396  15.681  -2.795  1.00 20.00     0.102 A 
HETATM    5  C5  UNL     1     -35.871  15.771  -3.050  1.00 20.00     0.268 A 
HETATM    6  C6  UNL     1     -37.837  14.740  -4.122  1.00 20.00     0.159 C 
HETATM    7  N7  UNL     1     -36.410  14.731  -3.823  1.00 20.00    -0.328 N 
HETATM    8  O8  UNL     1     -36.521  16.711  -2.593  1.00 20.00    -0.266 OA
HETATM    9 CL9  UNL     1     -33.661  16.920  -1.855  1.00 20.00    -0.078 Cl
ENDROOT
TORSDOF 0
ENDMDL
MODEL 7
REMARK VINA RESULT:      -3.7     12.340     12.834
REMARK  0 active torsions:
REMARK  status: ('A' for Active; 'I' for Inactive)
ROOT
HETATM    1  C1  UNL     1     -35.079  16.753  -2.559  1.00 20.00     0.019 A 
HETATM    2  C2  UNL     1     -33.937  15.887  -2.677  1.00 20.00     0.031 A 
HETATM    3  C3  UNL     1     -36.262  16.360  -3.041  1.00 20.00     0.094 A 
HETATM    4  C4  UNL     1     -34.044  14.689  -3.265  1.00 20.00     0.102 A 
HETATM    5  C5  UNL     1     -35.361  14.227  -3.814  1.00 20.00     0.268 A 
HETATM    6  C6  UNL     1     -37.742  14.762  -4.162  1.00 20.00     0.159 C 
HETATM    7  N7  UNL     1     -36.424  15.131  -3.658  1.00 20.00    -0.328 N 
HETATM    8  O8  UNL     1     -35.454  13.125  -4.353  1.00 20.00    -0.266 OA
HETATM    9 CL9  UNL     1     -32.691  13.636  -3.418  1.00 20.00    -0.078 Cl
ENDROOT
TORSDOF 0
ENDMDL
MODEL 8
REMARK VINA RESULT:      -3.7      1.650      2.795
REMARK  0 active torsions:
REMARK  status: ('A' for Active; 'I' for Inactive)
ROOT
HETATM    1  C1  UNL     1     -34.500   5.158   2.962  1.00 20.00     0.019 A 
HETATM    2  C2  UNL     1     -33.390   6.069   2.874  1.00 20.00     0.031 A 
HETATM    3  C3  UNL     1     -35.044   4.890   4.153  1.00 20.00     0.094 A 
HETATM    4  C4  UNL     1     -32.894   6.653   3.972  1.00 20.00     0.102 A 
HETATM    5  C5  UNL     1     -33.489   6.367   5.319  1.00 20.00     0.268 A 
HETATM    6  C6  UNL     1     -35.208   5.134   6.585  1.00 20.00     0.159 C 
HETATM    7  N7  UNL     1     -34.568   5.468   5.318  1.00 20.00    -0.328 N 
HETATM    8  O8  UNL     1     -33.030   6.907   6.324  1.00 20.00    -0.266 OA
HETATM    9 CL9  UNL     1     -31.568   7.745   3.890  1.00 20.00    -0.078 Cl
ENDROOT
TORSDOF 0
ENDMDL
MODEL 9
REMARK VINA RESULT:      -3.7     13.217     14.183
REMARK  0 active torsions:
REMARK  status: ('A' for Active; 'I' for Inactive)
ROOT
HETATM    1  C1  UNL     1     -33.988  16.328  -2.528  1.00 20.00     0.019 A 
HETATM    2  C2  UNL     1     -34.213  14.990  -3.006  1.00 20.00     0.031 A 
HETATM    3  C3  UNL     1     -33.790  17.320  -3.402  1.00 20.00     0.094 A 
HETATM    4  C4  UNL     1     -34.226  14.725  -4.318  1.00 20.00     0.102 A 
HETATM    5  C5  UNL     1     -34.005  15.822  -5.317  1.00 20.00     0.268 A 
HETATM    6  C6  UNL     1     -33.572  18.223  -5.668  1.00 20.00     0.159 C 
HETATM    7  N7  UNL     1     -33.794  17.097  -4.768  1.00 20.00    -0.328 N 
HETATM    8  O8  UNL     1     -34.019  15.572  -6.521  1.00 20.00    -0.266 OA
HETATM    9 CL9  UNL     1     -34.492  13.132  -4.913  1.00 20.00    -0.078 Cl
ENDROOT
TORSDOF 0
ENDMDL
