MODEL 1
REMARK VINA RESULT:      -4.8      0.000      0.000
REMARK  2 active torsions:
REMARK  status: ('A' for Active; 'I' for Inactive)
REMARK    1  A    between atoms: C3_3  and  C7_7 
REMARK    2  A    between atoms: C7_7  and  C8_8 
ROOT
HETATM    1  C1  UNL     1     -34.062  16.704  -1.453  1.00 20.00     0.012 C 
HETATM    2  C2  UNL     1     -34.759  16.105  -2.225  1.00 20.00    -0.116 C 
HETATM    3  C8  UNL     1     -35.618  15.376  -3.163  1.00 20.00     0.113 C 
ENDROOT
BRANCH   3   4
HETATM    4  C7  UNL     1     -34.812  14.888  -4.397  1.00 20.00     0.058 C 
HETATM    5  C5  UNL     1     -33.730  15.883  -4.923  1.00 20.00     0.021 C 
HETATM    6  C4  UNL     1     -34.183  15.564  -6.358  1.00 20.00     0.003 C 
HETATM    7  C6  UNL     1     -35.521  15.080  -5.775  1.00 20.00     0.021 C 
BRANCH   4   8
HETATM    8  C3  UNL     1     -34.278  13.470  -4.179  1.00 20.00     0.182 C 
HETATM    9  O9  UNL     1     -33.105  13.401  -3.717  1.00 20.00    -0.647 OA
HETATM   10  O10 UNL     1     -35.082  12.546  -4.488  1.00 20.00    -0.647 OA
ENDBRANCH   4   8
ENDBRANCH   3   4
TORSDOF 2
ENDMDL
MODEL 2
REMARK VINA RESULT:      -4.8      0.036      1.024
REMARK  2 active torsions:
REMARK  status: ('A' for Active; 'I' for Inactive)
REMARK    1  A    between atoms: C3_3  and  C7_7 
REMARK    2  A    between atoms: C7_7  and  C8_8 
ROOT
HETATM    1  C1  UNL     1     -34.065  16.724  -1.436  1.00 20.00     0.012 C 
HETATM    2  C2  UNL     1     -34.755  16.122  -2.213  1.00 20.00    -0.116 C 
HETATM    3  C8  UNL     1     -35.606  15.390  -3.156  1.00 20.00     0.113 C 
ENDROOT
BRANCH   3   4
HETATM    4  C7  UNL     1     -34.788  14.900  -4.383  1.00 20.00     0.058 C 
HETATM    5  C5  UNL     1     -33.689  15.888  -4.888  1.00 20.00     0.021 C 
HETATM    6  C4  UNL     1     -34.127  15.582  -6.331  1.00 20.00     0.003 C 
HETATM    7  C6  UNL     1     -35.478  15.109  -5.769  1.00 20.00     0.021 C 
BRANCH   4   8
HETATM    8  C3  UNL     1     -34.273  13.475  -4.167  1.00 20.00     0.182 C 
HETATM    9  O9  UNL     1     -35.077  12.557  -4.489  1.00 20.00    -0.647 OA
HETATM   10  O10 UNL     1     -33.105  13.400  -3.693  1.00 20.00    -0.647 OA
ENDBRANCH   4   8
ENDBRANCH   3   4
TORSDOF 2
ENDMDL
MODEL 3
REMARK VINA RESULT:      -4.7      0.891      3.439
REMARK  2 active torsions:
REMARK  status: ('A' for Active; 'I' for Inactive)
REMARK    1  A    between atoms: C3_3  and  C7_7 
REMARK    2  A    between atoms: C7_7  and  C8_8 
ROOT
HETATM    1  C1  UNL     1     -35.481  14.436  -7.469  1.00 20.00     0.012 C 
HETATM    2  C2  UNL     1     -34.754  14.897  -6.632  1.00 20.00    -0.116 C 
HETATM    3  C8  UNL     1     -33.861  15.465  -5.618  1.00 20.00     0.113 C 
ENDROOT
BRANCH   3   4
HETATM    4  C7  UNL     1     -34.250  14.978  -4.195  1.00 20.00     0.058 C 
HETATM    5  C5  UNL     1     -35.637  15.475  -3.676  1.00 20.00     0.021 C 
HETATM    6  C4  UNL     1     -34.988  15.748  -2.308  1.00 20.00     0.003 C 
HETATM    7  C6  UNL     1     -33.625  15.793  -3.018  1.00 20.00     0.021 C 
BRANCH   4   8
HETATM    8  C3  UNL     1     -34.057  13.466  -4.059  1.00 20.00     0.182 C 
HETATM    9  O9  UNL     1     -35.091  12.771  -4.259  1.00 20.00    -0.647 OA
HETATM   10  O10 UNL     1     -32.883  13.105  -3.764  1.00 20.00    -0.647 OA
ENDBRANCH   4   8
ENDBRANCH   3   4
TORSDOF 2
ENDMDL
MODEL 4
REMARK VINA RESULT:      -4.7      1.168      1.684
REMARK  2 active torsions:
REMARK  status: ('A' for Active; 'I' for Inactive)
REMARK    1  A    between atoms: C3_3  and  C7_7 
REMARK    2  A    between atoms: C7_7  and  C8_8 
ROOT
HETATM    1  C1  UNL     1     -34.570  16.437  -1.470  1.00 20.00     0.012 C 
HETATM    2  C2  UNL     1     -34.174  15.910  -2.473  1.00 20.00    -0.116 C 
HETATM    3  C8  UNL     1     -33.680  15.266  -3.694  1.00 20.00     0.113 C 
ENDROOT
BRANCH   3   4
HETATM    4  C7  UNL     1     -34.843  14.976  -4.683  1.00 20.00     0.058 C 
HETATM    5  C5  UNL     1     -34.443  14.953  -6.192  1.00 20.00     0.021 C 
HETATM    6  C4  UNL     1     -35.720  15.753  -6.507  1.00 20.00     0.003 C 
HETATM    7  C6  UNL     1     -35.739  16.205  -5.037  1.00 20.00     0.021 C 
BRANCH   4   8
HETATM    8  C3  UNL     1     -35.641  13.745  -4.247  1.00 20.00     0.182 C 
HETATM    9  O9  UNL     1     -36.824  13.976  -3.871  1.00 20.00    -0.647 OA
HETATM   10  O10 UNL     1     -35.013  12.652  -4.318  1.00 20.00    -0.647 OA
ENDBRANCH   4   8
ENDBRANCH   3   4
TORSDOF 2
ENDMDL
MODEL 5
REMARK VINA RESULT:      -4.7      0.879      3.286
REMARK  2 active torsions:
REMARK  status: ('A' for Active; 'I' for Inactive)
REMARK    1  A    between atoms: C3_3  and  C7_7 
REMARK    2  A    between atoms: C7_7  and  C8_8 
ROOT
HETATM    1  C1  UNL     1     -35.411  14.495  -7.488  1.00 20.00     0.012 C 
HETATM    2  C2  UNL     1     -34.697  14.939  -6.632  1.00 20.00    -0.116 C 
HETATM    3  C8  UNL     1     -33.821  15.487  -5.592  1.00 20.00     0.113 C 
ENDROOT
BRANCH   3   4
HETATM    4  C7  UNL     1     -34.243  14.988  -4.183  1.00 20.00     0.058 C 
HETATM    5  C5  UNL     1     -35.650  15.467  -3.702  1.00 20.00     0.021 C 
HETATM    6  C4  UNL     1     -35.042  15.740  -2.314  1.00 20.00     0.003 C 
HETATM    7  C6  UNL     1     -33.660  15.804  -2.986  1.00 20.00     0.021 C 
BRANCH   4   8
HETATM    8  C3  UNL     1     -34.037  13.478  -4.050  1.00 20.00     0.182 C 
HETATM    9  O9  UNL     1     -32.862  13.118  -3.758  1.00 20.00    -0.647 OA
HETATM   10  O10 UNL     1     -35.070  12.781  -4.251  1.00 20.00    -0.647 OA
ENDBRANCH   4   8
ENDBRANCH   3   4
TORSDOF 2
ENDMDL
MODEL 6
REMARK VINA RESULT:      -4.7      1.047      2.964
REMARK  2 active torsions:
REMARK  status: ('A' for Active; 'I' for Inactive)
REMARK    1  A    between atoms: C3_3  and  C7_7 
REMARK    2  A    between atoms: C7_7  and  C8_8 
ROOT
HETATM    1  C1  UNL     1     -33.649  18.109  -5.681  1.00 20.00     0.012 C 
HETATM    2  C2  UNL     1     -33.825  16.921  -5.645  1.00 20.00    -0.116 C 
HETATM    3  C8  UNL     1     -34.037  15.472  -5.611  1.00 20.00     0.113 C 
ENDROOT
BRANCH   3   4
HETATM    4  C7  UNL     1     -34.270  14.974  -4.157  1.00 20.00     0.058 C 
HETATM    5  C5  UNL     1     -35.585  15.480  -3.483  1.00 20.00     0.021 C 
HETATM    6  C4  UNL     1     -34.785  15.732  -2.193  1.00 20.00     0.003 C 
HETATM    7  C6  UNL     1     -33.509  15.771  -3.051  1.00 20.00     0.021 C 
BRANCH   4   8
HETATM    8  C3  UNL     1     -34.079  13.459  -4.058  1.00 20.00     0.182 C 
HETATM    9  O9  UNL     1     -35.107  12.769  -4.309  1.00 20.00    -0.647 OA
HETATM   10  O10 UNL     1     -32.915  13.090  -3.738  1.00 20.00    -0.647 OA
ENDBRANCH   4   8
ENDBRANCH   3   4
TORSDOF 2
ENDMDL
MODEL 7
REMARK VINA RESULT:      -4.7      0.725      1.511
REMARK  2 active torsions:
REMARK  status: ('A' for Active; 'I' for Inactive)
REMARK    1  A    between atoms: C3_3  and  C7_7 
REMARK    2  A    between atoms: C7_7  and  C8_8 
ROOT
HETATM    1  C1  UNL     1     -34.699  16.436  -1.307  1.00 20.00     0.012 C 
HETATM    2  C2  UNL     1     -34.121  16.129  -2.313  1.00 20.00    -0.116 C 
HETATM    3  C8  UNL     1     -33.407  15.757  -3.538  1.00 20.00     0.113 C 
ENDROOT
BRANCH   3   4
HETATM    4  C7  UNL     1     -34.304  14.895  -4.469  1.00 20.00     0.058 C 
HETATM    5  C5  UNL     1     -34.213  15.243  -5.989  1.00 20.00     0.021 C 
HETATM    6  C4  UNL     1     -35.744  15.114  -6.073  1.00 20.00     0.003 C 
HETATM    7  C6  UNL     1     -35.798  15.340  -4.553  1.00 20.00     0.021 C 
BRANCH   4   8
HETATM    8  C3  UNL     1     -34.127  13.404  -4.174  1.00 20.00     0.182 C 
HETATM    9  O9  UNL     1     -35.164  12.699  -4.324  1.00 20.00    -0.647 OA
HETATM   10  O10 UNL     1     -32.964  13.067  -3.817  1.00 20.00    -0.647 OA
ENDBRANCH   4   8
ENDBRANCH   3   4
TORSDOF 2
ENDMDL
MODEL 8
REMARK VINA RESULT:      -4.4      1.136      1.967
REMARK  2 active torsions:
REMARK  status: ('A' for Active; 'I' for Inactive)
REMARK    1  A    between atoms: C3_3  and  C7_7 
REMARK    2  A    between atoms: C7_7  and  C8_8 
ROOT
HETATM    1  C1  UNL     1     -38.302  14.762  -4.077  1.00 20.00     0.012 C 
HETATM    2  C2  UNL     1     -37.153  14.941  -3.781  1.00 20.00    -0.116 C 
HETATM    3  C8  UNL     1     -35.752  15.163  -3.409  1.00 20.00     0.113 C 
ENDROOT
BRANCH   3   4
HETATM    4  C7  UNL     1     -34.798  14.802  -4.581  1.00 20.00     0.058 C 
HETATM    5  C5  UNL     1     -33.739  15.892  -4.938  1.00 20.00     0.021 C 
HETATM    6  C4  UNL     1     -34.028  15.635  -6.428  1.00 20.00     0.003 C 
HETATM    7  C6  UNL     1     -35.382  15.035  -6.011  1.00 20.00     0.021 C 
BRANCH   4   8
HETATM    8  C3  UNL     1     -34.195  13.408  -4.389  1.00 20.00     0.182 C 
HETATM    9  O9  UNL     1     -33.115  13.374  -3.736  1.00 20.00    -0.647 OA
HETATM   10  O10 UNL     1     -34.857  12.467  -4.910  1.00 20.00    -0.647 OA
ENDBRANCH   4   8
ENDBRANCH   3   4
TORSDOF 2
ENDMDL
MODEL 9
REMARK VINA RESULT:      -4.2      1.927      2.701
REMARK  2 active torsions:
REMARK  status: ('A' for Active; 'I' for Inactive)
REMARK    1  A    between atoms: C3_3  and  C7_7 
REMARK    2  A    between atoms: C7_7  and  C8_8 
ROOT
HETATM    1  C1  UNL     1     -33.544  17.360  -1.197  1.00 20.00     0.012 C 
HETATM    2  C2  UNL     1     -34.333  16.672  -1.784  1.00 20.00    -0.116 C 
HETATM    3  C8  UNL     1     -35.304  15.834  -2.495  1.00 20.00     0.113 C 
ENDROOT
BRANCH   3   4
HETATM    4  C7  UNL     1     -34.685  15.231  -3.786  1.00 20.00     0.058 C 
HETATM    5  C5  UNL     1     -35.603  14.236  -4.563  1.00 20.00     0.021 C 
HETATM    6  C4  UNL     1     -34.383  13.319  -4.760  1.00 20.00     0.003 C 
HETATM    7  C6  UNL     1     -33.724  14.021  -3.561  1.00 20.00     0.021 C 
BRANCH   4   8
HETATM    8  C3  UNL     1     -34.088  16.327  -4.672  1.00 20.00     0.182 C 
HETATM    9  O9  UNL     1     -34.926  17.115  -5.192  1.00 20.00    -0.647 OA
HETATM   10  O10 UNL     1     -32.829  16.303  -4.771  1.00 20.00    -0.647 OA
ENDBRANCH   4   8
ENDBRANCH   3   4
TORSDOF 2
ENDMDL
