MODEL 1
REMARK VINA RESULT:      -4.2      0.000      0.000
REMARK  0 active torsions:
REMARK  status: ('A' for Active; 'I' for Inactive)
ROOT
HETATM    1  C1  UNL     1     -32.570   7.231   2.881  1.00 20.00     0.125 C 
HETATM    2  C2  UNL     1     -33.609   6.271   5.001  1.00 20.00     0.074 A 
HETATM    3  C3  UNL     1     -34.961   4.881   3.898  1.00 20.00     0.167 A 
HETATM    4  C4  UNL     1     -33.425   6.405   3.644  1.00 20.00     0.156 A 
HETATM    5  C5  UNL     1     -34.607   5.281   5.166  1.00 20.00     0.059 A 
HETATM    6  N6  UNL     1     -31.866   7.910   2.255  1.00 20.00    -0.189 NA
HETATM    7  O7  UNL     1     -34.245   5.561   2.965  1.00 20.00    -0.310 OA
HETATM    8 CL8  UNL     1     -35.220   4.724   6.642  1.00 20.00    -0.082 Cl
ENDROOT
TORSDOF 0
ENDMDL
MODEL 2
REMARK VINA RESULT:      -3.7     12.008     12.570
REMARK  0 active torsions:
REMARK  status: ('A' for Active; 'I' for Inactive)
ROOT
HETATM    1  C1  UNL     1     -34.574  13.734  -4.320  1.00 20.00     0.125 C 
HETATM    2  C2  UNL     1     -34.334  15.512  -2.510  1.00 20.00     0.074 A 
HETATM    3  C3  UNL     1     -33.601  17.077  -3.922  1.00 20.00     0.167 A 
HETATM    4  C4  UNL     1     -34.270  15.007  -3.788  1.00 20.00     0.156 A 
HETATM    5  C5  UNL     1     -33.900  16.857  -2.597  1.00 20.00     0.059 A 
HETATM    6  N6  UNL     1     -34.825  12.688  -4.757  1.00 20.00    -0.189 NA
HETATM    7  O7  UNL     1     -33.824  15.954  -4.655  1.00 20.00    -0.310 OA
HETATM    8 CL8  UNL     1     -33.783  17.949  -1.308  1.00 20.00    -0.082 Cl
ENDROOT
TORSDOF 0
ENDMDL
MODEL 3
REMARK VINA RESULT:      -3.5     12.144     12.588
REMARK  0 active torsions:
REMARK  status: ('A' for Active; 'I' for Inactive)
ROOT
HETATM    1  C1  UNL     1     -34.585  15.940  -2.053  1.00 20.00     0.125 C 
HETATM    2  C2  UNL     1     -34.517  15.856  -4.600  1.00 20.00     0.074 A 
HETATM    3  C3  UNL     1     -34.378  13.631  -4.681  1.00 20.00     0.167 A 
HETATM    4  C4  UNL     1     -34.516  15.334  -3.327  1.00 20.00     0.156 A 
HETATM    5  C5  UNL     1     -34.428  14.751  -5.479  1.00 20.00     0.059 A 
HETATM    6  N6  UNL     1     -34.642  16.439  -1.007  1.00 20.00    -0.189 NA
HETATM    7  O7  UNL     1     -34.431  13.978  -3.368  1.00 20.00    -0.310 OA
HETATM    8 CL8  UNL     1     -34.390  14.826  -7.170  1.00 20.00    -0.082 Cl
ENDROOT
TORSDOF 0
ENDMDL
MODEL 4
REMARK VINA RESULT:      -3.5     11.742     12.178
REMARK  0 active torsions:
REMARK  status: ('A' for Active; 'I' for Inactive)
ROOT
HETATM    1  C1  UNL     1     -34.778  13.649  -4.158  1.00 20.00     0.125 C 
HETATM    2  C2  UNL     1     -35.824  15.623  -2.931  1.00 20.00     0.074 A 
HETATM    3  C3  UNL     1     -33.860  16.478  -2.304  1.00 20.00     0.167 A 
HETATM    4  C4  UNL     1     -34.794  14.838  -3.394  1.00 20.00     0.156 A 
HETATM    5  C5  UNL     1     -35.218  16.688  -2.223  1.00 20.00     0.059 A 
HETATM    6  N6  UNL     1     -34.765  12.673  -4.786  1.00 20.00    -0.189 NA
HETATM    7  O7  UNL     1     -33.594  15.352  -3.017  1.00 20.00    -0.310 OA
HETATM    8 CL8  UNL     1     -36.030  17.952  -1.442  1.00 20.00    -0.082 Cl
ENDROOT
TORSDOF 0
ENDMDL
MODEL 5
REMARK VINA RESULT:      -3.5     12.019     12.669
REMARK  0 active torsions:
REMARK  status: ('A' for Active; 'I' for Inactive)
ROOT
HETATM    1  C1  UNL     1     -35.592  13.595  -4.276  1.00 20.00     0.125 C 
HETATM    2  C2  UNL     1     -36.505  15.912  -3.733  1.00 20.00     0.074 A 
HETATM    3  C3  UNL     1     -38.612  15.206  -3.524  1.00 20.00     0.167 A 
HETATM    4  C4  UNL     1     -36.577  14.556  -3.956  1.00 20.00     0.156 A 
HETATM    5  C5  UNL     1     -37.827  16.334  -3.452  1.00 20.00     0.059 A 
HETATM    6  N6  UNL     1     -34.782  12.806  -4.539  1.00 20.00    -0.189 NA
HETATM    7  O7  UNL     1     -37.857  14.118  -3.831  1.00 20.00    -0.310 OA
HETATM    8 CL8  UNL     1     -38.311  17.918  -3.103  1.00 20.00    -0.082 Cl
ENDROOT
TORSDOF 0
ENDMDL
MODEL 6
REMARK VINA RESULT:      -3.5     12.197     12.634
REMARK  0 active torsions:
REMARK  status: ('A' for Active; 'I' for Inactive)
ROOT
HETATM    1  C1  UNL     1     -34.594  16.615  -1.081  1.00 20.00     0.125 C 
HETATM    2  C2  UNL     1     -34.844  15.085  -3.104  1.00 20.00     0.074 A 
HETATM    3  C3  UNL     1     -33.456  16.281  -4.378  1.00 20.00     0.167 A 
HETATM    4  C4  UNL     1     -34.364  16.166  -2.401  1.00 20.00     0.156 A 
HETATM    5  C5  UNL     1     -34.253  15.160  -4.388  1.00 20.00     0.059 A 
HETATM    6  N6  UNL     1     -34.783  16.983   0.004  1.00 20.00    -0.189 NA
HETATM    7  O7  UNL     1     -33.518  16.899  -3.170  1.00 20.00    -0.310 OA
HETATM    8 CL8  UNL     1     -34.502  14.071  -5.661  1.00 20.00    -0.082 Cl
ENDROOT
TORSDOF 0
ENDMDL
MODEL 7
REMARK VINA RESULT:      -3.5      3.272      3.812
REMARK  0 active torsions:
REMARK  status: ('A' for Active; 'I' for Inactive)
ROOT
HETATM    1  C1  UNL     1     -34.862   4.886   5.786  1.00 20.00     0.125 C 
HETATM    2  C2  UNL     1     -33.293   6.494   4.583  1.00 20.00     0.074 A 
HETATM    3  C3  UNL     1     -33.822   5.739   2.551  1.00 20.00     0.167 A 
HETATM    4  C4  UNL     1     -34.224   5.486   4.678  1.00 20.00     0.156 A 
HETATM    5  C5  UNL     1     -33.032   6.659   3.202  1.00 20.00     0.059 A 
HETATM    6  N6  UNL     1     -35.387   4.394   6.698  1.00 20.00    -0.189 NA
HETATM    7  O7  UNL     1     -34.552   5.020   3.444  1.00 20.00    -0.310 OA
HETATM    8 CL8  UNL     1     -31.956   7.774   2.520  1.00 20.00    -0.082 Cl
ENDROOT
TORSDOF 0
ENDMDL
MODEL 8
REMARK VINA RESULT:      -3.5     12.051     12.429
REMARK  0 active torsions:
REMARK  status: ('A' for Active; 'I' for Inactive)
ROOT
HETATM    1  C1  UNL     1     -37.536  14.547  -3.907  1.00 20.00     0.125 C 
HETATM    2  C2  UNL     1     -35.064  14.731  -3.315  1.00 20.00     0.074 A 
HETATM    3  C3  UNL     1     -34.371  14.267  -5.384  1.00 20.00     0.167 A 
HETATM    4  C4  UNL     1     -36.143  14.519  -4.141  1.00 20.00     0.156 A 
HETATM    5  C5  UNL     1     -33.913  14.567  -4.122  1.00 20.00     0.059 A 
HETATM    6  N6  UNL     1     -38.681  14.570  -3.713  1.00 20.00    -0.189 NA
HETATM    7  O7  UNL     1     -35.730  14.236  -5.404  1.00 20.00    -0.310 OA
HETATM    8 CL8  UNL     1     -32.308  14.716  -3.606  1.00 20.00    -0.082 Cl
ENDROOT
TORSDOF 0
ENDMDL
MODEL 9
REMARK VINA RESULT:      -3.5     10.113     10.738
REMARK  0 active torsions:
REMARK  status: ('A' for Active; 'I' for Inactive)
ROOT
HETATM    1  C1  UNL     1     -41.900   2.386  -3.043  1.00 20.00     0.125 C 
HETATM    2  C2  UNL     1     -41.051   4.264  -1.543  1.00 20.00     0.074 A 
HETATM    3  C3  UNL     1     -42.429   5.791  -2.407  1.00 20.00     0.167 A 
HETATM    4  C4  UNL     1     -41.832   3.698  -2.524  1.00 20.00     0.156 A 
HETATM    5  C5  UNL     1     -41.440   5.623  -1.466  1.00 20.00     0.059 A 
HETATM    6  N6  UNL     1     -41.955   1.307  -3.469  1.00 20.00    -0.189 NA
HETATM    7  O7  UNL     1     -42.675   4.622  -3.056  1.00 20.00    -0.310 OA
HETATM    8 CL8  UNL     1     -40.793   6.783  -0.417  1.00 20.00    -0.082 Cl
ENDROOT
TORSDOF 0
ENDMDL
