MODEL 1
REMARK VINA RESULT:      -4.4      0.000      0.000
REMARK  1 active torsions:
REMARK  status: ('A' for Active; 'I' for Inactive)
REMARK    1  A    between atoms: C4_4  and  C5_5 
ROOT
HETATM    1  C3  UNL     1     -33.896  15.778  -5.129  1.00 20.00     0.116 C 
HETATM    2  C5  UNL     1     -34.952  16.366  -2.797  1.00 20.00     0.286 C 
HETATM    3  C6  UNL     1     -34.280  14.564  -4.273  1.00 20.00     0.160 C 
HETATM    4  C7  UNL     1     -34.968  13.506  -5.150  1.00 20.00     0.049 C 
HETATM    5  C8  UNL     1     -33.052  13.915  -3.610  1.00 20.00     0.049 C 
HETATM    6  N9  UNL     1     -35.263  15.018  -3.276  1.00 20.00     0.107 N 
HETATM    7  S10 UNL     1     -33.836  17.167  -3.975  1.00 20.00    -0.131 SA
HETATM    8  H25 UNL     1     -35.224  14.372  -2.475  1.00 20.00     0.318 HD
ENDROOT
BRANCH   2   9
HETATM    9  C4  UNL     1     -34.362  16.373  -1.419  1.00 20.00     0.029 A 
HETATM   10  C1  UNL     1     -33.657  17.597  -0.904  1.00 20.00     0.008 A 
HETATM   11  C2  UNL     1     -34.990  17.200  -0.332  1.00 20.00     0.008 A 
ENDBRANCH   2   9
TORSDOF 1
ENDMDL
MODEL 2
REMARK VINA RESULT:      -4.2      1.119      1.155
REMARK  1 active torsions:
REMARK  status: ('A' for Active; 'I' for Inactive)
REMARK    1  A    between atoms: C4_4  and  C5_5 
ROOT
HETATM    1  C3  UNL     1     -34.953  16.309  -4.654  1.00 20.00     0.116 C 
HETATM    2  C5  UNL     1     -35.387  16.921  -2.137  1.00 20.00     0.286 C 
HETATM    3  C6  UNL     1     -35.456  15.147  -3.787  1.00 20.00     0.160 C 
HETATM    4  C7  UNL     1     -36.530  14.356  -4.550  1.00 20.00     0.049 C 
HETATM    5  C8  UNL     1     -34.322  14.178  -3.409  1.00 20.00     0.049 C 
HETATM    6  N9  UNL     1     -36.099  15.728  -2.597  1.00 20.00     0.107 N 
HETATM    7  S10 UNL     1     -34.346  17.542  -3.481  1.00 20.00    -0.131 SA
HETATM    8  H25 UNL     1     -36.071  15.024  -1.847  1.00 20.00     0.318 HD
ENDROOT
BRANCH   2   9
HETATM    9  C4  UNL     1     -34.570  16.674  -0.905  1.00 20.00     0.029 A 
HETATM   10  C1  UNL     1     -33.691  17.760  -0.349  1.00 20.00     0.008 A 
HETATM   11  C2  UNL     1     -34.932  17.345   0.390  1.00 20.00     0.008 A 
ENDBRANCH   2   9
TORSDOF 1
ENDMDL
MODEL 3
REMARK VINA RESULT:      -4.1      1.835      2.462
REMARK  1 active torsions:
REMARK  status: ('A' for Active; 'I' for Inactive)
REMARK    1  A    between atoms: C4_4  and  C5_5 
ROOT
HETATM    1  C3  UNL     1     -34.469  13.681  -5.167  1.00 20.00     0.116 C 
HETATM    2  C5  UNL     1     -33.581  15.730  -3.785  1.00 20.00     0.286 C 
HETATM    3  C6  UNL     1     -34.755  15.052  -5.795  1.00 20.00     0.160 C 
HETATM    4  C7  UNL     1     -34.472  15.002  -7.304  1.00 20.00     0.049 C 
HETATM    5  C8  UNL     1     -36.217  15.485  -5.592  1.00 20.00     0.049 C 
HETATM    6  N9  UNL     1     -33.812  16.015  -5.201  1.00 20.00     0.107 N 
HETATM    7  S10 UNL     1     -34.085  14.027  -3.436  1.00 20.00    -0.131 SA
HETATM    8  H25 UNL     1     -34.227  16.954  -5.280  1.00 20.00     0.318 HD
ENDROOT
BRANCH   2   9
HETATM    9  C4  UNL     1     -34.287  16.688  -2.874  1.00 20.00     0.029 A 
HETATM   10  C1  UNL     1     -34.752  16.240  -1.516  1.00 20.00     0.008 A 
HETATM   11  C2  UNL     1     -33.603  17.201  -1.638  1.00 20.00     0.008 A 
ENDBRANCH   2   9
TORSDOF 1
ENDMDL
MODEL 4
REMARK VINA RESULT:      -3.9      1.350      1.514
REMARK  1 active torsions:
REMARK  status: ('A' for Active; 'I' for Inactive)
REMARK    1  A    between atoms: C4_4  and  C5_5 
ROOT
HETATM    1  C3  UNL     1     -35.780  16.595  -5.142  1.00 20.00     0.116 C 
HETATM    2  C5  UNL     1     -35.315  15.883  -2.656  1.00 20.00     0.286 C 
HETATM    3  C6  UNL     1     -34.593  15.639  -4.957  1.00 20.00     0.160 C 
HETATM    4  C7  UNL     1     -34.628  14.551  -6.043  1.00 20.00     0.049 C 
HETATM    5  C8  UNL     1     -33.244  16.372  -5.053  1.00 20.00     0.049 C 
HETATM    6  N9  UNL     1     -34.761  14.970  -3.657  1.00 20.00     0.107 N 
HETATM    7  S10 UNL     1     -36.085  17.287  -3.501  1.00 20.00    -0.131 SA
HETATM    8  H25 UNL     1     -33.833  14.663  -3.336  1.00 20.00     0.318 HD
ENDROOT
BRANCH   2   9
HETATM    9  C4  UNL     1     -34.293  16.357  -1.668  1.00 20.00     0.029 A 
HETATM   10  C1  UNL     1     -34.138  17.824  -1.382  1.00 20.00     0.008 A 
HETATM   11  C2  UNL     1     -34.725  16.913  -0.340  1.00 20.00     0.008 A 
ENDBRANCH   2   9
TORSDOF 1
ENDMDL
MODEL 5
REMARK VINA RESULT:      -3.9      2.247      4.557
REMARK  1 active torsions:
REMARK  status: ('A' for Active; 'I' for Inactive)
REMARK    1  A    between atoms: C4_4  and  C5_5 
ROOT
HETATM    1  C3  UNL     1     -34.135  14.006  -3.417  1.00 20.00     0.116 C 
HETATM    2  C5  UNL     1     -35.947  14.697  -5.189  1.00 20.00     0.286 C 
HETATM    3  C6  UNL     1     -34.462  15.506  -3.452  1.00 20.00     0.160 C 
HETATM    4  C7  UNL     1     -34.588  16.044  -2.019  1.00 20.00     0.049 C 
HETATM    5  C8  UNL     1     -33.371  16.315  -4.177  1.00 20.00     0.049 C 
HETATM    6  N9  UNL     1     -35.776  15.657  -4.099  1.00 20.00     0.107 N 
HETATM    7  S10 UNL     1     -34.750  13.355  -4.986  1.00 20.00    -0.131 SA
HETATM    8  H25 UNL     1     -35.827  16.607  -4.492  1.00 20.00     0.318 HD
ENDROOT
BRANCH   2   9
HETATM    9  C4  UNL     1     -35.814  15.323  -6.544  1.00 20.00     0.029 A 
HETATM   10  C1  UNL     1     -35.498  14.474  -7.744  1.00 20.00     0.008 A 
HETATM   11  C2  UNL     1     -36.864  15.084  -7.594  1.00 20.00     0.008 A 
ENDBRANCH   2   9
TORSDOF 1
ENDMDL
MODEL 6
REMARK VINA RESULT:      -3.8      1.517      4.153
REMARK  1 active torsions:
REMARK  status: ('A' for Active; 'I' for Inactive)
REMARK    1  A    between atoms: C4_4  and  C5_5 
ROOT
HETATM    1  C3  UNL     1     -35.582  18.072  -2.573  1.00 20.00     0.116 C 
HETATM    2  C5  UNL     1     -34.477  16.004  -3.758  1.00 20.00     0.286 C 
HETATM    3  C6  UNL     1     -34.313  17.541  -1.890  1.00 20.00     0.160 C 
HETATM    4  C7  UNL     1     -33.417  18.717  -1.471  1.00 20.00     0.049 C 
HETATM    5  C8  UNL     1     -34.639  16.712  -0.636  1.00 20.00     0.049 C 
HETATM    6  N9  UNL     1     -33.570  16.754  -2.889  1.00 20.00     0.107 N 
HETATM    7  S10 UNL     1     -36.132  16.730  -3.650  1.00 20.00    -0.131 SA
HETATM    8  H25 UNL     1     -32.976  16.082  -2.383  1.00 20.00     0.318 HD
ENDROOT
BRANCH   2   9
HETATM    9  C4  UNL     1     -34.520  14.541  -3.434  1.00 20.00     0.029 A 
HETATM   10  C1  UNL     1     -35.506  13.641  -4.125  1.00 20.00     0.008 A 
HETATM   11  C2  UNL     1     -34.040  13.530  -4.438  1.00 20.00     0.008 A 
ENDBRANCH   2   9
TORSDOF 1
ENDMDL
MODEL 7
REMARK VINA RESULT:      -3.7      1.264      4.135
REMARK  1 active torsions:
REMARK  status: ('A' for Active; 'I' for Inactive)
REMARK    1  A    between atoms: C4_4  and  C5_5 
ROOT
HETATM    1  C3  UNL     1     -33.683  18.143  -3.427  1.00 20.00     0.116 C 
HETATM    2  C5  UNL     1     -33.674  15.591  -4.052  1.00 20.00     0.286 C 
HETATM    3  C6  UNL     1     -34.207  17.209  -2.327  1.00 20.00     0.160 C 
HETATM    4  C7  UNL     1     -33.637  17.638  -0.966  1.00 20.00     0.049 C 
HETATM    5  C8  UNL     1     -35.743  17.233  -2.236  1.00 20.00     0.049 C 
HETATM    6  N9  UNL     1     -33.697  15.858  -2.613  1.00 20.00     0.107 N 
HETATM    7  S10 UNL     1     -33.749  17.164  -4.944  1.00 20.00    -0.131 SA
HETATM    8  H25 UNL     1     -34.330  15.180  -2.168  1.00 20.00     0.318 HD
ENDROOT
BRANCH   2   9
HETATM    9  C4  UNL     1     -34.777  14.679  -4.495  1.00 20.00     0.029 A 
HETATM   10  C1  UNL     1     -34.856  14.224  -5.925  1.00 20.00     0.008 A 
HETATM   11  C2  UNL     1     -34.480  13.247  -4.846  1.00 20.00     0.008 A 
ENDBRANCH   2   9
TORSDOF 1
ENDMDL
MODEL 8
REMARK VINA RESULT:      -3.7     12.882     14.197
REMARK  1 active torsions:
REMARK  status: ('A' for Active; 'I' for Inactive)
REMARK    1  A    between atoms: C4_4  and  C5_5 
ROOT
HETATM    1  C3  UNL     1     -43.417   2.584  -1.483  1.00 20.00     0.116 C 
HETATM    2  C5  UNL     1     -41.621   4.467  -1.124  1.00 20.00     0.286 C 
HETATM    3  C6  UNL     1     -42.521   2.858  -2.699  1.00 20.00     0.160 C 
HETATM    4  C7  UNL     1     -42.080   1.528  -3.330  1.00 20.00     0.049 C 
HETATM    5  C8  UNL     1     -43.246   3.685  -3.774  1.00 20.00     0.049 C 
HETATM    6  N9  UNL     1     -41.309   3.538  -2.211  1.00 20.00     0.107 N 
HETATM    7  S10 UNL     1     -43.237   4.040  -0.429  1.00 20.00    -0.131 SA
HETATM    8  H25 UNL     1     -40.911   4.076  -2.993  1.00 20.00     0.318 HD
ENDROOT
BRANCH   2   9
HETATM    9  C4  UNL     1     -41.594   5.902  -1.557  1.00 20.00     0.029 A 
HETATM   10  C1  UNL     1     -42.399   6.932  -0.815  1.00 20.00     0.008 A 
HETATM   11  C2  UNL     1     -40.899   6.934  -0.713  1.00 20.00     0.008 A 
ENDBRANCH   2   9
TORSDOF 1
ENDMDL
MODEL 9
REMARK VINA RESULT:      -3.6     13.081     14.856
REMARK  1 active torsions:
REMARK  status: ('A' for Active; 'I' for Inactive)
REMARK    1  A    between atoms: C4_4  and  C5_5 
ROOT
HETATM    1  C3  UNL     1     -42.589   5.936  -1.675  1.00 20.00     0.116 C 
HETATM    2  C5  UNL     1     -41.886   3.646  -2.753  1.00 20.00     0.286 C 
HETATM    3  C6  UNL     1     -41.784   5.010  -0.752  1.00 20.00     0.160 C 
HETATM    4  C7  UNL     1     -40.724   5.826   0.006  1.00 20.00     0.049 C 
HETATM    5  C8  UNL     1     -42.681   4.307   0.282  1.00 20.00     0.049 C 
HETATM    6  N9  UNL     1     -41.071   4.045  -1.605  1.00 20.00     0.107 N 
HETATM    7  S10 UNL     1     -43.201   4.865  -2.995  1.00 20.00    -0.131 SA
HETATM    8  H25 UNL     1     -40.875   3.208  -1.039  1.00 20.00     0.318 HD
ENDROOT
BRANCH   2   9
HETATM    9  C4  UNL     1     -42.461   2.269  -2.609  1.00 20.00     0.029 A 
HETATM   10  C1  UNL     1     -43.417   1.736  -3.639  1.00 20.00     0.008 A 
HETATM   11  C2  UNL     1     -42.029   1.168  -3.537  1.00 20.00     0.008 A 
ENDBRANCH   2   9
TORSDOF 1
ENDMDL
