MODEL 1
REMARK VINA RESULT:      -4.1      0.000      0.000
REMARK  1 active torsions:
REMARK  status: ('A' for Active; 'I' for Inactive)
REMARK    1  A    between atoms: C3_3  and  C7_7 
ROOT
HETATM    1  C1  UNL     1     -33.702  13.746  -4.066  1.00 20.00     0.284 C 
HETATM    2  C2  UNL     1     -35.713  15.861  -3.401  1.00 20.00     0.109 C 
HETATM    3  C3  UNL     1     -34.459  15.523  -2.589  1.00 20.00     0.229 C 
HETATM    4  C4  UNL     1     -34.854  13.829  -5.076  1.00 20.00     0.071 C 
HETATM    5  C5  UNL     1     -34.525  14.709  -6.281  1.00 20.00     0.023 C 
HETATM    6  N8  UNL     1     -33.369  15.024  -3.435  1.00 20.00     0.089 N 
HETATM    7  S9  UNL     1     -36.384  14.405  -4.259  1.00 20.00    -0.161 SA
HETATM    8  H24 UNL     1     -32.532  14.899  -2.866  1.00 20.00     0.316 HD
ENDROOT
BRANCH   3   9
HETATM    9  C7  UNL     1     -33.965  16.777  -1.861  1.00 20.00     0.032 C 
HETATM   10  C6  UNL     1     -34.606  16.922  -0.522  1.00 20.00     0.007 C 
ENDBRANCH   3   9
TORSDOF 1
ENDMDL
MODEL 2
REMARK VINA RESULT:      -3.9      1.687      2.160
REMARK  1 active torsions:
REMARK  status: ('A' for Active; 'I' for Inactive)
REMARK    1  A    between atoms: C3_3  and  C7_7 
ROOT
HETATM    1  C1  UNL     1     -36.355  15.398  -3.994  1.00 20.00     0.284 C 
HETATM    2  C2  UNL     1     -33.586  15.970  -3.015  1.00 20.00     0.109 C 
HETATM    3  C3  UNL     1     -34.888  16.455  -2.369  1.00 20.00     0.229 C 
HETATM    4  C4  UNL     1     -35.260  14.777  -4.870  1.00 20.00     0.071 C 
HETATM    5  C5  UNL     1     -34.949  13.329  -4.497  1.00 20.00     0.023 C 
HETATM    6  N8  UNL     1     -35.994  15.513  -2.581  1.00 20.00     0.089 N 
HETATM    7  S9  UNL     1     -33.742  15.794  -4.817  1.00 20.00    -0.161 SA
HETATM    8  H24 UNL     1     -36.810  15.832  -2.060  1.00 20.00     0.316 HD
ENDROOT
BRANCH   3   9
HETATM    9  C7  UNL     1     -34.682  16.620  -0.860  1.00 20.00     0.032 C 
HETATM   10  C6  UNL     1     -33.712  17.712  -0.556  1.00 20.00     0.007 C 
ENDBRANCH   3   9
TORSDOF 1
ENDMDL
MODEL 3
REMARK VINA RESULT:      -3.8     11.652     12.463
REMARK  1 active torsions:
REMARK  status: ('A' for Active; 'I' for Inactive)
REMARK    1  A    between atoms: C3_3  and  C7_7 
ROOT
HETATM    1  C1  UNL     1     -34.170   6.422   5.997  1.00 20.00     0.284 C 
HETATM    2  C2  UNL     1     -34.044   5.531   3.143  1.00 20.00     0.109 C 
HETATM    3  C3  UNL     1     -33.308   6.731   3.745  1.00 20.00     0.229 C 
HETATM    4  C4  UNL     1     -35.033   5.188   5.708  1.00 20.00     0.071 C 
HETATM    5  C5  UNL     1     -34.313   3.875   6.011  1.00 20.00     0.023 C 
HETATM    6  N8  UNL     1     -32.975   6.524   5.159  1.00 20.00     0.089 N 
HETATM    7  S9  UNL     1     -35.627   5.211   3.980  1.00 20.00    -0.161 SA
HETATM    8  H24 UNL     1     -32.409   7.306   5.489  1.00 20.00     0.316 HD
ENDROOT
BRANCH   3   9
HETATM    9  C7  UNL     1     -32.005   6.972   2.976  1.00 20.00     0.032 C 
HETATM   10  C6  UNL     1     -32.100   8.178   2.103  1.00 20.00     0.007 C 
ENDBRANCH   3   9
TORSDOF 1
ENDMDL
MODEL 4
REMARK VINA RESULT:      -3.7      2.124      3.043
REMARK  1 active torsions:
REMARK  status: ('A' for Active; 'I' for Inactive)
REMARK    1  A    between atoms: C3_3  and  C7_7 
ROOT
HETATM    1  C1  UNL     1     -32.886  14.932  -3.717  1.00 20.00     0.284 C 
HETATM    2  C2  UNL     1     -35.272  16.516  -4.586  1.00 20.00     0.109 C 
HETATM    3  C3  UNL     1     -33.815  16.985  -4.632  1.00 20.00     0.229 C 
HETATM    4  C4  UNL     1     -34.212  14.184  -3.534  1.00 20.00     0.071 C 
HETATM    5  C5  UNL     1     -34.550  13.276  -4.716  1.00 20.00     0.023 C 
HETATM    6  N8  UNL     1     -32.881  15.871  -4.839  1.00 20.00     0.089 N 
HETATM    7  S9  UNL     1     -35.574  15.359  -3.216  1.00 20.00    -0.161 SA
HETATM    8  H24 UNL     1     -31.938  16.241  -4.953  1.00 20.00     0.316 HD
ENDROOT
BRANCH   3   9
HETATM    9  C7  UNL     1     -33.632  17.983  -5.779  1.00 20.00     0.032 C 
HETATM   10  C6  UNL     1     -34.359  17.545  -7.007  1.00 20.00     0.007 C 
ENDBRANCH   3   9
TORSDOF 1
ENDMDL
MODEL 5
REMARK VINA RESULT:      -3.7      1.454      1.780
REMARK  1 active torsions:
REMARK  status: ('A' for Active; 'I' for Inactive)
REMARK    1  A    between atoms: C3_3  and  C7_7 
ROOT
HETATM    1  C1  UNL     1     -33.843  15.985  -5.879  1.00 20.00     0.284 C 
HETATM    2  C2  UNL     1     -34.458  14.696  -3.249  1.00 20.00     0.109 C 
HETATM    3  C3  UNL     1     -33.592  15.942  -3.461  1.00 20.00     0.229 C 
HETATM    4  C4  UNL     1     -34.732  14.742  -6.005  1.00 20.00     0.071 C 
HETATM    5  C5  UNL     1     -36.222  15.079  -6.038  1.00 20.00     0.023 C 
HETATM    6  N8  UNL     1     -34.021  16.722  -4.628  1.00 20.00     0.089 N 
HETATM    7  S9  UNL     1     -34.371  13.556  -4.663  1.00 20.00    -0.161 SA
HETATM    8  H24 UNL     1     -33.477  17.583  -4.674  1.00 20.00     0.316 HD
ENDROOT
BRANCH   3   9
HETATM    9  C7  UNL     1     -33.677  16.842  -2.225  1.00 20.00     0.032 C 
HETATM   10  C6  UNL     1     -34.728  16.371  -1.276  1.00 20.00     0.007 C 
ENDBRANCH   3   9
TORSDOF 1
ENDMDL
MODEL 6
REMARK VINA RESULT:      -3.7      1.613      1.794
REMARK  1 active torsions:
REMARK  status: ('A' for Active; 'I' for Inactive)
REMARK    1  A    between atoms: C3_3  and  C7_7 
ROOT
HETATM    1  C1  UNL     1     -33.252  16.569  -4.987  1.00 20.00     0.284 C 
HETATM    2  C2  UNL     1     -35.077  14.779  -3.431  1.00 20.00     0.109 C 
HETATM    3  C3  UNL     1     -34.098  15.799  -2.841  1.00 20.00     0.229 C 
HETATM    4  C4  UNL     1     -34.103  15.650  -5.872  1.00 20.00     0.071 C 
HETATM    5  C5  UNL     1     -35.389  16.317  -6.358  1.00 20.00     0.023 C 
HETATM    6  N8  UNL     1     -33.897  16.950  -3.730  1.00 20.00     0.089 N 
HETATM    7  S9  UNL     1     -34.479  14.088  -5.002  1.00 20.00    -0.161 SA
HETATM    8  H24 UNL     1     -33.313  17.640  -3.259  1.00 20.00     0.316 HD
ENDROOT
BRANCH   3   9
HETATM    9  C7  UNL     1     -34.638  16.315  -1.504  1.00 20.00     0.032 C 
HETATM   10  C6  UNL     1     -33.787  17.412  -0.956  1.00 20.00     0.007 C 
ENDBRANCH   3   9
TORSDOF 1
ENDMDL
MODEL 7
REMARK VINA RESULT:      -3.7     12.485     13.703
REMARK  1 active torsions:
REMARK  status: ('A' for Active; 'I' for Inactive)
REMARK    1  A    between atoms: C3_3  and  C7_7 
ROOT
HETATM    1  C1  UNL     1     -40.767   4.980  -0.861  1.00 20.00     0.284 C 
HETATM    2  C2  UNL     1     -42.952   4.719  -2.889  1.00 20.00     0.109 C 
HETATM    3  C3  UNL     1     -41.816   3.718  -2.655  1.00 20.00     0.229 C 
HETATM    4  C4  UNL     1     -41.748   6.159  -0.853  1.00 20.00     0.071 C 
HETATM    5  C5  UNL     1     -42.866   5.996   0.176  1.00 20.00     0.023 C 
HETATM    6  N8  UNL     1     -41.369   3.706  -1.257  1.00 20.00     0.089 N 
HETATM    7  S9  UNL     1     -42.445   6.425  -2.521  1.00 20.00    -0.161 SA
HETATM    8  H24 UNL     1     -40.679   2.966  -1.131  1.00 20.00     0.316 HD
ENDROOT
BRANCH   3   9
HETATM    9  C7  UNL     1     -42.292   2.308  -3.017  1.00 20.00     0.032 C 
HETATM   10  C6  UNL     1     -41.360   1.646  -3.976  1.00 20.00     0.007 C 
ENDBRANCH   3   9
TORSDOF 1
ENDMDL
MODEL 8
REMARK VINA RESULT:      -3.7      2.009      4.058
REMARK  1 active torsions:
REMARK  status: ('A' for Active; 'I' for Inactive)
REMARK    1  A    between atoms: C3_3  and  C7_7 
ROOT
HETATM    1  C1  UNL     1     -32.942  15.257  -3.679  1.00 20.00     0.284 C 
HETATM    2  C2  UNL     1     -34.629  17.129  -5.294  1.00 20.00     0.109 C 
HETATM    3  C3  UNL     1     -33.775  15.982  -5.845  1.00 20.00     0.229 C 
HETATM    4  C4  UNL     1     -33.669  16.307  -2.830  1.00 20.00     0.071 C 
HETATM    5  C5  UNL     1     -34.998  15.802  -2.271  1.00 20.00     0.023 C 
HETATM    6  N8  UNL     1     -33.661  14.870  -4.893  1.00 20.00     0.089 N 
HETATM    7  S9  UNL     1     -33.915  17.846  -3.783  1.00 20.00    -0.161 SA
HETATM    8  H24 UNL     1     -33.163  14.099  -5.337  1.00 20.00     0.316 HD
ENDROOT
BRANCH   3   9
HETATM    9  C7  UNL     1     -34.405  15.446  -7.134  1.00 20.00     0.032 C 
HETATM   10  C6  UNL     1     -35.370  14.344  -6.854  1.00 20.00     0.007 C 
ENDBRANCH   3   9
TORSDOF 1
ENDMDL
MODEL 9
REMARK VINA RESULT:      -3.4      2.037      3.749
REMARK  1 active torsions:
REMARK  status: ('A' for Active; 'I' for Inactive)
REMARK    1  A    between atoms: C3_3  and  C7_7 
ROOT
HETATM    1  C1  UNL     1     -34.124  17.103  -2.304  1.00 20.00     0.284 C 
HETATM    2  C2  UNL     1     -33.749  15.917  -5.026  1.00 20.00     0.109 C 
HETATM    3  C3  UNL     1     -33.397  15.246  -3.695  1.00 20.00     0.229 C 
HETATM    4  C4  UNL     1     -34.566  18.035  -3.439  1.00 20.00     0.071 C 
HETATM    5  C5  UNL     1     -36.059  17.931  -3.746  1.00 20.00     0.023 C 
HETATM    6  N8  UNL     1     -34.280  15.680  -2.606  1.00 20.00     0.089 N 
HETATM    7  S9  UNL     1     -33.578  17.726  -4.945  1.00 20.00    -0.161 SA
HETATM    8  H24 UNL     1     -34.067  15.142  -1.767  1.00 20.00     0.316 HD
ENDROOT
BRANCH   3   9
HETATM    9  C7  UNL     1     -33.522  13.726  -3.838  1.00 20.00     0.032 C 
HETATM   10  C6  UNL     1     -34.804  13.342  -4.498  1.00 20.00     0.007 C 
ENDBRANCH   3   9
TORSDOF 1
ENDMDL
