MODEL 1
REMARK VINA RESULT:      -3.7      0.000      0.000
REMARK  1 active torsions:
REMARK  status: ('A' for Active; 'I' for Inactive)
REMARK    1  A    between atoms: C2_2  and  C6_6 
ROOT
HETATM    1  C1  UNL     1     -34.611  13.980  -5.386  1.00 20.00     0.111 C 
HETATM    2  C2  UNL     1     -34.378  15.473  -5.612  1.00 20.00     0.231 C 
HETATM    3  C3  UNL     1     -33.107  15.237  -3.622  1.00 20.00     0.278 C 
HETATM    4  C4  UNL     1     -33.688  16.209  -2.601  1.00 20.00     0.054 C 
HETATM    5  N7  UNL     1     -33.101  15.829  -4.967  1.00 20.00     0.102 N 
HETATM    6  S8  UNL     1     -34.094  13.711  -3.676  1.00 20.00    -0.132 SA
HETATM    7  H21 UNL     1     -32.345  15.395  -5.499  1.00 20.00     0.317 HD
ENDROOT
BRANCH   2   8
HETATM    8  C6  UNL     1     -34.335  15.813  -7.098  1.00 20.00     0.032 C 
HETATM    9  C5  UNL     1     -35.084  14.813  -7.918  1.00 20.00     0.007 C 
ENDBRANCH   2   8
TORSDOF 1
ENDMDL
MODEL 2
REMARK VINA RESULT:      -3.7      2.685      3.181
REMARK  1 active torsions:
REMARK  status: ('A' for Active; 'I' for Inactive)
REMARK    1  A    between atoms: C2_2  and  C6_6 
ROOT
HETATM    1  C1  UNL     1     -33.365  16.260  -4.176  1.00 20.00     0.111 C 
HETATM    2  C2  UNL     1     -33.702  15.073  -3.276  1.00 20.00     0.231 C 
HETATM    3  C3  UNL     1     -35.040  16.705  -2.188  1.00 20.00     0.278 C 
HETATM    4  C4  UNL     1     -34.583  16.763  -0.735  1.00 20.00     0.054 C 
HETATM    5  N7  UNL     1     -35.032  15.322  -2.687  1.00 20.00     0.102 N 
HETATM    6  S8  UNL     1     -33.937  17.695  -3.239  1.00 20.00    -0.132 SA
HETATM    7  H21 UNL     1     -35.726  15.251  -3.432  1.00 20.00     0.317 HD
ENDROOT
BRANCH   2   8
HETATM    8  C6  UNL     1     -33.705  13.763  -4.056  1.00 20.00     0.032 C 
HETATM    9  C5  UNL     1     -35.094  13.299  -4.354  1.00 20.00     0.007 C 
ENDBRANCH   2   8
TORSDOF 1
ENDMDL
MODEL 3
REMARK VINA RESULT:      -3.7      2.605      4.138
REMARK  1 active torsions:
REMARK  status: ('A' for Active; 'I' for Inactive)
REMARK    1  A    between atoms: C2_2  and  C6_6 
ROOT
HETATM    1  C1  UNL     1     -33.979  14.494  -3.483  1.00 20.00     0.111 C 
HETATM    2  C2  UNL     1     -34.622  15.846  -3.178  1.00 20.00     0.231 C 
HETATM    3  C3  UNL     1     -36.595  14.665  -3.766  1.00 20.00     0.278 C 
HETATM    4  C4  UNL     1     -37.243  15.421  -4.921  1.00 20.00     0.054 C 
HETATM    5  N7  UNL     1     -36.021  15.597  -2.784  1.00 20.00     0.102 N 
HETATM    6  S8  UNL     1     -35.262  13.592  -4.379  1.00 20.00    -0.132 SA
HETATM    7  H21 UNL     1     -36.016  15.133  -1.874  1.00 20.00     0.317 HD
ENDROOT
BRANCH   2   8
HETATM    8  C6  UNL     1     -33.881  16.579  -2.065  1.00 20.00     0.032 C 
HETATM    9  C5  UNL     1     -34.680  16.624  -0.803  1.00 20.00     0.007 C 
ENDBRANCH   2   8
TORSDOF 1
ENDMDL
MODEL 4
REMARK VINA RESULT:      -3.6     12.384     13.366
REMARK  1 active torsions:
REMARK  status: ('A' for Active; 'I' for Inactive)
REMARK    1  A    between atoms: C2_2  and  C6_6 
ROOT
HETATM    1  C1  UNL     1     -33.039   6.925   4.942  1.00 20.00     0.111 C 
HETATM    2  C2  UNL     1     -33.120   5.874   3.836  1.00 20.00     0.231 C 
HETATM    3  C3  UNL     1     -35.077   5.254   5.028  1.00 20.00     0.278 C 
HETATM    4  C4  UNL     1     -34.915   3.790   5.425  1.00 20.00     0.054 C 
HETATM    5  N7  UNL     1     -34.537   5.496   3.681  1.00 20.00     0.102 N 
HETATM    6  S8  UNL     1     -34.193   6.328   6.197  1.00 20.00    -0.132 SA
HETATM    7  H21 UNL     1     -35.036   6.292   3.281  1.00 20.00     0.317 HD
ENDROOT
BRANCH   2   8
HETATM    8  C6  UNL     1     -32.567   6.406   2.518  1.00 20.00     0.032 C 
HETATM    9  C5  UNL     1     -32.113   7.824   2.640  1.00 20.00     0.007 C 
ENDBRANCH   2   8
TORSDOF 1
ENDMDL
MODEL 5
REMARK VINA RESULT:      -3.5      1.220      3.618
REMARK  1 active torsions:
REMARK  status: ('A' for Active; 'I' for Inactive)
REMARK    1  A    between atoms: C2_2  and  C6_6 
ROOT
HETATM    1  C1  UNL     1     -34.099  14.055  -3.434  1.00 20.00     0.111 C 
HETATM    2  C2  UNL     1     -33.778  15.498  -3.817  1.00 20.00     0.231 C 
HETATM    3  C3  UNL     1     -35.167  14.965  -5.667  1.00 20.00     0.278 C 
HETATM    4  C4  UNL     1     -34.343  15.199  -6.929  1.00 20.00     0.054 C 
HETATM    5  N7  UNL     1     -34.885  15.995  -4.656  1.00 20.00     0.102 N 
HETATM    6  S8  UNL     1     -34.777  13.341  -4.948  1.00 20.00    -0.132 SA
HETATM    7  H21 UNL     1     -35.712  16.091  -4.066  1.00 20.00     0.317 HD
ENDROOT
BRANCH   2   8
HETATM    8  C6  UNL     1     -33.612  16.380  -2.585  1.00 20.00     0.032 C 
HETATM    9  C5  UNL     1     -34.751  16.219  -1.630  1.00 20.00     0.007 C 
ENDBRANCH   2   8
TORSDOF 1
ENDMDL
MODEL 6
REMARK VINA RESULT:      -3.5     13.235     14.111
REMARK  1 active torsions:
REMARK  status: ('A' for Active; 'I' for Inactive)
REMARK    1  A    between atoms: C2_2  and  C6_6 
ROOT
HETATM    1  C1  UNL     1     -43.099   3.689  -1.315  1.00 20.00     0.111 C 
HETATM    2  C2  UNL     1     -41.850   3.924  -2.161  1.00 20.00     0.231 C 
HETATM    3  C3  UNL     1     -41.180   5.139  -0.236  1.00 20.00     0.278 C 
HETATM    4  C4  UNL     1     -40.885   6.566  -0.686  1.00 20.00     0.054 C 
HETATM    5  N7  UNL     1     -40.724   4.167  -1.240  1.00 20.00     0.102 N 
HETATM    6  S8  UNL     1     -42.966   4.909   0.010  1.00 20.00    -0.132 SA
HETATM    7  H21 UNL     1     -40.515   3.291  -0.758  1.00 20.00     0.317 HD
ENDROOT
BRANCH   2   8
HETATM    8  C6  UNL     1     -41.550   2.730  -3.061  1.00 20.00     0.032 C 
HETATM    9  C5  UNL     1     -42.639   1.708  -3.006  1.00 20.00     0.007 C 
ENDBRANCH   2   8
TORSDOF 1
ENDMDL
MODEL 7
REMARK VINA RESULT:      -3.5      2.242      4.352
REMARK  1 active torsions:
REMARK  status: ('A' for Active; 'I' for Inactive)
REMARK    1  A    between atoms: C2_2  and  C6_6 
ROOT
HETATM    1  C1  UNL     1     -35.749  16.351  -2.792  1.00 20.00     0.111 C 
HETATM    2  C2  UNL     1     -34.412  16.054  -2.117  1.00 20.00     0.231 C 
HETATM    3  C3  UNL     1     -33.973  15.003  -4.200  1.00 20.00     0.278 C 
HETATM    4  C4  UNL     1     -33.635  13.545  -3.904  1.00 20.00     0.054 C 
HETATM    5  N7  UNL     1     -33.400  15.893  -3.179  1.00 20.00     0.102 N 
HETATM    6  S8  UNL     1     -35.774  15.244  -4.219  1.00 20.00    -0.132 SA
HETATM    7  H21 UNL     1     -33.244  16.805  -3.608  1.00 20.00     0.317 HD
ENDROOT
BRANCH   2   8
HETATM    8  C6  UNL     1     -34.005  17.172  -1.164  1.00 20.00     0.032 C 
HETATM    9  C5  UNL     1     -34.850  17.185   0.068  1.00 20.00     0.007 C 
ENDBRANCH   2   8
TORSDOF 1
ENDMDL
MODEL 8
REMARK VINA RESULT:      -3.3      1.336      1.357
REMARK  1 active torsions:
REMARK  status: ('A' for Active; 'I' for Inactive)
REMARK    1  A    between atoms: C2_2  and  C6_6 
ROOT
HETATM    1  C1  UNL     1     -36.155  15.145  -5.420  1.00 20.00     0.111 C 
HETATM    2  C2  UNL     1     -34.702  15.424  -5.798  1.00 20.00     0.231 C 
HETATM    3  C3  UNL     1     -34.331  14.701  -3.568  1.00 20.00     0.278 C 
HETATM    4  C4  UNL     1     -33.613  15.834  -2.842  1.00 20.00     0.054 C 
HETATM    5  N7  UNL     1     -33.847  14.572  -4.950  1.00 20.00     0.102 N 
HETATM    6  S8  UNL     1     -36.120  15.015  -3.618  1.00 20.00    -0.132 SA
HETATM    7  H21 UNL     1     -33.979  13.602  -5.241  1.00 20.00     0.317 HD
ENDROOT
BRANCH   2   8
HETATM    8  C6  UNL     1     -34.442  15.134  -7.272  1.00 20.00     0.032 C 
HETATM    9  C5  UNL     1     -35.608  14.459  -7.918  1.00 20.00     0.007 C 
ENDBRANCH   2   8
TORSDOF 1
ENDMDL
MODEL 9
REMARK VINA RESULT:      -3.3      1.967      3.999
REMARK  1 active torsions:
REMARK  status: ('A' for Active; 'I' for Inactive)
REMARK    1  A    between atoms: C2_2  and  C6_6 
ROOT
HETATM    1  C1  UNL     1     -35.232  17.127  -4.233  1.00 20.00     0.111 C 
HETATM    2  C2  UNL     1     -34.347  15.897  -4.042  1.00 20.00     0.231 C 
HETATM    3  C3  UNL     1     -34.035  16.170  -6.379  1.00 20.00     0.278 C 
HETATM    4  C4  UNL     1     -34.471  14.870  -7.045  1.00 20.00     0.054 C 
HETATM    5  N7  UNL     1     -33.334  15.904  -5.114  1.00 20.00     0.102 N 
HETATM    6  S8  UNL     1     -35.479  17.214  -6.021  1.00 20.00    -0.132 SA
HETATM    7  H21 UNL     1     -32.693  16.679  -4.940  1.00 20.00     0.317 HD
ENDROOT
BRANCH   2   8
HETATM    8  C6  UNL     1     -33.671  15.902  -2.675  1.00 20.00     0.032 C 
HETATM    9  C5  UNL     1     -34.626  16.271  -1.586  1.00 20.00     0.007 C 
ENDBRANCH   2   8
TORSDOF 1
ENDMDL
