MODEL 1
REMARK VINA RESULT:      -4.4      0.000      0.000
REMARK  2 active torsions:
REMARK  status: ('A' for Active; 'I' for Inactive)
REMARK    1  A    between atoms: C3_3  and  C7_7 
REMARK    2  A    between atoms: C7_7  and  C8_8 
ROOT
HETATM    1  C1  UNL     1     -34.679  13.684  -5.252  1.00 20.00     0.111 C 
HETATM    2  C2  UNL     1     -34.513  15.082  -5.843  1.00 20.00     0.227 C 
HETATM    3  C3  UNL     1     -33.120  15.359  -3.943  1.00 20.00     0.282 C 
HETATM    4  C4  UNL     1     -34.567  15.053  -7.367  1.00 20.00     0.043 C 
HETATM    5  N9  UNL     1     -33.212  15.608  -5.389  1.00 20.00     0.102 N 
HETATM    6  S10 UNL     1     -34.053  13.846  -3.564  1.00 20.00    -0.132 SA
HETATM    7  H27 UNL     1     -32.474  15.073  -5.849  1.00 20.00     0.317 HD
ENDROOT
BRANCH   3   8
HETATM    8  C7  UNL     1     -33.673  16.538  -3.149  1.00 20.00     0.050 C 
BRANCH   8   9
HETATM    9  C8  UNL     1     -34.849  16.163  -2.234  1.00 20.00    -0.020 C 
HETATM   10  C5  UNL     1     -34.636  16.623  -0.791  1.00 20.00     0.009 C 
HETATM   11  C6  UNL     1     -36.144  16.768  -2.782  1.00 20.00     0.009 C 
ENDBRANCH   8   9
ENDBRANCH   3   8
TORSDOF 2
ENDMDL
MODEL 2
REMARK VINA RESULT:      -4.1      1.351      1.591
REMARK  2 active torsions:
REMARK  status: ('A' for Active; 'I' for Inactive)
REMARK    1  A    between atoms: C3_3  and  C7_7 
REMARK    2  A    between atoms: C7_7  and  C8_8 
ROOT
HETATM    1  C1  UNL     1     -36.294  15.042  -5.644  1.00 20.00     0.111 C 
HETATM    2  C2  UNL     1     -34.801  15.158  -5.940  1.00 20.00     0.227 C 
HETATM    3  C3  UNL     1     -34.636  14.207  -3.773  1.00 20.00     0.282 C 
HETATM    4  C4  UNL     1     -34.509  14.961  -7.424  1.00 20.00     0.043 C 
HETATM    5  N9  UNL     1     -34.105  14.131  -5.142  1.00 20.00     0.102 N 
HETATM    6  S10 UNL     1     -36.367  14.756  -3.862  1.00 20.00    -0.132 SA
HETATM    7  H27 UNL     1     -34.346  13.215  -5.524  1.00 20.00     0.317 HD
ENDROOT
BRANCH   3   8
HETATM    8  C7  UNL     1     -33.815  15.169  -2.921  1.00 20.00     0.050 C 
BRANCH   8   9
HETATM    9  C8  UNL     1     -34.600  16.411  -2.469  1.00 20.00    -0.020 C 
HETATM   10  C5  UNL     1     -34.602  16.579  -0.949  1.00 20.00     0.009 C 
HETATM   11  C6  UNL     1     -34.012  17.662  -3.126  1.00 20.00     0.009 C 
ENDBRANCH   8   9
ENDBRANCH   3   8
TORSDOF 2
ENDMDL
MODEL 3
REMARK VINA RESULT:      -4.0      1.973      2.860
REMARK  2 active torsions:
REMARK  status: ('A' for Active; 'I' for Inactive)
REMARK    1  A    between atoms: C3_3  and  C7_7 
REMARK    2  A    between atoms: C7_7  and  C8_8 
ROOT
HETATM    1  C1  UNL     1     -33.989  15.516  -4.780  1.00 20.00     0.111 C 
HETATM    2  C2  UNL     1     -34.581  14.525  -3.781  1.00 20.00     0.227 C 
HETATM    3  C3  UNL     1     -35.114  16.524  -2.619  1.00 20.00     0.282 C 
HETATM    4  C4  UNL     1     -35.142  13.293  -4.484  1.00 20.00     0.043 C 
HETATM    5  N9  UNL     1     -35.650  15.221  -3.040  1.00 20.00     0.102 N 
HETATM    6  S10 UNL     1     -33.897  17.066  -3.856  1.00 20.00    -0.132 SA
HETATM    7  H27 UNL     1     -36.424  15.391  -3.684  1.00 20.00     0.317 HD
ENDROOT
BRANCH   3   8
HETATM    8  C7  UNL     1     -34.466  16.428  -1.242  1.00 20.00     0.050 C 
BRANCH   8   9
HETATM    9  C8  UNL     1     -34.519  17.743  -0.447  1.00 20.00    -0.020 C 
HETATM   10  C5  UNL     1     -35.218  17.580   0.904  1.00 20.00     0.009 C 
HETATM   11  C6  UNL     1     -33.100  18.276  -0.232  1.00 20.00     0.009 C 
ENDBRANCH   8   9
ENDBRANCH   3   8
TORSDOF 2
ENDMDL
MODEL 4
REMARK VINA RESULT:      -3.9     12.373     13.349
REMARK  2 active torsions:
REMARK  status: ('A' for Active; 'I' for Inactive)
REMARK    1  A    between atoms: C3_3  and  C7_7 
REMARK    2  A    between atoms: C7_7  and  C8_8 
ROOT
HETATM    1  C1  UNL     1     -43.126   3.169  -1.740  1.00 20.00     0.111 C 
HETATM    2  C2  UNL     1     -41.869   3.503  -2.539  1.00 20.00     0.227 C 
HETATM    3  C3  UNL     1     -41.384   4.792  -0.607  1.00 20.00     0.282 C 
HETATM    4  C4  UNL     1     -41.431   2.328  -3.407  1.00 20.00     0.043 C 
HETATM    5  N9  UNL     1     -40.806   3.851  -1.577  1.00 20.00     0.102 N 
HETATM    6  S10 UNL     1     -43.152   4.411  -0.427  1.00 20.00    -0.132 SA
HETATM    7  H27 UNL     1     -40.541   3.002  -1.075  1.00 20.00     0.317 HD
ENDROOT
BRANCH   3   8
HETATM    8  C7  UNL     1     -41.194   6.234  -1.065  1.00 20.00     0.050 C 
BRANCH   8   9
HETATM    9  C8  UNL     1     -42.482   6.882  -1.599  1.00 20.00    -0.020 C 
HETATM   10  C5  UNL     1     -42.882   8.125  -0.802  1.00 20.00     0.009 C 
HETATM   11  C6  UNL     1     -42.302   7.251  -3.074  1.00 20.00     0.009 C 
ENDBRANCH   8   9
ENDBRANCH   3   8
TORSDOF 2
ENDMDL
MODEL 5
REMARK VINA RESULT:      -3.8      1.870      4.312
REMARK  2 active torsions:
REMARK  status: ('A' for Active; 'I' for Inactive)
REMARK    1  A    between atoms: C3_3  and  C7_7 
REMARK    2  A    between atoms: C7_7  and  C8_8 
ROOT
HETATM    1  C1  UNL     1     -33.988  14.378  -3.054  1.00 20.00     0.111 C 
HETATM    2  C2  UNL     1     -34.840  15.636  -2.906  1.00 20.00     0.227 C 
HETATM    3  C3  UNL     1     -36.329  14.385  -4.265  1.00 20.00     0.282 C 
HETATM    4  C4  UNL     1     -34.633  16.294  -1.546  1.00 20.00     0.043 C 
HETATM    5  N9  UNL     1     -36.252  15.243  -3.073  1.00 20.00     0.102 N 
HETATM    6  S10 UNL     1     -34.757  13.487  -4.424  1.00 20.00    -0.132 SA
HETATM    7  H27 UNL     1     -36.524  14.683  -2.263  1.00 20.00     0.317 HD
ENDROOT
BRANCH   3   8
HETATM    8  C7  UNL     1     -36.598  15.214  -5.517  1.00 20.00     0.050 C 
BRANCH   8   9
HETATM    9  C8  UNL     1     -35.442  15.188  -6.529  1.00 20.00    -0.020 C 
HETATM   10  C5  UNL     1     -35.892  14.733  -7.918  1.00 20.00     0.009 C 
HETATM   11  C6  UNL     1     -34.805  16.577  -6.623  1.00 20.00     0.009 C 
ENDBRANCH   8   9
ENDBRANCH   3   8
TORSDOF 2
ENDMDL
MODEL 6
REMARK VINA RESULT:      -3.7      1.748      4.337
REMARK  2 active torsions:
REMARK  status: ('A' for Active; 'I' for Inactive)
REMARK    1  A    between atoms: C3_3  and  C7_7 
REMARK    2  A    between atoms: C7_7  and  C8_8 
ROOT
HETATM    1  C1  UNL     1     -36.084  17.110  -2.785  1.00 20.00     0.111 C 
HETATM    2  C2  UNL     1     -34.757  16.526  -2.305  1.00 20.00     0.227 C 
HETATM    3  C3  UNL     1     -34.019  17.345  -4.406  1.00 20.00     0.282 C 
HETATM    4  C4  UNL     1     -34.612  16.640  -0.791  1.00 20.00     0.043 C 
HETATM    5  N9  UNL     1     -33.673  17.266  -2.979  1.00 20.00     0.102 N 
HETATM    6  S10 UNL     1     -35.830  17.379  -4.553  1.00 20.00    -0.132 SA
HETATM    7  H27 UNL     1     -33.656  18.215  -2.605  1.00 20.00     0.317 HD
ENDROOT
BRANCH   3   8
HETATM    8  C7  UNL     1     -33.445  16.159  -5.174  1.00 20.00     0.050 C 
BRANCH   8   9
HETATM    9  C8  UNL     1     -34.516  15.183  -5.685  1.00 20.00    -0.020 C 
HETATM   10  C5  UNL     1     -34.428  14.959  -7.195  1.00 20.00     0.009 C 
HETATM   11  C6  UNL     1     -34.385  13.843  -4.957  1.00 20.00     0.009 C 
ENDBRANCH   8   9
ENDBRANCH   3   8
TORSDOF 2
ENDMDL
MODEL 7
REMARK VINA RESULT:      -3.7      2.287      4.766
REMARK  2 active torsions:
REMARK  status: ('A' for Active; 'I' for Inactive)
REMARK    1  A    between atoms: C3_3  and  C7_7 
REMARK    2  A    between atoms: C7_7  and  C8_8 
ROOT
HETATM    1  C1  UNL     1     -34.572  18.465  -2.050  1.00 20.00     0.111 C 
HETATM    2  C2  UNL     1     -35.470  17.539  -1.233  1.00 20.00     0.227 C 
HETATM    3  C3  UNL     1     -34.361  15.880  -2.517  1.00 20.00     0.282 C 
HETATM    4  C4  UNL     1     -35.711  18.088   0.169  1.00 20.00     0.043 C 
HETATM    5  N9  UNL     1     -34.805  16.224  -1.159  1.00 20.00     0.102 N 
HETATM    6  S10 UNL     1     -33.979  17.422  -3.400  1.00 20.00    -0.132 SA
HETATM    7  H27 UNL     1     -33.976  16.320  -0.570  1.00 20.00     0.317 HD
ENDROOT
BRANCH   3   8
HETATM    8  C7  UNL     1     -35.437  15.094  -3.260  1.00 20.00     0.050 C 
BRANCH   8   9
HETATM    9  C8  UNL     1     -34.887  13.892  -4.044  1.00 20.00    -0.020 C 
HETATM   10  C5  UNL     1     -35.080  14.042  -5.554  1.00 20.00     0.009 C 
HETATM   11  C6  UNL     1     -33.400  13.706  -3.730  1.00 20.00     0.009 C 
ENDBRANCH   8   9
ENDBRANCH   3   8
TORSDOF 2
ENDMDL
MODEL 8
REMARK VINA RESULT:      -3.7      1.938      4.469
REMARK  2 active torsions:
REMARK  status: ('A' for Active; 'I' for Inactive)
REMARK    1  A    between atoms: C3_3  and  C7_7 
REMARK    2  A    between atoms: C7_7  and  C8_8 
ROOT
HETATM    1  C1  UNL     1     -33.982  18.489  -2.525  1.00 20.00     0.111 C 
HETATM    2  C2  UNL     1     -34.526  17.145  -2.048  1.00 20.00     0.227 C 
HETATM    3  C3  UNL     1     -33.648  16.426  -4.131  1.00 20.00     0.282 C 
HETATM    4  C4  UNL     1     -34.431  17.012  -0.531  1.00 20.00     0.043 C 
HETATM    5  N9  UNL     1     -33.737  16.085  -2.704  1.00 20.00     0.102 N 
HETATM    6  S10 UNL     1     -33.676  18.236  -4.288  1.00 20.00    -0.132 SA
HETATM    7  H27 UNL     1     -32.794  16.104  -2.315  1.00 20.00     0.317 HD
ENDROOT
BRANCH   3   8
HETATM    8  C7  UNL     1     -34.800  15.806  -4.914  1.00 20.00     0.050 C 
BRANCH   8   9
HETATM    9  C8  UNL     1     -34.428  14.488  -5.613  1.00 20.00    -0.020 C 
HETATM   10  C5  UNL     1     -34.749  13.263  -4.757  1.00 20.00     0.009 C 
HETATM   11  C6  UNL     1     -35.162  14.388  -6.953  1.00 20.00     0.009 C 
ENDBRANCH   8   9
ENDBRANCH   3   8
TORSDOF 2
ENDMDL
MODEL 9
REMARK VINA RESULT:      -3.7     13.271     14.265
REMARK  2 active torsions:
REMARK  status: ('A' for Active; 'I' for Inactive)
REMARK    1  A    between atoms: C3_3  and  C7_7 
REMARK    2  A    between atoms: C7_7  and  C8_8 
ROOT
HETATM    1  C1  UNL     1     -43.290   3.111  -3.951  1.00 20.00     0.111 C 
HETATM    2  C2  UNL     1     -42.362   2.245  -3.102  1.00 20.00     0.227 C 
HETATM    3  C3  UNL     1     -42.627   4.042  -1.576  1.00 20.00     0.282 C 
HETATM    4  C4  UNL     1     -42.606   0.759  -3.347  1.00 20.00     0.043 C 
HETATM    5  N9  UNL     1     -42.612   2.576  -1.686  1.00 20.00     0.102 N 
HETATM    6  S10 UNL     1     -43.241   4.726  -3.144  1.00 20.00    -0.132 SA
HETATM    7  H27 UNL     1     -43.541   2.231  -1.439  1.00 20.00     0.317 HD
ENDROOT
BRANCH   3   8
HETATM    8  C7  UNL     1     -41.233   4.580  -1.270  1.00 20.00     0.050 C 
BRANCH   8   9
HETATM    9  C8  UNL     1     -41.228   5.718  -0.236  1.00 20.00    -0.020 C 
HETATM   10  C5  UNL     1     -41.071   7.094  -0.885  1.00 20.00     0.009 C 
HETATM   11  C6  UNL     1     -42.520   5.678   0.583  1.00 20.00     0.009 C 
ENDBRANCH   8   9
ENDBRANCH   3   8
TORSDOF 2
ENDMDL
