MODEL 1
REMARK VINA RESULT:      -4.5      0.000      0.000
REMARK  3 active torsions:
REMARK  status: ('A' for Active; 'I' for Inactive)
REMARK    1  A    between atoms: C3_3  and  C6_6 
REMARK    2  A    between atoms: C6_6  and  C8_8 
REMARK    3  A    between atoms: C7_7  and  C8_8 
ROOT
HETATM    1  C1  UNL     1     -34.698  13.771  -5.318  1.00 20.00     0.111 C 
HETATM    2  C2  UNL     1     -34.510  15.194  -5.839  1.00 20.00     0.227 C 
HETATM    3  C3  UNL     1     -33.181  15.378  -3.881  1.00 20.00     0.282 C 
HETATM    4  C4  UNL     1     -34.515  15.237  -7.363  1.00 20.00     0.043 C 
HETATM    5  N9  UNL     1     -33.225  15.695  -5.316  1.00 20.00     0.102 N 
HETATM    6  S10 UNL     1     -34.128  13.851  -3.606  1.00 20.00    -0.132 SA
HETATM    7  H27 UNL     1     -32.473  15.181  -5.777  1.00 20.00     0.317 HD
ENDROOT
BRANCH   3   8
HETATM    8  C6  UNL     1     -33.759  16.520  -3.052  1.00 20.00     0.046 C 
BRANCH   8   9
HETATM    9  C8  UNL     1     -34.757  16.005  -2.017  1.00 20.00     0.002 C 
BRANCH   9  10
HETATM   10  C7  UNL     1     -34.598  16.736  -0.685  1.00 20.00    -0.004 C 
HETATM   11  C5  UNL     1     -33.499  17.784  -0.753  1.00 20.00     0.005 C 
ENDBRANCH   9  10
ENDBRANCH   8   9
ENDBRANCH   3   8
TORSDOF 3
ENDMDL
MODEL 2
REMARK VINA RESULT:      -4.1      1.345      1.469
REMARK  3 active torsions:
REMARK  status: ('A' for Active; 'I' for Inactive)
REMARK    1  A    between atoms: C3_3  and  C6_6 
REMARK    2  A    between atoms: C6_6  and  C8_8 
REMARK    3  A    between atoms: C7_7  and  C8_8 
ROOT
HETATM    1  C1  UNL     1     -36.316  14.992  -5.717  1.00 20.00     0.111 C 
HETATM    2  C2  UNL     1     -34.829  15.204  -5.991  1.00 20.00     0.227 C 
HETATM    3  C3  UNL     1     -34.640  14.304  -3.802  1.00 20.00     0.282 C 
HETATM    4  C4  UNL     1     -34.497  15.000  -7.465  1.00 20.00     0.043 C 
HETATM    5  N9  UNL     1     -34.081  14.240  -5.160  1.00 20.00     0.102 N 
HETATM    6  S10 UNL     1     -36.402  14.735  -3.931  1.00 20.00    -0.132 SA
HETATM    7  H27 UNL     1     -34.252  13.304  -5.529  1.00 20.00     0.317 HD
ENDROOT
BRANCH   3   8
HETATM    8  C6  UNL     1     -33.901  15.336  -2.956  1.00 20.00     0.046 C 
BRANCH   8   9
HETATM    9  C8  UNL     1     -34.837  16.005  -1.953  1.00 20.00     0.002 C 
BRANCH   9  10
HETATM   10  C7  UNL     1     -34.083  17.000  -1.071  1.00 20.00    -0.004 C 
HETATM   11  C5  UNL     1     -34.861  17.324   0.194  1.00 20.00     0.005 C 
ENDBRANCH   9  10
ENDBRANCH   8   9
ENDBRANCH   3   8
TORSDOF 3
ENDMDL
MODEL 3
REMARK VINA RESULT:      -4.1     11.582     12.500
REMARK  3 active torsions:
REMARK  status: ('A' for Active; 'I' for Inactive)
REMARK    1  A    between atoms: C3_3  and  C6_6 
REMARK    2  A    between atoms: C6_6  and  C8_8 
REMARK    3  A    between atoms: C7_7  and  C8_8 
ROOT
HETATM    1  C1  UNL     1     -35.300   4.623   4.307  1.00 20.00     0.111 C 
HETATM    2  C2  UNL     1     -34.268   5.016   5.362  1.00 20.00     0.227 C 
HETATM    3  C3  UNL     1     -33.718   6.652   3.732  1.00 20.00     0.282 C 
HETATM    4  C4  UNL     1     -34.791   4.775   6.773  1.00 20.00     0.043 C 
HETATM    5  N9  UNL     1     -33.954   6.444   5.168  1.00 20.00     0.102 N 
HETATM    6  S10 UNL     1     -34.741   5.465   2.810  1.00 20.00    -0.132 SA
HETATM    7  H27 UNL     1     -34.775   6.989   5.437  1.00 20.00     0.317 HD
ENDROOT
BRANCH   3   8
HETATM    8  C6  UNL     1     -32.244   6.465   3.389  1.00 20.00     0.046 C 
BRANCH   8   9
HETATM    9  C8  UNL     1     -31.586   7.795   3.026  1.00 20.00     0.002 C 
BRANCH   9  10
HETATM   10  C7  UNL     1     -31.953   8.223   1.606  1.00 20.00    -0.004 C 
HETATM   11  C5  UNL     1     -32.455   9.658   1.569  1.00 20.00     0.005 C 
ENDBRANCH   9  10
ENDBRANCH   8   9
ENDBRANCH   3   8
TORSDOF 3
ENDMDL
MODEL 4
REMARK VINA RESULT:      -4.0      1.888      2.539
REMARK  3 active torsions:
REMARK  status: ('A' for Active; 'I' for Inactive)
REMARK    1  A    between atoms: C3_3  and  C6_6 
REMARK    2  A    between atoms: C6_6  and  C8_8 
REMARK    3  A    between atoms: C7_7  and  C8_8 
ROOT
HETATM    1  C1  UNL     1     -33.788  15.666  -4.827  1.00 20.00     0.111 C 
HETATM    2  C2  UNL     1     -34.309  14.558  -3.914  1.00 20.00     0.227 C 
HETATM    3  C3  UNL     1     -35.228  16.410  -2.748  1.00 20.00     0.282 C 
HETATM    4  C4  UNL     1     -34.619  13.287  -4.699  1.00 20.00     0.043 C 
HETATM    5  N9  UNL     1     -35.527  15.061  -3.252  1.00 20.00     0.102 N 
HETATM    6  S10 UNL     1     -34.005  17.173  -3.856  1.00 20.00    -0.132 SA
HETATM    7  H27 UNL     1     -36.261  15.142  -3.957  1.00 20.00     0.317 HD
ENDROOT
BRANCH   3   8
HETATM    8  C6  UNL     1     -34.692  16.352  -1.321  1.00 20.00     0.046 C 
BRANCH   8   9
HETATM    9  C8  UNL     1     -33.664  17.453  -1.070  1.00 20.00     0.002 C 
BRANCH   9  10
HETATM   10  C7  UNL     1     -33.913  18.145   0.269  1.00 20.00    -0.004 C 
HETATM   11  C5  UNL     1     -35.125  17.564   0.979  1.00 20.00     0.005 C 
ENDBRANCH   9  10
ENDBRANCH   8   9
ENDBRANCH   3   8
TORSDOF 3
ENDMDL
MODEL 5
REMARK VINA RESULT:      -3.8      1.472      1.928
REMARK  3 active torsions:
REMARK  status: ('A' for Active; 'I' for Inactive)
REMARK    1  A    between atoms: C3_3  and  C6_6 
REMARK    2  A    between atoms: C6_6  and  C8_8 
REMARK    3  A    between atoms: C7_7  and  C8_8 
ROOT
HETATM    1  C1  UNL     1     -36.167  16.124  -6.049  1.00 20.00     0.111 C 
HETATM    2  C2  UNL     1     -34.707  16.560  -6.150  1.00 20.00     0.227 C 
HETATM    3  C3  UNL     1     -34.352  14.431  -5.160  1.00 20.00     0.282 C 
HETATM    4  C4  UNL     1     -34.467  17.429  -7.379  1.00 20.00     0.043 C 
HETATM    5  N9  UNL     1     -33.881  15.339  -6.216  1.00 20.00     0.102 N 
HETATM    6  S10 UNL     1     -36.130  14.721  -4.912  1.00 20.00    -0.132 SA
HETATM    7  H27 UNL     1     -34.050  14.891  -7.118  1.00 20.00     0.317 HD
ENDROOT
BRANCH   3   8
HETATM    8  C6  UNL     1     -33.588  14.663  -3.861  1.00 20.00     0.046 C 
BRANCH   8   9
HETATM    9  C8  UNL     1     -34.515  15.156  -2.752  1.00 20.00     0.002 C 
BRANCH   9  10
HETATM   10  C7  UNL     1     -33.992  16.450  -2.129  1.00 20.00    -0.004 C 
HETATM   11  C5  UNL     1     -34.625  16.709  -0.772  1.00 20.00     0.005 C 
ENDBRANCH   9  10
ENDBRANCH   8   9
ENDBRANCH   3   8
TORSDOF 3
ENDMDL
MODEL 6
REMARK VINA RESULT:      -3.8     12.260     13.471
REMARK  3 active torsions:
REMARK  status: ('A' for Active; 'I' for Inactive)
REMARK    1  A    between atoms: C3_3  and  C6_6 
REMARK    2  A    between atoms: C6_6  and  C8_8 
REMARK    3  A    between atoms: C7_7  and  C8_8 
ROOT
HETATM    1  C1  UNL     1     -43.121   3.537  -1.021  1.00 20.00     0.111 C 
HETATM    2  C2  UNL     1     -42.112   3.796  -2.138  1.00 20.00     0.227 C 
HETATM    3  C3  UNL     1     -41.103   5.137  -0.459  1.00 20.00     0.282 C 
HETATM    4  C4  UNL     1     -41.949   2.576  -3.038  1.00 20.00     0.043 C 
HETATM    5  N9  UNL     1     -40.825   4.141  -1.505  1.00 20.00     0.102 N 
HETATM    6  S10 UNL     1     -42.770   4.824   0.196  1.00 20.00    -0.132 SA
HETATM    7  H27 UNL     1     -40.458   3.302  -1.054  1.00 20.00     0.317 HD
ENDROOT
BRANCH   3   8
HETATM    8  C6  UNL     1     -41.006   6.553  -1.015  1.00 20.00     0.046 C 
BRANCH   8   9
HETATM    9  C8  UNL     1     -42.267   7.358  -0.707  1.00 20.00     0.002 C 
BRANCH   9  10
HETATM   10  C7  UNL     1     -42.919   7.875  -1.988  1.00 20.00    -0.004 C 
HETATM   11  C5  UNL     1     -42.207   7.352  -3.225  1.00 20.00     0.005 C 
ENDBRANCH   9  10
ENDBRANCH   8   9
ENDBRANCH   3   8
TORSDOF 3
ENDMDL
MODEL 7
REMARK VINA RESULT:      -3.7      1.618      1.796
REMARK  3 active torsions:
REMARK  status: ('A' for Active; 'I' for Inactive)
REMARK    1  A    between atoms: C3_3  and  C6_6 
REMARK    2  A    between atoms: C6_6  and  C8_8 
REMARK    3  A    between atoms: C7_7  and  C8_8 
ROOT
HETATM    1  C1  UNL     1     -35.478  16.601  -5.928  1.00 20.00     0.111 C 
HETATM    2  C2  UNL     1     -34.246  17.410  -5.530  1.00 20.00     0.227 C 
HETATM    3  C3  UNL     1     -33.680  15.382  -4.434  1.00 20.00     0.282 C 
HETATM    4  C4  UNL     1     -33.853  18.401  -6.620  1.00 20.00     0.043 C 
HETATM    5  N9  UNL     1     -33.147  16.457  -5.283  1.00 20.00     0.102 N 
HETATM    6  S10 UNL     1     -35.445  15.177  -4.817  1.00 20.00    -0.132 SA
HETATM    7  H27 UNL     1     -32.874  16.049  -6.178  1.00 20.00     0.317 HD
ENDROOT
BRANCH   3   8
HETATM    8  C6  UNL     1     -33.490  15.709  -2.957  1.00 20.00     0.046 C 
BRANCH   8   9
HETATM    9  C8  UNL     1     -34.829  15.763  -2.224  1.00 20.00     0.002 C 
BRANCH   9  10
HETATM   10  C7  UNL     1     -34.728  16.604  -0.952  1.00 20.00    -0.004 C 
HETATM   11  C5  UNL     1     -33.555  17.569  -1.014  1.00 20.00     0.005 C 
ENDBRANCH   9  10
ENDBRANCH   8   9
ENDBRANCH   3   8
TORSDOF 3
ENDMDL
MODEL 8
REMARK VINA RESULT:      -3.7      1.863      4.292
REMARK  3 active torsions:
REMARK  status: ('A' for Active; 'I' for Inactive)
REMARK    1  A    between atoms: C3_3  and  C6_6 
REMARK    2  A    between atoms: C6_6  and  C8_8 
REMARK    3  A    between atoms: C7_7  and  C8_8 
ROOT
HETATM    1  C1  UNL     1     -36.093  17.077  -2.614  1.00 20.00     0.111 C 
HETATM    2  C2  UNL     1     -34.768  16.584  -2.037  1.00 20.00     0.227 C 
HETATM    3  C3  UNL     1     -33.966  17.290  -4.156  1.00 20.00     0.282 C 
HETATM    4  C4  UNL     1     -34.698  16.805  -0.529  1.00 20.00     0.043 C 
HETATM    5  N9  UNL     1     -33.685  17.321  -2.713  1.00 20.00     0.102 N 
HETATM    6  S10 UNL     1     -35.769  17.237  -4.383  1.00 20.00    -0.132 SA
HETATM    7  H27 UNL     1     -33.722  18.294  -2.405  1.00 20.00     0.317 HD
ENDROOT
BRANCH   3   8
HETATM    8  C6  UNL     1     -33.311  16.079  -4.813  1.00 20.00     0.046 C 
BRANCH   8   9
HETATM    9  C8  UNL     1     -34.343  15.210  -5.530  1.00 20.00     0.002 C 
BRANCH   9  10
HETATM   10  C7  UNL     1     -34.390  13.804  -4.933  1.00 20.00    -0.004 C 
HETATM   11  C5  UNL     1     -33.403  13.652  -3.788  1.00 20.00     0.005 C 
ENDBRANCH   9  10
ENDBRANCH   8   9
ENDBRANCH   3   8
TORSDOF 3
ENDMDL
MODEL 9
REMARK VINA RESULT:      -3.7      1.925      4.265
REMARK  3 active torsions:
REMARK  status: ('A' for Active; 'I' for Inactive)
REMARK    1  A    between atoms: C3_3  and  C6_6 
REMARK    2  A    between atoms: C6_6  and  C8_8 
REMARK    3  A    between atoms: C7_7  and  C8_8 
ROOT
HETATM    1  C1  UNL     1     -33.953  18.318  -3.297  1.00 20.00     0.111 C 
HETATM    2  C2  UNL     1     -34.218  16.954  -2.664  1.00 20.00     0.227 C 
HETATM    3  C3  UNL     1     -33.276  16.196  -4.707  1.00 20.00     0.282 C 
HETATM    4  C4  UNL     1     -34.058  17.001  -1.148  1.00 20.00     0.043 C 
HETATM    5  N9  UNL     1     -33.260  15.997  -3.250  1.00 20.00     0.102 N 
HETATM    6  S10 UNL     1     -33.652  17.944  -5.039  1.00 20.00    -0.132 SA
HETATM    7  H27 UNL     1     -32.327  16.232  -2.909  1.00 20.00     0.317 HD
ENDROOT
BRANCH   3   8
HETATM    8  C6  UNL     1     -34.311  15.293  -5.370  1.00 20.00     0.046 C 
BRANCH   8   9
HETATM    9  C8  UNL     1     -34.187  13.853  -4.876  1.00 20.00     0.002 C 
BRANCH   9  10
HETATM   10  C7  UNL     1     -35.487  13.378  -4.227  1.00 20.00    -0.004 C 
HETATM   11  C5  UNL     1     -36.521  14.491  -4.175  1.00 20.00     0.005 C 
ENDBRANCH   9  10
ENDBRANCH   8   9
ENDBRANCH   3   8
TORSDOF 3
ENDMDL
