MODEL 1
REMARK VINA RESULT:      -3.9      0.000      0.000
REMARK  1 active torsions:
REMARK  status: ('A' for Active; 'I' for Inactive)
REMARK    1  A    between atoms: C4_4  and  C7_7 
ROOT
HETATM    1  C1  UNL     1     -34.436  17.852  -3.013  1.00 20.00     0.109 C 
HETATM    2  C2  UNL     1     -33.933  15.992  -4.961  1.00 20.00     0.109 C 
HETATM    3  C3  UNL     1     -33.925  16.769  -2.057  1.00 20.00     0.226 C 
HETATM    4  C4  UNL     1     -33.478  15.111  -3.792  1.00 20.00     0.230 C 
HETATM    5  C5  UNL     1     -34.602  16.920  -0.693  1.00 20.00     0.043 C 
HETATM    6  N8  UNL     1     -34.200  15.415  -2.551  1.00 20.00     0.093 N 
HETATM    7  S9  UNL     1     -33.623  17.750  -4.633  1.00 20.00    -0.165 SA
HETATM    8  H24 UNL     1     -33.939  14.737  -1.835  1.00 20.00     0.316 HD
ENDROOT
BRANCH   4   9
HETATM    9  C7  UNL     1     -33.717  13.638  -4.129  1.00 20.00     0.032 C 
HETATM   10  C6  UNL     1     -35.172  13.337  -4.267  1.00 20.00     0.007 C 
ENDBRANCH   4   9
TORSDOF 1
ENDMDL
MODEL 2
REMARK VINA RESULT:      -3.7      2.141      3.963
REMARK  1 active torsions:
REMARK  status: ('A' for Active; 'I' for Inactive)
REMARK    1  A    between atoms: C4_4  and  C7_7 
ROOT
HETATM    1  C1  UNL     1     -35.034  14.503  -6.016  1.00 20.00     0.109 C 
HETATM    2  C2  UNL     1     -34.544  14.519  -3.320  1.00 20.00     0.109 C 
HETATM    3  C3  UNL     1     -34.120  15.733  -6.036  1.00 20.00     0.226 C 
HETATM    4  C4  UNL     1     -33.684  15.748  -3.635  1.00 20.00     0.230 C 
HETATM    5  C5  UNL     1     -34.526  16.660  -7.184  1.00 20.00     0.043 C 
HETATM    6  N8  UNL     1     -34.191  16.502  -4.788  1.00 20.00     0.093 N 
HETATM    7  S9  UNL     1     -34.560  13.343  -4.702  1.00 20.00    -0.165 SA
HETATM    8  H24 UNL     1     -33.651  17.361  -4.892  1.00 20.00     0.316 HD
ENDROOT
BRANCH   4   9
HETATM    9  C7  UNL     1     -33.663  16.689  -2.429  1.00 20.00     0.032 C 
HETATM   10  C6  UNL     1     -34.702  16.316  -1.425  1.00 20.00     0.007 C 
ENDBRANCH   4   9
TORSDOF 1
ENDMDL
MODEL 3
REMARK VINA RESULT:      -3.7      0.742      3.543
REMARK  1 active torsions:
REMARK  status: ('A' for Active; 'I' for Inactive)
REMARK    1  A    between atoms: C4_4  and  C7_7 
ROOT
HETATM    1  C1  UNL     1     -33.606  15.872  -5.070  1.00 20.00     0.109 C 
HETATM    2  C2  UNL     1     -33.837  17.640  -2.989  1.00 20.00     0.109 C 
HETATM    3  C3  UNL     1     -34.534  14.991  -4.227  1.00 20.00     0.226 C 
HETATM    4  C4  UNL     1     -34.740  16.566  -2.374  1.00 20.00     0.230 C 
HETATM    5  C5  UNL     1     -34.253  13.516  -4.517  1.00 20.00     0.043 C 
HETATM    6  N8  UNL     1     -34.356  15.211  -2.787  1.00 20.00     0.093 N 
HETATM    7  S9  UNL     1     -33.936  17.637  -4.802  1.00 20.00    -0.165 SA
HETATM    8  H24 UNL     1     -34.916  14.531  -2.272  1.00 20.00     0.316 HD
ENDROOT
BRANCH   4   9
HETATM    9  C7  UNL     1     -34.660  16.634  -0.847  1.00 20.00     0.032 C 
HETATM   10  C6  UNL     1     -33.751  17.727  -0.395  1.00 20.00     0.007 C 
ENDBRANCH   4   9
TORSDOF 1
ENDMDL
MODEL 4
REMARK VINA RESULT:      -3.7      2.120      3.884
REMARK  1 active torsions:
REMARK  status: ('A' for Active; 'I' for Inactive)
REMARK    1  A    between atoms: C4_4  and  C7_7 
ROOT
HETATM    1  C1  UNL     1     -36.023  14.052  -4.557  1.00 20.00     0.109 C 
HETATM    2  C2  UNL     1     -33.984  15.024  -3.006  1.00 20.00     0.109 C 
HETATM    3  C3  UNL     1     -36.832  15.203  -3.950  1.00 20.00     0.226 C 
HETATM    4  C4  UNL     1     -35.017  16.068  -2.567  1.00 20.00     0.230 C 
HETATM    5  C5  UNL     1     -38.310  14.815  -3.877  1.00 20.00     0.043 C 
HETATM    6  N8  UNL     1     -36.387  15.543  -2.593  1.00 20.00     0.093 N 
HETATM    7  S9  UNL     1     -34.266  14.483  -4.716  1.00 20.00    -0.165 SA
HETATM    8  H24 UNL     1     -37.021  16.236  -2.195  1.00 20.00     0.316 HD
ENDROOT
BRANCH   4   9
HETATM    9  C7  UNL     1     -34.715  16.527  -1.139  1.00 20.00     0.032 C 
HETATM   10  C6  UNL     1     -33.593  17.511  -1.105  1.00 20.00     0.007 C 
ENDBRANCH   4   9
TORSDOF 1
ENDMDL
MODEL 5
REMARK VINA RESULT:      -3.6      2.413      4.074
REMARK  1 active torsions:
REMARK  status: ('A' for Active; 'I' for Inactive)
REMARK    1  A    between atoms: C4_4  and  C7_7 
ROOT
HETATM    1  C1  UNL     1     -36.493  15.092  -5.717  1.00 20.00     0.109 C 
HETATM    2  C2  UNL     1     -36.204  15.764  -3.076  1.00 20.00     0.109 C 
HETATM    3  C3  UNL     1     -34.991  14.796  -5.650  1.00 20.00     0.226 C 
HETATM    4  C4  UNL     1     -34.733  15.395  -3.298  1.00 20.00     0.230 C 
HETATM    5  C5  UNL     1     -34.354  15.032  -7.021  1.00 20.00     0.043 C 
HETATM    6  N8  UNL     1     -34.297  15.647  -4.676  1.00 20.00     0.093 N 
HETATM    7  S9  UNL     1     -37.307  14.774  -4.125  1.00 20.00    -0.165 SA
HETATM    8  H24 UNL     1     -33.292  15.487  -4.746  1.00 20.00     0.316 HD
ENDROOT
BRANCH   4   9
HETATM    9  C7  UNL     1     -33.845  16.220  -2.364  1.00 20.00     0.032 C 
HETATM   10  C6  UNL     1     -34.558  16.573  -1.101  1.00 20.00     0.007 C 
ENDBRANCH   4   9
TORSDOF 1
ENDMDL
MODEL 6
REMARK VINA RESULT:      -3.6      1.883      2.158
REMARK  1 active torsions:
REMARK  status: ('A' for Active; 'I' for Inactive)
REMARK    1  A    between atoms: C4_4  and  C7_7 
ROOT
HETATM    1  C1  UNL     1     -33.711  17.028  -2.703  1.00 20.00     0.109 C 
HETATM    2  C2  UNL     1     -35.220  15.849  -4.663  1.00 20.00     0.109 C 
HETATM    3  C3  UNL     1     -34.578  16.202  -1.748  1.00 20.00     0.226 C 
HETATM    4  C4  UNL     1     -35.923  15.151  -3.493  1.00 20.00     0.230 C 
HETATM    5  C5  UNL     1     -34.714  16.930  -0.409  1.00 20.00     0.043 C 
HETATM    6  N8  UNL     1     -35.928  15.972  -2.276  1.00 20.00     0.093 N 
HETATM    7  S9  UNL     1     -33.474  16.180  -4.291  1.00 20.00    -0.165 SA
HETATM    8  H24 UNL     1     -36.494  15.513  -1.563  1.00 20.00     0.316 HD
ENDROOT
BRANCH   4   9
HETATM    9  C7  UNL     1     -37.376  14.852  -3.866  1.00 20.00     0.032 C 
HETATM   10  C6  UNL     1     -37.675  15.253  -5.272  1.00 20.00     0.007 C 
ENDBRANCH   4   9
TORSDOF 1
ENDMDL
MODEL 7
REMARK VINA RESULT:      -3.5      1.799      3.001
REMARK  1 active torsions:
REMARK  status: ('A' for Active; 'I' for Inactive)
REMARK    1  A    between atoms: C4_4  and  C7_7 
ROOT
HETATM    1  C1  UNL     1     -33.856  15.925  -2.821  1.00 20.00     0.109 C 
HETATM    2  C2  UNL     1     -34.708  17.473  -4.916  1.00 20.00     0.109 C 
HETATM    3  C3  UNL     1     -33.092  15.151  -3.901  1.00 20.00     0.226 C 
HETATM    4  C4  UNL     1     -33.851  16.528  -5.767  1.00 20.00     0.230 C 
HETATM    5  C5  UNL     1     -32.940  13.688  -3.479  1.00 20.00     0.043 C 
HETATM    6  N8  UNL     1     -33.778  15.178  -5.198  1.00 20.00     0.093 N 
HETATM    7  S9  UNL     1     -34.018  17.682  -3.250  1.00 20.00    -0.165 SA
HETATM    8  H24 UNL     1     -33.289  14.564  -5.849  1.00 20.00     0.316 HD
ENDROOT
BRANCH   4   9
HETATM    9  C7  UNL     1     -34.444  16.417  -7.173  1.00 20.00     0.032 C 
HETATM   10  C6  UNL     1     -34.735  14.998  -7.534  1.00 20.00     0.007 C 
ENDBRANCH   4   9
TORSDOF 1
ENDMDL
MODEL 8
REMARK VINA RESULT:      -3.5      2.802      4.146
REMARK  1 active torsions:
REMARK  status: ('A' for Active; 'I' for Inactive)
REMARK    1  A    between atoms: C4_4  and  C7_7 
ROOT
HETATM    1  C1  UNL     1     -36.731  15.556  -5.874  1.00 20.00     0.109 C 
HETATM    2  C2  UNL     1     -35.598  14.745  -3.514  1.00 20.00     0.109 C 
HETATM    3  C3  UNL     1     -35.751  14.565  -6.511  1.00 20.00     0.226 C 
HETATM    4  C4  UNL     1     -34.741  13.843  -4.409  1.00 20.00     0.230 C 
HETATM    5  C5  UNL     1     -35.377  15.038  -7.917  1.00 20.00     0.043 C 
HETATM    6  N8  UNL     1     -34.512  14.429  -5.735  1.00 20.00     0.093 N 
HETATM    7  S9  UNL     1     -37.249  15.012  -4.221  1.00 20.00    -0.165 SA
HETATM    8  H24 UNL     1     -33.854  13.846  -6.252  1.00 20.00     0.316 HD
ENDROOT
BRANCH   4   9
HETATM    9  C7  UNL     1     -33.377  13.610  -3.755  1.00 20.00     0.032 C 
HETATM   10  C6  UNL     1     -32.652  14.894  -3.526  1.00 20.00     0.007 C 
ENDBRANCH   4   9
TORSDOF 1
ENDMDL
MODEL 9
REMARK VINA RESULT:      -3.4      2.508      3.197
REMARK  1 active torsions:
REMARK  status: ('A' for Active; 'I' for Inactive)
REMARK    1  A    between atoms: C4_4  and  C7_7 
ROOT
HETATM    1  C1  UNL     1     -35.653  15.762  -2.988  1.00 20.00     0.109 C 
HETATM    2  C2  UNL     1     -33.699  15.899  -4.905  1.00 20.00     0.109 C 
HETATM    3  C3  UNL     1     -36.293  14.736  -3.929  1.00 20.00     0.226 C 
HETATM    4  C4  UNL     1     -34.554  14.857  -5.637  1.00 20.00     0.230 C 
HETATM    5  C5  UNL     1     -37.815  14.763  -3.767  1.00 20.00     0.043 C 
HETATM    6  N8  UNL     1     -35.984  15.001  -5.338  1.00 20.00     0.093 N 
HETATM    7  S9  UNL     1     -33.841  15.732  -3.103  1.00 20.00    -0.165 SA
HETATM    8  H24 UNL     1     -36.516  14.359  -5.926  1.00 20.00     0.316 HD
ENDROOT
BRANCH   4   9
HETATM    9  C7  UNL     1     -34.370  15.005  -7.149  1.00 20.00     0.032 C 
HETATM   10  C6  UNL     1     -35.578  14.546  -7.895  1.00 20.00     0.007 C 
ENDBRANCH   4   9
TORSDOF 1
ENDMDL
