MODEL 1
REMARK VINA RESULT:      -4.0      0.000      0.000
REMARK  1 active torsions:
REMARK  status: ('A' for Active; 'I' for Inactive)
REMARK    1  A    between atoms: C2_2  and  C8_8 
ROOT
HETATM    1  C1  UNL     1     -36.986  15.158  -3.372  1.00 20.00     0.284 C 
HETATM    2  C2  UNL     1     -34.661  15.998  -3.126  1.00 20.00     0.233 C 
HETATM    3  C3  UNL     1     -36.703  14.716  -4.807  1.00 20.00     0.071 C 
HETATM    4  C4  UNL     1     -34.262  14.533  -3.410  1.00 20.00     0.076 C 
HETATM    5  C5  UNL     1     -36.832  15.848  -5.824  1.00 20.00     0.023 C 
HETATM    6  C6  UNL     1     -32.756  14.335  -3.588  1.00 20.00     0.023 C 
HETATM    7  N9  UNL     1     -36.094  16.191  -2.852  1.00 20.00     0.090 N 
HETATM    8  S10 UNL     1     -35.061  13.929  -4.953  1.00 20.00    -0.156 SA
HETATM    9  H27 UNL     1     -36.391  17.101  -3.242  1.00 20.00     0.316 HD
ENDROOT
BRANCH   2  10
HETATM   10  C8  UNL     1     -33.882  16.603  -1.950  1.00 20.00     0.032 C 
HETATM   11  C7  UNL     1     -34.718  16.667  -0.717  1.00 20.00     0.007 C 
ENDBRANCH   2  10
TORSDOF 1
ENDMDL
MODEL 2
REMARK VINA RESULT:      -3.9      1.893      2.855
REMARK  1 active torsions:
REMARK  status: ('A' for Active; 'I' for Inactive)
REMARK    1  A    between atoms: C2_2  and  C8_8 
ROOT
HETATM    1  C1  UNL     1     -33.306  15.642  -4.389  1.00 20.00     0.284 C 
HETATM    2  C2  UNL     1     -34.852  15.894  -2.461  1.00 20.00     0.233 C 
HETATM    3  C3  UNL     1     -34.390  14.934  -5.200  1.00 20.00     0.071 C 
HETATM    4  C4  UNL     1     -35.717  16.702  -3.453  1.00 20.00     0.076 C 
HETATM    5  C5  UNL     1     -34.501  13.442  -4.886  1.00 20.00     0.023 C 
HETATM    6  C6  UNL     1     -37.090  17.081  -2.896  1.00 20.00     0.023 C 
HETATM    7  N9  UNL     1     -33.490  15.609  -2.941  1.00 20.00     0.090 N 
HETATM    8  S10 UNL     1     -36.017  15.738  -4.991  1.00 20.00    -0.156 SA
HETATM    9  H27 UNL     1     -33.203  14.676  -2.600  1.00 20.00     0.316 HD
ENDROOT
BRANCH   2  10
HETATM   10  C8  UNL     1     -34.724  16.583  -1.095  1.00 20.00     0.032 C 
HETATM   11  C7  UNL     1     -33.584  17.544  -1.075  1.00 20.00     0.007 C 
ENDBRANCH   2  10
TORSDOF 1
ENDMDL
MODEL 3
REMARK VINA RESULT:      -3.8      1.433      1.643
REMARK  1 active torsions:
REMARK  status: ('A' for Active; 'I' for Inactive)
REMARK    1  A    between atoms: C2_2  and  C8_8 
ROOT
HETATM    1  C1  UNL     1     -36.195  16.712  -5.115  1.00 20.00     0.284 C 
HETATM    2  C2  UNL     1     -34.104  16.150  -3.898  1.00 20.00     0.233 C 
HETATM    3  C3  UNL     1     -35.686  16.006  -6.371  1.00 20.00     0.071 C 
HETATM    4  C4  UNL     1     -34.515  14.687  -4.173  1.00 20.00     0.076 C 
HETATM    5  C5  UNL     1     -34.765  16.878  -7.222  1.00 20.00     0.023 C 
HETATM    6  C6  UNL     1     -33.444  13.669  -3.779  1.00 20.00     0.023 C 
HETATM    7  N9  UNL     1     -35.160  17.136  -4.177  1.00 20.00     0.090 N 
HETATM    8  S10 UNL     1     -34.854  14.431  -5.963  1.00 20.00    -0.156 SA
HETATM    9  H27 UNL     1     -34.725  18.000  -4.544  1.00 20.00     0.316 HD
ENDROOT
BRANCH   2  10
HETATM   10  C8  UNL     1     -33.639  16.370  -2.452  1.00 20.00     0.032 C 
HETATM   11  C7  UNL     1     -34.789  16.358  -1.503  1.00 20.00     0.007 C 
ENDBRANCH   2  10
TORSDOF 1
ENDMDL
MODEL 4
REMARK VINA RESULT:      -3.8      1.419      1.498
REMARK  1 active torsions:
REMARK  status: ('A' for Active; 'I' for Inactive)
REMARK    1  A    between atoms: C2_2  and  C8_8 
ROOT
HETATM    1  C1  UNL     1     -37.045  14.805  -3.811  1.00 20.00     0.284 C 
HETATM    2  C2  UNL     1     -35.111  16.278  -3.302  1.00 20.00     0.233 C 
HETATM    3  C3  UNL     1     -37.334  15.582  -5.094  1.00 20.00     0.071 C 
HETATM    4  C4  UNL     1     -34.558  15.765  -4.649  1.00 20.00     0.076 C 
HETATM    5  C5  UNL     1     -38.154  16.849  -4.860  1.00 20.00     0.023 C 
HETATM    6  C6  UNL     1     -33.285  16.484  -5.099  1.00 20.00     0.023 C 
HETATM    7  N9  UNL     1     -36.276  15.530  -2.803  1.00 20.00     0.090 N 
HETATM    8  S10 UNL     1     -35.796  15.991  -5.990  1.00 20.00    -0.156 SA
HETATM    9  H27 UNL     1     -36.914  16.185  -2.319  1.00 20.00     0.316 HD
ENDROOT
BRANCH   2  10
HETATM   10  C8  UNL     1     -34.052  16.276  -2.190  1.00 20.00     0.032 C 
HETATM   11  C7  UNL     1     -34.648  16.627  -0.870  1.00 20.00     0.007 C 
ENDBRANCH   2  10
TORSDOF 1
ENDMDL
MODEL 5
REMARK VINA RESULT:      -3.7      2.547      3.688
REMARK  1 active torsions:
REMARK  status: ('A' for Active; 'I' for Inactive)
REMARK    1  A    between atoms: C2_2  and  C8_8 
ROOT
HETATM    1  C1  UNL     1     -33.597  16.939  -5.559  1.00 20.00     0.284 C 
HETATM    2  C2  UNL     1     -34.721  14.737  -5.326  1.00 20.00     0.233 C 
HETATM    3  C3  UNL     1     -34.814  17.515  -6.280  1.00 20.00     0.071 C 
HETATM    4  C4  UNL     1     -35.779  15.530  -4.529  1.00 20.00     0.076 C 
HETATM    5  C5  UNL     1     -34.841  17.189  -7.773  1.00 20.00     0.023 C 
HETATM    6  C6  UNL     1     -37.015  14.705  -4.167  1.00 20.00     0.023 C 
HETATM    7  N9  UNL     1     -33.482  15.484  -5.595  1.00 20.00     0.090 N 
HETATM    8  S10 UNL     1     -36.374  16.977  -5.495  1.00 20.00    -0.156 SA
HETATM    9  H27 UNL     1     -33.120  15.211  -6.525  1.00 20.00     0.316 HD
ENDROOT
BRANCH   2  10
HETATM   10  C8  UNL     1     -34.326  13.423  -4.637  1.00 20.00     0.032 C 
HETATM   11  C7  UNL     1     -33.216  13.631  -3.664  1.00 20.00     0.007 C 
ENDBRANCH   2  10
TORSDOF 1
ENDMDL
MODEL 6
REMARK VINA RESULT:      -3.7      2.102      3.718
REMARK  1 active torsions:
REMARK  status: ('A' for Active; 'I' for Inactive)
REMARK    1  A    between atoms: C2_2  and  C8_8 
ROOT
HETATM    1  C1  UNL     1     -36.457  17.281  -2.287  1.00 20.00     0.284 C 
HETATM    2  C2  UNL     1     -35.173  15.617  -3.610  1.00 20.00     0.233 C 
HETATM    3  C3  UNL     1     -35.171  17.810  -1.654  1.00 20.00     0.071 C 
HETATM    4  C4  UNL     1     -34.477  16.857  -4.213  1.00 20.00     0.076 C 
HETATM    5  C5  UNL     1     -34.702  16.982  -0.459  1.00 20.00     0.023 C 
HETATM    6  C6  UNL     1     -33.291  16.511  -5.116  1.00 20.00     0.023 C 
HETATM    7  N9  UNL     1     -36.376  15.925  -2.821  1.00 20.00     0.090 N 
HETATM    8  S10 UNL     1     -33.827  17.949  -2.883  1.00 20.00    -0.156 SA
HETATM    9  H27 UNL     1     -36.437  15.261  -2.029  1.00 20.00     0.316 HD
ENDROOT
BRANCH   2  10
HETATM   10  C8  UNL     1     -35.573  14.589  -4.678  1.00 20.00     0.032 C 
HETATM   11  C7  UNL     1     -34.994  13.247  -4.386  1.00 20.00     0.007 C 
ENDBRANCH   2  10
TORSDOF 1
ENDMDL
MODEL 7
REMARK VINA RESULT:      -3.7      2.465      4.443
REMARK  1 active torsions:
REMARK  status: ('A' for Active; 'I' for Inactive)
REMARK    1  A    between atoms: C2_2  and  C8_8 
ROOT
HETATM    1  C1  UNL     1     -35.361  13.848  -4.288  1.00 20.00     0.284 C 
HETATM    2  C2  UNL     1     -34.476  14.873  -6.369  1.00 20.00     0.233 C 
HETATM    3  C3  UNL     1     -34.254  14.503  -3.462  1.00 20.00     0.071 C 
HETATM    4  C4  UNL     1     -34.749  16.211  -5.648  1.00 20.00     0.076 C 
HETATM    5  C5  UNL     1     -32.942  13.720  -3.482  1.00 20.00     0.023 C 
HETATM    6  C6  UNL     1     -34.214  17.430  -6.401  1.00 20.00     0.023 C 
HETATM    7  N9  UNL     1     -35.071  13.700  -5.711  1.00 20.00     0.090 N 
HETATM    8  S10 UNL     1     -33.960  16.228  -3.986  1.00 20.00    -0.156 SA
HETATM    9  H27 UNL     1     -34.438  12.891  -5.830  1.00 20.00     0.316 HD
ENDROOT
BRANCH   2  10
HETATM   10  C8  UNL     1     -34.961  14.880  -7.826  1.00 20.00     0.032 C 
HETATM   11  C7  UNL     1     -36.446  14.780  -7.905  1.00 20.00     0.007 C 
ENDBRANCH   2  10
TORSDOF 1
ENDMDL
MODEL 8
REMARK VINA RESULT:      -3.7      2.188      3.032
REMARK  1 active torsions:
REMARK  status: ('A' for Active; 'I' for Inactive)
REMARK    1  A    between atoms: C2_2  and  C8_8 
ROOT
HETATM    1  C1  UNL     1     -33.312  16.640  -4.955  1.00 20.00     0.284 C 
HETATM    2  C2  UNL     1     -34.812  16.144  -3.039  1.00 20.00     0.233 C 
HETATM    3  C3  UNL     1     -34.414  16.274  -5.948  1.00 20.00     0.071 C 
HETATM    4  C4  UNL     1     -35.700  17.254  -3.641  1.00 20.00     0.076 C 
HETATM    5  C5  UNL     1     -34.517  14.772  -6.209  1.00 20.00     0.023 C 
HETATM    6  C6  UNL     1     -37.061  17.386  -2.954  1.00 20.00     0.023 C 
HETATM    7  N9  UNL     1     -33.462  16.070  -3.620  1.00 20.00     0.090 N 
HETATM    8  S10 UNL     1     -36.036  16.928  -5.420  1.00 20.00    -0.156 SA
HETATM    9  H27 UNL     1     -33.166  15.080  -3.656  1.00 20.00     0.316 HD
ENDROOT
BRANCH   2  10
HETATM   10  C8  UNL     1     -34.652  16.276  -1.518  1.00 20.00     0.032 C 
HETATM   11  C7  UNL     1     -33.707  17.373  -1.164  1.00 20.00     0.007 C 
ENDBRANCH   2  10
TORSDOF 1
ENDMDL
MODEL 9
REMARK VINA RESULT:      -3.7      1.564      3.517
REMARK  1 active torsions:
REMARK  status: ('A' for Active; 'I' for Inactive)
REMARK    1  A    between atoms: C2_2  and  C8_8 
ROOT
HETATM    1  C1  UNL     1     -35.434  17.458  -3.236  1.00 20.00     0.284 C 
HETATM    2  C2  UNL     1     -36.433  15.191  -3.409  1.00 20.00     0.233 C 
HETATM    3  C3  UNL     1     -34.217  16.896  -2.503  1.00 20.00     0.071 C 
HETATM    4  C4  UNL     1     -35.152  14.851  -4.202  1.00 20.00     0.076 C 
HETATM    5  C5  UNL     1     -34.449  16.706  -1.005  1.00 20.00     0.023 C 
HETATM    6  C6  UNL     1     -35.012  13.363  -4.527  1.00 20.00     0.023 C 
HETATM    7  N9  UNL     1     -36.635  16.630  -3.176  1.00 20.00     0.090 N 
HETATM    8  S10 UNL     1     -33.651  15.327  -3.251  1.00 20.00    -0.156 SA
HETATM    9  H27 UNL     1     -37.073  16.761  -2.248  1.00 20.00     0.316 HD
ENDROOT
BRANCH   2  10
HETATM   10  C8  UNL     1     -37.703  14.651  -4.082  1.00 20.00     0.032 C 
HETATM   11  C7  UNL     1     -38.932  15.220  -3.461  1.00 20.00     0.007 C 
ENDBRANCH   2  10
TORSDOF 1
ENDMDL
