MODEL 1
REMARK VINA RESULT:      -4.6      0.000      0.000
REMARK  4 active torsions:
REMARK  status: ('A' for Active; 'I' for Inactive)
REMARK    1  A    between atoms: C1_1  and  C4_4 
REMARK    2  A    between atoms: C1_1  and  O11_11 
REMARK    3  A    between atoms: C5_5  and  C8_8 
REMARK    4  A    between atoms: C8_8  and  C9_9 
ROOT
HETATM    1  C2  UNL     1     -35.136  15.239  -3.003  1.00 20.00     0.019 C 
HETATM    2  C3  UNL     1     -33.074  15.252  -3.542  1.00 20.00     0.019 C 
HETATM    3  C4  UNL     1     -34.166  14.156  -3.538  1.00 20.00     0.086 C 
HETATM    4  C5  UNL     1     -33.892  15.973  -2.440  1.00 20.00    -0.013 C 
ENDROOT
BRANCH   3   5
HETATM    5  C1  UNL     1     -34.510  13.586  -4.866  1.00 20.00     0.262 C 
HETATM    6  O10 UNL     1     -34.863  12.428  -5.044  1.00 20.00    -0.265 OA
BRANCH   5   7
HETATM    7  O11 UNL     1     -34.370  14.546  -5.824  1.00 20.00    -0.326 OA
HETATM    8  C7  UNL     1     -35.227  14.410  -6.962  1.00 20.00     0.213 C 
ENDBRANCH   5   7
ENDBRANCH   3   5
BRANCH   4   9
HETATM    9  C8  UNL     1     -33.916  17.487  -2.493  1.00 20.00     0.004 C 
BRANCH   9  10
HETATM   10  C9  UNL     1     -33.723  18.105  -1.108  1.00 20.00    -0.004 C 
HETATM   11  C6  UNL     1     -34.540  17.379  -0.050  1.00 20.00     0.005 C 
ENDBRANCH   9  10
ENDBRANCH   4   9
TORSDOF 4
ENDMDL
MODEL 2
REMARK VINA RESULT:      -4.2     10.978     12.150
REMARK  4 active torsions:
REMARK  status: ('A' for Active; 'I' for Inactive)
REMARK    1  A    between atoms: C1_1  and  C4_4 
REMARK    2  A    between atoms: C1_1  and  O11_11 
REMARK    3  A    between atoms: C5_5  and  C8_8 
REMARK    4  A    between atoms: C8_8  and  C9_9 
ROOT
HETATM    1  C2  UNL     1     -32.459   5.896   4.010  1.00 20.00     0.019 C 
HETATM    2  C3  UNL     1     -33.998   7.336   3.697  1.00 20.00     0.019 C 
HETATM    3  C4  UNL     1     -33.960   5.950   4.386  1.00 20.00     0.086 C 
HETATM    4  C5  UNL     1     -32.786   6.871   2.850  1.00 20.00    -0.013 C 
ENDROOT
BRANCH   3   5
HETATM    5  C1  UNL     1     -34.258   5.946   5.841  1.00 20.00     0.262 C 
HETATM    6  O10 UNL     1     -33.816   6.767   6.633  1.00 20.00    -0.265 OA
BRANCH   5   7
HETATM    7  O11 UNL     1     -35.084   4.901   6.135  1.00 20.00    -0.326 OA
HETATM    8  C7  UNL     1     -35.129   3.858   5.156  1.00 20.00     0.213 C 
ENDBRANCH   5   7
ENDBRANCH   3   5
BRANCH   4   9
HETATM    9  C8  UNL     1     -31.741   7.918   2.529  1.00 20.00     0.004 C 
BRANCH   9  10
HETATM   10  C9  UNL     1     -31.897   8.457   1.106  1.00 20.00    -0.004 C 
HETATM   11  C6  UNL     1     -32.440   9.877   1.100  1.00 20.00     0.005 C 
ENDBRANCH   9  10
ENDBRANCH   4   9
TORSDOF 4
ENDMDL
MODEL 3
REMARK VINA RESULT:      -4.1      1.470      2.433
REMARK  4 active torsions:
REMARK  status: ('A' for Active; 'I' for Inactive)
REMARK    1  A    between atoms: C1_1  and  C4_4 
REMARK    2  A    between atoms: C1_1  and  O11_11 
REMARK    3  A    between atoms: C5_5  and  C8_8 
REMARK    4  A    between atoms: C8_8  and  C9_9 
ROOT
HETATM    1  C2  UNL     1     -35.030  15.778  -2.190  1.00 20.00     0.019 C 
HETATM    2  C3  UNL     1     -33.474  17.232  -2.105  1.00 20.00     0.019 C 
HETATM    3  C4  UNL     1     -33.663  15.919  -2.903  1.00 20.00     0.086 C 
HETATM    4  C5  UNL     1     -34.443  16.646  -1.047  1.00 20.00    -0.013 C 
ENDROOT
BRANCH   3   5
HETATM    5  C1  UNL     1     -33.723  16.068  -4.380  1.00 20.00     0.262 C 
HETATM    6  O10 UNL     1     -32.881  16.659  -5.044  1.00 20.00    -0.265 OA
BRANCH   5   7
HETATM    7  O11 UNL     1     -34.843  15.452  -4.855  1.00 20.00    -0.326 OA
HETATM    8  C7  UNL     1     -34.621  14.218  -5.545  1.00 20.00     0.213 C 
ENDBRANCH   5   7
ENDBRANCH   3   5
BRANCH   4   9
HETATM    9  C8  UNL     1     -35.391  17.621  -0.380  1.00 20.00     0.004 C 
BRANCH   9  10
HETATM   10  C9  UNL     1     -35.239  17.607   1.142  1.00 20.00    -0.004 C 
HETATM   11  C6  UNL     1     -34.040  18.425   1.594  1.00 20.00     0.005 C 
ENDBRANCH   9  10
ENDBRANCH   4   9
TORSDOF 4
ENDMDL
MODEL 4
REMARK VINA RESULT:      -4.1      2.810      5.324
REMARK  4 active torsions:
REMARK  status: ('A' for Active; 'I' for Inactive)
REMARK    1  A    between atoms: C1_1  and  C4_4 
REMARK    2  A    between atoms: C1_1  and  O11_11 
REMARK    3  A    between atoms: C5_5  and  C8_8 
REMARK    4  A    between atoms: C8_8  and  C9_9 
ROOT
HETATM    1  C2  UNL     1     -35.354  15.862  -2.492  1.00 20.00     0.019 C 
HETATM    2  C3  UNL     1     -33.275  15.870  -2.964  1.00 20.00     0.019 C 
HETATM    3  C4  UNL     1     -34.234  16.923  -2.355  1.00 20.00     0.086 C 
HETATM    4  C5  UNL     1     -34.517  15.228  -3.634  1.00 20.00    -0.013 C 
ENDROOT
BRANCH   3   5
HETATM    5  C1  UNL     1     -33.921  17.350  -0.968  1.00 20.00     0.262 C 
HETATM    6  O10 UNL     1     -33.015  18.119  -0.675  1.00 20.00    -0.265 OA
BRANCH   5   7
HETATM    7  O11 UNL     1     -34.791  16.757  -0.101  1.00 20.00    -0.326 OA
HETATM    8  C7  UNL     1     -35.226  17.573   0.991  1.00 20.00     0.213 C 
ENDBRANCH   5   7
ENDBRANCH   3   5
BRANCH   4   9
HETATM    9  C8  UNL     1     -34.534  13.717  -3.728  1.00 20.00     0.004 C 
BRANCH   9  10
HETATM   10  C9  UNL     1     -34.740  13.242  -5.168  1.00 20.00    -0.004 C 
HETATM   11  C6  UNL     1     -34.831  14.410  -6.137  1.00 20.00     0.005 C 
ENDBRANCH   9  10
ENDBRANCH   4   9
TORSDOF 4
ENDMDL
MODEL 5
REMARK VINA RESULT:      -4.0     10.429     11.552
REMARK  4 active torsions:
REMARK  status: ('A' for Active; 'I' for Inactive)
REMARK    1  A    between atoms: C1_1  and  C4_4 
REMARK    2  A    between atoms: C1_1  and  O11_11 
REMARK    3  A    between atoms: C5_5  and  C8_8 
REMARK    4  A    between atoms: C8_8  and  C9_9 
ROOT
HETATM    1  C2  UNL     1     -32.707   5.744   2.799  1.00 20.00     0.019 C 
HETATM    2  C3  UNL     1     -33.575   7.327   3.931  1.00 20.00     0.019 C 
HETATM    3  C4  UNL     1     -32.230   7.167   3.181  1.00 20.00     0.086 C 
HETATM    4  C5  UNL     1     -33.606   5.782   4.061  1.00 20.00    -0.013 C 
ENDROOT
BRANCH   3   5
HETATM    5  C1  UNL     1     -32.014   8.098   2.044  1.00 20.00     0.262 C 
HETATM    6  O10 UNL     1     -31.406   7.803   1.023  1.00 20.00    -0.265 OA
BRANCH   5   7
HETATM    7  O11 UNL     1     -32.592   9.301   2.323  1.00 20.00    -0.326 OA
HETATM    8  C7  UNL     1     -32.558  10.261   1.262  1.00 20.00     0.213 C 
ENDBRANCH   5   7
ENDBRANCH   3   5
BRANCH   4   9
HETATM    9  C8  UNL     1     -34.962   5.119   3.949  1.00 20.00     0.004 C 
BRANCH   9  10
HETATM   10  C9  UNL     1     -35.235   4.185   5.129  1.00 20.00    -0.004 C 
HETATM   11  C6  UNL     1     -34.676   4.743   6.428  1.00 20.00     0.005 C 
ENDBRANCH   9  10
ENDBRANCH   4   9
TORSDOF 4
ENDMDL
MODEL 6
REMARK VINA RESULT:      -4.0     10.245     11.347
REMARK  4 active torsions:
REMARK  status: ('A' for Active; 'I' for Inactive)
REMARK    1  A    between atoms: C1_1  and  C4_4 
REMARK    2  A    between atoms: C1_1  and  O11_11 
REMARK    3  A    between atoms: C5_5  and  C8_8 
REMARK    4  A    between atoms: C8_8  and  C9_9 
ROOT
HETATM    1  C2  UNL     1     -32.916   6.044   2.386  1.00 20.00     0.019 C 
HETATM    2  C3  UNL     1     -33.382   7.344   4.010  1.00 20.00     0.019 C 
HETATM    3  C4  UNL     1     -32.251   7.322   2.953  1.00 20.00     0.086 C 
HETATM    4  C5  UNL     1     -33.513   5.813   3.799  1.00 20.00    -0.013 C 
ENDROOT
BRANCH   3   5
HETATM    5  C1  UNL     1     -32.210   8.487   2.032  1.00 20.00     0.262 C 
HETATM    6  O10 UNL     1     -32.652   9.594   2.307  1.00 20.00    -0.265 OA
BRANCH   5   7
HETATM    7  O11 UNL     1     -31.614   8.121   0.861  1.00 20.00    -0.326 OA
HETATM    8  C7  UNL     1     -32.193   8.676  -0.324  1.00 20.00     0.213 C 
ENDBRANCH   5   7
ENDBRANCH   3   5
BRANCH   4   9
HETATM    9  C8  UNL     1     -34.912   5.237   3.858  1.00 20.00     0.004 C 
BRANCH   9  10
HETATM   10  C9  UNL     1     -35.080   4.280   5.039  1.00 20.00    -0.004 C 
HETATM   11  C6  UNL     1     -34.744   4.955   6.360  1.00 20.00     0.005 C 
ENDBRANCH   9  10
ENDBRANCH   4   9
TORSDOF 4
ENDMDL
MODEL 7
REMARK VINA RESULT:      -3.9      1.252      1.466
REMARK  4 active torsions:
REMARK  status: ('A' for Active; 'I' for Inactive)
REMARK    1  A    between atoms: C1_1  and  C4_4 
REMARK    2  A    between atoms: C1_1  and  O11_11 
REMARK    3  A    between atoms: C5_5  and  C8_8 
REMARK    4  A    between atoms: C8_8  and  C9_9 
ROOT
HETATM    1  C2  UNL     1     -35.922  16.321  -2.936  1.00 20.00     0.019 C 
HETATM    2  C3  UNL     1     -34.167  15.119  -3.068  1.00 20.00     0.019 C 
HETATM    3  C4  UNL     1     -35.641  14.901  -3.486  1.00 20.00     0.086 C 
HETATM    4  C5  UNL     1     -34.688  16.132  -2.016  1.00 20.00    -0.013 C 
ENDROOT
BRANCH   3   5
HETATM    5  C1  UNL     1     -35.876  14.719  -4.942  1.00 20.00     0.262 C 
HETATM    6  O10 UNL     1     -36.957  14.892  -5.488  1.00 20.00    -0.265 OA
BRANCH   5   7
HETATM    7  O11 UNL     1     -34.715  14.338  -5.547  1.00 20.00    -0.326 OA
HETATM    8  C7  UNL     1     -34.459  14.936  -6.821  1.00 20.00     0.213 C 
ENDBRANCH   5   7
ENDBRANCH   3   5
BRANCH   4   9
HETATM    9  C8  UNL     1     -33.832  17.356  -1.769  1.00 20.00     0.004 C 
BRANCH   9  10
HETATM   10  C9  UNL     1     -33.725  17.681  -0.279  1.00 20.00    -0.004 C 
HETATM   11  C6  UNL     1     -35.023  17.384   0.455  1.00 20.00     0.005 C 
ENDBRANCH   9  10
ENDBRANCH   4   9
TORSDOF 4
ENDMDL
MODEL 8
REMARK VINA RESULT:      -3.8      2.876      5.129
REMARK  4 active torsions:
REMARK  status: ('A' for Active; 'I' for Inactive)
REMARK    1  A    between atoms: C1_1  and  C4_4 
REMARK    2  A    between atoms: C1_1  and  O11_11 
REMARK    3  A    between atoms: C5_5  and  C8_8 
REMARK    4  A    between atoms: C8_8  and  C9_9 
ROOT
HETATM    1  C2  UNL     1     -33.500  15.556  -3.013  1.00 20.00     0.019 C 
HETATM    2  C3  UNL     1     -35.143  16.843  -3.443  1.00 20.00     0.019 C 
HETATM    3  C4  UNL     1     -34.701  16.065  -2.179  1.00 20.00     0.086 C 
HETATM    4  C5  UNL     1     -34.367  15.792  -4.276  1.00 20.00    -0.013 C 
ENDROOT
BRANCH   3   5
HETATM    5  C1  UNL     1     -34.356  16.899  -0.999  1.00 20.00     0.262 C 
HETATM    6  O10 UNL     1     -34.903  16.803   0.091  1.00 20.00    -0.265 OA
BRANCH   5   7
HETATM    7  O11 UNL     1     -33.355  17.764  -1.329  1.00 20.00    -0.326 OA
HETATM    8  C7  UNL     1     -32.863  18.574  -0.257  1.00 20.00     0.213 C 
ENDBRANCH   5   7
ENDBRANCH   3   5
BRANCH   4   9
HETATM    9  C8  UNL     1     -33.647  16.299  -5.508  1.00 20.00     0.004 C 
BRANCH   9  10
HETATM   10  C9  UNL     1     -34.194  15.660  -6.786  1.00 20.00    -0.004 C 
HETATM   11  C6  UNL     1     -35.020  14.420  -6.485  1.00 20.00     0.005 C 
ENDBRANCH   9  10
ENDBRANCH   4   9
TORSDOF 4
ENDMDL
MODEL 9
REMARK VINA RESULT:      -3.8     12.627     14.700
REMARK  4 active torsions:
REMARK  status: ('A' for Active; 'I' for Inactive)
REMARK    1  A    between atoms: C1_1  and  C4_4 
REMARK    2  A    between atoms: C1_1  and  O11_11 
REMARK    3  A    between atoms: C5_5  and  C8_8 
REMARK    4  A    between atoms: C8_8  and  C9_9 
ROOT
HETATM    1  C2  UNL     1     -41.251   3.616  -2.273  1.00 20.00     0.019 C 
HETATM    2  C3  UNL     1     -42.986   3.699  -3.508  1.00 20.00     0.019 C 
HETATM    3  C4  UNL     1     -42.505   4.524  -2.289  1.00 20.00     0.086 C 
HETATM    4  C5  UNL     1     -42.112   2.535  -2.977  1.00 20.00    -0.013 C 
ENDROOT
BRANCH   3   5
HETATM    5  C1  UNL     1     -42.250   5.964  -2.548  1.00 20.00     0.262 C 
HETATM    6  O10 UNL     1     -42.975   6.677  -3.228  1.00 20.00    -0.265 OA
BRANCH   5   7
HETATM    7  O11 UNL     1     -41.103   6.345  -1.916  1.00 20.00    -0.326 OA
HETATM    8  C7  UNL     1     -41.261   7.337  -0.898  1.00 20.00     0.213 C 
ENDBRANCH   5   7
ENDBRANCH   3   5
BRANCH   4   9
HETATM    9  C8  UNL     1     -41.413   1.681  -4.014  1.00 20.00     0.004 C 
BRANCH   9  10
HETATM   10  C9  UNL     1     -41.807   0.208  -3.894  1.00 20.00    -0.004 C 
HETATM   11  C6  UNL     1     -43.002   0.020  -2.973  1.00 20.00     0.005 C 
ENDBRANCH   9  10
ENDBRANCH   4   9
TORSDOF 4
ENDMDL
