MODEL 1
REMARK VINA RESULT:      -4.8      0.000      0.000
REMARK  3 active torsions:
REMARK  status: ('A' for Active; 'I' for Inactive)
REMARK    1  A    between atoms: C3_3  and  C6_6 
REMARK    2  A    between atoms: C6_6  and  C8_8 
REMARK    3  A    between atoms: C7_7  and  C8_8 
ROOT
HETATM    1  C1  UNL     1     -35.625   5.169   4.147  1.00 20.00     0.285 C 
HETATM    2  C2  UNL     1     -35.071   5.133   5.573  1.00 20.00     0.073 C 
HETATM    3  C3  UNL     1     -33.723   6.501   3.749  1.00 20.00     0.282 C 
HETATM    4  C4  UNL     1     -34.395   3.811   5.919  1.00 20.00     0.023 C 
HETATM    5  N9  UNL     1     -34.498   5.369   3.234  1.00 20.00     0.098 N 
HETATM    6  S10 UNL     1     -33.843   6.473   5.568  1.00 20.00    -0.128 SA
HETATM    7  H27 UNL     1     -33.918   4.532   3.241  1.00 20.00     0.317 HD
ENDROOT
BRANCH   3   8
HETATM    8  C6  UNL     1     -32.274   6.396   3.299  1.00 20.00     0.046 C 
BRANCH   8   9
HETATM    9  C8  UNL     1     -31.672   7.774   3.032  1.00 20.00     0.002 C 
BRANCH   9  10
HETATM   10  C7  UNL     1     -31.927   8.223   1.594  1.00 20.00    -0.004 C 
HETATM   11  C5  UNL     1     -32.426   9.658   1.538  1.00 20.00     0.005 C 
ENDBRANCH   9  10
ENDBRANCH   8   9
ENDBRANCH   3   8
TORSDOF 3
ENDMDL
MODEL 2
REMARK VINA RESULT:      -4.2     11.578     12.197
REMARK  3 active torsions:
REMARK  status: ('A' for Active; 'I' for Inactive)
REMARK    1  A    between atoms: C3_3  and  C6_6 
REMARK    2  A    between atoms: C6_6  and  C8_8 
REMARK    3  A    between atoms: C7_7  and  C8_8 
ROOT
HETATM    1  C1  UNL     1     -34.501  13.433  -4.822  1.00 20.00     0.285 C 
HETATM    2  C2  UNL     1     -35.007  14.519  -5.774  1.00 20.00     0.073 C 
HETATM    3  C3  UNL     1     -33.354  15.238  -3.833  1.00 20.00     0.282 C 
HETATM    4  C4  UNL     1     -36.445  14.939  -5.492  1.00 20.00     0.023 C 
HETATM    5  N9  UNL     1     -34.190  14.071  -3.541  1.00 20.00     0.098 N 
HETATM    6  S10 UNL     1     -33.881  15.908  -5.445  1.00 20.00    -0.128 SA
HETATM    7  H27 UNL     1     -35.060  14.378  -3.108  1.00 20.00     0.317 HD
ENDROOT
BRANCH   3   8
HETATM    8  C6  UNL     1     -33.504  16.281  -2.736  1.00 20.00     0.046 C 
BRANCH   8   9
HETATM    9  C8  UNL     1     -34.766  16.043  -1.909  1.00 20.00     0.002 C 
BRANCH   9  10
HETATM   10  C7  UNL     1     -34.694  16.767  -0.565  1.00 20.00    -0.004 C 
HETATM   11  C5  UNL     1     -33.635  17.859  -0.578  1.00 20.00     0.005 C 
ENDBRANCH   9  10
ENDBRANCH   8   9
ENDBRANCH   3   8
TORSDOF 3
ENDMDL
MODEL 3
REMARK VINA RESULT:      -4.2     11.689     12.510
REMARK  3 active torsions:
REMARK  status: ('A' for Active; 'I' for Inactive)
REMARK    1  A    between atoms: C3_3  and  C6_6 
REMARK    2  A    between atoms: C6_6  and  C8_8 
REMARK    3  A    between atoms: C7_7  and  C8_8 
ROOT
HETATM    1  C1  UNL     1     -34.043  15.352  -6.100  1.00 20.00     0.285 C 
HETATM    2  C2  UNL     1     -35.196  14.556  -5.485  1.00 20.00     0.073 C 
HETATM    3  C3  UNL     1     -34.243  16.617  -4.123  1.00 20.00     0.282 C 
HETATM    4  C4  UNL     1     -34.753  13.221  -4.896  1.00 20.00     0.023 C 
HETATM    5  N9  UNL     1     -33.279  15.952  -5.004  1.00 20.00     0.098 N 
HETATM    6  S10 UNL     1     -35.788  15.651  -4.161  1.00 20.00    -0.128 SA
HETATM    7  H27 UNL     1     -32.807  15.211  -4.489  1.00 20.00     0.317 HD
ENDROOT
BRANCH   3   8
HETATM    8  C6  UNL     1     -33.691  16.703  -2.708  1.00 20.00     0.046 C 
BRANCH   8   9
HETATM    9  C8  UNL     1     -34.684  16.149  -1.688  1.00 20.00     0.002 C 
BRANCH   9  10
HETATM   10  C7  UNL     1     -34.664  16.964  -0.395  1.00 20.00    -0.004 C 
HETATM   11  C5  UNL     1     -33.558  18.006  -0.412  1.00 20.00     0.005 C 
ENDBRANCH   9  10
ENDBRANCH   8   9
ENDBRANCH   3   8
TORSDOF 3
ENDMDL
MODEL 4
REMARK VINA RESULT:      -4.1     11.480     11.945
REMARK  3 active torsions:
REMARK  status: ('A' for Active; 'I' for Inactive)
REMARK    1  A    between atoms: C3_3  and  C6_6 
REMARK    2  A    between atoms: C6_6  and  C8_8 
REMARK    3  A    between atoms: C7_7  and  C8_8 
ROOT
HETATM    1  C1  UNL     1     -36.336  14.285  -4.123  1.00 20.00     0.285 C 
HETATM    2  C2  UNL     1     -35.131  13.651  -4.821  1.00 20.00     0.073 C 
HETATM    3  C3  UNL     1     -34.670  15.415  -2.900  1.00 20.00     0.282 C 
HETATM    4  C4  UNL     1     -34.871  14.227  -6.209  1.00 20.00     0.023 C 
HETATM    5  N9  UNL     1     -35.926  15.602  -3.631  1.00 20.00     0.098 N 
HETATM    6  S10 UNL     1     -33.752  14.064  -3.711  1.00 20.00    -0.128 SA
HETATM    7  H27 UNL     1     -35.765  16.214  -4.429  1.00 20.00     0.317 HD
ENDROOT
BRANCH   3   8
HETATM    8  C6  UNL     1     -33.859  16.702  -2.908  1.00 20.00     0.046 C 
BRANCH   8   9
HETATM    9  C8  UNL     1     -33.661  17.245  -1.494  1.00 20.00     0.002 C 
BRANCH   9  10
HETATM   10  C7  UNL     1     -34.729  16.712  -0.540  1.00 20.00    -0.004 C 
HETATM   11  C5  UNL     1     -34.916  17.632   0.656  1.00 20.00     0.005 C 
ENDBRANCH   9  10
ENDBRANCH   8   9
ENDBRANCH   3   8
TORSDOF 3
ENDMDL
MODEL 5
REMARK VINA RESULT:      -4.1     11.541     12.495
REMARK  3 active torsions:
REMARK  status: ('A' for Active; 'I' for Inactive)
REMARK    1  A    between atoms: C3_3  and  C6_6 
REMARK    2  A    between atoms: C6_6  and  C8_8 
REMARK    3  A    between atoms: C7_7  and  C8_8 
ROOT
HETATM    1  C1  UNL     1     -36.382  15.303  -5.566  1.00 20.00     0.285 C 
HETATM    2  C2  UNL     1     -35.437  14.325  -6.267  1.00 20.00     0.073 C 
HETATM    3  C3  UNL     1     -35.055  14.791  -3.688  1.00 20.00     0.282 C 
HETATM    4  C4  UNL     1     -34.397  15.020  -7.139  1.00 20.00     0.023 C 
HETATM    5  N9  UNL     1     -35.658  15.895  -4.439  1.00 20.00     0.098 N 
HETATM    6  S10 UNL     1     -34.618  13.483  -4.880  1.00 20.00    -0.128 SA
HETATM    7  H27 UNL     1     -34.922  16.498  -4.803  1.00 20.00     0.317 HD
ENDROOT
BRANCH   3   8
HETATM    8  C6  UNL     1     -33.823  15.275  -2.938  1.00 20.00     0.046 C 
BRANCH   8   9
HETATM    9  C8  UNL     1     -34.049  16.656  -2.327  1.00 20.00     0.002 C 
BRANCH   9  10
HETATM   10  C7  UNL     1     -34.645  16.552  -0.924  1.00 20.00    -0.004 C 
HETATM   11  C5  UNL     1     -34.197  17.707  -0.042  1.00 20.00     0.005 C 
ENDBRANCH   9  10
ENDBRANCH   8   9
ENDBRANCH   3   8
TORSDOF 3
ENDMDL
MODEL 6
REMARK VINA RESULT:      -4.0     11.915     12.941
REMARK  3 active torsions:
REMARK  status: ('A' for Active; 'I' for Inactive)
REMARK    1  A    between atoms: C3_3  and  C6_6 
REMARK    2  A    between atoms: C6_6  and  C8_8 
REMARK    3  A    between atoms: C7_7  and  C8_8 
ROOT
HETATM    1  C1  UNL     1     -34.579  14.909  -6.497  1.00 20.00     0.285 C 
HETATM    2  C2  UNL     1     -35.667  15.949  -6.220  1.00 20.00     0.073 C 
HETATM    3  C3  UNL     1     -33.505  15.974  -4.691  1.00 20.00     0.282 C 
HETATM    4  C4  UNL     1     -36.879  15.370  -5.498  1.00 20.00     0.023 C 
HETATM    5  N9  UNL     1     -33.865  14.665  -5.242  1.00 20.00     0.098 N 
HETATM    6  S10 UNL     1     -34.822  17.149  -5.148  1.00 20.00    -0.128 SA
HETATM    7  H27 UNL     1     -34.491  14.186  -4.596  1.00 20.00     0.317 HD
ENDROOT
BRANCH   3   8
HETATM    8  C6  UNL     1     -33.357  15.887  -3.179  1.00 20.00     0.046 C 
BRANCH   8   9
HETATM    9  C8  UNL     1     -34.717  15.782  -2.491  1.00 20.00     0.002 C 
BRANCH   9  10
HETATM   10  C7  UNL     1     -34.699  16.459  -1.121  1.00 20.00    -0.004 C 
HETATM   11  C5  UNL     1     -33.595  17.500  -1.029  1.00 20.00     0.005 C 
ENDBRANCH   9  10
ENDBRANCH   8   9
ENDBRANCH   3   8
TORSDOF 3
ENDMDL
MODEL 7
REMARK VINA RESULT:      -3.8     11.360     12.332
REMARK  3 active torsions:
REMARK  status: ('A' for Active; 'I' for Inactive)
REMARK    1  A    between atoms: C3_3  and  C6_6 
REMARK    2  A    between atoms: C6_6  and  C8_8 
REMARK    3  A    between atoms: C7_7  and  C8_8 
ROOT
HETATM    1  C1  UNL     1     -36.294  17.246  -2.389  1.00 20.00     0.285 C 
HETATM    2  C2  UNL     1     -34.858  17.436  -1.895  1.00 20.00     0.073 C 
HETATM    3  C3  UNL     1     -35.306  15.580  -3.730  1.00 20.00     0.282 C 
HETATM    4  C4  UNL     1     -34.617  16.836  -0.514  1.00 20.00     0.023 C 
HETATM    5  N9  UNL     1     -36.433  15.859  -2.837  1.00 20.00     0.098 N 
HETATM    6  S10 UNL     1     -33.877  16.544  -3.137  1.00 20.00    -0.128 SA
HETATM    7  H27 UNL     1     -36.380  15.246  -2.025  1.00 20.00     0.317 HD
ENDROOT
BRANCH   3   8
HETATM    8  C6  UNL     1     -34.992  14.092  -3.735  1.00 20.00     0.046 C 
BRANCH   8   9
HETATM    9  C8  UNL     1     -34.586  13.612  -5.127  1.00 20.00     0.002 C 
BRANCH   9  10
HETATM   10  C7  UNL     1     -35.351  14.361  -6.217  1.00 20.00    -0.004 C 
HETATM   11  C5  UNL     1     -34.407  14.960  -7.248  1.00 20.00     0.005 C 
ENDBRANCH   9  10
ENDBRANCH   8   9
ENDBRANCH   3   8
TORSDOF 3
ENDMDL
MODEL 8
REMARK VINA RESULT:      -3.8     11.438     12.335
REMARK  3 active torsions:
REMARK  status: ('A' for Active; 'I' for Inactive)
REMARK    1  A    between atoms: C3_3  and  C6_6 
REMARK    2  A    between atoms: C6_6  and  C8_8 
REMARK    3  A    between atoms: C7_7  and  C8_8 
ROOT
HETATM    1  C1  UNL     1     -36.584  14.914  -3.754  1.00 20.00     0.285 C 
HETATM    2  C2  UNL     1     -35.563  15.107  -4.877  1.00 20.00     0.073 C 
HETATM    3  C3  UNL     1     -34.757  15.493  -2.384  1.00 20.00     0.282 C 
HETATM    4  C4  UNL     1     -35.748  16.418  -5.634  1.00 20.00     0.023 C 
HETATM    5  N9  UNL     1     -36.176  15.759  -2.629  1.00 20.00     0.098 N 
HETATM    6  S10 UNL     1     -33.977  15.122  -3.990  1.00 20.00    -0.128 SA
HETATM    7  H27 UNL     1     -36.297  16.735  -2.893  1.00 20.00     0.317 HD
ENDROOT
BRANCH   3   8
HETATM    8  C6  UNL     1     -34.101  16.699  -1.729  1.00 20.00     0.046 C 
BRANCH   8   9
HETATM    9  C8  UNL     1     -34.689  16.971  -0.346  1.00 20.00     0.002 C 
BRANCH   9  10
HETATM   10  C7  UNL     1     -33.967  18.125   0.348  1.00 20.00    -0.004 C 
HETATM   11  C5  UNL     1     -32.838  18.672  -0.512  1.00 20.00     0.005 C 
ENDBRANCH   9  10
ENDBRANCH   8   9
ENDBRANCH   3   8
TORSDOF 3
ENDMDL
MODEL 9
REMARK VINA RESULT:      -3.8     11.190     12.259
REMARK  3 active torsions:
REMARK  status: ('A' for Active; 'I' for Inactive)
REMARK    1  A    between atoms: C3_3  and  C6_6 
REMARK    2  A    between atoms: C6_6  and  C8_8 
REMARK    3  A    between atoms: C7_7  and  C8_8 
ROOT
HETATM    1  C1  UNL     1     -34.951  17.921   0.308  1.00 20.00     0.285 C 
HETATM    2  C2  UNL     1     -33.944  18.943  -0.224  1.00 20.00     0.073 C 
HETATM    3  C3  UNL     1     -34.743  17.018  -1.858  1.00 20.00     0.282 C 
HETATM    4  C4  UNL     1     -32.527  18.711   0.292  1.00 20.00     0.023 C 
HETATM    5  N9  UNL     1     -34.756  16.674  -0.435  1.00 20.00     0.098 N 
HETATM    6  S10 UNL     1     -34.000  18.675  -2.021  1.00 20.00    -0.128 SA
HETATM    7  H27 UNL     1     -33.855  16.275  -0.175  1.00 20.00     0.317 HD
ENDROOT
BRANCH   3   8
HETATM    8  C6  UNL     1     -33.945  15.987  -2.643  1.00 20.00     0.046 C 
BRANCH   8   9
HETATM    9  C8  UNL     1     -34.829  14.828  -3.100  1.00 20.00     0.002 C 
BRANCH   9  10
HETATM   10  C7  UNL     1     -34.001  13.724  -3.755  1.00 20.00    -0.004 C 
HETATM   11  C5  UNL     1     -34.662  13.212  -5.025  1.00 20.00     0.005 C 
ENDBRANCH   9  10
ENDBRANCH   8   9
ENDBRANCH   3   8
TORSDOF 3
ENDMDL
