MODEL 1
REMARK VINA RESULT:      -4.0      0.000      0.000
REMARK  2 active torsions:
REMARK  status: ('A' for Active; 'I' for Inactive)
REMARK    1  A    between atoms: C3_3  and  C6_6 
REMARK    2  A    between atoms: C6_6  and  C7_7 
ROOT
HETATM    1  C1  UNL     1     -34.448  14.000  -4.769  1.00 20.00     0.285 C 
HETATM    2  C2  UNL     1     -34.701  15.185  -5.701  1.00 20.00     0.073 C 
HETATM    3  C3  UNL     1     -33.319  15.628  -3.498  1.00 20.00     0.282 C 
HETATM    4  C4  UNL     1     -34.475  14.842  -7.163  1.00 20.00     0.023 C 
HETATM    5  N8  UNL     1     -34.303  14.546  -3.419  1.00 20.00     0.098 N 
HETATM    6  S9  UNL     1     -33.529  16.441  -5.114  1.00 20.00    -0.128 SA
HETATM    7  H24 UNL     1     -35.202  14.934  -3.130  1.00 20.00     0.317 HD
ENDROOT
BRANCH   3   8
HETATM    8  C6  UNL     1     -33.525  16.616  -2.361  1.00 20.00     0.046 C 
BRANCH   8   9
HETATM    9  C7  UNL     1     -34.746  16.252  -1.520  1.00 20.00    -0.002 C 
HETATM   10  C5  UNL     1     -34.767  17.018  -0.207  1.00 20.00     0.005 C 
ENDBRANCH   8   9
ENDBRANCH   3   8
TORSDOF 2
ENDMDL
MODEL 2
REMARK VINA RESULT:      -3.9     11.812     12.636
REMARK  2 active torsions:
REMARK  status: ('A' for Active; 'I' for Inactive)
REMARK    1  A    between atoms: C3_3  and  C6_6 
REMARK    2  A    between atoms: C6_6  and  C7_7 
ROOT
HETATM    1  C1  UNL     1     -35.184   4.907   4.046  1.00 20.00     0.285 C 
HETATM    2  C2  UNL     1     -34.385   4.851   5.347  1.00 20.00     0.073 C 
HETATM    3  C3  UNL     1     -33.665   6.634   3.539  1.00 20.00     0.282 C 
HETATM    4  C4  UNL     1     -35.269   4.739   6.576  1.00 20.00     0.023 C 
HETATM    5  N8  UNL     1     -34.278   5.412   3.013  1.00 20.00     0.098 N 
HETATM    6  S9  UNL     1     -33.446   6.406   5.333  1.00 20.00    -0.128 SA
HETATM    7  H24 UNL     1     -33.548   4.715   2.856  1.00 20.00     0.317 HD
ENDROOT
BRANCH   3   8
HETATM    8  C6  UNL     1     -32.332   6.895   2.857  1.00 20.00     0.046 C 
BRANCH   8   9
HETATM    9  C7  UNL     1     -32.185   8.362   2.462  1.00 20.00    -0.002 C 
HETATM   10  C5  UNL     1     -31.807   8.508   0.996  1.00 20.00     0.005 C 
ENDBRANCH   8   9
ENDBRANCH   3   8
TORSDOF 2
ENDMDL
MODEL 3
REMARK VINA RESULT:      -3.8      1.376      1.543
REMARK  2 active torsions:
REMARK  status: ('A' for Active; 'I' for Inactive)
REMARK    1  A    between atoms: C3_3  and  C6_6 
REMARK    2  A    between atoms: C6_6  and  C7_7 
ROOT
HETATM    1  C1  UNL     1     -36.111  14.864  -3.822  1.00 20.00     0.285 C 
HETATM    2  C2  UNL     1     -35.117  15.306  -4.895  1.00 20.00     0.073 C 
HETATM    3  C3  UNL     1     -34.437  15.656  -2.369  1.00 20.00     0.282 C 
HETATM    4  C4  UNL     1     -34.958  14.286  -6.007  1.00 20.00     0.023 C 
HETATM    5  N8  UNL     1     -35.874  15.706  -2.649  1.00 20.00     0.098 N 
HETATM    6  S9  UNL     1     -33.573  15.538  -3.967  1.00 20.00    -0.128 SA
HETATM    7  H24 UNL     1     -36.134  16.665  -2.884  1.00 20.00     0.317 HD
ENDROOT
BRANCH   3   8
HETATM    8  C6  UNL     1     -34.003  16.897  -1.605  1.00 20.00     0.046 C 
BRANCH   8   9
HETATM    9  C7  UNL     1     -34.743  17.022  -0.276  1.00 20.00    -0.002 C 
HETATM   10  C5  UNL     1     -34.135  18.105   0.600  1.00 20.00     0.005 C 
ENDBRANCH   8   9
ENDBRANCH   3   8
TORSDOF 2
ENDMDL
MODEL 4
REMARK VINA RESULT:      -3.7      1.876      2.163
REMARK  2 active torsions:
REMARK  status: ('A' for Active; 'I' for Inactive)
REMARK    1  A    between atoms: C3_3  and  C6_6 
REMARK    2  A    between atoms: C6_6  and  C7_7 
ROOT
HETATM    1  C1  UNL     1     -33.309  15.038  -3.728  1.00 20.00     0.285 C 
HETATM    2  C2  UNL     1     -34.497  14.084  -3.616  1.00 20.00     0.073 C 
HETATM    3  C3  UNL     1     -34.892  16.615  -2.984  1.00 20.00     0.282 C 
HETATM    4  C4  UNL     1     -34.619  13.154  -4.810  1.00 20.00     0.023 C 
HETATM    5  N8  UNL     1     -33.534  16.112  -2.758  1.00 20.00     0.098 N 
HETATM    6  S9  UNL     1     -35.923  15.199  -3.481  1.00 20.00    -0.128 SA
HETATM    7  H24 UNL     1     -33.478  15.715  -1.820  1.00 20.00     0.317 HD
ENDROOT
BRANCH   3   8
HETATM    8  C6  UNL     1     -35.432  17.266  -1.721  1.00 20.00     0.046 C 
BRANCH   8   9
HETATM    9  C7  UNL     1     -34.658  16.813  -0.485  1.00 20.00    -0.002 C 
HETATM   10  C5  UNL     1     -34.125  17.999   0.303  1.00 20.00     0.005 C 
ENDBRANCH   8   9
ENDBRANCH   3   8
TORSDOF 2
ENDMDL
MODEL 5
REMARK VINA RESULT:      -3.7      1.426      4.464
REMARK  2 active torsions:
REMARK  status: ('A' for Active; 'I' for Inactive)
REMARK    1  A    between atoms: C3_3  and  C6_6 
REMARK    2  A    between atoms: C6_6  and  C7_7 
ROOT
HETATM    1  C1  UNL     1     -33.201  15.477  -3.405  1.00 20.00     0.285 C 
HETATM    2  C2  UNL     1     -34.524  16.122  -2.993  1.00 20.00     0.073 C 
HETATM    3  C3  UNL     1     -34.601  14.214  -4.815  1.00 20.00     0.282 C 
HETATM    4  C4  UNL     1     -34.652  16.296  -1.490  1.00 20.00     0.023 C 
HETATM    5  N8  UNL     1     -33.369  15.005  -4.781  1.00 20.00     0.098 N 
HETATM    6  S9  UNL     1     -35.772  14.977  -3.647  1.00 20.00    -0.128 SA
HETATM    7  H24 UNL     1     -33.478  15.818  -5.388  1.00 20.00     0.317 HD
ENDROOT
BRANCH   3   8
HETATM    8  C6  UNL     1     -35.175  14.189  -6.223  1.00 20.00     0.046 C 
BRANCH   8   9
HETATM    9  C7  UNL     1     -34.359  15.061  -7.173  1.00 20.00    -0.002 C 
HETATM   10  C5  UNL     1     -35.167  16.248  -7.672  1.00 20.00     0.005 C 
ENDBRANCH   8   9
ENDBRANCH   3   8
TORSDOF 2
ENDMDL
MODEL 6
REMARK VINA RESULT:      -3.7      2.329      3.687
REMARK  2 active torsions:
REMARK  status: ('A' for Active; 'I' for Inactive)
REMARK    1  A    between atoms: C3_3  and  C6_6 
REMARK    2  A    between atoms: C6_6  and  C7_7 
ROOT
HETATM    1  C1  UNL     1     -33.397  17.294  -4.956  1.00 20.00     0.285 C 
HETATM    2  C2  UNL     1     -34.435  17.490  -3.852  1.00 20.00     0.073 C 
HETATM    3  C3  UNL     1     -32.927  15.326  -3.751  1.00 20.00     0.282 C 
HETATM    4  C4  UNL     1     -34.462  18.910  -3.316  1.00 20.00     0.023 C 
HETATM    5  N8  UNL     1     -33.190  15.851  -5.094  1.00 20.00     0.098 N 
HETATM    6  S9  UNL     1     -33.926  16.299  -2.579  1.00 20.00    -0.128 SA
HETATM    7  H24 UNL     1     -34.052  15.435  -5.450  1.00 20.00     0.317 HD
ENDROOT
BRANCH   3   8
HETATM    8  C6  UNL     1     -33.287  13.851  -3.680  1.00 20.00     0.046 C 
BRANCH   8   9
HETATM    9  C7  UNL     1     -34.278  13.464  -4.774  1.00 20.00    -0.002 C 
HETATM   10  C5  UNL     1     -35.713  13.548  -4.281  1.00 20.00     0.005 C 
ENDBRANCH   8   9
ENDBRANCH   3   8
TORSDOF 2
ENDMDL
MODEL 7
REMARK VINA RESULT:      -3.7      1.460      1.768
REMARK  2 active torsions:
REMARK  status: ('A' for Active; 'I' for Inactive)
REMARK    1  A    between atoms: C3_3  and  C6_6 
REMARK    2  A    between atoms: C6_6  and  C7_7 
ROOT
HETATM    1  C1  UNL     1     -34.120  15.382  -6.718  1.00 20.00     0.285 C 
HETATM    2  C2  UNL     1     -34.644  16.802  -6.507  1.00 20.00     0.073 C 
HETATM    3  C3  UNL     1     -33.296  15.682  -4.533  1.00 20.00     0.282 C 
HETATM    4  C4  UNL     1     -34.408  17.701  -7.707  1.00 20.00     0.023 C 
HETATM    5  N8  UNL     1     -34.037  14.759  -5.396  1.00 20.00     0.098 N 
HETATM    6  S9  UNL     1     -33.729  17.375  -5.046  1.00 20.00    -0.128 SA
HETATM    7  H24 UNL     1     -34.984  14.650  -5.032  1.00 20.00     0.317 HD
ENDROOT
BRANCH   3   8
HETATM    8  C6  UNL     1     -33.655  15.447  -3.075  1.00 20.00     0.046 C 
BRANCH   8   9
HETATM    9  C7  UNL     1     -33.835  16.764  -2.324  1.00 20.00    -0.002 C 
HETATM   10  C5  UNL     1     -34.610  16.567  -1.031  1.00 20.00     0.005 C 
ENDBRANCH   8   9
ENDBRANCH   3   8
TORSDOF 2
ENDMDL
MODEL 8
REMARK VINA RESULT:      -3.5      2.102      2.147
REMARK  2 active torsions:
REMARK  status: ('A' for Active; 'I' for Inactive)
REMARK    1  A    between atoms: C3_3  and  C6_6 
REMARK    2  A    between atoms: C6_6  and  C7_7 
ROOT
HETATM    1  C1  UNL     1     -37.448  15.067  -4.009  1.00 20.00     0.285 C 
HETATM    2  C2  UNL     1     -36.909  15.799  -5.237  1.00 20.00     0.073 C 
HETATM    3  C3  UNL     1     -35.177  15.057  -3.389  1.00 20.00     0.282 C 
HETATM    4  C4  UNL     1     -37.507  15.290  -6.536  1.00 20.00     0.023 C 
HETATM    5  N8  UNL     1     -36.528  15.351  -2.906  1.00 20.00     0.098 N 
HETATM    6  S9  UNL     1     -35.120  15.497  -5.156  1.00 20.00    -0.128 SA
HETATM    7  H24 UNL     1     -36.592  16.345  -2.683  1.00 20.00     0.317 HD
ENDROOT
BRANCH   3   8
HETATM    8  C6  UNL     1     -34.148  15.848  -2.598  1.00 20.00     0.046 C 
BRANCH   8   9
HETATM    9  C7  UNL     1     -34.752  16.431  -1.323  1.00 20.00    -0.002 C 
HETATM   10  C5  UNL     1     -33.865  17.514  -0.731  1.00 20.00     0.005 C 
ENDBRANCH   8   9
ENDBRANCH   3   8
TORSDOF 2
ENDMDL
MODEL 9
REMARK VINA RESULT:      -3.4      2.079      4.577
REMARK  2 active torsions:
REMARK  status: ('A' for Active; 'I' for Inactive)
REMARK    1  A    between atoms: C3_3  and  C6_6 
REMARK    2  A    between atoms: C6_6  and  C7_7 
ROOT
HETATM    1  C1  UNL     1     -34.604  17.036  -0.402  1.00 20.00     0.285 C 
HETATM    2  C2  UNL     1     -33.394  17.755  -0.995  1.00 20.00     0.073 C 
HETATM    3  C3  UNL     1     -35.199  16.802  -2.668  1.00 20.00     0.282 C 
HETATM    4  C4  UNL     1     -33.057  19.042  -0.263  1.00 20.00     0.023 C 
HETATM    5  N8  UNL     1     -35.060  16.072  -1.406  1.00 20.00     0.098 N 
HETATM    6  S9  UNL     1     -33.890  18.068  -2.714  1.00 20.00    -0.128 SA
HETATM    7  H24 UNL     1     -34.341  15.356  -1.513  1.00 20.00     0.317 HD
ENDROOT
BRANCH   3   8
HETATM    8  C6  UNL     1     -35.077  15.850  -3.847  1.00 20.00     0.046 C 
BRANCH   8   9
HETATM    9  C7  UNL     1     -34.418  14.536  -3.436  1.00 20.00    -0.002 C 
HETATM   10  C5  UNL     1     -34.985  13.360  -4.216  1.00 20.00     0.005 C 
ENDBRANCH   8   9
ENDBRANCH   3   8
TORSDOF 2
ENDMDL
