MODEL 1
REMARK VINA RESULT:      -3.8      0.000      0.000
REMARK  0 active torsions:
REMARK  status: ('A' for Active; 'I' for Inactive)
ROOT
HETATM    1  C1  UNL     1     -36.645  14.440  -4.345  1.00 20.00     0.080 C 
HETATM    2  C2  UNL     1     -33.679  13.752  -3.613  1.00 20.00     0.013 C 
HETATM    3  C3  UNL     1     -34.448  13.421  -4.887  1.00 20.00     0.036 C 
HETATM    4  C4  UNL     1     -33.152  15.165  -3.786  1.00 20.00     0.076 C 
HETATM    5  C5  UNL     1     -35.419  14.580  -5.149  1.00 20.00     0.093 C 
HETATM    6  C6  UNL     1     -35.775  14.686  -6.631  1.00 20.00     0.043 C 
HETATM    7  N7  UNL     1     -37.611  14.329  -3.712  1.00 20.00    -0.196 NA
HETATM    8  S8  UNL     1     -34.485  16.069  -4.622  1.00 20.00    -0.144 SA
ENDROOT
TORSDOF 0
ENDMDL
MODEL 2
REMARK VINA RESULT:      -3.8      1.862      2.317
REMARK  0 active torsions:
REMARK  status: ('A' for Active; 'I' for Inactive)
ROOT
HETATM    1  C1  UNL     1     -34.654  13.847  -4.763  1.00 20.00     0.080 C 
HETATM    2  C2  UNL     1     -33.731  16.074  -2.763  1.00 20.00     0.013 C 
HETATM    3  C3  UNL     1     -33.206  15.770  -4.162  1.00 20.00     0.036 C 
HETATM    4  C4  UNL     1     -34.955  16.953  -2.947  1.00 20.00     0.076 C 
HETATM    5  C5  UNL     1     -34.393  15.278  -5.000  1.00 20.00     0.093 C 
HETATM    6  C6  UNL     1     -34.167  15.527  -6.490  1.00 20.00     0.043 C 
HETATM    7  N7  UNL     1     -34.859  12.720  -4.577  1.00 20.00    -0.196 NA
HETATM    8  S8  UNL     1     -35.805  16.284  -4.403  1.00 20.00    -0.144 SA
ENDROOT
TORSDOF 0
ENDMDL
MODEL 3
REMARK VINA RESULT:      -3.7      1.103      1.484
REMARK  0 active torsions:
REMARK  status: ('A' for Active; 'I' for Inactive)
ROOT
HETATM    1  C1  UNL     1     -37.135  14.735  -4.068  1.00 20.00     0.080 C 
HETATM    2  C2  UNL     1     -34.528  13.181  -4.842  1.00 20.00     0.013 C 
HETATM    3  C3  UNL     1     -35.213  14.324  -5.583  1.00 20.00     0.036 C 
HETATM    4  C4  UNL     1     -33.653  13.822  -3.780  1.00 20.00     0.076 C 
HETATM    5  C5  UNL     1     -35.832  15.248  -4.526  1.00 20.00     0.093 C 
HETATM    6  C6  UNL     1     -35.989  16.673  -5.052  1.00 20.00     0.043 C 
HETATM    7  N7  UNL     1     -38.161  14.330  -3.707  1.00 20.00    -0.196 NA
HETATM    8  S8  UNL     1     -34.623  15.219  -3.148  1.00 20.00    -0.144 SA
ENDROOT
TORSDOF 0
ENDMDL
MODEL 4
REMARK VINA RESULT:      -3.7      1.930      2.988
REMARK  0 active torsions:
REMARK  status: ('A' for Active; 'I' for Inactive)
ROOT
HETATM    1  C1  UNL     1     -34.530  13.708  -4.153  1.00 20.00     0.080 C 
HETATM    2  C2  UNL     1     -35.827  16.314  -2.996  1.00 20.00     0.013 C 
HETATM    3  C3  UNL     1     -34.563  15.594  -2.541  1.00 20.00     0.036 C 
HETATM    4  C4  UNL     1     -35.417  17.209  -4.152  1.00 20.00     0.076 C 
HETATM    5  C5  UNL     1     -33.904  14.991  -3.789  1.00 20.00     0.093 C 
HETATM    6  C6  UNL     1     -32.402  14.801  -3.591  1.00 20.00     0.043 C 
HETATM    7  N7  UNL     1     -35.024  12.698  -4.441  1.00 20.00    -0.196 NA
HETATM    8  S8  UNL     1     -34.211  16.238  -5.098  1.00 20.00    -0.144 SA
ENDROOT
TORSDOF 0
ENDMDL
MODEL 5
REMARK VINA RESULT:      -3.7      1.138      1.609
REMARK  0 active torsions:
REMARK  status: ('A' for Active; 'I' for Inactive)
ROOT
HETATM    1  C1  UNL     1     -36.620  14.422  -4.031  1.00 20.00     0.080 C 
HETATM    2  C2  UNL     1     -34.319  15.987  -2.595  1.00 20.00     0.013 C 
HETATM    3  C3  UNL     1     -34.346  14.530  -3.045  1.00 20.00     0.036 C 
HETATM    4  C4  UNL     1     -33.914  16.803  -3.810  1.00 20.00     0.076 C 
HETATM    5  C5  UNL     1     -35.179  14.465  -4.332  1.00 20.00     0.093 C 
HETATM    6  C6  UNL     1     -34.789  13.262  -5.189  1.00 20.00     0.043 C 
HETATM    7  N7  UNL     1     -37.756  14.388  -3.793  1.00 20.00    -0.196 NA
HETATM    8  S8  UNL     1     -34.763  16.020  -5.210  1.00 20.00    -0.144 SA
ENDROOT
TORSDOF 0
ENDMDL
MODEL 6
REMARK VINA RESULT:      -3.7      2.392      3.438
REMARK  0 active torsions:
REMARK  status: ('A' for Active; 'I' for Inactive)
ROOT
HETATM    1  C1  UNL     1     -33.618  16.590  -4.426  1.00 20.00     0.080 C 
HETATM    2  C2  UNL     1     -34.146  13.506  -4.555  1.00 20.00     0.013 C 
HETATM    3  C3  UNL     1     -33.479  14.314  -3.447  1.00 20.00     0.036 C 
HETATM    4  C4  UNL     1     -35.641  13.601  -4.313  1.00 20.00     0.076 C 
HETATM    5  C5  UNL     1     -34.167  15.684  -3.403  1.00 20.00     0.093 C 
HETATM    6  C6  UNL     1     -34.049  16.324  -2.021  1.00 20.00     0.043 C 
HETATM    7  N7  UNL     1     -33.184  17.303  -5.232  1.00 20.00    -0.196 NA
HETATM    8  S8  UNL     1     -35.925  15.309  -3.770  1.00 20.00    -0.144 SA
ENDROOT
TORSDOF 0
ENDMDL
MODEL 7
REMARK VINA RESULT:      -3.6      1.909      2.814
REMARK  0 active torsions:
REMARK  status: ('A' for Active; 'I' for Inactive)
ROOT
HETATM    1  C1  UNL     1     -34.144  13.816  -4.235  1.00 20.00     0.080 C 
HETATM    2  C2  UNL     1     -34.299  15.091  -7.091  1.00 20.00     0.013 C 
HETATM    3  C3  UNL     1     -35.369  14.312  -6.335  1.00 20.00     0.036 C 
HETATM    4  C4  UNL     1     -34.393  16.527  -6.607  1.00 20.00     0.076 C 
HETATM    5  C5  UNL     1     -35.204  14.637  -4.845  1.00 20.00     0.093 C 
HETATM    6  C6  UNL     1     -36.514  14.446  -4.083  1.00 20.00     0.043 C 
HETATM    7  N7  UNL     1     -33.308  13.169  -3.756  1.00 20.00    -0.196 NA
HETATM    8  S8  UNL     1     -34.722  16.406  -4.827  1.00 20.00    -0.144 SA
ENDROOT
TORSDOF 0
ENDMDL
MODEL 8
REMARK VINA RESULT:      -3.5      1.644      2.728
REMARK  0 active torsions:
REMARK  status: ('A' for Active; 'I' for Inactive)
ROOT
HETATM    1  C1  UNL     1     -36.963  14.666  -3.895  1.00 20.00     0.080 C 
HETATM    2  C2  UNL     1     -35.639  15.769  -6.510  1.00 20.00     0.013 C 
HETATM    3  C3  UNL     1     -35.510  16.289  -5.083  1.00 20.00     0.036 C 
HETATM    4  C4  UNL     1     -34.628  14.646  -6.650  1.00 20.00     0.076 C 
HETATM    5  C5  UNL     1     -35.570  15.075  -4.147  1.00 20.00     0.093 C 
HETATM    6  C6  UNL     1     -34.862  15.354  -2.823  1.00 20.00     0.043 C 
HETATM    7  N7  UNL     1     -38.060  14.343  -3.698  1.00 20.00    -0.196 NA
HETATM    8  S8  UNL     1     -34.682  13.760  -5.067  1.00 20.00    -0.144 SA
ENDROOT
TORSDOF 0
ENDMDL
MODEL 9
REMARK VINA RESULT:      -3.5      2.489      2.882
REMARK  0 active torsions:
REMARK  status: ('A' for Active; 'I' for Inactive)
ROOT
HETATM    1  C1  UNL     1     -34.850  16.263  -1.654  1.00 20.00     0.080 C 
HETATM    2  C2  UNL     1     -32.841  15.137  -3.776  1.00 20.00     0.013 C 
HETATM    3  C3  UNL     1     -34.196  14.580  -3.356  1.00 20.00     0.036 C 
HETATM    4  C4  UNL     1     -33.121  16.199  -4.824  1.00 20.00     0.076 C 
HETATM    5  C5  UNL     1     -35.098  15.775  -3.022  1.00 20.00     0.093 C 
HETATM    6  C6  UNL     1     -36.575  15.425  -3.191  1.00 20.00     0.043 C 
HETATM    7  N7  UNL     1     -34.654  16.648  -0.577  1.00 20.00    -0.196 NA
HETATM    8  S8  UNL     1     -34.614  17.052  -4.246  1.00 20.00    -0.144 SA
ENDROOT
TORSDOF 0
ENDMDL
