MODEL 1
REMARK VINA RESULT:      -3.7      0.000      0.000
REMARK  1 active torsions:
REMARK  status: ('A' for Active; 'I' for Inactive)
REMARK    1  A    between atoms: C2_2  and  C6_6 
ROOT
HETATM    1  C1  UNL     1     -34.103  13.999  -3.423  1.00 20.00     0.111 C 
HETATM    2  C2  UNL     1     -34.608  15.441  -3.416  1.00 20.00     0.231 C 
HETATM    3  C3  UNL     1     -35.024  14.975  -5.691  1.00 20.00     0.278 C 
HETATM    4  C4  UNL     1     -34.413  15.080  -7.081  1.00 20.00     0.054 C 
HETATM    5  N7  UNL     1     -34.444  15.972  -4.780  1.00 20.00     0.102 N 
HETATM    6  S8  UNL     1     -34.729  13.327  -4.980  1.00 20.00    -0.132 SA
HETATM    7  H21 UNL     1     -34.918  16.868  -4.878  1.00 20.00     0.317 HD
ENDROOT
BRANCH   2   8
HETATM    8  C6  UNL     1     -33.841  16.297  -2.415  1.00 20.00     0.032 C 
HETATM    9  C5  UNL     1     -34.613  16.500  -1.151  1.00 20.00     0.007 C 
ENDBRANCH   2   8
TORSDOF 1
ENDMDL
MODEL 2
REMARK VINA RESULT:      -3.6      2.328      3.052
REMARK  1 active torsions:
REMARK  status: ('A' for Active; 'I' for Inactive)
REMARK    1  A    between atoms: C2_2  and  C6_6 
ROOT
HETATM    1  C1  UNL     1     -34.082  15.969  -2.923  1.00 20.00     0.111 C 
HETATM    2  C2  UNL     1     -33.180  15.172  -3.865  1.00 20.00     0.231 C 
HETATM    3  C3  UNL     1     -33.352  17.127  -5.175  1.00 20.00     0.278 C 
HETATM    4  C4  UNL     1     -34.151  17.764  -6.302  1.00 20.00     0.054 C 
HETATM    5  N7  UNL     1     -33.430  15.660  -5.232  1.00 20.00     0.102 N 
HETATM    6  S8  UNL     1     -33.984  17.659  -3.554  1.00 20.00    -0.132 SA
HETATM    7  H21 UNL     1     -32.739  15.288  -5.880  1.00 20.00     0.317 HD
ENDROOT
BRANCH   2   8
HETATM    8  C6  UNL     1     -33.459  13.677  -3.774  1.00 20.00     0.032 C 
HETATM    9  C5  UNL     1     -34.749  13.311  -4.436  1.00 20.00     0.007 C 
ENDBRANCH   2   8
TORSDOF 1
ENDMDL
MODEL 3
REMARK VINA RESULT:      -3.6      1.742      2.209
REMARK  1 active torsions:
REMARK  status: ('A' for Active; 'I' for Inactive)
REMARK    1  A    between atoms: C2_2  and  C6_6 
ROOT
HETATM    1  C1  UNL     1     -33.974  17.195  -3.542  1.00 20.00     0.111 C 
HETATM    2  C2  UNL     1     -33.906  16.103  -2.475  1.00 20.00     0.231 C 
HETATM    3  C3  UNL     1     -33.813  14.698  -4.367  1.00 20.00     0.278 C 
HETATM    4  C4  UNL     1     -34.679  13.875  -5.310  1.00 20.00     0.054 C 
HETATM    5  N7  UNL     1     -34.469  14.877  -3.064  1.00 20.00     0.102 N 
HETATM    6  S8  UNL     1     -33.489  16.347  -5.063  1.00 20.00    -0.132 SA
HETATM    7  H21 UNL     1     -34.295  14.074  -2.462  1.00 20.00     0.317 HD
ENDROOT
BRANCH   2   8
HETATM    8  C6  UNL     1     -34.681  16.496  -1.223  1.00 20.00     0.032 C 
HETATM    9  C5  UNL     1     -34.002  17.597  -0.472  1.00 20.00     0.007 C 
ENDBRANCH   2   8
TORSDOF 1
ENDMDL
MODEL 4
REMARK VINA RESULT:      -3.5      2.081      2.365
REMARK  1 active torsions:
REMARK  status: ('A' for Active; 'I' for Inactive)
REMARK    1  A    between atoms: C2_2  and  C6_6 
ROOT
HETATM    1  C1  UNL     1     -33.895  16.530  -3.928  1.00 20.00     0.111 C 
HETATM    2  C2  UNL     1     -34.154  16.012  -2.514  1.00 20.00     0.231 C 
HETATM    3  C3  UNL     1     -35.842  14.783  -3.613  1.00 20.00     0.278 C 
HETATM    4  C4  UNL     1     -37.316  14.816  -3.988  1.00 20.00     0.054 C 
HETATM    5  N7  UNL     1     -35.574  15.627  -2.440  1.00 20.00     0.102 N 
HETATM    6  S8  UNL     1     -34.812  15.386  -4.985  1.00 20.00    -0.132 SA
HETATM    7  H21 UNL     1     -35.766  15.118  -1.579  1.00 20.00     0.317 HD
ENDROOT
BRANCH   2   8
HETATM    8  C6  UNL     1     -33.833  17.068  -1.464  1.00 20.00     0.032 C 
HETATM    9  C5  UNL     1     -34.773  17.001  -0.303  1.00 20.00     0.007 C 
ENDBRANCH   2   8
TORSDOF 1
ENDMDL
MODEL 5
REMARK VINA RESULT:      -3.5     11.686     12.865
REMARK  1 active torsions:
REMARK  status: ('A' for Active; 'I' for Inactive)
REMARK    1  A    between atoms: C2_2  and  C6_6 
ROOT
HETATM    1  C1  UNL     1     -32.919   6.973   5.110  1.00 20.00     0.111 C 
HETATM    2  C2  UNL     1     -33.492   6.620   3.738  1.00 20.00     0.231 C 
HETATM    3  C3  UNL     1     -34.916   5.255   5.032  1.00 20.00     0.278 C 
HETATM    4  C4  UNL     1     -35.072   3.844   5.581  1.00 20.00     0.054 C 
HETATM    5  N7  UNL     1     -34.064   5.266   3.834  1.00 20.00     0.102 N 
HETATM    6  S8  UNL     1     -34.156   6.349   6.271  1.00 20.00    -0.132 SA
HETATM    7  H21 UNL     1     -34.609   5.045   3.004  1.00 20.00     0.317 HD
ENDROOT
BRANCH   2   8
HETATM    8  C6  UNL     1     -32.420   6.670   2.656  1.00 20.00     0.032 C 
HETATM    9  C5  UNL     1     -32.120   8.072   2.235  1.00 20.00     0.007 C 
ENDBRANCH   2   8
TORSDOF 1
ENDMDL
MODEL 6
REMARK VINA RESULT:      -3.4     13.096     14.160
REMARK  1 active torsions:
REMARK  status: ('A' for Active; 'I' for Inactive)
REMARK    1  A    between atoms: C2_2  and  C6_6 
ROOT
HETATM    1  C1  UNL     1     -42.848   4.416  -3.028  1.00 20.00     0.111 C 
HETATM    2  C2  UNL     1     -42.046   3.273  -2.407  1.00 20.00     0.231 C 
HETATM    3  C3  UNL     1     -41.658   4.880  -0.723  1.00 20.00     0.278 C 
HETATM    4  C4  UNL     1     -40.679   5.955  -0.276  1.00 20.00     0.054 C 
HETATM    5  N7  UNL     1     -40.995   3.877  -1.569  1.00 20.00     0.102 N 
HETATM    6  S8  UNL     1     -43.024   5.607  -1.680  1.00 20.00    -0.132 SA
HETATM    7  H21 UNL     1     -40.538   3.170  -0.997  1.00 20.00     0.317 HD
ENDROOT
BRANCH   2   8
HETATM    8  C6  UNL     1     -41.427   2.380  -3.475  1.00 20.00     0.032 C 
HETATM    9  C5  UNL     1     -42.084   1.038  -3.526  1.00 20.00     0.007 C 
ENDBRANCH   2   8
TORSDOF 1
ENDMDL
MODEL 7
REMARK VINA RESULT:      -3.4      2.149      3.944
REMARK  1 active torsions:
REMARK  status: ('A' for Active; 'I' for Inactive)
REMARK    1  A    between atoms: C2_2  and  C6_6 
ROOT
HETATM    1  C1  UNL     1     -33.601  16.712  -4.811  1.00 20.00     0.111 C 
HETATM    2  C2  UNL     1     -34.766  15.726  -4.738  1.00 20.00     0.231 C 
HETATM    3  C3  UNL     1     -35.019  16.668  -2.590  1.00 20.00     0.278 C 
HETATM    4  C4  UNL     1     -34.627  16.481  -1.131  1.00 20.00     0.054 C 
HETATM    5  N7  UNL     1     -34.973  15.392  -3.319  1.00 20.00     0.102 N 
HETATM    6  S8  UNL     1     -33.888  17.828  -3.418  1.00 20.00    -0.132 SA
HETATM    7  H21 UNL     1     -35.840  14.875  -3.192  1.00 20.00     0.317 HD
ENDROOT
BRANCH   2   8
HETATM    8  C6  UNL     1     -34.483  14.465  -5.546  1.00 20.00     0.032 C 
HETATM    9  C5  UNL     1     -34.642  13.229  -4.720  1.00 20.00     0.007 C 
ENDBRANCH   2   8
TORSDOF 1
ENDMDL
MODEL 8
REMARK VINA RESULT:      -3.3      2.024      2.363
REMARK  1 active torsions:
REMARK  status: ('A' for Active; 'I' for Inactive)
REMARK    1  A    between atoms: C2_2  and  C6_6 
ROOT
HETATM    1  C1  UNL     1     -34.324  17.161  -5.061  1.00 20.00     0.111 C 
HETATM    2  C2  UNL     1     -33.412  15.956  -4.841  1.00 20.00     0.231 C 
HETATM    3  C3  UNL     1     -34.269  15.319  -6.945  1.00 20.00     0.278 C 
HETATM    4  C4  UNL     1     -35.369  14.503  -7.608  1.00 20.00     0.054 C 
HETATM    5  N7  UNL     1     -33.987  14.825  -5.589  1.00 20.00     0.102 N 
HETATM    6  S8  UNL     1     -34.752  17.068  -6.815  1.00 20.00    -0.132 SA
HETATM    7  H21 UNL     1     -33.336  14.043  -5.620  1.00 20.00     0.317 HD
ENDROOT
BRANCH   2   8
HETATM    8  C6  UNL     1     -33.291  15.609  -3.362  1.00 20.00     0.032 C 
HETATM    9  C5  UNL     1     -34.625  15.573  -2.689  1.00 20.00     0.007 C 
ENDBRANCH   2   8
TORSDOF 1
ENDMDL
MODEL 9
REMARK VINA RESULT:      -3.3      2.735      3.531
REMARK  1 active torsions:
REMARK  status: ('A' for Active; 'I' for Inactive)
REMARK    1  A    between atoms: C2_2  and  C6_6 
ROOT
HETATM    1  C1  UNL     1     -33.735  18.134  -2.280  1.00 20.00     0.111 C 
HETATM    2  C2  UNL     1     -33.829  17.230  -1.052  1.00 20.00     0.231 C 
HETATM    3  C3  UNL     1     -34.713  15.712  -2.626  1.00 20.00     0.278 C 
HETATM    4  C4  UNL     1     -36.018  15.213  -3.228  1.00 20.00     0.054 C 
HETATM    5  N7  UNL     1     -34.929  16.280  -1.287  1.00 20.00     0.102 N 
HETATM    6  S8  UNL     1     -33.972  17.004  -3.670  1.00 20.00    -0.132 SA
HETATM    7  H21 UNL     1     -34.930  15.546  -0.582  1.00 20.00     0.317 HD
ENDROOT
BRANCH   2   8
HETATM    8  C6  UNL     1     -34.085  18.036   0.216  1.00 20.00     0.032 C 
HETATM    9  C5  UNL     1     -35.257  17.511   0.982  1.00 20.00     0.007 C 
ENDBRANCH   2   8
TORSDOF 1
ENDMDL
