MODEL 1
REMARK VINA RESULT:      -4.0      0.000      0.000
REMARK  1 active torsions:
REMARK  status: ('A' for Active; 'I' for Inactive)
REMARK    1  A    between atoms: C3_3  and  C7_7 
ROOT
HETATM    1  C1  UNL     1     -34.073  17.481  -3.282  1.00 20.00     0.111 C 
HETATM    2  C2  UNL     1     -33.846  16.421  -2.204  1.00 20.00     0.227 C 
HETATM    3  C3  UNL     1     -33.554  15.023  -4.082  1.00 20.00     0.285 C 
HETATM    4  C4  UNL     1     -34.668  16.712  -0.954  1.00 20.00     0.043 C 
HETATM    5  N8  UNL     1     -34.227  15.120  -2.780  1.00 20.00     0.102 N 
HETATM    6  S9  UNL     1     -33.472  16.695  -4.795  1.00 20.00    -0.131 SA
HETATM    7  H24 UNL     1     -33.938  14.357  -2.169  1.00 20.00     0.317 HD
ENDROOT
BRANCH   3   8
HETATM    8  C7  UNL     1     -34.294  14.075  -5.014  1.00 20.00     0.021 C 
HETATM    9  C5  UNL     1     -35.591  13.584  -4.370  1.00 20.00     0.012 C 
HETATM   10  C6  UNL     1     -34.589  14.749  -6.354  1.00 20.00     0.012 C 
ENDBRANCH   3   8
TORSDOF 1
ENDMDL
MODEL 2
REMARK VINA RESULT:      -3.9      0.561      1.268
REMARK  1 active torsions:
REMARK  status: ('A' for Active; 'I' for Inactive)
REMARK    1  A    between atoms: C3_3  and  C7_7 
ROOT
HETATM    1  C1  UNL     1     -34.056  17.758  -3.032  1.00 20.00     0.111 C 
HETATM    2  C2  UNL     1     -33.862  16.542  -2.127  1.00 20.00     0.227 C 
HETATM    3  C3  UNL     1     -33.861  15.399  -4.191  1.00 20.00     0.285 C 
HETATM    4  C4  UNL     1     -34.553  16.731  -0.782  1.00 20.00     0.043 C 
HETATM    5  N8  UNL     1     -34.421  15.375  -2.833  1.00 20.00     0.102 N 
HETATM    6  S9  UNL     1     -33.657  17.139  -4.682  1.00 20.00    -0.131 SA
HETATM    7  H24 UNL     1     -34.169  14.511  -2.356  1.00 20.00     0.317 HD
ENDROOT
BRANCH   3   8
HETATM    8  C7  UNL     1     -34.765  14.664  -5.171  1.00 20.00     0.021 C 
HETATM    9  C5  UNL     1     -34.375  14.984  -6.615  1.00 20.00     0.012 C 
HETATM   10  C6  UNL     1     -34.715  13.155  -4.929  1.00 20.00     0.012 C 
ENDBRANCH   3   8
TORSDOF 1
ENDMDL
MODEL 3
REMARK VINA RESULT:      -3.8      1.607      4.091
REMARK  1 active torsions:
REMARK  status: ('A' for Active; 'I' for Inactive)
REMARK    1  A    between atoms: C3_3  and  C7_7 
ROOT
HETATM    1  C1  UNL     1     -36.148  14.905  -5.509  1.00 20.00     0.111 C 
HETATM    2  C2  UNL     1     -34.737  14.525  -5.956  1.00 20.00     0.227 C 
HETATM    3  C3  UNL     1     -34.233  15.007  -3.702  1.00 20.00     0.285 C 
HETATM    4  C4  UNL     1     -34.495  14.889  -7.416  1.00 20.00     0.043 C 
HETATM    5  N8  UNL     1     -33.791  15.244  -5.083  1.00 20.00     0.102 N 
HETATM    6  S9  UNL     1     -36.049  14.900  -3.705  1.00 20.00    -0.131 SA
HETATM    7  H24 UNL     1     -32.842  14.899  -5.221  1.00 20.00     0.317 HD
ENDROOT
BRANCH   3   8
HETATM    8  C7  UNL     1     -33.759  16.119  -2.777  1.00 20.00     0.021 C 
HETATM    9  C5  UNL     1     -33.693  17.453  -3.522  1.00 20.00     0.012 C 
HETATM   10  C6  UNL     1     -34.673  16.238  -1.557  1.00 20.00     0.012 C 
ENDBRANCH   3   8
TORSDOF 1
ENDMDL
MODEL 4
REMARK VINA RESULT:      -3.8      1.988      4.121
REMARK  1 active torsions:
REMARK  status: ('A' for Active; 'I' for Inactive)
REMARK    1  A    between atoms: C3_3  and  C7_7 
ROOT
HETATM    1  C1  UNL     1     -36.483  15.092  -5.999  1.00 20.00     0.111 C 
HETATM    2  C2  UNL     1     -35.333  14.279  -6.593  1.00 20.00     0.227 C 
HETATM    3  C3  UNL     1     -34.837  13.906  -4.316  1.00 20.00     0.285 C 
HETATM    4  C4  UNL     1     -34.857  14.868  -7.915  1.00 20.00     0.043 C 
HETATM    5  N8  UNL     1     -34.239  14.280  -5.606  1.00 20.00     0.102 N 
HETATM    6  S9  UNL     1     -36.525  14.583  -4.266  1.00 20.00    -0.131 SA
HETATM    7  H24 UNL     1     -33.515  13.614  -5.871  1.00 20.00     0.317 HD
ENDROOT
BRANCH   3   8
HETATM    8  C7  UNL     1     -34.009  14.435  -3.154  1.00 20.00     0.021 C 
HETATM    9  C5  UNL     1     -32.600  14.809  -3.617  1.00 20.00     0.012 C 
HETATM   10  C6  UNL     1     -34.691  15.640  -2.504  1.00 20.00     0.012 C 
ENDBRANCH   3   8
TORSDOF 1
ENDMDL
MODEL 5
REMARK VINA RESULT:      -3.6      1.307      4.038
REMARK  1 active torsions:
REMARK  status: ('A' for Active; 'I' for Inactive)
REMARK    1  A    between atoms: C3_3  and  C7_7 
ROOT
HETATM    1  C1  UNL     1     -35.080  15.688  -5.112  1.00 20.00     0.111 C 
HETATM    2  C2  UNL     1     -35.216  14.454  -4.220  1.00 20.00     0.227 C 
HETATM    3  C3  UNL     1     -35.106  16.069  -2.504  1.00 20.00     0.285 C 
HETATM    4  C4  UNL     1     -34.564  13.231  -4.856  1.00 20.00     0.043 C 
HETATM    5  N8  UNL     1     -34.572  14.769  -2.933  1.00 20.00     0.102 N 
HETATM    6  S9  UNL     1     -35.408  17.069  -3.994  1.00 20.00    -0.131 SA
HETATM    7  H24 UNL     1     -34.779  14.050  -2.241  1.00 20.00     0.317 HD
ENDROOT
BRANCH   3   8
HETATM    8  C7  UNL     1     -34.139  16.777  -1.566  1.00 20.00     0.021 C 
HETATM    9  C5  UNL     1     -33.674  18.104  -2.167  1.00 20.00     0.012 C 
HETATM   10  C6  UNL     1     -34.781  17.009  -0.198  1.00 20.00     0.012 C 
ENDBRANCH   3   8
TORSDOF 1
ENDMDL
MODEL 6
REMARK VINA RESULT:      -3.6      1.073      1.163
REMARK  1 active torsions:
REMARK  status: ('A' for Active; 'I' for Inactive)
REMARK    1  A    between atoms: C3_3  and  C7_7 
ROOT
HETATM    1  C1  UNL     1     -33.816  17.341  -2.728  1.00 20.00     0.111 C 
HETATM    2  C2  UNL     1     -34.274  16.512  -1.529  1.00 20.00     0.227 C 
HETATM    3  C3  UNL     1     -34.469  14.826  -3.167  1.00 20.00     0.285 C 
HETATM    4  C4  UNL     1     -35.000  17.371  -0.499  1.00 20.00     0.043 C 
HETATM    5  N8  UNL     1     -35.168  15.457  -2.039  1.00 20.00     0.102 N 
HETATM    6  S9  UNL     1     -33.491  16.109  -4.009  1.00 20.00    -0.131 SA
HETATM    7  H24 UNL     1     -35.368  14.772  -1.312  1.00 20.00     0.317 HD
ENDROOT
BRANCH   3   8
HETATM    8  C7  UNL     1     -35.454  14.180  -4.131  1.00 20.00     0.021 C 
HETATM    9  C5  UNL     1     -36.869  14.713  -3.899  1.00 20.00     0.012 C 
HETATM   10  C6  UNL     1     -35.029  14.414  -5.581  1.00 20.00     0.012 C 
ENDBRANCH   3   8
TORSDOF 1
ENDMDL
MODEL 7
REMARK VINA RESULT:      -3.6      1.897      2.670
REMARK  1 active torsions:
REMARK  status: ('A' for Active; 'I' for Inactive)
REMARK    1  A    between atoms: C3_3  and  C7_7 
ROOT
HETATM    1  C1  UNL     1     -34.135  14.117  -3.444  1.00 20.00     0.111 C 
HETATM    2  C2  UNL     1     -35.165  15.174  -3.048  1.00 20.00     0.227 C 
HETATM    3  C3  UNL     1     -35.799  14.952  -5.310  1.00 20.00     0.285 C 
HETATM    4  C4  UNL     1     -34.625  16.104  -1.967  1.00 20.00     0.043 C 
HETATM    5  N8  UNL     1     -35.500  15.939  -4.263  1.00 20.00     0.102 N 
HETATM    6  S9  UNL     1     -34.733  13.504  -5.035  1.00 20.00    -0.131 SA
HETATM    7  H24 UNL     1     -36.304  16.542  -4.098  1.00 20.00     0.317 HD
ENDROOT
BRANCH   3   8
HETATM    8  C7  UNL     1     -35.569  15.536  -6.696  1.00 20.00     0.021 C 
HETATM    9  C5  UNL     1     -34.271  16.344  -6.736  1.00 20.00     0.012 C 
HETATM   10  C6  UNL     1     -35.540  14.432  -7.754  1.00 20.00     0.012 C 
ENDBRANCH   3   8
TORSDOF 1
ENDMDL
MODEL 8
REMARK VINA RESULT:      -3.6      1.573      4.094
REMARK  1 active torsions:
REMARK  status: ('A' for Active; 'I' for Inactive)
REMARK    1  A    between atoms: C3_3  and  C7_7 
ROOT
HETATM    1  C1  UNL     1     -34.956  13.839  -5.426  1.00 20.00     0.111 C 
HETATM    2  C2  UNL     1     -34.275  14.925  -6.259  1.00 20.00     0.227 C 
HETATM    3  C3  UNL     1     -33.391  15.541  -4.160  1.00 20.00     0.285 C 
HETATM    4  C4  UNL     1     -35.137  15.342  -7.445  1.00 20.00     0.043 C 
HETATM    5  N8  UNL     1     -34.034  16.075  -5.369  1.00 20.00     0.102 N 
HETATM    6  S9  UNL     1     -34.070  13.882  -3.851  1.00 20.00    -0.131 SA
HETATM    7  H24 UNL     1     -33.431  16.760  -5.823  1.00 20.00     0.317 HD
ENDROOT
BRANCH   3   8
HETATM    8  C7  UNL     1     -33.630  16.453  -2.965  1.00 20.00     0.021 C 
HETATM    9  C5  UNL     1     -33.916  17.884  -3.423  1.00 20.00     0.012 C 
HETATM   10  C6  UNL     1     -34.781  15.931  -2.104  1.00 20.00     0.012 C 
ENDBRANCH   3   8
TORSDOF 1
ENDMDL
MODEL 9
REMARK VINA RESULT:      -3.4      2.060      3.123
REMARK  1 active torsions:
REMARK  status: ('A' for Active; 'I' for Inactive)
REMARK    1  A    between atoms: C3_3  and  C7_7 
ROOT
HETATM    1  C1  UNL     1     -34.045  15.906  -2.878  1.00 20.00     0.111 C 
HETATM    2  C2  UNL     1     -33.104  15.135  -3.805  1.00 20.00     0.227 C 
HETATM    3  C3  UNL     1     -33.354  17.061  -5.144  1.00 20.00     0.285 C 
HETATM    4  C4  UNL     1     -33.320  13.630  -3.693  1.00 20.00     0.043 C 
HETATM    5  N8  UNL     1     -33.371  15.592  -5.180  1.00 20.00     0.102 N 
HETATM    6  S9  UNL     1     -34.017  17.589  -3.535  1.00 20.00    -0.131 SA
HETATM    7  H24 UNL     1     -32.659  15.241  -5.820  1.00 20.00     0.317 HD
ENDROOT
BRANCH   3   8
HETATM    8  C7  UNL     1     -34.175  17.646  -6.284  1.00 20.00     0.021 C 
HETATM    9  C5  UNL     1     -34.546  16.563  -7.298  1.00 20.00     0.012 C 
HETATM   10  C6  UNL     1     -35.436  18.329  -5.751  1.00 20.00     0.012 C 
ENDBRANCH   3   8
TORSDOF 1
ENDMDL
