MODEL 1
REMARK VINA RESULT:      -4.4      0.000      0.000
REMARK  3 active torsions:
REMARK  status: ('A' for Active; 'I' for Inactive)
REMARK    1  A    between atoms: C4_4  and  C7_7 
REMARK    2  A    between atoms: C7_7  and  O10_10 
REMARK    3  A    between atoms: C8_8  and  O10_10 
ROOT
HETATM    1  C1  UNL     1     -34.060   6.314   5.741  1.00 20.00     0.071 C 
HETATM    2  C2  UNL     1     -34.931   4.165   4.753  1.00 20.00     0.028 A 
HETATM    3  C3  UNL     1     -35.736   5.286   4.164  1.00 20.00     0.028 A 
HETATM    4  C4  UNL     1     -34.297   5.523   4.561  1.00 20.00     0.070 A 
HETATM    5  N9  UNL     1     -33.869   6.951   6.693  1.00 20.00    -0.196 NA
ENDROOT
BRANCH   4   6
HETATM    6  C7  UNL     1     -33.278   5.681   3.468  1.00 20.00     0.192 C 
BRANCH   6   7
HETATM    7  O10 UNL     1     -33.299   7.022   2.991  1.00 20.00    -0.385 OA
BRANCH   7   8
HETATM    8  C8  UNL     1     -31.998   7.469   2.639  1.00 20.00     0.113 C 
HETATM    9  C5  UNL     1     -32.114   8.658   1.697  1.00 20.00     0.039 C 
HETATM   10  C6  UNL     1     -31.231   7.821   3.904  1.00 20.00     0.039 C 
ENDBRANCH   7   8
ENDBRANCH   6   7
ENDBRANCH   4   6
TORSDOF 3
ENDMDL
MODEL 2
REMARK VINA RESULT:      -4.3     11.613     12.754
REMARK  3 active torsions:
REMARK  status: ('A' for Active; 'I' for Inactive)
REMARK    1  A    between atoms: C4_4  and  C7_7 
REMARK    2  A    between atoms: C7_7  and  O10_10 
REMARK    3  A    between atoms: C8_8  and  O10_10 
ROOT
HETATM    1  C1  UNL     1     -34.654  13.770  -4.930  1.00 20.00     0.071 C 
HETATM    2  C2  UNL     1     -34.393  15.043  -7.090  1.00 20.00     0.028 A 
HETATM    3  C3  UNL     1     -35.544  15.655  -6.347  1.00 20.00     0.028 A 
HETATM    4  C4  UNL     1     -34.401  15.030  -5.579  1.00 20.00     0.070 A 
HETATM    5  N9  UNL     1     -34.857  12.753  -4.409  1.00 20.00    -0.196 NA
ENDROOT
BRANCH   4   6
HETATM    6  C7  UNL     1     -33.451  15.944  -4.858  1.00 20.00     0.192 C 
BRANCH   6   7
HETATM    7  O10 UNL     1     -33.309  15.512  -3.509  1.00 20.00    -0.385 OA
BRANCH   7   8
HETATM    8  C8  UNL     1     -33.609  16.557  -2.595  1.00 20.00     0.113 C 
HETATM    9  C5  UNL     1     -33.868  17.841  -3.369  1.00 20.00     0.039 C 
HETATM   10  C6  UNL     1     -34.808  16.153  -1.750  1.00 20.00     0.039 C 
ENDBRANCH   7   8
ENDBRANCH   6   7
ENDBRANCH   4   6
TORSDOF 3
ENDMDL
MODEL 3
REMARK VINA RESULT:      -4.3     11.189     12.036
REMARK  3 active torsions:
REMARK  status: ('A' for Active; 'I' for Inactive)
REMARK    1  A    between atoms: C4_4  and  C7_7 
REMARK    2  A    between atoms: C7_7  and  O10_10 
REMARK    3  A    between atoms: C8_8  and  O10_10 
ROOT
HETATM    1  C1  UNL     1     -34.724  13.796  -4.019  1.00 20.00     0.071 C 
HETATM    2  C2  UNL     1     -32.804  15.349  -3.518  1.00 20.00     0.028 A 
HETATM    3  C3  UNL     1     -33.545  15.919  -4.691  1.00 20.00     0.028 A 
HETATM    4  C4  UNL     1     -34.292  15.118  -3.649  1.00 20.00     0.070 A 
HETATM    5  N9  UNL     1     -35.072  12.729  -4.316  1.00 20.00    -0.196 NA
ENDROOT
BRANCH   4   6
HETATM    6  C7  UNL     1     -35.208  15.855  -2.714  1.00 20.00     0.192 C 
BRANCH   6   7
HETATM    7  O10 UNL     1     -34.566  16.019  -1.454  1.00 20.00    -0.385 OA
BRANCH   7   8
HETATM    8  C8  UNL     1     -34.708  17.345  -0.966  1.00 20.00     0.113 C 
HETATM    9  C5  UNL     1     -35.063  17.299   0.514  1.00 20.00     0.039 C 
HETATM   10  C6  UNL     1     -33.418  18.111  -1.216  1.00 20.00     0.039 C 
ENDBRANCH   7   8
ENDBRANCH   6   7
ENDBRANCH   4   6
TORSDOF 3
ENDMDL
MODEL 4
REMARK VINA RESULT:      -4.2     11.305     11.996
REMARK  3 active torsions:
REMARK  status: ('A' for Active; 'I' for Inactive)
REMARK    1  A    between atoms: C4_4  and  C7_7 
REMARK    2  A    between atoms: C7_7  and  O10_10 
REMARK    3  A    between atoms: C8_8  and  O10_10 
ROOT
HETATM    1  C1  UNL     1     -36.781  14.420  -4.002  1.00 20.00     0.071 C 
HETATM    2  C2  UNL     1     -34.610  13.237  -4.495  1.00 20.00     0.028 A 
HETATM    3  C3  UNL     1     -34.942  14.080  -5.691  1.00 20.00     0.028 A 
HETATM    4  C4  UNL     1     -35.379  14.526  -4.315  1.00 20.00     0.070 A 
HETATM    5  N9  UNL     1     -37.911  14.334  -3.749  1.00 20.00    -0.196 NA
ENDROOT
BRANCH   4   6
HETATM    6  C7  UNL     1     -34.668  15.693  -3.690  1.00 20.00     0.192 C 
BRANCH   6   7
HETATM    7  O10 UNL     1     -35.055  15.808  -2.325  1.00 20.00    -0.385 OA
BRANCH   7   8
HETATM    8  C8  UNL     1     -34.155  16.631  -1.597  1.00 20.00     0.113 C 
HETATM    9  C5  UNL     1     -33.828  17.867  -2.422  1.00 20.00     0.039 C 
HETATM   10  C6  UNL     1     -34.778  16.992  -0.258  1.00 20.00     0.039 C 
ENDBRANCH   7   8
ENDBRANCH   6   7
ENDBRANCH   4   6
TORSDOF 3
ENDMDL
MODEL 5
REMARK VINA RESULT:      -4.2     11.402     12.024
REMARK  3 active torsions:
REMARK  status: ('A' for Active; 'I' for Inactive)
REMARK    1  A    between atoms: C4_4  and  C7_7 
REMARK    2  A    between atoms: C7_7  and  O10_10 
REMARK    3  A    between atoms: C8_8  and  O10_10 
ROOT
HETATM    1  C1  UNL     1     -36.631  14.390  -4.006  1.00 20.00     0.071 C 
HETATM    2  C2  UNL     1     -34.587  13.153  -4.810  1.00 20.00     0.028 A 
HETATM    3  C3  UNL     1     -34.803  14.310  -5.740  1.00 20.00     0.028 A 
HETATM    4  C4  UNL     1     -35.219  14.424  -4.291  1.00 20.00     0.070 A 
HETATM    5  N9  UNL     1     -37.768  14.362  -3.776  1.00 20.00    -0.196 NA
ENDROOT
BRANCH   4   6
HETATM    6  C7  UNL     1     -34.403  15.303  -3.388  1.00 20.00     0.192 C 
BRANCH   6   7
HETATM    7  O10 UNL     1     -35.146  15.592  -2.209  1.00 20.00    -0.385 OA
BRANCH   7   8
HETATM    8  C8  UNL     1     -34.981  16.945  -1.808  1.00 20.00     0.113 C 
HETATM    9  C5  UNL     1     -34.691  16.992  -0.315  1.00 20.00     0.039 C 
HETATM   10  C6  UNL     1     -33.862  17.575  -2.623  1.00 20.00     0.039 C 
ENDBRANCH   7   8
ENDBRANCH   6   7
ENDBRANCH   4   6
TORSDOF 3
ENDMDL
MODEL 6
REMARK VINA RESULT:      -4.0     11.420     12.911
REMARK  3 active torsions:
REMARK  status: ('A' for Active; 'I' for Inactive)
REMARK    1  A    between atoms: C4_4  and  C7_7 
REMARK    2  A    between atoms: C7_7  and  O10_10 
REMARK    3  A    between atoms: C8_8  and  O10_10 
ROOT
HETATM    1  C1  UNL     1     -33.687  14.348  -3.577  1.00 20.00     0.071 C 
HETATM    2  C2  UNL     1     -35.608  15.817  -2.868  1.00 20.00     0.028 A 
HETATM    3  C3  UNL     1     -34.490  16.043  -1.894  1.00 20.00     0.028 A 
HETATM    4  C4  UNL     1     -34.175  15.680  -3.327  1.00 20.00     0.070 A 
HETATM    5  N9  UNL     1     -33.295  13.274  -3.779  1.00 20.00    -0.196 NA
ENDROOT
BRANCH   4   6
HETATM    6  C7  UNL     1     -33.612  16.748  -4.220  1.00 20.00     0.192 C 
BRANCH   6   7
HETATM    7  O10 UNL     1     -33.339  16.197  -5.504  1.00 20.00    -0.385 OA
BRANCH   7   8
HETATM    8  C8  UNL     1     -34.475  16.267  -6.353  1.00 20.00     0.113 C 
HETATM    9  C5  UNL     1     -34.395  17.534  -7.192  1.00 20.00     0.039 C 
HETATM   10  C6  UNL     1     -34.532  15.017  -7.218  1.00 20.00     0.039 C 
ENDBRANCH   7   8
ENDBRANCH   6   7
ENDBRANCH   4   6
TORSDOF 3
ENDMDL
MODEL 7
REMARK VINA RESULT:      -4.0      1.499      1.916
REMARK  3 active torsions:
REMARK  status: ('A' for Active; 'I' for Inactive)
REMARK    1  A    between atoms: C4_4  and  C7_7 
REMARK    2  A    between atoms: C7_7  and  O10_10 
REMARK    3  A    between atoms: C8_8  and  O10_10 
ROOT
HETATM    1  C1  UNL     1     -35.486   5.694   4.006  1.00 20.00     0.071 C 
HETATM    2  C2  UNL     1     -34.426   5.969   6.276  1.00 20.00     0.028 A 
HETATM    3  C3  UNL     1     -34.347   4.514   5.920  1.00 20.00     0.028 A 
HETATM    4  C4  UNL     1     -34.311   5.558   4.827  1.00 20.00     0.070 A 
HETATM    5  N9  UNL     1     -36.435   5.804   3.345  1.00 20.00    -0.196 NA
ENDROOT
BRANCH   4   6
HETATM    6  C7  UNL     1     -33.006   5.801   4.124  1.00 20.00     0.192 C 
BRANCH   6   7
HETATM    7  O10 UNL     1     -33.194   6.767   3.096  1.00 20.00    -0.385 OA
BRANCH   7   8
HETATM    8  C8  UNL     1     -31.969   7.389   2.736  1.00 20.00     0.113 C 
HETATM    9  C5  UNL     1     -32.258   8.580   1.834  1.00 20.00     0.039 C 
HETATM   10  C6  UNL     1     -31.227   7.801   3.998  1.00 20.00     0.039 C 
ENDBRANCH   7   8
ENDBRANCH   6   7
ENDBRANCH   4   6
TORSDOF 3
ENDMDL
MODEL 8
REMARK VINA RESULT:      -4.0     11.630     12.464
REMARK  3 active torsions:
REMARK  status: ('A' for Active; 'I' for Inactive)
REMARK    1  A    between atoms: C4_4  and  C7_7 
REMARK    2  A    between atoms: C7_7  and  O10_10 
REMARK    3  A    between atoms: C8_8  and  O10_10 
ROOT
HETATM    1  C1  UNL     1     -35.695  13.757  -4.215  1.00 20.00     0.071 C 
HETATM    2  C2  UNL     1     -37.386  15.329  -5.227  1.00 20.00     0.028 A 
HETATM    3  C3  UNL     1     -38.041  14.665  -4.053  1.00 20.00     0.028 A 
HETATM    4  C4  UNL     1     -36.549  14.904  -4.043  1.00 20.00     0.070 A 
HETATM    5  N9  UNL     1     -35.007  12.833  -4.354  1.00 20.00    -0.196 NA
ENDROOT
BRANCH   4   6
HETATM    6  C7  UNL     1     -36.010  15.975  -3.137  1.00 20.00     0.192 C 
BRANCH   6   7
HETATM    7  O10 UNL     1     -35.417  17.005  -3.920  1.00 20.00    -0.385 OA
BRANCH   7   8
HETATM    8  C8  UNL     1     -34.027  17.126  -3.653  1.00 20.00     0.113 C 
HETATM    9  C5  UNL     1     -33.718  16.483  -2.309  1.00 20.00     0.039 C 
HETATM   10  C6  UNL     1     -33.242  16.482  -4.784  1.00 20.00     0.039 C 
ENDBRANCH   7   8
ENDBRANCH   6   7
ENDBRANCH   4   6
TORSDOF 3
ENDMDL
MODEL 9
REMARK VINA RESULT:      -3.9     11.235     12.262
REMARK  3 active torsions:
REMARK  status: ('A' for Active; 'I' for Inactive)
REMARK    1  A    between atoms: C4_4  and  C7_7 
REMARK    2  A    between atoms: C7_7  and  O10_10 
REMARK    3  A    between atoms: C8_8  and  O10_10 
ROOT
HETATM    1  C1  UNL     1     -33.647  15.992  -4.371  1.00 20.00     0.071 C 
HETATM    2  C2  UNL     1     -35.473  14.260  -4.242  1.00 20.00     0.028 A 
HETATM    3  C3  UNL     1     -34.277  13.701  -3.531  1.00 20.00     0.028 A 
HETATM    4  C4  UNL     1     -34.513  15.194  -3.543  1.00 20.00     0.070 A 
HETATM    5  N9  UNL     1     -32.949  16.635  -5.040  1.00 20.00    -0.196 NA
ENDROOT
BRANCH   4   6
HETATM    6  C7  UNL     1     -34.965  15.849  -2.268  1.00 20.00     0.192 C 
BRANCH   6   7
HETATM    7  O10 UNL     1     -33.862  16.512  -1.660  1.00 20.00    -0.385 OA
BRANCH   7   8
HETATM    8  C8  UNL     1     -34.271  17.698  -0.994  1.00 20.00     0.113 C 
HETATM    9  C5  UNL     1     -34.931  17.329   0.327  1.00 20.00     0.039 C 
HETATM   10  C6  UNL     1     -33.063  18.600  -0.791  1.00 20.00     0.039 C 
ENDBRANCH   7   8
ENDBRANCH   6   7
ENDBRANCH   4   6
TORSDOF 3
ENDMDL
