MODEL 1
REMARK VINA RESULT:      -3.6      0.000      0.000
REMARK  3 active torsions:
REMARK  status: ('A' for Active; 'I' for Inactive)
REMARK    1  A    between atoms: C1_1  and  C6_6 
REMARK    2  A    between atoms: C1_1  and  O9_9 
REMARK    3  A    between atoms: C7_7  and  O9_9 
ROOT
HETATM    1  C1  UNL     1     -34.191   6.029   3.985  1.00 20.00     0.274 C 
HETATM    2  O8  UNL     1     -34.890   5.445   3.165  1.00 20.00    -0.264 OA
ENDROOT
BRANCH   1   3
HETATM    3  C6  UNL     1     -33.880   5.516   5.381  1.00 20.00     0.154 C 
HETATM    4  C2  UNL     1     -34.051   6.638   6.404  1.00 20.00     0.033 C 
HETATM    5  S10 UNL     1     -35.039   4.159   5.762  1.00 20.00    -0.082 SA
ENDBRANCH   1   3
BRANCH   1   6
HETATM    6  O9  UNL     1     -33.579   7.237   3.788  1.00 20.00    -0.310 OA
BRANCH   6   7
HETATM    7  C7  UNL     1     -32.305   7.187   3.145  1.00 20.00     0.060 C 
HETATM    8  C3  UNL     1     -32.337   8.109   1.928  1.00 20.00     0.045 C 
HETATM    9  C4  UNL     1     -31.262   7.664   4.154  1.00 20.00     0.045 C 
HETATM   10  C5  UNL     1     -32.027   5.743   2.729  1.00 20.00     0.045 C 
ENDBRANCH   6   7
ENDBRANCH   1   6
TORSDOF 3
ENDMDL
MODEL 2
REMARK VINA RESULT:      -3.5     11.689     12.966
REMARK  3 active torsions:
REMARK  status: ('A' for Active; 'I' for Inactive)
REMARK    1  A    between atoms: C1_1  and  C6_6 
REMARK    2  A    between atoms: C1_1  and  O9_9 
REMARK    3  A    between atoms: C7_7  and  O9_9 
ROOT
HETATM    1  C1  UNL     1     -33.647  16.186  -4.369  1.00 20.00     0.274 C 
HETATM    2  O8  UNL     1     -33.000  16.987  -5.034  1.00 20.00    -0.264 OA
ENDROOT
BRANCH   1   3
HETATM    3  C6  UNL     1     -34.586  15.139  -4.944  1.00 20.00     0.154 C 
HETATM    4  C2  UNL     1     -34.367  15.005  -6.451  1.00 20.00     0.033 C 
HETATM    5  S10 UNL     1     -34.227  13.544  -4.131  1.00 20.00    -0.082 SA
ENDBRANCH   1   3
BRANCH   1   6
HETATM    6  O9  UNL     1     -33.641  16.101  -3.003  1.00 20.00    -0.310 OA
BRANCH   6   7
HETATM    7  C7  UNL     1     -34.403  17.097  -2.319  1.00 20.00     0.060 C 
HETATM    8  C3  UNL     1     -35.740  17.265  -3.037  1.00 20.00     0.045 C 
HETATM    9  C4  UNL     1     -34.620  16.607  -0.888  1.00 20.00     0.045 C 
HETATM   10  C5  UNL     1     -33.612  18.404  -2.324  1.00 20.00     0.045 C 
ENDBRANCH   6   7
ENDBRANCH   1   6
TORSDOF 3
ENDMDL
MODEL 3
REMARK VINA RESULT:      -3.5     11.692     12.989
REMARK  3 active torsions:
REMARK  status: ('A' for Active; 'I' for Inactive)
REMARK    1  A    between atoms: C1_1  and  C6_6 
REMARK    2  A    between atoms: C1_1  and  O9_9 
REMARK    3  A    between atoms: C7_7  and  O9_9 
ROOT
HETATM    1  C1  UNL     1     -33.632  16.202  -4.395  1.00 20.00     0.274 C 
HETATM    2  O8  UNL     1     -33.010  17.013  -5.071  1.00 20.00    -0.264 OA
ENDROOT
BRANCH   1   3
HETATM    3  C6  UNL     1     -34.563  15.139  -4.954  1.00 20.00     0.154 C 
HETATM    4  C2  UNL     1     -34.362  15.003  -6.463  1.00 20.00     0.033 C 
HETATM    5  S10 UNL     1     -34.170  13.553  -4.141  1.00 20.00    -0.082 SA
ENDBRANCH   1   3
BRANCH   1   6
HETATM    6  O9  UNL     1     -33.601  16.118  -3.029  1.00 20.00    -0.310 OA
BRANCH   6   7
HETATM    7  C7  UNL     1     -34.388  17.085  -2.333  1.00 20.00     0.060 C 
HETATM    8  C3  UNL     1     -34.614  16.592  -0.905  1.00 20.00     0.045 C 
HETATM    9  C4  UNL     1     -33.606  18.398  -2.330  1.00 20.00     0.045 C 
HETATM   10  C5  UNL     1     -35.716  17.253  -3.069  1.00 20.00     0.045 C 
ENDBRANCH   6   7
ENDBRANCH   1   6
TORSDOF 3
ENDMDL
MODEL 4
REMARK VINA RESULT:      -3.5     11.472     12.749
REMARK  3 active torsions:
REMARK  status: ('A' for Active; 'I' for Inactive)
REMARK    1  A    between atoms: C1_1  and  C6_6 
REMARK    2  A    between atoms: C1_1  and  O9_9 
REMARK    3  A    between atoms: C7_7  and  O9_9 
ROOT
HETATM    1  C1  UNL     1     -33.435  16.002  -4.142  1.00 20.00     0.274 C 
HETATM    2  O8  UNL     1     -33.074  16.974  -4.796  1.00 20.00    -0.264 OA
ENDROOT
BRANCH   1   3
HETATM    3  C6  UNL     1     -33.792  14.647  -4.728  1.00 20.00     0.154 C 
HETATM    4  C2  UNL     1     -34.352  13.733  -3.639  1.00 20.00     0.033 C 
HETATM    5  S10 UNL     1     -35.054  14.899  -6.022  1.00 20.00    -0.082 SA
ENDBRANCH   1   3
BRANCH   1   6
HETATM    6  O9  UNL     1     -33.582  15.972  -2.782  1.00 20.00    -0.310 OA
BRANCH   6   7
HETATM    7  C7  UNL     1     -34.379  17.018  -2.224  1.00 20.00     0.060 C 
HETATM    8  C3  UNL     1     -35.707  17.072  -2.976  1.00 20.00     0.045 C 
HETATM    9  C4  UNL     1     -34.610  16.684  -0.751  1.00 20.00     0.045 C 
HETATM   10  C5  UNL     1     -33.619  18.335  -2.362  1.00 20.00     0.045 C 
ENDBRANCH   6   7
ENDBRANCH   1   6
TORSDOF 3
ENDMDL
MODEL 5
REMARK VINA RESULT:      -3.5     12.273     13.479
REMARK  3 active torsions:
REMARK  status: ('A' for Active; 'I' for Inactive)
REMARK    1  A    between atoms: C1_1  and  C6_6 
REMARK    2  A    between atoms: C1_1  and  O9_9 
REMARK    3  A    between atoms: C7_7  and  O9_9 
ROOT
HETATM    1  C1  UNL     1     -33.754  16.323  -5.070  1.00 20.00     0.274 C 
HETATM    2  O8  UNL     1     -32.606  16.155  -4.677  1.00 20.00    -0.264 OA
ENDROOT
BRANCH   1   3
HETATM    3  C6  UNL     1     -34.177  16.356  -6.528  1.00 20.00     0.154 C 
HETATM    4  C2  UNL     1     -34.475  14.941  -7.023  1.00 20.00     0.033 C 
HETATM    5  S10 UNL     1     -35.683  17.379  -6.663  1.00 20.00    -0.082 SA
ENDBRANCH   1   3
BRANCH   1   6
HETATM    6  O9  UNL     1     -34.846  16.515  -4.267  1.00 20.00    -0.310 OA
BRANCH   6   7
HETATM    7  C7  UNL     1     -35.097  15.486  -3.309  1.00 20.00     0.060 C 
HETATM    8  C3  UNL     1     -34.184  14.301  -3.617  1.00 20.00     0.045 C 
HETATM    9  C4  UNL     1     -34.787  16.058  -1.927  1.00 20.00     0.045 C 
HETATM   10  C5  UNL     1     -36.567  15.081  -3.404  1.00 20.00     0.045 C 
ENDBRANCH   6   7
ENDBRANCH   1   6
TORSDOF 3
ENDMDL
MODEL 6
REMARK VINA RESULT:      -3.4     11.929     13.074
REMARK  3 active torsions:
REMARK  status: ('A' for Active; 'I' for Inactive)
REMARK    1  A    between atoms: C1_1  and  C6_6 
REMARK    2  A    between atoms: C1_1  and  O9_9 
REMARK    3  A    between atoms: C7_7  and  O9_9 
ROOT
HETATM    1  C1  UNL     1     -33.860  16.767  -4.010  1.00 20.00     0.274 C 
HETATM    2  O8  UNL     1     -33.339  17.378  -4.935  1.00 20.00    -0.264 OA
ENDROOT
BRANCH   1   3
HETATM    3  C6  UNL     1     -34.481  17.413  -2.784  1.00 20.00     0.154 C 
HETATM    4  C2  UNL     1     -34.292  16.515  -1.562  1.00 20.00     0.033 C 
HETATM    5  S10 UNL     1     -33.650  19.013  -2.499  1.00 20.00    -0.082 SA
ENDBRANCH   1   3
BRANCH   1   6
HETATM    6  O9  UNL     1     -33.968  15.405  -3.921  1.00 20.00    -0.310 OA
BRANCH   6   7
HETATM    7  C7  UNL     1     -34.920  14.802  -4.796  1.00 20.00     0.060 C 
HETATM    8  C3  UNL     1     -34.366  14.839  -6.219  1.00 20.00     0.045 C 
HETATM    9  C4  UNL     1     -35.120  13.359  -4.336  1.00 20.00     0.045 C 
HETATM   10  C5  UNL     1     -36.231  15.581  -4.701  1.00 20.00     0.045 C 
ENDBRANCH   6   7
ENDBRANCH   1   6
TORSDOF 3
ENDMDL
MODEL 7
REMARK VINA RESULT:      -3.4     11.606     12.413
REMARK  3 active torsions:
REMARK  status: ('A' for Active; 'I' for Inactive)
REMARK    1  A    between atoms: C1_1  and  C6_6 
REMARK    2  A    between atoms: C1_1  and  O9_9 
REMARK    3  A    between atoms: C7_7  and  O9_9 
ROOT
HETATM    1  C1  UNL     1     -34.876  15.900  -2.418  1.00 20.00     0.274 C 
HETATM    2  O8  UNL     1     -35.997  15.840  -2.908  1.00 20.00    -0.264 OA
ENDROOT
BRANCH   1   3
HETATM    3  C6  UNL     1     -33.580  15.743  -3.194  1.00 20.00     0.154 C 
HETATM    4  C2  UNL     1     -33.456  14.316  -3.729  1.00 20.00     0.033 C 
HETATM    5  S10 UNL     1     -33.605  16.918  -4.590  1.00 20.00    -0.082 SA
ENDBRANCH   1   3
BRANCH   1   6
HETATM    6  O9  UNL     1     -34.600  16.114  -1.094  1.00 20.00    -0.310 OA
BRANCH   6   7
HETATM    7  C7  UNL     1     -34.668  17.472  -0.660  1.00 20.00     0.060 C 
HETATM    8  C3  UNL     1     -35.632  18.227  -1.573  1.00 20.00     0.045 C 
HETATM    9  C4  UNL     1     -35.182  17.470   0.779  1.00 20.00     0.045 C 
HETATM   10  C5  UNL     1     -33.266  18.076  -0.728  1.00 20.00     0.045 C 
ENDBRANCH   6   7
ENDBRANCH   1   6
TORSDOF 3
ENDMDL
MODEL 8
REMARK VINA RESULT:      -3.4     11.545     12.766
REMARK  3 active torsions:
REMARK  status: ('A' for Active; 'I' for Inactive)
REMARK    1  A    between atoms: C1_1  and  C6_6 
REMARK    2  A    between atoms: C1_1  and  O9_9 
REMARK    3  A    between atoms: C7_7  and  O9_9 
ROOT
HETATM    1  C1  UNL     1     -35.168  14.214  -5.154  1.00 20.00     0.274 C 
HETATM    2  O8  UNL     1     -34.915  13.020  -5.255  1.00 20.00    -0.264 OA
ENDROOT
BRANCH   1   3
HETATM    3  C6  UNL     1     -35.662  15.095  -6.288  1.00 20.00     0.154 C 
HETATM    4  C2  UNL     1     -35.434  14.403  -7.632  1.00 20.00     0.033 C 
HETATM    5  S10 UNL     1     -37.448  15.386  -6.048  1.00 20.00    -0.082 SA
ENDBRANCH   1   3
BRANCH   1   6
HETATM    6  O9  UNL     1     -35.044  14.957  -4.011  1.00 20.00    -0.310 OA
BRANCH   6   7
HETATM    7  C7  UNL     1     -33.727  15.421  -3.715  1.00 20.00     0.060 C 
HETATM    8  C3  UNL     1     -33.247  16.295  -4.873  1.00 20.00     0.045 C 
HETATM    9  C4  UNL     1     -33.804  16.235  -2.425  1.00 20.00     0.045 C 
HETATM   10  C5  UNL     1     -32.814  14.210  -3.532  1.00 20.00     0.045 C 
ENDBRANCH   6   7
ENDBRANCH   1   6
TORSDOF 3
ENDMDL
MODEL 9
REMARK VINA RESULT:      -3.4     12.005     13.012
REMARK  3 active torsions:
REMARK  status: ('A' for Active; 'I' for Inactive)
REMARK    1  A    between atoms: C1_1  and  C6_6 
REMARK    2  A    between atoms: C1_1  and  O9_9 
REMARK    3  A    between atoms: C7_7  and  O9_9 
ROOT
HETATM    1  C1  UNL     1     -33.614  15.819  -3.961  1.00 20.00     0.274 C 
HETATM    2  O8  UNL     1     -32.722  15.107  -3.516  1.00 20.00    -0.264 OA
ENDROOT
BRANCH   1   3
HETATM    3  C6  UNL     1     -34.525  16.696  -3.120  1.00 20.00     0.154 C 
HETATM    4  C2  UNL     1     -34.525  16.218  -1.669  1.00 20.00     0.033 C 
HETATM    5  S10 UNL     1     -33.899  18.409  -3.198  1.00 20.00    -0.082 SA
ENDBRANCH   1   3
BRANCH   1   6
HETATM    6  O9  UNL     1     -33.945  15.942  -5.284  1.00 20.00    -0.310 OA
BRANCH   6   7
HETATM    7  C7  UNL     1     -34.830  14.945  -5.795  1.00 20.00     0.060 C 
HETATM    8  C3  UNL     1     -36.268  15.401  -5.554  1.00 20.00     0.045 C 
HETATM    9  C4  UNL     1     -34.553  14.806  -7.290  1.00 20.00     0.045 C 
HETATM   10  C5  UNL     1     -34.547  13.628  -5.073  1.00 20.00     0.045 C 
ENDBRANCH   6   7
ENDBRANCH   1   6
TORSDOF 3
ENDMDL
