MODEL 1
REMARK VINA RESULT:      -4.2      0.000      0.000
REMARK  2 active torsions:
REMARK  status: ('A' for Active; 'I' for Inactive)
REMARK    1  A    between atoms: C6_6  and  C8_8 
REMARK    2  A    between atoms: C8_8  and  O9_9 
ROOT
HETATM    1  C1  UNL     1     -34.777  13.387  -4.361  1.00 20.00    -0.004 C 
HETATM    2  C2  UNL     1     -33.453  13.752  -3.921  1.00 20.00    -0.003 C 
HETATM    3  C3  UNL     1     -35.829  14.184  -4.130  1.00 20.00    -0.025 C 
HETATM    4  C4  UNL     1     -33.183  14.986  -3.472  1.00 20.00    -0.003 C 
HETATM    5  C5  UNL     1     -35.694  15.499  -3.409  1.00 20.00     0.054 C 
HETATM    6  C6  UNL     1     -34.247  16.054  -3.370  1.00 20.00     0.060 C 
HETATM    7 BR10 UNL     1     -33.984  17.198  -4.973  1.00 20.00    -0.079 Br
ENDROOT
BRANCH   6   8
HETATM    8  C8  UNL     1     -34.042  16.949  -2.146  1.00 20.00     0.192 C 
BRANCH   8   9
HETATM    9  O9  UNL     1     -34.605  16.303  -1.022  1.00 20.00    -0.394 OA
HETATM   10  C7  UNL     1     -34.840  17.212   0.048  1.00 20.00     0.201 C 
ENDBRANCH   8   9
ENDBRANCH   6   8
TORSDOF 2
ENDMDL
MODEL 2
REMARK VINA RESULT:      -4.1      2.283      3.237
REMARK  2 active torsions:
REMARK  status: ('A' for Active; 'I' for Inactive)
REMARK    1  A    between atoms: C6_6  and  C8_8 
REMARK    2  A    between atoms: C8_8  and  O9_9 
ROOT
HETATM    1  C1  UNL     1     -34.854  13.444  -4.151  1.00 20.00    -0.004 C 
HETATM    2  C2  UNL     1     -35.808  14.493  -4.408  1.00 20.00    -0.003 C 
HETATM    3  C3  UNL     1     -33.589  13.724  -3.806  1.00 20.00    -0.025 C 
HETATM    4  C4  UNL     1     -35.540  15.770  -4.099  1.00 20.00    -0.003 C 
HETATM    5  C5  UNL     1     -33.094  15.139  -3.665  1.00 20.00     0.054 C 
HETATM    6  C6  UNL     1     -34.221  16.190  -3.495  1.00 20.00     0.060 C 
HETATM    7 BR10 UNL     1     -34.585  16.393  -1.552  1.00 20.00    -0.079 Br
ENDROOT
BRANCH   6   8
HETATM    8  C8  UNL     1     -33.767  17.558  -4.009  1.00 20.00     0.192 C 
BRANCH   8   9
HETATM    9  O9  UNL     1     -33.349  17.414  -5.352  1.00 20.00    -0.394 OA
HETATM   10  C7  UNL     1     -33.776  18.507  -6.158  1.00 20.00     0.201 C 
ENDBRANCH   8   9
ENDBRANCH   6   8
TORSDOF 2
ENDMDL
MODEL 3
REMARK VINA RESULT:      -4.1      2.462      3.445
REMARK  2 active torsions:
REMARK  status: ('A' for Active; 'I' for Inactive)
REMARK    1  A    between atoms: C6_6  and  C8_8 
REMARK    2  A    between atoms: C8_8  and  O9_9 
ROOT
HETATM    1  C1  UNL     1     -32.912  14.793  -3.635  1.00 20.00    -0.004 C 
HETATM    2  C2  UNL     1     -33.536  16.049  -3.970  1.00 20.00    -0.003 C 
HETATM    3  C3  UNL     1     -33.553  13.629  -3.813  1.00 20.00    -0.025 C 
HETATM    4  C4  UNL     1     -34.676  16.095  -4.673  1.00 20.00    -0.003 C 
HETATM    5  C5  UNL     1     -34.949  13.564  -4.372  1.00 20.00     0.054 C 
HETATM    6  C6  UNL     1     -35.390  14.844  -5.129  1.00 20.00     0.060 C 
HETATM    7 BR10 UNL     1     -34.888  14.632  -7.040  1.00 20.00    -0.079 Br
ENDROOT
BRANCH   6   8
HETATM    8  C8  UNL     1     -36.910  15.004  -5.083  1.00 20.00     0.192 C 
BRANCH   8   9
HETATM    9  O9  UNL     1     -37.394  14.344  -3.930  1.00 20.00    -0.394 OA
HETATM   10  C7  UNL     1     -38.682  14.817  -3.551  1.00 20.00     0.201 C 
ENDBRANCH   8   9
ENDBRANCH   6   8
TORSDOF 2
ENDMDL
MODEL 4
REMARK VINA RESULT:      -3.9      2.790      3.689
REMARK  2 active torsions:
REMARK  status: ('A' for Active; 'I' for Inactive)
REMARK    1  A    between atoms: C6_6  and  C8_8 
REMARK    2  A    between atoms: C8_8  and  O9_9 
ROOT
HETATM    1  C1  UNL     1     -34.359  15.564  -7.241  1.00 20.00    -0.004 C 
HETATM    2  C2  UNL     1     -35.226  14.440  -6.988  1.00 20.00    -0.003 C 
HETATM    3  C3  UNL     1     -34.076  16.453  -6.278  1.00 20.00    -0.025 C 
HETATM    4  C4  UNL     1     -35.598  14.113  -5.742  1.00 20.00    -0.003 C 
HETATM    5  C5  UNL     1     -34.637  16.330  -4.886  1.00 20.00     0.054 C 
HETATM    6  C6  UNL     1     -35.161  14.913  -4.537  1.00 20.00     0.060 C 
HETATM    7 BR10 UNL     1     -33.660  13.879  -3.749  1.00 20.00    -0.079 Br
ENDROOT
BRANCH   6   8
HETATM    8  C8  UNL     1     -36.258  14.987  -3.473  1.00 20.00     0.192 C 
BRANCH   8   9
HETATM    9  O9  UNL     1     -37.329  14.156  -3.877  1.00 20.00    -0.394 OA
HETATM   10  C7  UNL     1     -38.579  14.833  -3.805  1.00 20.00     0.201 C 
ENDBRANCH   8   9
ENDBRANCH   6   8
TORSDOF 2
ENDMDL
MODEL 5
REMARK VINA RESULT:      -3.9     12.147     12.773
REMARK  2 active torsions:
REMARK  status: ('A' for Active; 'I' for Inactive)
REMARK    1  A    between atoms: C6_6  and  C8_8 
REMARK    2  A    between atoms: C8_8  and  O9_9 
ROOT
HETATM    1  C1  UNL     1     -34.876   4.718   6.688  1.00 20.00    -0.004 C 
HETATM    2  C2  UNL     1     -34.776   3.780   5.598  1.00 20.00    -0.003 C 
HETATM    3  C3  UNL     1     -34.475   5.990   6.548  1.00 20.00    -0.025 C 
HETATM    4  C4  UNL     1     -34.496   4.186   4.351  1.00 20.00    -0.003 C 
HETATM    5  C5  UNL     1     -33.906   6.511   5.256  1.00 20.00     0.054 C 
HETATM    6  C6  UNL     1     -34.238   5.637   4.018  1.00 20.00     0.060 C 
HETATM    7 BR10 UNL     1     -35.942   6.297   3.239  1.00 20.00    -0.079 Br
ENDROOT
BRANCH   6   8
HETATM    8  C8  UNL     1     -33.165   5.794   2.940  1.00 20.00     0.192 C 
BRANCH   8   9
HETATM    9  O9  UNL     1     -32.255   6.792   3.358  1.00 20.00    -0.394 OA
HETATM   10  C7  UNL     1     -32.091   7.805   2.371  1.00 20.00     0.201 C 
ENDBRANCH   8   9
ENDBRANCH   6   8
TORSDOF 2
ENDMDL
MODEL 6
REMARK VINA RESULT:      -3.9     11.467     12.018
REMARK  2 active torsions:
REMARK  status: ('A' for Active; 'I' for Inactive)
REMARK    1  A    between atoms: C6_6  and  C8_8 
REMARK    2  A    between atoms: C8_8  and  O9_9 
ROOT
HETATM    1  C1  UNL     1     -34.968   4.883   5.907  1.00 20.00    -0.004 C 
HETATM    2  C2  UNL     1     -34.073   5.962   6.242  1.00 20.00    -0.003 C 
HETATM    3  C3  UNL     1     -35.370   4.681   4.645  1.00 20.00    -0.025 C 
HETATM    4  C4  UNL     1     -33.434   6.659   5.292  1.00 20.00    -0.003 C 
HETATM    5  C5  UNL     1     -34.911   5.557   3.510  1.00 20.00     0.054 C 
HETATM    6  C6  UNL     1     -33.634   6.380   3.820  1.00 20.00     0.060 C 
HETATM    7 BR10 UNL     1     -32.059   5.296   3.283  1.00 20.00    -0.079 Br
ENDROOT
BRANCH   6   8
HETATM    8  C8  UNL     1     -33.598   7.662   2.986  1.00 20.00     0.192 C 
BRANCH   8   9
HETATM    9  O9  UNL     1     -32.265   7.887   2.573  1.00 20.00    -0.394 OA
HETATM   10  C7  UNL     1     -32.198   8.784   1.469  1.00 20.00     0.201 C 
ENDBRANCH   8   9
ENDBRANCH   6   8
TORSDOF 2
ENDMDL
MODEL 7
REMARK VINA RESULT:      -3.8     12.205     13.580
REMARK  2 active torsions:
REMARK  status: ('A' for Active; 'I' for Inactive)
REMARK    1  A    between atoms: C6_6  and  C8_8 
REMARK    2  A    between atoms: C8_8  and  O9_9 
ROOT
HETATM    1  C1  UNL     1     -41.647   7.597  -1.118  1.00 20.00    -0.004 C 
HETATM    2  C2  UNL     1     -40.751   6.703  -0.427  1.00 20.00    -0.003 C 
HETATM    3  C3  UNL     1     -42.409   7.169  -2.134  1.00 20.00    -0.025 C 
HETATM    4  C4  UNL     1     -40.806   5.377  -0.617  1.00 20.00    -0.003 C 
HETATM    5  C5  UNL     1     -42.378   5.741  -2.609  1.00 20.00     0.054 C 
HETATM    6  C6  UNL     1     -41.781   4.744  -1.582  1.00 20.00     0.060 C 
HETATM    7 BR10 UNL     1     -43.264   4.068  -0.447  1.00 20.00    -0.079 Br
ENDROOT
BRANCH   6   8
HETATM    8  C8  UNL     1     -41.175   3.532  -2.292  1.00 20.00     0.192 C 
BRANCH   8   9
HETATM    9  O9  UNL     1     -42.153   2.987  -3.156  1.00 20.00    -0.394 OA
HETATM   10  C7  UNL     1     -41.917   1.608  -3.418  1.00 20.00     0.201 C 
ENDBRANCH   8   9
ENDBRANCH   6   8
TORSDOF 2
ENDMDL
MODEL 8
REMARK VINA RESULT:      -3.8      2.301      3.726
REMARK  2 active torsions:
REMARK  status: ('A' for Active; 'I' for Inactive)
REMARK    1  A    between atoms: C6_6  and  C8_8 
REMARK    2  A    between atoms: C8_8  and  O9_9 
ROOT
HETATM    1  C1  UNL     1     -33.671  17.281  -2.592  1.00 20.00    -0.004 C 
HETATM    2  C2  UNL     1     -33.731  17.250  -4.032  1.00 20.00    -0.003 C 
HETATM    3  C3  UNL     1     -34.443  16.477  -1.847  1.00 20.00    -0.025 C 
HETATM    4  C4  UNL     1     -34.384  16.275  -4.682  1.00 20.00    -0.003 C 
HETATM    5  C5  UNL     1     -35.407  15.499  -2.464  1.00 20.00     0.054 C 
HETATM    6  C6  UNL     1     -35.116  15.174  -3.952  1.00 20.00     0.060 C 
HETATM    7 BR10 UNL     1     -33.889  13.612  -4.012  1.00 20.00    -0.079 Br
ENDROOT
BRANCH   6   8
HETATM    8  C8  UNL     1     -36.397  14.761  -4.678  1.00 20.00     0.192 C 
BRANCH   8   9
HETATM    9  O9  UNL     1     -37.322  14.290  -3.717  1.00 20.00    -0.394 OA
HETATM   10  C7  UNL     1     -38.659  14.644  -4.053  1.00 20.00     0.201 C 
ENDBRANCH   8   9
ENDBRANCH   6   8
TORSDOF 2
ENDMDL
MODEL 9
REMARK VINA RESULT:      -3.8      1.702      1.922
REMARK  2 active torsions:
REMARK  status: ('A' for Active; 'I' for Inactive)
REMARK    1  A    between atoms: C6_6  and  C8_8 
REMARK    2  A    between atoms: C8_8  and  O9_9 
ROOT
HETATM    1  C1  UNL     1     -34.714  14.203  -6.228  1.00 20.00    -0.004 C 
HETATM    2  C2  UNL     1     -34.340  15.593  -6.163  1.00 20.00    -0.003 C 
HETATM    3  C3  UNL     1     -34.878  13.475  -5.115  1.00 20.00    -0.025 C 
HETATM    4  C4  UNL     1     -34.360  16.268  -5.004  1.00 20.00    -0.003 C 
HETATM    5  C5  UNL     1     -34.687  14.061  -3.741  1.00 20.00     0.054 C 
HETATM    6  C6  UNL     1     -34.745  15.610  -3.699  1.00 20.00     0.060 C 
HETATM    7 BR10 UNL     1     -36.632  16.147  -3.388  1.00 20.00    -0.079 Br
ENDROOT
BRANCH   6   8
HETATM    8  C8  UNL     1     -33.928  16.151  -2.525  1.00 20.00     0.192 C 
BRANCH   8   9
HETATM    9  O9  UNL     1     -34.752  16.160  -1.375  1.00 20.00    -0.394 OA
HETATM   10  C7  UNL     1     -34.350  17.160  -0.445  1.00 20.00     0.201 C 
ENDBRANCH   8   9
ENDBRANCH   6   8
TORSDOF 2
ENDMDL
