MODEL 1
REMARK VINA RESULT:      -4.5      0.000      0.000
REMARK  1 active torsions:
REMARK  status: ('A' for Active; 'I' for Inactive)
REMARK    1  A    between atoms: C3_3  and  C7_7 
ROOT
HETATM    1  C1  UNL     1     -33.600  17.341  -4.238  1.00 20.00    -0.011 C 
HETATM    2  C2  UNL     1     -33.824  17.378  -2.916  1.00 20.00    -0.015 C 
HETATM    3  C4  UNL     1     -33.837  16.120  -5.078  1.00 20.00     0.040 C 
HETATM    4  C5  UNL     1     -34.370  16.207  -2.145  1.00 20.00     0.047 C 
HETATM    5  C6  UNL     1     -34.962  15.122  -3.051  1.00 20.00     0.017 C 
HETATM    6  C7  UNL     1     -34.052  14.849  -4.248  1.00 20.00     0.058 C 
HETATM    7 BR10 UNL     1     -33.490  18.912  -1.901  1.00 20.00    -0.056 Br
ENDROOT
BRANCH   6   8
HETATM    8  C3  UNL     1     -34.648  13.783  -5.115  1.00 20.00     0.127 C 
HETATM    9  C8  UNL     1     -35.108  14.201  -6.485  1.00 20.00     0.091 C 
HETATM   10  O9  UNL     1     -34.754  12.621  -4.726  1.00 20.00    -0.298 OA
ENDBRANCH   6   8
TORSDOF 1
ENDMDL
MODEL 2
REMARK VINA RESULT:      -4.3      2.228      3.150
REMARK  1 active torsions:
REMARK  status: ('A' for Active; 'I' for Inactive)
REMARK    1  A    between atoms: C3_3  and  C7_7 
ROOT
HETATM    1  C1  UNL     1     -33.606  17.335  -5.252  1.00 20.00    -0.011 C 
HETATM    2  C2  UNL     1     -34.090  17.456  -6.497  1.00 20.00    -0.015 C 
HETATM    3  C4  UNL     1     -33.633  16.047  -4.482  1.00 20.00     0.040 C 
HETATM    4  C5  UNL     1     -34.680  16.303  -7.263  1.00 20.00     0.047 C 
HETATM    5  C6  UNL     1     -34.357  14.944  -6.634  1.00 20.00     0.017 C 
HETATM    6  C7  UNL     1     -34.536  14.982  -5.116  1.00 20.00     0.058 C 
HETATM    7 BR10 UNL     1     -34.062  19.086  -7.413  1.00 20.00    -0.056 Br
ENDROOT
BRANCH   6   8
HETATM    8  C3  UNL     1     -34.220  13.643  -4.526  1.00 20.00     0.127 C 
HETATM    9  C8  UNL     1     -33.054  13.580  -3.578  1.00 20.00     0.091 C 
HETATM   10  O9  UNL     1     -34.882  12.644  -4.801  1.00 20.00    -0.298 OA
ENDBRANCH   6   8
TORSDOF 1
ENDMDL
MODEL 3
REMARK VINA RESULT:      -4.3      1.247      1.754
REMARK  1 active torsions:
REMARK  status: ('A' for Active; 'I' for Inactive)
REMARK    1  A    between atoms: C3_3  and  C7_7 
ROOT
HETATM    1  C1  UNL     1     -35.768  15.896  -2.357  1.00 20.00    -0.011 C 
HETATM    2  C2  UNL     1     -34.569  16.380  -2.001  1.00 20.00    -0.015 C 
HETATM    3  C4  UNL     1     -35.975  15.011  -3.551  1.00 20.00     0.040 C 
HETATM    4  C5  UNL     1     -33.301  16.058  -2.745  1.00 20.00     0.047 C 
HETATM    5  C6  UNL     1     -33.460  14.873  -3.704  1.00 20.00     0.017 C 
HETATM    6  C7  UNL     1     -34.765  14.973  -4.492  1.00 20.00     0.058 C 
HETATM    7 BR10 UNL     1     -34.356  17.502  -0.521  1.00 20.00    -0.056 Br
ENDROOT
BRANCH   6   8
HETATM    8  C3  UNL     1     -34.895  13.809  -5.425  1.00 20.00     0.127 C 
HETATM    9  C8  UNL     1     -35.169  14.126  -6.870  1.00 20.00     0.091 C 
HETATM   10  O9  UNL     1     -34.780  12.650  -5.030  1.00 20.00    -0.298 OA
ENDBRANCH   6   8
TORSDOF 1
ENDMDL
MODEL 4
REMARK VINA RESULT:      -4.2      0.391      1.635
REMARK  1 active torsions:
REMARK  status: ('A' for Active; 'I' for Inactive)
REMARK    1  A    between atoms: C3_3  and  C7_7 
ROOT
HETATM    1  C1  UNL     1     -34.390  16.181  -2.064  1.00 20.00    -0.011 C 
HETATM    2  C2  UNL     1     -33.905  17.305  -2.612  1.00 20.00    -0.015 C 
HETATM    3  C4  UNL     1     -34.781  14.976  -2.869  1.00 20.00     0.040 C 
HETATM    4  C5  UNL     1     -33.671  17.460  -4.091  1.00 20.00     0.047 C 
HETATM    5  C6  UNL     1     -33.703  16.124  -4.841  1.00 20.00     0.017 C 
HETATM    6  C7  UNL     1     -34.872  15.258  -4.373  1.00 20.00     0.058 C 
HETATM    7 BR10 UNL     1     -33.456  18.795  -1.577  1.00 20.00    -0.056 Br
ENDROOT
BRANCH   6   8
HETATM    8  C3  UNL     1     -34.885  13.962  -5.124  1.00 20.00     0.127 C 
HETATM    9  C8  UNL     1     -35.025  14.048  -6.620  1.00 20.00     0.091 C 
HETATM   10  O9  UNL     1     -34.785  12.881  -4.547  1.00 20.00    -0.298 OA
ENDBRANCH   6   8
TORSDOF 1
ENDMDL
MODEL 5
REMARK VINA RESULT:      -4.2      3.209      4.652
REMARK  1 active torsions:
REMARK  status: ('A' for Active; 'I' for Inactive)
REMARK    1  A    between atoms: C3_3  and  C7_7 
ROOT
HETATM    1  C1  UNL     1     -34.986  15.002  -3.780  1.00 20.00    -0.011 C 
HETATM    2  C2  UNL     1     -34.437  15.525  -4.886  1.00 20.00    -0.015 C 
HETATM    3  C4  UNL     1     -34.786  15.582  -2.410  1.00 20.00     0.040 C 
HETATM    4  C5  UNL     1     -33.592  16.770  -4.871  1.00 20.00     0.047 C 
HETATM    5  C6  UNL     1     -33.713  17.555  -3.561  1.00 20.00     0.017 C 
HETATM    6  C7  UNL     1     -33.660  16.622  -2.352  1.00 20.00     0.058 C 
HETATM    7 BR10 UNL     1     -34.688  14.756  -6.571  1.00 20.00    -0.056 Br
ENDROOT
BRANCH   6   8
HETATM    8  C3  UNL     1     -33.775  17.412  -1.086  1.00 20.00     0.127 C 
HETATM    9  C8  UNL     1     -34.885  17.028  -0.146  1.00 20.00     0.091 C 
HETATM   10  O9  UNL     1     -32.998  18.329  -0.825  1.00 20.00    -0.298 OA
ENDBRANCH   6   8
TORSDOF 1
ENDMDL
MODEL 6
REMARK VINA RESULT:      -4.2      1.280      1.476
REMARK  1 active torsions:
REMARK  status: ('A' for Active; 'I' for Inactive)
REMARK    1  A    between atoms: C3_3  and  C7_7 
ROOT
HETATM    1  C1  UNL     1     -33.713  16.296  -2.362  1.00 20.00    -0.011 C 
HETATM    2  C2  UNL     1     -34.862  16.916  -2.054  1.00 20.00    -0.015 C 
HETATM    3  C4  UNL     1     -33.631  15.154  -3.333  1.00 20.00     0.040 C 
HETATM    4  C5  UNL     1     -36.182  16.551  -2.677  1.00 20.00     0.047 C 
HETATM    5  C6  UNL     1     -36.030  15.671  -3.922  1.00 20.00     0.017 C 
HETATM    6  C7  UNL     1     -35.000  14.565  -3.691  1.00 20.00     0.058 C 
HETATM    7 BR10 UNL     1     -34.927  18.317  -0.819  1.00 20.00    -0.056 Br
ENDROOT
BRANCH   6   8
HETATM    8  C3  UNL     1     -34.873  13.716  -4.918  1.00 20.00     0.127 C 
HETATM    9  C8  UNL     1     -34.828  14.436  -6.238  1.00 20.00     0.091 C 
HETATM   10  O9  UNL     1     -34.806  12.490  -4.850  1.00 20.00    -0.298 OA
ENDBRANCH   6   8
TORSDOF 1
ENDMDL
MODEL 7
REMARK VINA RESULT:      -4.0      1.901      2.487
REMARK  1 active torsions:
REMARK  status: ('A' for Active; 'I' for Inactive)
REMARK    1  A    between atoms: C3_3  and  C7_7 
ROOT
HETATM    1  C1  UNL     1     -35.227  16.919  -1.962  1.00 20.00    -0.011 C 
HETATM    2  C2  UNL     1     -36.079  17.563  -2.774  1.00 20.00    -0.015 C 
HETATM    3  C4  UNL     1     -34.685  15.551  -2.259  1.00 20.00     0.040 C 
HETATM    4  C5  UNL     1     -36.552  16.992  -4.084  1.00 20.00     0.047 C 
HETATM    5  C6  UNL     1     -35.712  15.799  -4.551  1.00 20.00     0.017 C 
HETATM    6  C7  UNL     1     -35.428  14.840  -3.395  1.00 20.00     0.058 C 
HETATM    7 BR10 UNL     1     -36.753  19.256  -2.356  1.00 20.00    -0.056 Br
ENDROOT
BRANCH   6   8
HETATM    8  C3  UNL     1     -34.612  13.681  -3.877  1.00 20.00     0.127 C 
HETATM    9  C8  UNL     1     -33.122  13.779  -3.695  1.00 20.00     0.091 C 
HETATM   10  O9  UNL     1     -35.134  12.695  -4.394  1.00 20.00    -0.298 OA
ENDBRANCH   6   8
TORSDOF 1
ENDMDL
MODEL 8
REMARK VINA RESULT:      -3.9      3.052      4.340
REMARK  1 active torsions:
REMARK  status: ('A' for Active; 'I' for Inactive)
REMARK    1  A    between atoms: C3_3  and  C7_7 
ROOT
HETATM    1  C1  UNL     1     -37.174  15.239  -5.332  1.00 20.00    -0.011 C 
HETATM    2  C2  UNL     1     -36.940  15.139  -6.649  1.00 20.00    -0.015 C 
HETATM    3  C4  UNL     1     -36.147  14.909  -4.288  1.00 20.00     0.040 C 
HETATM    4  C5  UNL     1     -35.611  14.718  -7.216  1.00 20.00     0.047 C 
HETATM    5  C6  UNL     1     -34.483  14.760  -6.180  1.00 20.00     0.017 C 
HETATM    6  C7  UNL     1     -34.934  14.158  -4.850  1.00 20.00     0.058 C 
HETATM    7 BR10 UNL     1     -38.255  15.532  -7.918  1.00 20.00    -0.056 Br
ENDROOT
BRANCH   6   8
HETATM    8  C3  UNL     1     -33.814  14.206  -3.857  1.00 20.00     0.127 C 
HETATM    9  C8  UNL     1     -33.685  15.463  -3.041  1.00 20.00     0.091 C 
HETATM   10  O9  UNL     1     -33.038  13.262  -3.714  1.00 20.00    -0.298 OA
ENDBRANCH   6   8
TORSDOF 1
ENDMDL
MODEL 9
REMARK VINA RESULT:      -3.9      2.311      2.947
REMARK  1 active torsions:
REMARK  status: ('A' for Active; 'I' for Inactive)
REMARK    1  A    between atoms: C3_3  and  C7_7 
ROOT
HETATM    1  C1  UNL     1     -37.698  15.767  -3.600  1.00 20.00    -0.011 C 
HETATM    2  C2  UNL     1     -37.220  16.855  -2.977  1.00 20.00    -0.015 C 
HETATM    3  C4  UNL     1     -36.833  14.616  -4.024  1.00 20.00     0.040 C 
HETATM    4  C5  UNL     1     -35.770  17.016  -2.607  1.00 20.00     0.047 C 
HETATM    5  C6  UNL     1     -34.985  15.703  -2.691  1.00 20.00     0.017 C 
HETATM    6  C7  UNL     1     -35.334  14.933  -3.965  1.00 20.00     0.058 C 
HETATM    7 BR10 UNL     1     -38.327  18.280  -2.489  1.00 20.00    -0.056 Br
ENDROOT
BRANCH   6   8
HETATM    8  C3  UNL     1     -34.551  13.659  -4.026  1.00 20.00     0.127 C 
HETATM    9  C8  UNL     1     -33.103  13.733  -3.624  1.00 20.00     0.091 C 
HETATM   10  O9  UNL     1     -35.066  12.602  -4.386  1.00 20.00    -0.298 OA
ENDBRANCH   6   8
TORSDOF 1
ENDMDL
