MODEL 1
REMARK VINA RESULT:      -4.4      0.000      0.000
REMARK  1 active torsions:
REMARK  status: ('A' for Active; 'I' for Inactive)
REMARK    1  A    between atoms: C6_6  and  O10_10 
ROOT
HETATM    1  C1  UNL     1     -34.797  13.266  -4.574  1.00 20.00     0.001 C 
HETATM    2  C2  UNL     1     -36.003  14.012  -4.029  1.00 20.00     0.001 C 
HETATM    3  C3  UNL     1     -33.607  14.089  -4.087  1.00 20.00     0.013 C 
HETATM    4  C4  UNL     1     -35.641  15.465  -4.304  1.00 20.00     0.013 C 
HETATM    5  C5  UNL     1     -33.564  17.544  -3.479  1.00 20.00     0.053 C 
HETATM    6  C6  UNL     1     -33.292  16.639  -4.703  1.00 20.00     0.132 C 
HETATM    7  C7  UNL     1     -33.714  16.253  -2.646  1.00 20.00     0.095 C 
HETATM    8  C8  UNL     1     -34.138  15.529  -3.980  1.00 20.00     0.003 C 
HETATM    9 CL11 UNL     1     -34.793  16.274  -1.215  1.00 20.00    -0.124 Cl
ENDROOT
BRANCH   6  10
HETATM   10  O10 UNL     1     -33.758  17.116  -5.978  1.00 20.00    -0.390 OA
HETATM   11  C9  UNL     1     -33.711  18.529  -6.036  1.00 20.00     0.202 C 
ENDBRANCH   6  10
TORSDOF 1
ENDMDL
MODEL 2
REMARK VINA RESULT:      -4.3      2.074      3.813
REMARK  1 active torsions:
REMARK  status: ('A' for Active; 'I' for Inactive)
REMARK    1  A    between atoms: C6_6  and  O10_10 
ROOT
HETATM    1  C1  UNL     1     -33.451  18.045  -0.620  1.00 20.00     0.001 C 
HETATM    2  C2  UNL     1     -34.663  17.186  -0.298  1.00 20.00     0.001 C 
HETATM    3  C3  UNL     1     -33.543  18.257  -2.129  1.00 20.00     0.013 C 
HETATM    4  C4  UNL     1     -34.653  16.169  -1.432  1.00 20.00     0.013 C 
HETATM    5  C5  UNL     1     -34.964  16.060  -4.466  1.00 20.00     0.053 C 
HETATM    6  C6  UNL     1     -33.559  16.252  -3.850  1.00 20.00     0.132 C 
HETATM    7  C7  UNL     1     -35.394  17.334  -3.707  1.00 20.00     0.095 C 
HETATM    8  C8  UNL     1     -34.262  17.005  -2.663  1.00 20.00     0.003 C 
HETATM    9 CL11 UNL     1     -37.106  17.497  -3.203  1.00 20.00    -0.124 Cl
ENDROOT
BRANCH   6  10
HETATM   10  O10 UNL     1     -32.816  15.058  -3.545  1.00 20.00    -0.390 OA
HETATM   11  C9  UNL     1     -33.547  13.903  -3.907  1.00 20.00     0.202 C 
ENDBRANCH   6  10
TORSDOF 1
ENDMDL
MODEL 3
REMARK VINA RESULT:      -4.3      2.474      3.333
REMARK  1 active torsions:
REMARK  status: ('A' for Active; 'I' for Inactive)
REMARK    1  A    between atoms: C6_6  and  O10_10 
ROOT
HETATM    1  C1  UNL     1     -35.420  13.556  -4.046  1.00 20.00     0.001 C 
HETATM    2  C2  UNL     1     -33.936  13.756  -4.307  1.00 20.00     0.001 C 
HETATM    3  C3  UNL     1     -35.969  14.976  -3.951  1.00 20.00     0.013 C 
HETATM    4  C4  UNL     1     -33.583  14.880  -3.342  1.00 20.00     0.013 C 
HETATM    5  C5  UNL     1     -34.234  17.821  -2.852  1.00 20.00     0.053 C 
HETATM    6  C6  UNL     1     -35.093  16.727  -2.176  1.00 20.00     0.132 C 
HETATM    7  C7  UNL     1     -34.608  17.179  -4.206  1.00 20.00     0.095 C 
HETATM    8  C8  UNL     1     -34.796  15.823  -3.427  1.00 20.00     0.003 C 
HETATM    9 CL11 UNL     1     -33.453  17.317  -5.570  1.00 20.00    -0.124 Cl
ENDROOT
BRANCH   6  10
HETATM   10  O10 UNL     1     -34.653  16.261  -0.888  1.00 20.00    -0.390 OA
HETATM   11  C9  UNL     1     -34.818  17.266   0.095  1.00 20.00     0.202 C 
ENDBRANCH   6  10
TORSDOF 1
ENDMDL
MODEL 4
REMARK VINA RESULT:      -4.2      2.805      3.982
REMARK  1 active torsions:
REMARK  status: ('A' for Active; 'I' for Inactive)
REMARK    1  A    between atoms: C6_6  and  O10_10 
ROOT
HETATM    1  C1  UNL     1     -33.318  13.633  -3.664  1.00 20.00     0.001 C 
HETATM    2  C2  UNL     1     -33.112  15.138  -3.701  1.00 20.00     0.001 C 
HETATM    3  C3  UNL     1     -34.383  13.384  -4.729  1.00 20.00     0.013 C 
HETATM    4  C4  UNL     1     -34.539  15.661  -3.799  1.00 20.00     0.013 C 
HETATM    5  C5  UNL     1     -36.914  15.604  -5.714  1.00 20.00     0.053 C 
HETATM    6  C6  UNL     1     -36.776  14.502  -4.638  1.00 20.00     0.132 C 
HETATM    7  C7  UNL     1     -35.520  15.183  -6.225  1.00 20.00     0.095 C 
HETATM    8  C8  UNL     1     -35.218  14.676  -4.765  1.00 20.00     0.003 C 
HETATM    9 CL11 UNL     1     -34.486  16.415  -7.015  1.00 20.00    -0.124 Cl
ENDROOT
BRANCH   6  10
HETATM   10  O10 UNL     1     -37.381  14.763  -3.360  1.00 20.00    -0.390 OA
HETATM   11  C9  UNL     1     -38.729  15.165  -3.513  1.00 20.00     0.202 C 
ENDBRANCH   6  10
TORSDOF 1
ENDMDL
MODEL 5
REMARK VINA RESULT:      -4.2      2.265      3.615
REMARK  1 active torsions:
REMARK  status: ('A' for Active; 'I' for Inactive)
REMARK    1  A    between atoms: C6_6  and  O10_10 
ROOT
HETATM    1  C1  UNL     1     -34.786  17.036  -0.771  1.00 20.00     0.001 C 
HETATM    2  C2  UNL     1     -35.922  17.350  -1.730  1.00 20.00     0.001 C 
HETATM    3  C3  UNL     1     -33.578  16.847  -1.684  1.00 20.00     0.013 C 
HETATM    4  C4  UNL     1     -35.691  16.347  -2.852  1.00 20.00     0.013 C 
HETATM    5  C5  UNL     1     -33.621  15.686  -4.994  1.00 20.00     0.053 C 
HETATM    6  C6  UNL     1     -33.511  15.027  -3.599  1.00 20.00     0.132 C 
HETATM    7  C7  UNL     1     -33.557  17.052  -4.278  1.00 20.00     0.095 C 
HETATM    8  C8  UNL     1     -34.161  16.333  -3.013  1.00 20.00     0.003 C 
HETATM    9 CL11 UNL     1     -34.378  18.456  -5.031  1.00 20.00    -0.124 Cl
ENDROOT
BRANCH   6  10
HETATM   10  O10 UNL     1     -34.210  13.784  -3.411  1.00 20.00    -0.390 OA
HETATM   11  C9  UNL     1     -34.675  13.276  -4.647  1.00 20.00     0.202 C 
ENDBRANCH   6  10
TORSDOF 1
ENDMDL
MODEL 6
REMARK VINA RESULT:      -4.1      2.683      3.834
REMARK  1 active torsions:
REMARK  status: ('A' for Active; 'I' for Inactive)
REMARK    1  A    between atoms: C6_6  and  O10_10 
ROOT
HETATM    1  C1  UNL     1     -36.012  15.623  -7.468  1.00 20.00     0.001 C 
HETATM    2  C2  UNL     1     -34.938  14.591  -7.167  1.00 20.00     0.001 C 
HETATM    3  C3  UNL     1     -36.100  16.445  -6.185  1.00 20.00     0.013 C 
HETATM    4  C4  UNL     1     -35.288  14.159  -5.749  1.00 20.00     0.013 C 
HETATM    5  C5  UNL     1     -35.435  15.319  -2.930  1.00 20.00     0.053 C 
HETATM    6  C6  UNL     1     -36.683  15.372  -3.842  1.00 20.00     0.132 C 
HETATM    7  C7  UNL     1     -34.684  16.098  -4.030  1.00 20.00     0.095 C 
HETATM    8  C8  UNL     1     -35.697  15.474  -5.062  1.00 20.00     0.003 C 
HETATM    9 CL11 UNL     1     -32.915  15.858  -4.199  1.00 20.00    -0.124 Cl
ENDROOT
BRANCH   6  10
HETATM   10  O10 UNL     1     -37.574  14.244  -3.789  1.00 20.00    -0.390 OA
HETATM   11  C9  UNL     1     -38.886  14.620  -4.162  1.00 20.00     0.202 C 
ENDBRANCH   6  10
TORSDOF 1
ENDMDL
MODEL 7
REMARK VINA RESULT:      -4.1      2.342      2.778
REMARK  1 active torsions:
REMARK  status: ('A' for Active; 'I' for Inactive)
REMARK    1  A    between atoms: C6_6  and  O10_10 
ROOT
HETATM    1  C1  UNL     1     -34.503  15.790  -7.171  1.00 20.00     0.001 C 
HETATM    2  C2  UNL     1     -34.985  14.427  -6.703  1.00 20.00     0.001 C 
HETATM    3  C3  UNL     1     -33.797  16.368  -5.947  1.00 20.00     0.013 C 
HETATM    4  C4  UNL     1     -35.526  14.731  -5.312  1.00 20.00     0.013 C 
HETATM    5  C5  UNL     1     -34.541  15.687  -2.587  1.00 20.00     0.053 C 
HETATM    6  C6  UNL     1     -35.019  16.723  -3.631  1.00 20.00     0.132 C 
HETATM    7  C7  UNL     1     -33.515  15.206  -3.636  1.00 20.00     0.095 C 
HETATM    8  C8  UNL     1     -34.508  15.732  -4.740  1.00 20.00     0.003 C 
HETATM    9 CL11 UNL     1     -32.986  13.494  -3.598  1.00 20.00    -0.124 Cl
ENDROOT
BRANCH   6  10
HETATM   10  O10 UNL     1     -36.418  17.058  -3.620  1.00 20.00    -0.390 OA
HETATM   11  C9  UNL     1     -36.662  18.226  -4.381  1.00 20.00     0.202 C 
ENDBRANCH   6  10
TORSDOF 1
ENDMDL
MODEL 8
REMARK VINA RESULT:      -4.1      1.581      2.229
REMARK  1 active torsions:
REMARK  status: ('A' for Active; 'I' for Inactive)
REMARK    1  A    between atoms: C6_6  and  O10_10 
ROOT
HETATM    1  C1  UNL     1     -37.731  14.958  -4.340  1.00 20.00     0.001 C 
HETATM    2  C2  UNL     1     -37.552  16.364  -3.795  1.00 20.00     0.001 C 
HETATM    3  C3  UNL     1     -36.404  14.272  -4.028  1.00 20.00     0.013 C 
HETATM    4  C4  UNL     1     -36.140  16.713  -4.248  1.00 20.00     0.013 C 
HETATM    5  C5  UNL     1     -33.260  15.812  -3.796  1.00 20.00     0.053 C 
HETATM    6  C6  UNL     1     -34.089  15.172  -4.933  1.00 20.00     0.132 C 
HETATM    7  C7  UNL     1     -34.361  15.341  -2.822  1.00 20.00     0.095 C 
HETATM    8  C8  UNL     1     -35.361  15.404  -4.038  1.00 20.00     0.003 C 
HETATM    9 CL11 UNL     1     -34.651  16.290  -1.329  1.00 20.00    -0.124 Cl
ENDROOT
BRANCH   6  10
HETATM   10  O10 UNL     1     -34.042  15.821  -6.216  1.00 20.00    -0.390 OA
HETATM   11  C9  UNL     1     -34.524  14.963  -7.233  1.00 20.00     0.202 C 
ENDBRANCH   6  10
TORSDOF 1
ENDMDL
MODEL 9
REMARK VINA RESULT:      -4.1      2.784      4.094
REMARK  1 active torsions:
REMARK  status: ('A' for Active; 'I' for Inactive)
REMARK    1  A    between atoms: C6_6  and  O10_10 
ROOT
HETATM    1  C1  UNL     1     -34.518  16.285  -1.630  1.00 20.00     0.001 C 
HETATM    2  C2  UNL     1     -35.130  17.511  -2.285  1.00 20.00     0.001 C 
HETATM    3  C3  UNL     1     -34.401  15.279  -2.772  1.00 20.00     0.013 C 
HETATM    4  C4  UNL     1     -36.212  16.904  -3.169  1.00 20.00     0.013 C 
HETATM    5  C5  UNL     1     -36.482  15.065  -5.589  1.00 20.00     0.053 C 
HETATM    6  C6  UNL     1     -36.491  14.459  -4.166  1.00 20.00     0.132 C 
HETATM    7  C7  UNL     1     -35.103  15.668  -5.247  1.00 20.00     0.095 C 
HETATM    8  C8  UNL     1     -35.546  15.639  -3.736  1.00 20.00     0.003 C 
HETATM    9 CL11 UNL     1     -34.612  17.196  -6.045  1.00 20.00    -0.124 Cl
ENDROOT
BRANCH   6  10
HETATM   10  O10 UNL     1     -37.770  14.349  -3.516  1.00 20.00    -0.390 OA
HETATM   11  C9  UNL     1     -38.818  14.689  -4.404  1.00 20.00     0.202 C 
ENDBRANCH   6  10
TORSDOF 1
ENDMDL
