MODEL 1
REMARK VINA RESULT:      -4.1      0.000      0.000
REMARK  2 active torsions:
REMARK  status: ('A' for Active; 'I' for Inactive)
REMARK    1  A    between atoms: C2_2  and  O10_10 
REMARK    2  A    between atoms: C9_9  and  O10_10 
ROOT
HETATM    1  C1  UNL     1     -34.402  16.633  -5.590  1.00 20.00     0.053 C 
HETATM    2  C2  UNL     1     -33.966  16.363  -4.132  1.00 20.00     0.132 C 
HETATM    3  C3  UNL     1     -34.249  15.120  -5.860  1.00 20.00     0.095 C 
HETATM    4  C4  UNL     1     -34.465  14.888  -4.323  1.00 20.00    -0.005 C 
HETATM    5  C5  UNL     1     -33.522  13.845  -3.726  1.00 20.00     0.019 C 
HETATM    6  C6  UNL     1     -35.908  14.637  -3.877  1.00 20.00     0.019 C 
HETATM    7 CL11 UNL     1     -35.331  14.353  -7.064  1.00 20.00    -0.124 Cl
ENDROOT
BRANCH   2   8
HETATM    8  O10 UNL     1     -34.621  17.147  -3.120  1.00 20.00    -0.381 OA
BRANCH   8   9
HETATM    9  C9  UNL     1     -33.830  17.223  -1.949  1.00 20.00     0.114 C 
HETATM   10  C7  UNL     1     -33.435  18.671  -1.705  1.00 20.00     0.039 C 
HETATM   11  C8  UNL     1     -34.610  16.643  -0.779  1.00 20.00     0.039 C 
ENDBRANCH   8   9
ENDBRANCH   2   8
TORSDOF 2
ENDMDL
MODEL 2
REMARK VINA RESULT:      -4.1      1.320      2.172
REMARK  2 active torsions:
REMARK  status: ('A' for Active; 'I' for Inactive)
REMARK    1  A    between atoms: C2_2  and  O10_10 
REMARK    2  A    between atoms: C9_9  and  O10_10 
ROOT
HETATM    1  C1  UNL     1     -35.950  15.000  -3.496  1.00 20.00     0.053 C 
HETATM    2  C2  UNL     1     -35.173  16.160  -2.833  1.00 20.00     0.132 C 
HETATM    3  C3  UNL     1     -35.267  15.375  -4.830  1.00 20.00     0.095 C 
HETATM    4  C4  UNL     1     -34.117  16.024  -3.984  1.00 20.00    -0.005 C 
HETATM    5  C5  UNL     1     -33.641  17.368  -4.535  1.00 20.00     0.019 C 
HETATM    6  C6  UNL     1     -32.926  15.118  -3.659  1.00 20.00     0.019 C 
HETATM    7 CL11 UNL     1     -34.917  14.070  -6.006  1.00 20.00    -0.124 Cl
ENDROOT
BRANCH   2   8
HETATM    8  O10 UNL     1     -34.709  15.926  -1.492  1.00 20.00    -0.381 OA
BRANCH   8   9
HETATM    9  C9  UNL     1     -34.784  17.109  -0.719  1.00 20.00     0.114 C 
HETATM   10  C7  UNL     1     -33.435  17.810  -0.743  1.00 20.00     0.039 C 
HETATM   11  C8  UNL     1     -35.892  17.996  -1.268  1.00 20.00     0.039 C 
ENDBRANCH   8   9
ENDBRANCH   2   8
TORSDOF 2
ENDMDL
MODEL 3
REMARK VINA RESULT:      -4.1      2.616      4.301
REMARK  2 active torsions:
REMARK  status: ('A' for Active; 'I' for Inactive)
REMARK    1  A    between atoms: C2_2  and  O10_10 
REMARK    2  A    between atoms: C9_9  and  O10_10 
ROOT
HETATM    1  C1  UNL     1     -34.651  16.321  -1.550  1.00 20.00     0.053 C 
HETATM    2  C2  UNL     1     -34.413  15.636  -2.914  1.00 20.00     0.132 C 
HETATM    3  C3  UNL     1     -34.119  17.630  -2.173  1.00 20.00     0.095 C 
HETATM    4  C4  UNL     1     -34.529  17.055  -3.574  1.00 20.00    -0.005 C 
HETATM    5  C5  UNL     1     -33.488  17.305  -4.663  1.00 20.00     0.019 C 
HETATM    6  C6  UNL     1     -35.932  17.419  -4.067  1.00 20.00     0.019 C 
HETATM    7 CL11 UNL     1     -34.786  19.187  -1.590  1.00 20.00    -0.124 Cl
ENDROOT
BRANCH   2   8
HETATM    8  O10 UNL     1     -35.386  14.653  -3.307  1.00 20.00    -0.381 OA
BRANCH   8   9
HETATM    9  C9  UNL     1     -34.784  13.625  -4.071  1.00 20.00     0.114 C 
HETATM   10  C7  UNL     1     -35.031  13.888  -5.548  1.00 20.00     0.039 C 
HETATM   11  C8  UNL     1     -33.299  13.566  -3.747  1.00 20.00     0.039 C 
ENDBRANCH   8   9
ENDBRANCH   2   8
TORSDOF 2
ENDMDL
MODEL 4
REMARK VINA RESULT:      -4.1      2.555      4.383
REMARK  2 active torsions:
REMARK  status: ('A' for Active; 'I' for Inactive)
REMARK    1  A    between atoms: C2_2  and  O10_10 
REMARK    2  A    between atoms: C9_9  and  O10_10 
ROOT
HETATM    1  C1  UNL     1     -34.133  16.997  -3.898  1.00 20.00     0.053 C 
HETATM    2  C2  UNL     1     -34.784  16.087  -4.964  1.00 20.00     0.132 C 
HETATM    3  C3  UNL     1     -35.138  16.428  -2.873  1.00 20.00     0.095 C 
HETATM    4  C4  UNL     1     -35.257  15.161  -3.790  1.00 20.00    -0.005 C 
HETATM    5  C5  UNL     1     -36.691  14.659  -3.952  1.00 20.00     0.019 C 
HETATM    6  C6  UNL     1     -34.309  14.003  -3.465  1.00 20.00     0.019 C 
HETATM    7 CL11 UNL     1     -34.624  16.279  -1.164  1.00 20.00    -0.124 Cl
ENDROOT
BRANCH   2   8
HETATM    8  O10 UNL     1     -33.892  15.508  -5.932  1.00 20.00    -0.381 OA
BRANCH   8   9
HETATM    9  C9  UNL     1     -34.457  15.555  -7.229  1.00 20.00     0.114 C 
HETATM   10  C7  UNL     1     -35.380  14.362  -7.416  1.00 20.00     0.039 C 
HETATM   11  C8  UNL     1     -35.193  16.874  -7.406  1.00 20.00     0.039 C 
ENDBRANCH   8   9
ENDBRANCH   2   8
TORSDOF 2
ENDMDL
MODEL 5
REMARK VINA RESULT:      -4.0      2.670      4.556
REMARK  2 active torsions:
REMARK  status: ('A' for Active; 'I' for Inactive)
REMARK    1  A    between atoms: C2_2  and  O10_10 
REMARK    2  A    between atoms: C9_9  and  O10_10 
ROOT
HETATM    1  C1  UNL     1     -36.138  16.308  -3.210  1.00 20.00     0.053 C 
HETATM    2  C2  UNL     1     -35.749  15.357  -4.364  1.00 20.00     0.132 C 
HETATM    3  C3  UNL     1     -35.003  15.675  -2.376  1.00 20.00     0.095 C 
HETATM    4  C4  UNL     1     -34.317  15.276  -3.729  1.00 20.00    -0.005 C 
HETATM    5  C5  UNL     1     -33.733  13.865  -3.722  1.00 20.00     0.019 C 
HETATM    6  C6  UNL     1     -33.308  16.281  -4.293  1.00 20.00     0.019 C 
HETATM    7 CL11 UNL     1     -34.149  16.700  -1.180  1.00 20.00    -0.124 Cl
ENDROOT
BRANCH   2   8
HETATM    8  O10 UNL     1     -35.843  15.900  -5.692  1.00 20.00    -0.381 OA
BRANCH   8   9
HETATM    9  C9  UNL     1     -35.928  14.867  -6.655  1.00 20.00     0.114 C 
HETATM   10  C7  UNL     1     -37.167  15.080  -7.511  1.00 20.00     0.039 C 
HETATM   11  C8  UNL     1     -34.657  14.858  -7.492  1.00 20.00     0.039 C 
ENDBRANCH   8   9
ENDBRANCH   2   8
TORSDOF 2
ENDMDL
MODEL 6
REMARK VINA RESULT:      -4.0      0.848      1.356
REMARK  2 active torsions:
REMARK  status: ('A' for Active; 'I' for Inactive)
REMARK    1  A    between atoms: C2_2  and  O10_10 
REMARK    2  A    between atoms: C9_9  and  O10_10 
ROOT
HETATM    1  C1  UNL     1     -34.952  17.021  -5.417  1.00 20.00     0.053 C 
HETATM    2  C2  UNL     1     -34.483  16.884  -3.951  1.00 20.00     0.132 C 
HETATM    3  C3  UNL     1     -34.005  15.854  -5.774  1.00 20.00     0.095 C 
HETATM    4  C4  UNL     1     -34.110  15.396  -4.278  1.00 20.00    -0.005 C 
HETATM    5  C5  UNL     1     -32.774  14.959  -3.681  1.00 20.00     0.019 C 
HETATM    6  C6  UNL     1     -35.207  14.376  -3.962  1.00 20.00     0.019 C 
HETATM    7 CL11 UNL     1     -34.474  14.752  -7.107  1.00 20.00    -0.124 Cl
ENDROOT
BRANCH   2   8
HETATM    8  O10 UNL     1     -35.485  17.098  -2.943  1.00 20.00    -0.381 OA
BRANCH   8   9
HETATM    9  C9  UNL     1     -34.927  17.717  -1.800  1.00 20.00     0.114 C 
HETATM   10  C7  UNL     1     -34.618  16.656  -0.756  1.00 20.00     0.039 C 
HETATM   11  C8  UNL     1     -33.681  18.489  -2.208  1.00 20.00     0.039 C 
ENDBRANCH   8   9
ENDBRANCH   2   8
TORSDOF 2
ENDMDL
MODEL 7
REMARK VINA RESULT:      -4.0      2.573      4.133
REMARK  2 active torsions:
REMARK  status: ('A' for Active; 'I' for Inactive)
REMARK    1  A    between atoms: C2_2  and  O10_10 
REMARK    2  A    between atoms: C9_9  and  O10_10 
ROOT
HETATM    1  C1  UNL     1     -35.151  13.414  -4.280  1.00 20.00     0.053 C 
HETATM    2  C2  UNL     1     -36.262  14.484  -4.363  1.00 20.00     0.132 C 
HETATM    3  C3  UNL     1     -34.117  14.552  -4.428  1.00 20.00     0.095 C 
HETATM    4  C4  UNL     1     -35.206  15.528  -3.860  1.00 20.00    -0.005 C 
HETATM    5  C5  UNL     1     -35.271  16.863  -4.599  1.00 20.00     0.019 C 
HETATM    6  C6  UNL     1     -35.190  15.744  -2.344  1.00 20.00     0.019 C 
HETATM    7 CL11 UNL     1     -32.530  14.375  -3.616  1.00 20.00    -0.124 Cl
ENDROOT
BRANCH   2   8
HETATM    8  O10 UNL     1     -37.413  14.267  -3.528  1.00 20.00    -0.381 OA
BRANCH   8   9
HETATM    9  C9  UNL     1     -38.562  14.877  -4.084  1.00 20.00     0.114 C 
HETATM   10  C7  UNL     1     -38.856  16.168  -3.337  1.00 20.00     0.039 C 
HETATM   11  C8  UNL     1     -38.329  15.122  -5.568  1.00 20.00     0.039 C 
ENDBRANCH   8   9
ENDBRANCH   2   8
TORSDOF 2
ENDMDL
MODEL 8
REMARK VINA RESULT:      -3.9      2.618      4.543
REMARK  2 active torsions:
REMARK  status: ('A' for Active; 'I' for Inactive)
REMARK    1  A    between atoms: C2_2  and  O10_10 
REMARK    2  A    between atoms: C9_9  and  O10_10 
ROOT
HETATM    1  C1  UNL     1     -33.405  15.777  -3.679  1.00 20.00     0.053 C 
HETATM    2  C2  UNL     1     -34.352  15.894  -4.894  1.00 20.00     0.132 C 
HETATM    3  C3  UNL     1     -34.412  16.631  -2.878  1.00 20.00     0.095 C 
HETATM    4  C4  UNL     1     -35.520  16.147  -3.878  1.00 20.00    -0.005 C 
HETATM    5  C5  UNL     1     -36.474  17.258  -4.313  1.00 20.00     0.019 C 
HETATM    6  C6  UNL     1     -36.296  14.893  -3.467  1.00 20.00     0.019 C 
HETATM    7 CL11 UNL     1     -34.572  16.337  -1.118  1.00 20.00    -0.124 Cl
ENDROOT
BRANCH   2   8
HETATM    8  O10 UNL     1     -34.458  14.728  -5.730  1.00 20.00    -0.381 OA
BRANCH   8   9
HETATM    9  C9  UNL     1     -34.392  15.080  -7.098  1.00 20.00     0.114 C 
HETATM   10  C7  UNL     1     -35.560  14.446  -7.836  1.00 20.00     0.039 C 
HETATM   11  C8  UNL     1     -34.398  16.596  -7.225  1.00 20.00     0.039 C 
ENDBRANCH   8   9
ENDBRANCH   2   8
TORSDOF 2
ENDMDL
MODEL 9
REMARK VINA RESULT:      -3.9      1.790      2.802
REMARK  2 active torsions:
REMARK  status: ('A' for Active; 'I' for Inactive)
REMARK    1  A    between atoms: C2_2  and  O10_10 
REMARK    2  A    between atoms: C9_9  and  O10_10 
ROOT
HETATM    1  C1  UNL     1     -34.872  14.993  -7.036  1.00 20.00     0.053 C 
HETATM    2  C2  UNL     1     -34.649  14.987  -5.507  1.00 20.00     0.132 C 
HETATM    3  C3  UNL     1     -36.384  14.839  -6.763  1.00 20.00     0.095 C 
HETATM    4  C4  UNL     1     -36.130  15.479  -5.353  1.00 20.00    -0.005 C 
HETATM    5  C5  UNL     1     -36.888  14.784  -4.224  1.00 20.00     0.019 C 
HETATM    6  C6  UNL     1     -36.295  16.999  -5.265  1.00 20.00     0.019 C 
HETATM    7 CL11 UNL     1     -37.540  15.582  -7.913  1.00 20.00    -0.124 Cl
ENDROOT
BRANCH   2   8
HETATM    8  O10 UNL     1     -33.618  15.860  -5.013  1.00 20.00    -0.381 OA
BRANCH   8   9
HETATM    9  C9  UNL     1     -33.058  15.353  -3.817  1.00 20.00     0.114 C 
HETATM   10  C7  UNL     1     -33.706  16.046  -2.628  1.00 20.00     0.039 C 
HETATM   11  C8  UNL     1     -33.257  13.846  -3.771  1.00 20.00     0.039 C 
ENDBRANCH   8   9
ENDBRANCH   2   8
TORSDOF 2
ENDMDL
