MODEL 1
REMARK VINA RESULT:      -4.9      0.000      0.000
REMARK  3 active torsions:
REMARK  status: ('A' for Active; 'I' for Inactive)
REMARK    1  A    between atoms: C2_2  and  O10_10 
REMARK    2  A    between atoms: C7_7  and  C8_8 
REMARK    3  A    between atoms: C8_8  and  O10_10 
ROOT
HETATM    1  C3  UNL     1     -34.058   5.119   6.459  1.00 20.00     0.005 C 
HETATM    2  C4  UNL     1     -35.175   4.301   5.825  1.00 20.00     0.026 C 
HETATM    3  C5  UNL     1     -34.034   6.528   5.873  1.00 20.00     0.034 C 
HETATM    4  C6  UNL     1     -35.090   4.354   4.306  1.00 20.00     0.168 C 
HETATM    5  C7  UNL     1     -34.036   6.518   4.343  1.00 20.00     0.145 C 
HETATM    6  O9  UNL     1     -35.094   5.700   3.833  1.00 20.00    -0.384 OA
ENDROOT
BRANCH   5   7
HETATM    7  C8  UNL     1     -32.688   6.126   3.741  1.00 20.00     0.206 C 
BRANCH   7   8
HETATM    8  O10 UNL     1     -32.580   6.709   2.453  1.00 20.00    -0.361 OA
BRANCH   8   9
HETATM    9  C2  UNL     1     -32.071   7.935   2.429  1.00 20.00     0.124 C 
HETATM   10  C1  UNL     1     -32.027   8.724   1.352  1.00 20.00     0.037 C 
ENDBRANCH   8   9
ENDBRANCH   7   8
ENDBRANCH   5   7
TORSDOF 3
ENDMDL
MODEL 2
REMARK VINA RESULT:      -4.0     11.115     12.523
REMARK  3 active torsions:
REMARK  status: ('A' for Active; 'I' for Inactive)
REMARK    1  A    between atoms: C2_2  and  O10_10 
REMARK    2  A    between atoms: C7_7  and  C8_8 
REMARK    3  A    between atoms: C8_8  and  O10_10 
ROOT
HETATM    1  C3  UNL     1     -35.070  14.503  -5.693  1.00 20.00     0.005 C 
HETATM    2  C4  UNL     1     -34.573  13.274  -4.944  1.00 20.00     0.026 C 
HETATM    3  C5  UNL     1     -33.985  15.574  -5.735  1.00 20.00     0.034 C 
HETATM    4  C6  UNL     1     -34.010  13.659  -3.584  1.00 20.00     0.168 C 
HETATM    5  C7  UNL     1     -33.397  15.857  -4.351  1.00 20.00     0.145 C 
HETATM    6  O9  UNL     1     -32.988  14.647  -3.707  1.00 20.00    -0.384 OA
ENDROOT
BRANCH   5   7
HETATM    7  C8  UNL     1     -34.326  16.678  -3.457  1.00 20.00     0.206 C 
BRANCH   7   8
HETATM    8  O10 UNL     1     -33.754  16.761  -2.163  1.00 20.00    -0.361 OA
BRANCH   8   9
HETATM    9  C2  UNL     1     -34.586  16.505  -1.160  1.00 20.00     0.124 C 
HETATM   10  C1  UNL     1     -34.683  17.229  -0.042  1.00 20.00     0.037 C 
ENDBRANCH   8   9
ENDBRANCH   7   8
ENDBRANCH   5   7
TORSDOF 3
ENDMDL
MODEL 3
REMARK VINA RESULT:      -3.9     11.478     12.647
REMARK  3 active torsions:
REMARK  status: ('A' for Active; 'I' for Inactive)
REMARK    1  A    between atoms: C2_2  and  O10_10 
REMARK    2  A    between atoms: C7_7  and  C8_8 
REMARK    3  A    between atoms: C8_8  and  O10_10 
ROOT
HETATM    1  C3  UNL     1     -34.657  15.675  -5.788  1.00 20.00     0.005 C 
HETATM    2  C4  UNL     1     -34.753  14.159  -5.891  1.00 20.00     0.026 C 
HETATM    3  C5  UNL     1     -33.366  16.078  -5.082  1.00 20.00     0.034 C 
HETATM    4  C6  UNL     1     -34.545  13.508  -4.532  1.00 20.00     0.168 C 
HETATM    5  C7  UNL     1     -33.170  15.328  -3.762  1.00 20.00     0.145 C 
HETATM    6  O9  UNL     1     -33.310  13.916  -3.945  1.00 20.00    -0.384 OA
ENDROOT
BRANCH   5   7
HETATM    7  C8  UNL     1     -34.072  15.838  -2.639  1.00 20.00     0.206 C 
BRANCH   7   8
HETATM    8  O10 UNL     1     -33.668  17.151  -2.293  1.00 20.00    -0.361 OA
BRANCH   8   9
HETATM    9  C2  UNL     1     -33.785  17.458  -1.006  1.00 20.00     0.124 C 
HETATM   10  C1  UNL     1     -34.763  17.030  -0.204  1.00 20.00     0.037 C 
ENDBRANCH   8   9
ENDBRANCH   7   8
ENDBRANCH   5   7
TORSDOF 3
ENDMDL
MODEL 4
REMARK VINA RESULT:      -3.8     11.757     12.742
REMARK  3 active torsions:
REMARK  status: ('A' for Active; 'I' for Inactive)
REMARK    1  A    between atoms: C2_2  and  O10_10 
REMARK    2  A    between atoms: C7_7  and  C8_8 
REMARK    3  A    between atoms: C8_8  and  O10_10 
ROOT
HETATM    1  C3  UNL     1     -34.697  13.492  -5.300  1.00 20.00     0.005 C 
HETATM    2  C4  UNL     1     -34.894  14.469  -6.452  1.00 20.00     0.026 C 
HETATM    3  C5  UNL     1     -35.395  14.004  -4.044  1.00 20.00     0.034 C 
HETATM    4  C6  UNL     1     -34.501  15.880  -6.039  1.00 20.00     0.168 C 
HETATM    5  C7  UNL     1     -35.026  15.455  -3.728  1.00 20.00     0.145 C 
HETATM    6  O9  UNL     1     -35.209  16.295  -4.872  1.00 20.00    -0.384 OA
ENDROOT
BRANCH   5   7
HETATM    7  C8  UNL     1     -33.623  15.607  -3.143  1.00 20.00     0.206 C 
BRANCH   7   8
HETATM    8  O10 UNL     1     -33.662  16.588  -2.120  1.00 20.00    -0.361 OA
BRANCH   8   9
HETATM    9  C2  UNL     1     -34.626  16.427  -1.219  1.00 20.00     0.124 C 
HETATM   10  C1  UNL     1     -34.757  17.147  -0.103  1.00 20.00     0.037 C 
ENDBRANCH   8   9
ENDBRANCH   7   8
ENDBRANCH   5   7
TORSDOF 3
ENDMDL
MODEL 5
REMARK VINA RESULT:      -3.8      1.353      2.116
REMARK  3 active torsions:
REMARK  status: ('A' for Active; 'I' for Inactive)
REMARK    1  A    between atoms: C2_2  and  O10_10 
REMARK    2  A    between atoms: C7_7  and  C8_8 
REMARK    3  A    between atoms: C8_8  and  O10_10 
ROOT
HETATM    1  C3  UNL     1     -35.448   5.439   3.658  1.00 20.00     0.005 C 
HETATM    2  C4  UNL     1     -35.133   5.291   5.140  1.00 20.00     0.026 C 
HETATM    3  C5  UNL     1     -34.197   5.191   2.822  1.00 20.00     0.034 C 
HETATM    4  C6  UNL     1     -33.933   6.143   5.527  1.00 20.00     0.168 C 
HETATM    5  C7  UNL     1     -33.001   6.012   3.312  1.00 20.00     0.145 C 
HETATM    6  O9  UNL     1     -32.798   5.839   4.718  1.00 20.00    -0.384 OA
ENDROOT
BRANCH   5   7
HETATM    7  C8  UNL     1     -33.090   7.490   2.938  1.00 20.00     0.206 C 
BRANCH   7   8
HETATM    8  O10 UNL     1     -31.834   7.907   2.432  1.00 20.00    -0.361 OA
BRANCH   8   9
HETATM    9  C2  UNL     1     -31.883   8.614   1.308  1.00 20.00     0.124 C 
HETATM   10  C1  UNL     1     -32.415   9.833   1.194  1.00 20.00     0.037 C 
ENDBRANCH   8   9
ENDBRANCH   7   8
ENDBRANCH   5   7
TORSDOF 3
ENDMDL
MODEL 6
REMARK VINA RESULT:      -3.8     11.274     12.725
REMARK  3 active torsions:
REMARK  status: ('A' for Active; 'I' for Inactive)
REMARK    1  A    between atoms: C2_2  and  O10_10 
REMARK    2  A    between atoms: C7_7  and  C8_8 
REMARK    3  A    between atoms: C8_8  and  O10_10 
ROOT
HETATM    1  C3  UNL     1     -33.722  13.646  -3.787  1.00 20.00     0.005 C 
HETATM    2  C4  UNL     1     -32.865  14.904  -3.746  1.00 20.00     0.026 C 
HETATM    3  C5  UNL     1     -34.839  13.798  -4.815  1.00 20.00     0.034 C 
HETATM    4  C6  UNL     1     -33.729  16.143  -3.564  1.00 20.00     0.168 C 
HETATM    5  C7  UNL     1     -35.618  15.103  -4.634  1.00 20.00     0.145 C 
HETATM    6  O9  UNL     1     -34.735  16.227  -4.573  1.00 20.00    -0.384 OA
ENDROOT
BRANCH   5   7
HETATM    7  C8  UNL     1     -36.571  15.077  -3.441  1.00 20.00     0.206 C 
BRANCH   7   8
HETATM    8  O10 UNL     1     -37.628  14.176  -3.724  1.00 20.00    -0.361 OA
BRANCH   8   9
HETATM    9  C2  UNL     1     -38.782  14.744  -4.055  1.00 20.00     0.124 C 
HETATM   10  C1  UNL     1     -39.500  15.539  -3.257  1.00 20.00     0.037 C 
ENDBRANCH   8   9
ENDBRANCH   7   8
ENDBRANCH   5   7
TORSDOF 3
ENDMDL
MODEL 7
REMARK VINA RESULT:      -3.8     11.150     12.717
REMARK  3 active torsions:
REMARK  status: ('A' for Active; 'I' for Inactive)
REMARK    1  A    between atoms: C2_2  and  O10_10 
REMARK    2  A    between atoms: C7_7  and  C8_8 
REMARK    3  A    between atoms: C8_8  and  O10_10 
ROOT
HETATM    1  C3  UNL     1     -33.465  15.183  -3.424  1.00 20.00     0.005 C 
HETATM    2  C4  UNL     1     -33.313  13.700  -3.734  1.00 20.00     0.026 C 
HETATM    3  C5  UNL     1     -34.889  15.487  -2.970  1.00 20.00     0.034 C 
HETATM    4  C6  UNL     1     -34.396  13.233  -4.695  1.00 20.00     0.168 C 
HETATM    5  C7  UNL     1     -35.936  14.919  -3.931  1.00 20.00     0.145 C 
HETATM    6  O9  UNL     1     -35.698  13.533  -4.193  1.00 20.00    -0.384 OA
ENDROOT
BRANCH   5   7
HETATM    7  C8  UNL     1     -36.062  15.718  -5.227  1.00 20.00     0.206 C 
BRANCH   7   8
HETATM    8  O10 UNL     1     -37.027  15.091  -6.055  1.00 20.00    -0.361 OA
BRANCH   8   9
HETATM    9  C2  UNL     1     -36.733  15.071  -7.350  1.00 20.00     0.124 C 
HETATM   10  C1  UNL     1     -35.633  14.527  -7.876  1.00 20.00     0.037 C 
ENDBRANCH   8   9
ENDBRANCH   7   8
ENDBRANCH   5   7
TORSDOF 3
ENDMDL
MODEL 8
REMARK VINA RESULT:      -3.6      9.533     11.064
REMARK  3 active torsions:
REMARK  status: ('A' for Active; 'I' for Inactive)
REMARK    1  A    between atoms: C2_2  and  O10_10 
REMARK    2  A    between atoms: C7_7  and  C8_8 
REMARK    3  A    between atoms: C8_8  and  O10_10 
ROOT
HETATM    1  C3  UNL     1     -40.876   5.778  -0.113  1.00 20.00     0.005 C 
HETATM    2  C4  UNL     1     -41.151   7.073  -0.865  1.00 20.00     0.026 C 
HETATM    3  C5  UNL     1     -40.715   4.619  -1.092  1.00 20.00     0.034 C 
HETATM    4  C6  UNL     1     -42.309   6.899  -1.837  1.00 20.00     0.168 C 
HETATM    5  C7  UNL     1     -41.866   4.547  -2.097  1.00 20.00     0.145 C 
HETATM    6  O9  UNL     1     -42.077   5.812  -2.732  1.00 20.00    -0.384 OA
ENDROOT
BRANCH   5   7
HETATM    7  C8  UNL     1     -43.160   4.002  -1.495  1.00 20.00     0.206 C 
BRANCH   7   8
HETATM    8  O10 UNL     1     -43.253   2.620  -1.794  1.00 20.00    -0.361 OA
BRANCH   8   9
HETATM    9  C2  UNL     1     -42.912   2.286  -3.033  1.00 20.00     0.124 C 
HETATM   10  C1  UNL     1     -42.281   1.159  -3.376  1.00 20.00     0.037 C 
ENDBRANCH   8   9
ENDBRANCH   7   8
ENDBRANCH   5   7
TORSDOF 3
ENDMDL
MODEL 9
REMARK VINA RESULT:      -3.6     11.366     12.703
REMARK  3 active torsions:
REMARK  status: ('A' for Active; 'I' for Inactive)
REMARK    1  A    between atoms: C2_2  and  O10_10 
REMARK    2  A    between atoms: C7_7  and  C8_8 
REMARK    3  A    between atoms: C8_8  and  O10_10 
ROOT
HETATM    1  C3  UNL     1     -35.227  15.881  -3.450  1.00 20.00     0.005 C 
HETATM    2  C4  UNL     1     -33.901  15.538  -2.786  1.00 20.00     0.026 C 
HETATM    3  C5  UNL     1     -36.017  14.610  -3.746  1.00 20.00     0.034 C 
HETATM    4  C6  UNL     1     -33.143  14.495  -3.595  1.00 20.00     0.168 C 
HETATM    5  C7  UNL     1     -35.177  13.566  -4.485  1.00 20.00     0.145 C 
HETATM    6  O9  UNL     1     -33.937  13.330  -3.812  1.00 20.00    -0.384 OA
ENDROOT
BRANCH   5   7
HETATM    7  C8  UNL     1     -34.957  13.902  -5.959  1.00 20.00     0.206 C 
BRANCH   7   8
HETATM    8  O10 UNL     1     -36.078  14.630  -6.431  1.00 20.00    -0.361 OA
BRANCH   8   9
HETATM    9  C2  UNL     1     -35.792  15.652  -7.229  1.00 20.00     0.124 C 
HETATM   10  C1  UNL     1     -34.614  16.278  -7.279  1.00 20.00     0.037 C 
ENDBRANCH   8   9
ENDBRANCH   7   8
ENDBRANCH   5   7
TORSDOF 3
ENDMDL
