MODEL 1
REMARK VINA RESULT:      -3.8      0.000      0.000
REMARK  1 active torsions:
REMARK  status: ('A' for Active; 'I' for Inactive)
REMARK    1  A    between atoms: C2_2  and  O8_8 
ROOT
HETATM    1  C1  UNL     1     -36.550  16.300  -4.516  1.00 20.00     0.049 C 
HETATM    2  C2  UNL     1     -36.610  15.117  -3.521  1.00 20.00     0.131 C 
HETATM    3  C3  UNL     1     -35.448  15.537  -5.283  1.00 20.00     0.070 C 
HETATM    4  C4  UNL     1     -35.150  14.751  -3.959  1.00 20.00    -0.008 C 
HETATM    5  C5  UNL     1     -34.106  15.326  -2.995  1.00 20.00     0.018 C 
HETATM    6  C6  UNL     1     -34.889  13.263  -4.199  1.00 20.00     0.018 C 
HETATM    7 BR9  UNL     1     -34.042  16.617  -6.047  1.00 20.00    -0.090 Br
ENDROOT
BRANCH   2   8
HETATM    8  O8  UNL     1     -37.634  14.138  -3.793  1.00 20.00    -0.390 OA
HETATM    9  C7  UNL     1     -38.887  14.763  -3.985  1.00 20.00     0.202 C 
ENDBRANCH   2   8
TORSDOF 1
ENDMDL
MODEL 2
REMARK VINA RESULT:      -3.8      1.710      2.892
REMARK  1 active torsions:
REMARK  status: ('A' for Active; 'I' for Inactive)
REMARK    1  A    between atoms: C2_2  and  O8_8 
ROOT
HETATM    1  C1  UNL     1     -33.627  16.043  -4.196  1.00 20.00     0.049 C 
HETATM    2  C2  UNL     1     -34.464  15.492  -3.017  1.00 20.00     0.131 C 
HETATM    3  C3  UNL     1     -34.838  15.780  -5.117  1.00 20.00     0.070 C 
HETATM    4  C4  UNL     1     -35.333  14.722  -4.071  1.00 20.00    -0.008 C 
HETATM    5  C5  UNL     1     -34.869  13.269  -4.236  1.00 20.00     0.018 C 
HETATM    6  C6  UNL     1     -36.844  14.775  -3.842  1.00 20.00     0.018 C 
HETATM    7 BR9  UNL     1     -34.430  15.181  -6.907  1.00 20.00    -0.090 Br
ENDROOT
BRANCH   2   8
HETATM    8  O8  UNL     1     -35.140  16.492  -2.226  1.00 20.00    -0.390 OA
HETATM    9  C7  UNL     1     -34.564  16.586  -0.938  1.00 20.00     0.202 C 
ENDBRANCH   2   8
TORSDOF 1
ENDMDL
MODEL 3
REMARK VINA RESULT:      -3.7      2.396      3.107
REMARK  1 active torsions:
REMARK  status: ('A' for Active; 'I' for Inactive)
REMARK    1  A    between atoms: C2_2  and  O8_8 
ROOT
HETATM    1  C1  UNL     1     -35.816  14.865  -3.559  1.00 20.00     0.049 C 
HETATM    2  C2  UNL     1     -35.010  14.732  -4.873  1.00 20.00     0.131 C 
HETATM    3  C3  UNL     1     -35.038  16.167  -3.268  1.00 20.00     0.070 C 
HETATM    4  C4  UNL     1     -33.909  15.638  -4.219  1.00 20.00    -0.008 C 
HETATM    5  C5  UNL     1     -32.778  14.803  -3.607  1.00 20.00     0.018 C 
HETATM    6  C6  UNL     1     -33.335  16.730  -5.123  1.00 20.00     0.018 C 
HETATM    7 BR9  UNL     1     -34.599  16.499  -1.417  1.00 20.00    -0.090 Br
ENDROOT
BRANCH   2   8
HETATM    8  O8  UNL     1     -35.665  15.254  -6.048  1.00 20.00    -0.390 OA
HETATM    9  C7  UNL     1     -35.434  14.415  -7.163  1.00 20.00     0.202 C 
ENDBRANCH   2   8
TORSDOF 1
ENDMDL
MODEL 4
REMARK VINA RESULT:      -3.6      2.970      3.940
REMARK  1 active torsions:
REMARK  status: ('A' for Active; 'I' for Inactive)
REMARK    1  A    between atoms: C2_2  and  O8_8 
ROOT
HETATM    1  C1  UNL     1     -34.103  15.735  -5.829  1.00 20.00     0.049 C 
HETATM    2  C2  UNL     1     -33.214  16.665  -4.971  1.00 20.00     0.131 C 
HETATM    3  C3  UNL     1     -34.765  15.242  -4.525  1.00 20.00     0.070 C 
HETATM    4  C4  UNL     1     -33.474  15.701  -3.762  1.00 20.00    -0.008 C 
HETATM    5  C5  UNL     1     -32.337  14.687  -3.589  1.00 20.00     0.018 C 
HETATM    6  C6  UNL     1     -33.784  16.385  -2.430  1.00 20.00     0.018 C 
HETATM    7 BR9  UNL     1     -35.249  13.373  -4.471  1.00 20.00    -0.090 Br
ENDROOT
BRANCH   2   8
HETATM    8  O8  UNL     1     -33.694  18.019  -4.835  1.00 20.00    -0.390 OA
HETATM    9  C7  UNL     1     -33.699  18.677  -6.087  1.00 20.00     0.202 C 
ENDBRANCH   2   8
TORSDOF 1
ENDMDL
MODEL 5
REMARK VINA RESULT:      -3.6      2.399      3.255
REMARK  1 active torsions:
REMARK  status: ('A' for Active; 'I' for Inactive)
REMARK    1  A    between atoms: C2_2  and  O8_8 
ROOT
HETATM    1  C1  UNL     1     -34.545  16.960  -4.334  1.00 20.00     0.049 C 
HETATM    2  C2  UNL     1     -35.018  15.794  -5.235  1.00 20.00     0.131 C 
HETATM    3  C3  UNL     1     -34.241  15.923  -3.232  1.00 20.00     0.070 C 
HETATM    4  C4  UNL     1     -35.268  14.964  -3.929  1.00 20.00    -0.008 C 
HETATM    5  C5  UNL     1     -36.736  15.031  -3.486  1.00 20.00     0.018 C 
HETATM    6  C6  UNL     1     -34.791  13.512  -3.970  1.00 20.00     0.018 C 
HETATM    7 BR9  UNL     1     -34.592  16.483  -1.418  1.00 20.00    -0.090 Br
ENDROOT
BRANCH   2   8
HETATM    8  O8  UNL     1     -34.023  15.283  -6.147  1.00 20.00    -0.390 OA
HETATM    9  C7  UNL     1     -34.604  14.970  -7.398  1.00 20.00     0.202 C 
ENDBRANCH   2   8
TORSDOF 1
ENDMDL
MODEL 6
REMARK VINA RESULT:      -3.5      2.111      2.927
REMARK  1 active torsions:
REMARK  status: ('A' for Active; 'I' for Inactive)
REMARK    1  A    between atoms: C2_2  and  O8_8 
ROOT
HETATM    1  C1  UNL     1     -36.016  15.898  -4.103  1.00 20.00     0.049 C 
HETATM    2  C2  UNL     1     -34.858  16.348  -3.181  1.00 20.00     0.131 C 
HETATM    3  C3  UNL     1     -35.062  14.844  -4.706  1.00 20.00     0.070 C 
HETATM    4  C4  UNL     1     -33.864  15.735  -4.227  1.00 20.00    -0.008 C 
HETATM    5  C5  UNL     1     -33.324  16.800  -5.189  1.00 20.00     0.018 C 
HETATM    6  C6  UNL     1     -32.714  14.917  -3.640  1.00 20.00     0.018 C 
HETATM    7 BR9  UNL     1     -35.256  14.505  -6.597  1.00 20.00    -0.090 Br
ENDROOT
BRANCH   2   8
HETATM    8  O8  UNL     1     -34.859  15.758  -1.864  1.00 20.00    -0.390 OA
HETATM    9  C7  UNL     1     -34.530  16.722  -0.883  1.00 20.00     0.202 C 
ENDBRANCH   2   8
TORSDOF 1
ENDMDL
MODEL 7
REMARK VINA RESULT:      -3.5      3.164      4.038
REMARK  1 active torsions:
REMARK  status: ('A' for Active; 'I' for Inactive)
REMARK    1  A    between atoms: C2_2  and  O8_8 
ROOT
HETATM    1  C1  UNL     1     -34.835  17.893  -3.445  1.00 20.00     0.049 C 
HETATM    2  C2  UNL     1     -34.443  16.919  -4.582  1.00 20.00     0.131 C 
HETATM    3  C3  UNL     1     -33.956  17.057  -2.490  1.00 20.00     0.070 C 
HETATM    4  C4  UNL     1     -34.127  15.851  -3.478  1.00 20.00    -0.008 C 
HETATM    5  C5  UNL     1     -35.307  14.896  -3.257  1.00 20.00     0.018 C 
HETATM    6  C6  UNL     1     -32.834  15.061  -3.680  1.00 20.00     0.018 C 
HETATM    7 BR9  UNL     1     -34.610  16.864  -0.683  1.00 20.00    -0.090 Br
ENDROOT
BRANCH   2   8
HETATM    8  O8  UNL     1     -33.338  17.349  -5.404  1.00 20.00    -0.390 OA
HETATM    9  C7  UNL     1     -33.639  18.570  -6.050  1.00 20.00     0.202 C 
ENDBRANCH   2   8
TORSDOF 1
ENDMDL
MODEL 8
REMARK VINA RESULT:      -3.4      1.336      2.353
REMARK  1 active torsions:
REMARK  status: ('A' for Active; 'I' for Inactive)
REMARK    1  A    between atoms: C2_2  and  O8_8 
ROOT
HETATM    1  C1  UNL     1     -35.539  13.711  -4.344  1.00 20.00     0.049 C 
HETATM    2  C2  UNL     1     -36.777  14.627  -4.496  1.00 20.00     0.131 C 
HETATM    3  C3  UNL     1     -34.907  14.796  -3.446  1.00 20.00     0.070 C 
HETATM    4  C4  UNL     1     -35.851  15.840  -4.136  1.00 20.00    -0.008 C 
HETATM    5  C5  UNL     1     -35.341  16.558  -5.392  1.00 20.00     0.018 C 
HETATM    6  C6  UNL     1     -36.442  16.848  -3.150  1.00 20.00     0.018 C 
HETATM    7 BR9  UNL     1     -32.997  15.031  -3.615  1.00 20.00    -0.090 Br
ENDROOT
BRANCH   2   8
HETATM    8  O8  UNL     1     -37.862  14.347  -3.587  1.00 20.00    -0.390 OA
HETATM    9  C7  UNL     1     -39.109  14.616  -4.196  1.00 20.00     0.202 C 
ENDBRANCH   2   8
TORSDOF 1
ENDMDL
MODEL 9
REMARK VINA RESULT:      -3.4      2.385      3.239
REMARK  1 active torsions:
REMARK  status: ('A' for Active; 'I' for Inactive)
REMARK    1  A    between atoms: C2_2  and  O8_8 
ROOT
HETATM    1  C1  UNL     1     -36.395  15.033  -3.381  1.00 20.00     0.049 C 
HETATM    2  C2  UNL     1     -34.864  14.837  -3.288  1.00 20.00     0.131 C 
HETATM    3  C3  UNL     1     -36.145  16.550  -3.521  1.00 20.00     0.070 C 
HETATM    4  C4  UNL     1     -34.760  16.329  -2.820  1.00 20.00    -0.008 C 
HETATM    5  C5  UNL     1     -34.697  16.441  -1.291  1.00 20.00     0.018 C 
HETATM    6  C6  UNL     1     -33.635  17.143  -3.460  1.00 20.00     0.018 C 
HETATM    7 BR9  UNL     1     -37.434  17.706  -2.666  1.00 20.00    -0.090 Br
ENDROOT
BRANCH   2   8
HETATM    8  O8  UNL     1     -34.212  14.501  -4.532  1.00 20.00    -0.390 OA
HETATM    9  C7  UNL     1     -34.618  13.223  -4.981  1.00 20.00     0.202 C 
ENDBRANCH   2   8
TORSDOF 1
ENDMDL
