MODEL 1
REMARK VINA RESULT:      -4.6      0.000      0.000
REMARK  2 active torsions:
REMARK  status: ('A' for Active; 'I' for Inactive)
REMARK    1  A    between atoms: C3_3  and  O11_11 
REMARK    2  A    between atoms: C9_9  and  O11_11 
ROOT
HETATM    1  C1  UNL     1     -33.485  14.160  -3.656  1.00 20.00     0.069 C 
HETATM    2  C2  UNL     1     -34.813  13.425  -3.935  1.00 20.00     0.173 C 
HETATM    3  C3  UNL     1     -34.315  15.434  -3.348  1.00 20.00     0.135 C 
HETATM    4  C4  UNL     1     -35.466  14.822  -4.228  1.00 20.00     0.008 C 
HETATM    5  C5  UNL     1     -36.872  14.953  -3.636  1.00 20.00     0.020 C 
HETATM    6  C6  UNL     1     -35.439  15.382  -5.658  1.00 20.00     0.020 C 
HETATM    7  O10 UNL     1     -34.748  12.556  -5.034  1.00 20.00    -0.234 OA
ENDROOT
BRANCH   3   8
HETATM    8  O11 UNL     1     -34.610  15.651  -1.953  1.00 20.00    -0.380 OA
BRANCH   8   9
HETATM    9  C9  UNL     1     -34.004  16.841  -1.493  1.00 20.00     0.114 C 
HETATM   10  C7  UNL     1     -34.131  17.914  -2.566  1.00 20.00     0.039 C 
HETATM   11  C8  UNL     1     -34.659  17.266  -0.188  1.00 20.00     0.039 C 
ENDBRANCH   8   9
ENDBRANCH   3   8
TORSDOF 2
ENDMDL
MODEL 2
REMARK VINA RESULT:      -4.5      0.910      1.436
REMARK  2 active torsions:
REMARK  status: ('A' for Active; 'I' for Inactive)
REMARK    1  A    between atoms: C3_3  and  O11_11 
REMARK    2  A    between atoms: C9_9  and  O11_11 
ROOT
HETATM    1  C1  UNL     1     -34.122  14.086  -3.375  1.00 20.00     0.069 C 
HETATM    2  C2  UNL     1     -35.219  13.488  -4.283  1.00 20.00     0.173 C 
HETATM    3  C3  UNL     1     -34.705  15.490  -3.685  1.00 20.00     0.135 C 
HETATM    4  C4  UNL     1     -35.312  14.881  -5.001  1.00 20.00     0.008 C 
HETATM    5  C5  UNL     1     -36.755  15.296  -5.302  1.00 20.00     0.020 C 
HETATM    6  C6  UNL     1     -34.415  15.164  -6.217  1.00 20.00     0.020 C 
HETATM    7  O10 UNL     1     -34.761  12.434  -5.086  1.00 20.00    -0.234 OA
ENDROOT
BRANCH   3   8
HETATM    8  O11 UNL     1     -35.643  15.992  -2.710  1.00 20.00    -0.380 OA
BRANCH   8   9
HETATM    9  C9  UNL     1     -35.128  17.139  -2.066  1.00 20.00     0.114 C 
HETATM   10  C7  UNL     1     -34.592  16.746  -0.697  1.00 20.00     0.039 C 
HETATM   11  C8  UNL     1     -34.049  17.763  -2.938  1.00 20.00     0.039 C 
ENDBRANCH   8   9
ENDBRANCH   3   8
TORSDOF 2
ENDMDL
MODEL 3
REMARK VINA RESULT:      -4.3      1.878      2.869
REMARK  2 active torsions:
REMARK  status: ('A' for Active; 'I' for Inactive)
REMARK    1  A    between atoms: C3_3  and  O11_11 
REMARK    2  A    between atoms: C9_9  and  O11_11 
ROOT
HETATM    1  C1  UNL     1     -34.546  14.436  -5.893  1.00 20.00     0.069 C 
HETATM    2  C2  UNL     1     -34.346  13.813  -4.495  1.00 20.00     0.173 C 
HETATM    3  C3  UNL     1     -34.638  15.823  -5.205  1.00 20.00     0.135 C 
HETATM    4  C4  UNL     1     -35.059  15.074  -3.888  1.00 20.00     0.008 C 
HETATM    5  C5  UNL     1     -34.381  15.578  -2.612  1.00 20.00     0.020 C 
HETATM    6  C6  UNL     1     -36.585  15.064  -3.710  1.00 20.00     0.020 C 
HETATM    7  O10 UNL     1     -35.032  12.602  -4.323  1.00 20.00    -0.234 OA
ENDROOT
BRANCH   3   8
HETATM    8  O11 UNL     1     -33.403  16.568  -5.161  1.00 20.00    -0.380 OA
BRANCH   8   9
HETATM    9  C9  UNL     1     -33.611  17.904  -5.571  1.00 20.00     0.114 C 
HETATM   10  C7  UNL     1     -34.930  17.996  -6.326  1.00 20.00     0.039 C 
HETATM   11  C8  UNL     1     -33.592  18.813  -4.351  1.00 20.00     0.039 C 
ENDBRANCH   8   9
ENDBRANCH   3   8
TORSDOF 2
ENDMDL
MODEL 4
REMARK VINA RESULT:      -4.0      1.267      2.210
REMARK  2 active torsions:
REMARK  status: ('A' for Active; 'I' for Inactive)
REMARK    1  A    between atoms: C3_3  and  O11_11 
REMARK    2  A    between atoms: C9_9  and  O11_11 
ROOT
HETATM    1  C1  UNL     1     -36.155  15.279  -3.217  1.00 20.00     0.069 C 
HETATM    2  C2  UNL     1     -35.544  15.434  -4.626  1.00 20.00     0.173 C 
HETATM    3  C3  UNL     1     -34.777  15.685  -2.632  1.00 20.00     0.135 C 
HETATM    4  C4  UNL     1     -34.130  15.205  -3.982  1.00 20.00     0.008 C 
HETATM    5  C5  UNL     1     -33.062  16.139  -4.556  1.00 20.00     0.020 C 
HETATM    6  C6  UNL     1     -33.578  13.776  -3.865  1.00 20.00     0.020 C 
HETATM    7  O10 UNL     1     -35.957  14.439  -5.523  1.00 20.00    -0.234 OA
ENDROOT
BRANCH   3   8
HETATM    8  O11 UNL     1     -34.637  17.083  -2.306  1.00 20.00    -0.380 OA
BRANCH   8   9
HETATM    9  C9  UNL     1     -33.934  17.246  -1.091  1.00 20.00     0.114 C 
HETATM   10  C7  UNL     1     -33.200  18.578  -1.112  1.00 20.00     0.039 C 
HETATM   11  C8  UNL     1     -34.912  17.156   0.070  1.00 20.00     0.039 C 
ENDBRANCH   8   9
ENDBRANCH   3   8
TORSDOF 2
ENDMDL
MODEL 5
REMARK VINA RESULT:      -4.0      1.534      2.515
REMARK  2 active torsions:
REMARK  status: ('A' for Active; 'I' for Inactive)
REMARK    1  A    between atoms: C3_3  and  O11_11 
REMARK    2  A    between atoms: C9_9  and  O11_11 
ROOT
HETATM    1  C1  UNL     1     -35.162  16.469  -5.067  1.00 20.00     0.069 C 
HETATM    2  C2  UNL     1     -33.988  15.605  -5.573  1.00 20.00     0.173 C 
HETATM    3  C3  UNL     1     -34.652  16.222  -3.623  1.00 20.00     0.135 C 
HETATM    4  C4  UNL     1     -33.946  14.924  -4.159  1.00 20.00     0.008 C 
HETATM    5  C5  UNL     1     -32.519  14.707  -3.650  1.00 20.00     0.020 C 
HETATM    6  C6  UNL     1     -34.798  13.672  -3.900  1.00 20.00     0.020 C 
HETATM    7  O10 UNL     1     -34.340  14.755  -6.632  1.00 20.00    -0.234 OA
ENDROOT
BRANCH   3   8
HETATM    8  O11 UNL     1     -33.796  17.254  -3.090  1.00 20.00    -0.380 OA
BRANCH   8   9
HETATM    9  C9  UNL     1     -34.303  17.740  -1.864  1.00 20.00     0.114 C 
HETATM   10  C7  UNL     1     -34.629  16.564  -0.955  1.00 20.00     0.039 C 
HETATM   11  C8  UNL     1     -33.282  18.676  -1.235  1.00 20.00     0.039 C 
ENDBRANCH   8   9
ENDBRANCH   3   8
TORSDOF 2
ENDMDL
MODEL 6
REMARK VINA RESULT:      -4.0      1.828      4.255
REMARK  2 active torsions:
REMARK  status: ('A' for Active; 'I' for Inactive)
REMARK    1  A    between atoms: C3_3  and  O11_11 
REMARK    2  A    between atoms: C9_9  and  O11_11 
ROOT
HETATM    1  C1  UNL     1     -35.080  17.060  -3.629  1.00 20.00     0.069 C 
HETATM    2  C2  UNL     1     -35.183  15.835  -2.694  1.00 20.00     0.173 C 
HETATM    3  C3  UNL     1     -34.813  16.079  -4.800  1.00 20.00     0.135 C 
HETATM    4  C4  UNL     1     -34.319  15.035  -3.732  1.00 20.00     0.008 C 
HETATM    5  C5  UNL     1     -34.823  13.605  -3.943  1.00 20.00     0.020 C 
HETATM    6  C6  UNL     1     -32.788  15.044  -3.604  1.00 20.00     0.020 C 
HETATM    7  O10 UNL     1     -34.578  16.037  -1.446  1.00 20.00    -0.234 OA
ENDROOT
BRANCH   3   8
HETATM    8  O11 UNL     1     -35.977  15.715  -5.572  1.00 20.00    -0.380 OA
BRANCH   8   9
HETATM    9  C9  UNL     1     -35.706  15.807  -6.956  1.00 20.00     0.114 C 
HETATM   10  C7  UNL     1     -34.524  16.739  -7.174  1.00 20.00     0.039 C 
HETATM   11  C8  UNL     1     -35.440  14.415  -7.509  1.00 20.00     0.039 C 
ENDBRANCH   8   9
ENDBRANCH   3   8
TORSDOF 2
ENDMDL
MODEL 7
REMARK VINA RESULT:      -3.9      1.716      2.152
REMARK  2 active torsions:
REMARK  status: ('A' for Active; 'I' for Inactive)
REMARK    1  A    between atoms: C3_3  and  O11_11 
REMARK    2  A    between atoms: C9_9  and  O11_11 
ROOT
HETATM    1  C1  UNL     1     -34.169  16.223  -6.218  1.00 20.00     0.069 C 
HETATM    2  C2  UNL     1     -34.479  14.727  -6.436  1.00 20.00     0.173 C 
HETATM    3  C3  UNL     1     -34.595  16.042  -4.738  1.00 20.00     0.135 C 
HETATM    4  C4  UNL     1     -35.440  14.798  -5.197  1.00 20.00     0.008 C 
HETATM    5  C5  UNL     1     -35.328  13.570  -4.290  1.00 20.00     0.020 C 
HETATM    6  C6  UNL     1     -36.916  15.168  -5.408  1.00 20.00     0.020 C 
HETATM    7  O10 UNL     1     -35.106  14.462  -7.662  1.00 20.00    -0.234 OA
ENDROOT
BRANCH   3   8
HETATM    8  O11 UNL     1     -33.516  15.789  -3.815  1.00 20.00    -0.380 OA
BRANCH   8   9
HETATM    9  C9  UNL     1     -33.620  16.626  -2.682  1.00 20.00     0.114 C 
HETATM   10  C7  UNL     1     -33.855  18.059  -3.138  1.00 20.00     0.039 C 
HETATM   11  C8  UNL     1     -34.744  16.124  -1.789  1.00 20.00     0.039 C 
ENDBRANCH   8   9
ENDBRANCH   3   8
TORSDOF 2
ENDMDL
MODEL 8
REMARK VINA RESULT:      -3.9      1.886      3.716
REMARK  2 active torsions:
REMARK  status: ('A' for Active; 'I' for Inactive)
REMARK    1  A    between atoms: C3_3  and  O11_11 
REMARK    2  A    between atoms: C9_9  and  O11_11 
ROOT
HETATM    1  C1  UNL     1     -35.429  13.552  -4.218  1.00 20.00     0.069 C 
HETATM    2  C2  UNL     1     -33.927  13.804  -4.473  1.00 20.00     0.173 C 
HETATM    3  C3  UNL     1     -35.675  15.058  -4.497  1.00 20.00     0.135 C 
HETATM    4  C4  UNL     1     -34.172  15.313  -4.114  1.00 20.00     0.008 C 
HETATM    5  C5  UNL     1     -33.420  16.270  -5.043  1.00 20.00     0.020 C 
HETATM    6  C6  UNL     1     -34.033  15.772  -2.654  1.00 20.00     0.020 C 
HETATM    7  O10 UNL     1     -33.089  13.110  -3.588  1.00 20.00    -0.234 OA
ENDROOT
BRANCH   3   8
HETATM    8  O11 UNL     1     -36.063  15.375  -5.850  1.00 20.00    -0.380 OA
BRANCH   8   9
HETATM    9  C9  UNL     1     -37.238  16.158  -5.863  1.00 20.00     0.114 C 
HETATM   10  C7  UNL     1     -38.403  15.320  -5.356  1.00 20.00     0.039 C 
HETATM   11  C8  UNL     1     -37.023  17.401  -5.013  1.00 20.00     0.039 C 
ENDBRANCH   8   9
ENDBRANCH   3   8
TORSDOF 2
ENDMDL
MODEL 9
REMARK VINA RESULT:      -3.8      1.701      4.228
REMARK  2 active torsions:
REMARK  status: ('A' for Active; 'I' for Inactive)
REMARK    1  A    between atoms: C3_3  and  O11_11 
REMARK    2  A    between atoms: C9_9  and  O11_11 
ROOT
HETATM    1  C1  UNL     1     -36.054  16.945  -3.976  1.00 20.00     0.069 C 
HETATM    2  C2  UNL     1     -36.319  17.495  -2.558  1.00 20.00     0.173 C 
HETATM    3  C3  UNL     1     -34.854  16.157  -3.390  1.00 20.00     0.135 C 
HETATM    4  C4  UNL     1     -34.813  17.208  -2.221  1.00 20.00     0.008 C 
HETATM    5  C5  UNL     1     -34.623  16.615  -0.823  1.00 20.00     0.020 C 
HETATM    6  C6  UNL     1     -33.762  18.298  -2.481  1.00 20.00     0.020 C 
HETATM    7  O10 UNL     1     -36.685  18.848  -2.546  1.00 20.00    -0.234 OA
ENDROOT
BRANCH   3   8
HETATM    8  O11 UNL     1     -35.137  14.791  -3.024  1.00 20.00    -0.380 OA
BRANCH   8   9
HETATM    9  C9  UNL     1     -34.148  13.921  -3.534  1.00 20.00     0.114 C 
HETATM   10  C7  UNL     1     -34.640  13.315  -4.840  1.00 20.00     0.039 C 
HETATM   11  C8  UNL     1     -32.850  14.692  -3.721  1.00 20.00     0.039 C 
ENDBRANCH   8   9
ENDBRANCH   3   8
TORSDOF 2
ENDMDL
