MODEL 1
REMARK VINA RESULT:      -4.0      0.000      0.000
REMARK  4 active torsions:
REMARK  status: ('A' for Active; 'I' for Inactive)
REMARK    1  A    between atoms: C2_2  and  C6_6 
REMARK    2  A    between atoms: C6_6  and  S10_10 
REMARK    3  A    between atoms: C7_7  and  C8_8 
REMARK    4  A    between atoms: C7_7  and  S10_10 
ROOT
HETATM    1  C6  UNL     1     -36.261  14.446  -4.116  1.00 20.00     0.113 C 
ENDROOT
BRANCH   1   2
HETATM    2  C2  UNL     1     -35.061  13.962  -4.910  1.00 20.00     0.087 A 
HETATM    3  C1  UNL     1     -33.854  13.424  -4.180  1.00 20.00     0.207 A 
HETATM    4  O9  UNL     1     -34.819  12.553  -4.790  1.00 20.00    -0.375 OA
HETATM    5  C3  UNL     1     -34.909  14.484  -6.302  1.00 20.00     0.049 C 
ENDBRANCH   1   2
BRANCH   1   6
HETATM    6  S10 UNL     1     -36.510  16.218  -4.361  1.00 20.00    -0.166 SA
BRANCH   6   7
HETATM    7  C7  UNL     1     -36.201  16.762  -2.651  1.00 20.00     0.077 C 
BRANCH   7   8
HETATM    8  C8  UNL     1     -34.836  16.356  -2.068  1.00 20.00    -0.013 C 
HETATM    9  C4  UNL     1     -33.659  16.881  -2.894  1.00 20.00     0.010 C 
HETATM   10  C5  UNL     1     -34.680  16.753  -0.598  1.00 20.00     0.010 C 
ENDBRANCH   7   8
ENDBRANCH   6   7
ENDBRANCH   1   6
TORSDOF 4
ENDMDL
MODEL 2
REMARK VINA RESULT:      -3.9      1.490      2.387
REMARK  4 active torsions:
REMARK  status: ('A' for Active; 'I' for Inactive)
REMARK    1  A    between atoms: C2_2  and  C6_6 
REMARK    2  A    between atoms: C6_6  and  S10_10 
REMARK    3  A    between atoms: C7_7  and  C8_8 
REMARK    4  A    between atoms: C7_7  and  S10_10 
ROOT
HETATM    1  C6  UNL     1     -34.066  14.671  -3.214  1.00 20.00     0.113 C 
ENDROOT
BRANCH   1   2
HETATM    2  C2  UNL     1     -35.170  14.117  -4.096  1.00 20.00     0.087 A 
HETATM    3  C1  UNL     1     -34.822  13.524  -5.440  1.00 20.00     0.207 A 
HETATM    4  O9  UNL     1     -35.091  12.699  -4.297  1.00 20.00    -0.375 OA
HETATM    5  C3  UNL     1     -36.556  14.614  -3.845  1.00 20.00     0.049 C 
ENDBRANCH   1   2
BRANCH   1   6
HETATM    6  S10 UNL     1     -34.307  16.439  -2.932  1.00 20.00    -0.166 SA
BRANCH   6   7
HETATM    7  C7  UNL     1     -34.700  16.367  -1.156  1.00 20.00     0.077 C 
BRANCH   7   8
HETATM    8  C8  UNL     1     -34.561  17.697  -0.396  1.00 20.00    -0.013 C 
HETATM    9  C4  UNL     1     -35.079  17.614   1.042  1.00 20.00     0.010 C 
HETATM   10  C5  UNL     1     -33.133  18.247  -0.422  1.00 20.00     0.010 C 
ENDBRANCH   7   8
ENDBRANCH   6   7
ENDBRANCH   1   6
TORSDOF 4
ENDMDL
MODEL 3
REMARK VINA RESULT:      -3.8     10.915     11.843
REMARK  4 active torsions:
REMARK  status: ('A' for Active; 'I' for Inactive)
REMARK    1  A    between atoms: C2_2  and  C6_6 
REMARK    2  A    between atoms: C6_6  and  S10_10 
REMARK    3  A    between atoms: C7_7  and  C8_8 
REMARK    4  A    between atoms: C7_7  and  S10_10 
ROOT
HETATM    1  C6  UNL     1     -33.371   6.376   4.771  1.00 20.00     0.113 C 
ENDROOT
BRANCH   1   2
HETATM    2  C2  UNL     1     -34.540   5.423   4.941  1.00 20.00     0.087 A 
HETATM    3  C1  UNL     1     -34.397   4.225   5.849  1.00 20.00     0.207 A 
HETATM    4  O9  UNL     1     -35.089   5.412   6.266  1.00 20.00    -0.375 OA
HETATM    5  C3  UNL     1     -35.572   5.411   3.861  1.00 20.00     0.049 C 
ENDBRANCH   1   2
BRANCH   1   6
HETATM    6  S10 UNL     1     -32.595   6.146   3.157  1.00 20.00    -0.166 SA
BRANCH   6   7
HETATM    7  C7  UNL     1     -31.914   7.823   2.956  1.00 20.00     0.077 C 
BRANCH   7   8
HETATM    8  C8  UNL     1     -32.419   8.596   1.726  1.00 20.00    -0.013 C 
HETATM    9  C4  UNL     1     -32.736  10.061   2.036  1.00 20.00     0.010 C 
HETATM   10  C5  UNL     1     -31.469   8.493   0.531  1.00 20.00     0.010 C 
ENDBRANCH   7   8
ENDBRANCH   6   7
ENDBRANCH   1   6
TORSDOF 4
ENDMDL
MODEL 4
REMARK VINA RESULT:      -3.8      1.466      2.074
REMARK  4 active torsions:
REMARK  status: ('A' for Active; 'I' for Inactive)
REMARK    1  A    between atoms: C2_2  and  C6_6 
REMARK    2  A    between atoms: C6_6  and  S10_10 
REMARK    3  A    between atoms: C7_7  and  C8_8 
REMARK    4  A    between atoms: C7_7  and  S10_10 
ROOT
HETATM    1  C6  UNL     1     -34.266  15.168  -5.609  1.00 20.00     0.113 C 
ENDROOT
BRANCH   1   2
HETATM    2  C2  UNL     1     -34.359  14.069  -4.567  1.00 20.00     0.087 A 
HETATM    3  C1  UNL     1     -35.715  13.630  -4.068  1.00 20.00     0.207 A 
HETATM    4  O9  UNL     1     -34.986  12.871  -5.045  1.00 20.00    -0.375 OA
HETATM    5  C3  UNL     1     -33.148  13.822  -3.727  1.00 20.00     0.049 C 
ENDBRANCH   1   2
BRANCH   1   6
HETATM    6  S10 UNL     1     -33.279  16.548  -4.991  1.00 20.00    -0.166 SA
BRANCH   6   7
HETATM    7  C7  UNL     1     -34.422  17.126  -3.698  1.00 20.00     0.077 C 
BRANCH   7   8
HETATM    8  C8  UNL     1     -33.840  17.170  -2.275  1.00 20.00    -0.013 C 
HETATM    9  C4  UNL     1     -33.583  18.597  -1.784  1.00 20.00     0.010 C 
HETATM   10  C5  UNL     1     -34.691  16.399  -1.263  1.00 20.00     0.010 C 
ENDBRANCH   7   8
ENDBRANCH   6   7
ENDBRANCH   1   6
TORSDOF 4
ENDMDL
MODEL 5
REMARK VINA RESULT:      -3.7      1.421      1.872
REMARK  4 active torsions:
REMARK  status: ('A' for Active; 'I' for Inactive)
REMARK    1  A    between atoms: C2_2  and  C6_6 
REMARK    2  A    between atoms: C6_6  and  S10_10 
REMARK    3  A    between atoms: C7_7  and  C8_8 
REMARK    4  A    between atoms: C7_7  and  S10_10 
ROOT
HETATM    1  C6  UNL     1     -36.350  15.457  -5.478  1.00 20.00     0.113 C 
ENDROOT
BRANCH   1   2
HETATM    2  C2  UNL     1     -35.202  14.617  -6.007  1.00 20.00     0.087 A 
HETATM    3  C1  UNL     1     -34.856  14.671  -7.475  1.00 20.00     0.207 A 
HETATM    4  O9  UNL     1     -34.096  15.390  -6.493  1.00 20.00    -0.375 OA
HETATM    5  C3  UNL     1     -34.797  13.428  -5.197  1.00 20.00     0.049 C 
ENDBRANCH   1   2
BRANCH   1   6
HETATM    6  S10 UNL     1     -36.802  14.934  -3.809  1.00 20.00    -0.166 SA
BRANCH   6   7
HETATM    7  C7  UNL     1     -36.021  16.297  -2.890  1.00 20.00     0.077 C 
BRANCH   7   8
HETATM    8  C8  UNL     1     -34.757  15.919  -2.099  1.00 20.00    -0.013 C 
HETATM    9  C4  UNL     1     -33.477  16.059  -2.926  1.00 20.00     0.010 C 
HETATM   10  C5  UNL     1     -34.632  16.688  -0.782  1.00 20.00     0.010 C 
ENDBRANCH   7   8
ENDBRANCH   6   7
ENDBRANCH   1   6
TORSDOF 4
ENDMDL
MODEL 6
REMARK VINA RESULT:      -3.7     10.837     11.838
REMARK  4 active torsions:
REMARK  status: ('A' for Active; 'I' for Inactive)
REMARK    1  A    between atoms: C2_2  and  C6_6 
REMARK    2  A    between atoms: C6_6  and  S10_10 
REMARK    3  A    between atoms: C7_7  and  C8_8 
REMARK    4  A    between atoms: C7_7  and  S10_10 
ROOT
HETATM    1  C6  UNL     1     -34.092   6.512   3.882  1.00 20.00     0.113 C 
ENDROOT
BRANCH   1   2
HETATM    2  C2  UNL     1     -34.260   5.895   5.258  1.00 20.00     0.087 A 
HETATM    3  C1  UNL     1     -35.241   4.764   5.451  1.00 20.00     0.207 A 
HETATM    4  O9  UNL     1     -33.830   4.529   5.335  1.00 20.00    -0.375 OA
HETATM    5  C3  UNL     1     -33.849   6.724   6.432  1.00 20.00     0.049 C 
ENDBRANCH   1   2
BRANCH   1   6
HETATM    6  S10 UNL     1     -32.464   6.122   3.206  1.00 20.00    -0.166 SA
BRANCH   6   7
HETATM    7  C7  UNL     1     -31.857   7.824   2.990  1.00 20.00     0.077 C 
BRANCH   7   8
HETATM    8  C8  UNL     1     -32.409   8.570   1.763  1.00 20.00    -0.013 C 
HETATM    9  C4  UNL     1     -32.760  10.029   2.065  1.00 20.00     0.010 C 
HETATM   10  C5  UNL     1     -31.480   8.482   0.550  1.00 20.00     0.010 C 
ENDBRANCH   7   8
ENDBRANCH   6   7
ENDBRANCH   1   6
TORSDOF 4
ENDMDL
MODEL 7
REMARK VINA RESULT:      -3.5      2.042      3.252
REMARK  4 active torsions:
REMARK  status: ('A' for Active; 'I' for Inactive)
REMARK    1  A    between atoms: C2_2  and  C6_6 
REMARK    2  A    between atoms: C6_6  and  S10_10 
REMARK    3  A    between atoms: C7_7  and  C8_8 
REMARK    4  A    between atoms: C7_7  and  S10_10 
ROOT
HETATM    1  C6  UNL     1     -33.819  14.791  -3.565  1.00 20.00     0.113 C 
ENDROOT
BRANCH   1   2
HETATM    2  C2  UNL     1     -35.037  14.134  -4.187  1.00 20.00     0.087 A 
HETATM    3  C1  UNL     1     -34.888  13.351  -5.469  1.00 20.00     0.207 A 
HETATM    4  O9  UNL     1     -34.982  12.701  -4.193  1.00 20.00    -0.375 OA
HETATM    5  C3  UNL     1     -36.375  14.684  -3.810  1.00 20.00     0.049 C 
ENDBRANCH   1   2
BRANCH   1   6
HETATM    6  S10 UNL     1     -34.026  16.584  -3.503  1.00 20.00    -0.166 SA
BRANCH   6   7
HETATM    7  C7  UNL     1     -33.338  16.981  -5.141  1.00 20.00     0.077 C 
BRANCH   7   8
HETATM    8  C8  UNL     1     -34.353  17.495  -6.176  1.00 20.00    -0.013 C 
HETATM    9  C4  UNL     1     -34.592  16.503  -7.316  1.00 20.00     0.010 C 
HETATM   10  C5  UNL     1     -35.682  17.915  -5.543  1.00 20.00     0.010 C 
ENDBRANCH   7   8
ENDBRANCH   6   7
ENDBRANCH   1   6
TORSDOF 4
ENDMDL
MODEL 8
REMARK VINA RESULT:      -3.3      3.016      5.332
REMARK  4 active torsions:
REMARK  status: ('A' for Active; 'I' for Inactive)
REMARK    1  A    between atoms: C2_2  and  C6_6 
REMARK    2  A    between atoms: C6_6  and  S10_10 
REMARK    3  A    between atoms: C7_7  and  C8_8 
REMARK    4  A    between atoms: C7_7  and  S10_10 
ROOT
HETATM    1  C6  UNL     1     -34.694  16.492  -0.871  1.00 20.00     0.113 C 
ENDROOT
BRANCH   1   2
HETATM    2  C2  UNL     1     -34.571  17.697   0.043  1.00 20.00     0.087 A 
HETATM    3  C1  UNL     1     -35.819  18.405   0.514  1.00 20.00     0.207 A 
HETATM    4  O9  UNL     1     -35.109  17.484   1.356  1.00 20.00    -0.375 OA
HETATM    5  C3  UNL     1     -33.267  18.427   0.037  1.00 20.00     0.049 C 
ENDBRANCH   1   2
BRANCH   1   6
HETATM    6  S10 UNL     1     -33.985  16.851  -2.493  1.00 20.00    -0.166 SA
BRANCH   6   7
HETATM    7  C7  UNL     1     -34.925  15.631  -3.463  1.00 20.00     0.077 C 
BRANCH   7   8
HETATM    8  C8  UNL     1     -34.364  14.198  -3.441  1.00 20.00    -0.013 C 
HETATM    9  C4  UNL     1     -35.038  13.282  -4.465  1.00 20.00     0.010 C 
HETATM   10  C5  UNL     1     -32.843  14.156  -3.603  1.00 20.00     0.010 C 
ENDBRANCH   7   8
ENDBRANCH   6   7
ENDBRANCH   1   6
TORSDOF 4
ENDMDL
MODEL 9
REMARK VINA RESULT:      -3.3      2.284      4.539
REMARK  4 active torsions:
REMARK  status: ('A' for Active; 'I' for Inactive)
REMARK    1  A    between atoms: C2_2  and  C6_6 
REMARK    2  A    between atoms: C6_6  and  S10_10 
REMARK    3  A    between atoms: C7_7  and  C8_8 
REMARK    4  A    between atoms: C7_7  and  S10_10 
ROOT
HETATM    1  C6  UNL     1     -33.376  15.788  -4.108  1.00 20.00     0.113 C 
ENDROOT
BRANCH   1   2
HETATM    2  C2  UNL     1     -34.073  16.711  -3.127  1.00 20.00     0.087 A 
HETATM    3  C1  UNL     1     -33.793  18.194  -3.173  1.00 20.00     0.207 A 
HETATM    4  O9  UNL     1     -34.983  17.631  -3.745  1.00 20.00    -0.375 OA
HETATM    5  C3  UNL     1     -34.597  16.098  -1.869  1.00 20.00     0.049 C 
ENDBRANCH   1   2
BRANCH   1   6
HETATM    6  S10 UNL     1     -33.767  14.063  -3.745  1.00 20.00    -0.166 SA
BRANCH   6   7
HETATM    7  C7  UNL     1     -34.721  13.690  -5.250  1.00 20.00     0.077 C 
BRANCH   7   8
HETATM    8  C8  UNL     1     -35.158  14.914  -6.073  1.00 20.00    -0.013 C 
HETATM    9  C4  UNL     1     -34.758  14.810  -7.547  1.00 20.00     0.010 C 
HETATM   10  C5  UNL     1     -36.653  15.211  -5.942  1.00 20.00     0.010 C 
ENDBRANCH   7   8
ENDBRANCH   6   7
ENDBRANCH   1   6
TORSDOF 4
ENDMDL
