MODEL 1
REMARK VINA RESULT:      -3.9      0.000      0.000
REMARK  1 active torsions:
REMARK  status: ('A' for Active; 'I' for Inactive)
REMARK    1  A    between atoms: C2_2  and  O8_8 
ROOT
HETATM    1  C1  UNL     1     -33.980  17.091  -3.928  1.00 20.00     0.053 C 
HETATM    2  C2  UNL     1     -33.880  15.928  -4.943  1.00 20.00     0.131 C 
HETATM    3  C3  UNL     1     -33.755  16.056  -2.803  1.00 20.00     0.095 C 
HETATM    4  C4  UNL     1     -34.310  14.965  -3.783  1.00 20.00    -0.005 C 
HETATM    5  C5  UNL     1     -35.813  14.688  -3.702  1.00 20.00     0.019 C 
HETATM    6  C6  UNL     1     -33.516  13.660  -3.750  1.00 20.00     0.019 C 
HETATM    7 CL9  UNL     1     -34.531  16.344  -1.213  1.00 20.00    -0.124 Cl
ENDROOT
BRANCH   2   8
HETATM    8  O8  UNL     1     -34.758  15.998  -6.081  1.00 20.00    -0.390 OA
HETATM    9  C7  UNL     1     -34.333  15.113  -7.100  1.00 20.00     0.202 C 
ENDBRANCH   2   8
TORSDOF 1
ENDMDL
MODEL 2
REMARK VINA RESULT:      -3.8      2.211      2.983
REMARK  1 active torsions:
REMARK  status: ('A' for Active; 'I' for Inactive)
REMARK    1  A    between atoms: C2_2  and  O8_8 
ROOT
HETATM    1  C1  UNL     1     -35.800  15.465  -5.472  1.00 20.00     0.053 C 
HETATM    2  C2  UNL     1     -35.825  14.197  -4.587  1.00 20.00     0.131 C 
HETATM    3  C3  UNL     1     -34.268  15.506  -5.278  1.00 20.00     0.095 C 
HETATM    4  C4  UNL     1     -34.479  14.693  -3.953  1.00 20.00    -0.005 C 
HETATM    5  C5  UNL     1     -34.637  15.519  -2.674  1.00 20.00     0.019 C 
HETATM    6  C6  UNL     1     -33.452  13.579  -3.756  1.00 20.00     0.019 C 
HETATM    7 CL9  UNL     1     -33.454  17.103  -5.257  1.00 20.00    -0.124 Cl
ENDROOT
BRANCH   2   8
HETATM    8  O8  UNL     1     -36.946  14.063  -3.696  1.00 20.00    -0.390 OA
HETATM    9  C7  UNL     1     -38.056  14.803  -4.167  1.00 20.00     0.202 C 
ENDBRANCH   2   8
TORSDOF 1
ENDMDL
MODEL 3
REMARK VINA RESULT:      -3.8      2.196      3.128
REMARK  1 active torsions:
REMARK  status: ('A' for Active; 'I' for Inactive)
REMARK    1  A    between atoms: C2_2  and  O8_8 
ROOT
HETATM    1  C1  UNL     1     -35.285  15.436  -2.967  1.00 20.00     0.053 C 
HETATM    2  C2  UNL     1     -36.293  15.115  -4.094  1.00 20.00     0.131 C 
HETATM    3  C3  UNL     1     -34.179  15.494  -4.044  1.00 20.00     0.095 C 
HETATM    4  C4  UNL     1     -35.084  14.568  -4.930  1.00 20.00    -0.005 C 
HETATM    5  C5  UNL     1     -34.841  13.062  -4.797  1.00 20.00     0.019 C 
HETATM    6  C6  UNL     1     -35.123  14.983  -6.399  1.00 20.00     0.019 C 
HETATM    7 CL9  UNL     1     -32.519  14.994  -3.591  1.00 20.00    -0.124 Cl
ENDROOT
BRANCH   2   8
HETATM    8  O8  UNL     1     -37.332  14.174  -3.771  1.00 20.00    -0.390 OA
HETATM    9  C7  UNL     1     -38.611  14.758  -3.937  1.00 20.00     0.202 C 
ENDBRANCH   2   8
TORSDOF 1
ENDMDL
MODEL 4
REMARK VINA RESULT:      -3.7      2.153      2.669
REMARK  1 active torsions:
REMARK  status: ('A' for Active; 'I' for Inactive)
REMARK    1  A    between atoms: C2_2  and  O8_8 
ROOT
HETATM    1  C1  UNL     1     -33.470  15.653  -4.502  1.00 20.00     0.053 C 
HETATM    2  C2  UNL     1     -33.767  14.831  -3.226  1.00 20.00     0.131 C 
HETATM    3  C3  UNL     1     -33.862  16.921  -3.711  1.00 20.00     0.095 C 
HETATM    4  C4  UNL     1     -34.715  15.995  -2.775  1.00 20.00    -0.005 C 
HETATM    5  C5  UNL     1     -36.185  15.814  -3.164  1.00 20.00     0.019 C 
HETATM    6  C6  UNL     1     -34.586  16.346  -1.293  1.00 20.00     0.019 C 
HETATM    7 CL9  UNL     1     -34.622  18.280  -4.599  1.00 20.00    -0.124 Cl
ENDROOT
BRANCH   2   8
HETATM    8  O8  UNL     1     -34.377  13.543  -3.426  1.00 20.00    -0.390 OA
HETATM    9  C7  UNL     1     -34.412  13.210  -4.801  1.00 20.00     0.202 C 
ENDBRANCH   2   8
TORSDOF 1
ENDMDL
MODEL 5
REMARK VINA RESULT:      -3.7      1.201      2.133
REMARK  1 active torsions:
REMARK  status: ('A' for Active; 'I' for Inactive)
REMARK    1  A    between atoms: C2_2  and  O8_8 
ROOT
HETATM    1  C1  UNL     1     -35.989  15.164  -3.391  1.00 20.00     0.053 C 
HETATM    2  C2  UNL     1     -35.316  15.343  -4.772  1.00 20.00     0.131 C 
HETATM    3  C3  UNL     1     -35.127  16.339  -2.878  1.00 20.00     0.095 C 
HETATM    4  C4  UNL     1     -34.108  16.008  -4.024  1.00 20.00    -0.005 C 
HETATM    5  C5  UNL     1     -32.972  15.049  -3.660  1.00 20.00     0.019 C 
HETATM    6  C6  UNL     1     -33.565  17.249  -4.730  1.00 20.00     0.019 C 
HETATM    7 CL9  UNL     1     -34.612  16.334  -1.161  1.00 20.00    -0.124 Cl
ENDROOT
BRANCH   2   8
HETATM    8  O8  UNL     1     -35.035  14.137  -5.505  1.00 20.00    -0.390 OA
HETATM    9  C7  UNL     1     -35.208  14.342  -6.895  1.00 20.00     0.202 C 
ENDBRANCH   2   8
TORSDOF 1
ENDMDL
MODEL 6
REMARK VINA RESULT:      -3.7      2.569      3.595
REMARK  1 active torsions:
REMARK  status: ('A' for Active; 'I' for Inactive)
REMARK    1  A    between atoms: C2_2  and  O8_8 
ROOT
HETATM    1  C1  UNL     1     -33.894  16.641  -4.698  1.00 20.00     0.053 C 
HETATM    2  C2  UNL     1     -34.659  16.370  -3.381  1.00 20.00     0.131 C 
HETATM    3  C3  UNL     1     -34.926  15.744  -5.419  1.00 20.00     0.095 C 
HETATM    4  C4  UNL     1     -35.190  15.049  -4.038  1.00 20.00    -0.005 C 
HETATM    5  C5  UNL     1     -34.353  13.802  -3.740  1.00 20.00     0.019 C 
HETATM    6  C6  UNL     1     -36.670  14.786  -3.765  1.00 20.00     0.019 C 
HETATM    7 CL9  UNL     1     -34.384  14.792  -6.838  1.00 20.00    -0.124 Cl
ENDROOT
BRANCH   2   8
HETATM    8  O8  UNL     1     -33.856  16.224  -2.196  1.00 20.00    -0.390 OA
HETATM    9  C7  UNL     1     -34.592  16.582  -1.042  1.00 20.00     0.202 C 
ENDBRANCH   2   8
TORSDOF 1
ENDMDL
MODEL 7
REMARK VINA RESULT:      -3.6      1.821      2.281
REMARK  1 active torsions:
REMARK  status: ('A' for Active; 'I' for Inactive)
REMARK    1  A    between atoms: C2_2  and  O8_8 
ROOT
HETATM    1  C1  UNL     1     -35.072  16.615  -3.722  1.00 20.00     0.053 C 
HETATM    2  C2  UNL     1     -33.636  16.125  -4.023  1.00 20.00     0.131 C 
HETATM    3  C3  UNL     1     -35.458  15.146  -3.441  1.00 20.00     0.095 C 
HETATM    4  C4  UNL     1     -34.255  14.722  -4.355  1.00 20.00    -0.005 C 
HETATM    5  C5  UNL     1     -34.579  14.498  -5.834  1.00 20.00     0.019 C 
HETATM    6  C6  UNL     1     -33.449  13.553  -3.792  1.00 20.00     0.019 C 
HETATM    7 CL9  UNL     1     -37.129  14.616  -3.817  1.00 20.00    -0.124 Cl
ENDROOT
BRANCH   2   8
HETATM    8  O8  UNL     1     -32.945  16.794  -5.092  1.00 20.00    -0.390 OA
HETATM    9  C7  UNL     1     -33.529  18.055  -5.359  1.00 20.00     0.202 C 
ENDBRANCH   2   8
TORSDOF 1
ENDMDL
MODEL 8
REMARK VINA RESULT:      -3.6      2.562      3.677
REMARK  1 active torsions:
REMARK  status: ('A' for Active; 'I' for Inactive)
REMARK    1  A    between atoms: C2_2  and  O8_8 
ROOT
HETATM    1  C1  UNL     1     -35.954  15.924  -3.185  1.00 20.00     0.053 C 
HETATM    2  C2  UNL     1     -34.672  15.517  -2.422  1.00 20.00     0.131 C 
HETATM    3  C3  UNL     1     -35.561  14.908  -4.281  1.00 20.00     0.095 C 
HETATM    4  C4  UNL     1     -34.076  15.061  -3.800  1.00 20.00    -0.005 C 
HETATM    5  C5  UNL     1     -33.240  16.122  -4.520  1.00 20.00     0.019 C 
HETATM    6  C6  UNL     1     -33.323  13.734  -3.727  1.00 20.00     0.019 C 
HETATM    7 CL9  UNL     1     -36.019  15.263  -5.977  1.00 20.00    -0.124 Cl
ENDROOT
BRANCH   2   8
HETATM    8  O8  UNL     1     -33.976  16.572  -1.736  1.00 20.00    -0.390 OA
HETATM    9  C7  UNL     1     -34.619  16.890  -0.516  1.00 20.00     0.202 C 
ENDBRANCH   2   8
TORSDOF 1
ENDMDL
MODEL 9
REMARK VINA RESULT:      -3.6      2.609      3.631
REMARK  1 active torsions:
REMARK  status: ('A' for Active; 'I' for Inactive)
REMARK    1  A    between atoms: C2_2  and  O8_8 
ROOT
HETATM    1  C1  UNL     1     -36.126  15.461  -4.680  1.00 20.00     0.053 C 
HETATM    2  C2  UNL     1     -35.280  15.396  -3.386  1.00 20.00     0.131 C 
HETATM    3  C3  UNL     1     -35.117  14.485  -5.325  1.00 20.00     0.095 C 
HETATM    4  C4  UNL     1     -34.059  14.992  -4.284  1.00 20.00    -0.005 C 
HETATM    5  C5  UNL     1     -33.178  16.161  -4.732  1.00 20.00     0.019 C 
HETATM    6  C6  UNL     1     -33.211  13.871  -3.686  1.00 20.00     0.019 C 
HETATM    7 CL9  UNL     1     -34.810  14.618  -7.086  1.00 20.00    -0.124 Cl
ENDROOT
BRANCH   2   8
HETATM    8  O8  UNL     1     -35.157  16.622  -2.643  1.00 20.00    -0.390 OA
HETATM    9  C7  UNL     1     -34.680  16.372  -1.335  1.00 20.00     0.202 C 
ENDBRANCH   2   8
TORSDOF 1
ENDMDL
