MODEL 1
REMARK VINA RESULT:      -5.3      0.000      0.000
REMARK  3 active torsions:
REMARK  status: ('A' for Active; 'I' for Inactive)
REMARK    1  A    between atoms: C4_4  and  O11_11 
REMARK    2  A    between atoms: C8_8  and  C10_10 
REMARK    3  A    between atoms: C10_10  and  O11_11 
ROOT
HETATM    1  C1  UNL     1     -35.035   4.366   5.987  1.00 20.00    -0.030 C 
HETATM    2  C2  UNL     1     -34.522   5.436   6.605  1.00 20.00    -0.030 C 
HETATM    3  C5  UNL     1     -35.043   4.209   4.497  1.00 20.00     0.031 C 
HETATM    4  C6  UNL     1     -33.874   6.572   5.874  1.00 20.00     0.034 C 
HETATM    5  C7  UNL     1     -34.730   5.514   3.735  1.00 20.00    -0.009 C 
HETATM    6  C8  UNL     1     -33.542   6.250   4.401  1.00 20.00     0.017 C 
HETATM    7  C9  UNL     1     -34.492   5.197   2.257  1.00 20.00     0.011 C 
ENDROOT
BRANCH   6   8
HETATM    8  C10 UNL     1     -33.145   7.537   3.675  1.00 20.00     0.179 C 
BRANCH   8   9
HETATM    9  O11 UNL     1     -31.988   7.276   2.906  1.00 20.00    -0.363 OA
BRANCH   9  10
HETATM   10  C4  UNL     1     -31.804   8.082   1.864  1.00 20.00     0.124 C 
HETATM   11  C3  UNL     1     -32.448   9.234   1.665  1.00 20.00     0.037 C 
ENDBRANCH   9  10
ENDBRANCH   8   9
ENDBRANCH   6   8
TORSDOF 3
ENDMDL
MODEL 2
REMARK VINA RESULT:      -5.1      0.676      2.229
REMARK  3 active torsions:
REMARK  status: ('A' for Active; 'I' for Inactive)
REMARK    1  A    between atoms: C4_4  and  O11_11 
REMARK    2  A    between atoms: C8_8  and  C10_10 
REMARK    3  A    between atoms: C10_10  and  O11_11 
ROOT
HETATM    1  C1  UNL     1     -35.362   4.419   5.417  1.00 20.00    -0.030 C 
HETATM    2  C2  UNL     1     -34.960   4.340   4.143  1.00 20.00    -0.030 C 
HETATM    3  C5  UNL     1     -34.834   5.440   6.378  1.00 20.00     0.031 C 
HETATM    4  C6  UNL     1     -33.964   5.283   3.539  1.00 20.00     0.034 C 
HETATM    5  C7  UNL     1     -33.560   6.156   5.884  1.00 20.00    -0.009 C 
HETATM    6  C8  UNL     1     -33.709   6.543   4.393  1.00 20.00     0.017 C 
HETATM    7  C9  UNL     1     -33.261   7.351   6.792  1.00 20.00     0.011 C 
ENDROOT
BRANCH   6   8
HETATM    8  C10 UNL     1     -32.497   7.296   3.840  1.00 20.00     0.179 C 
BRANCH   8   9
HETATM    9  O11 UNL     1     -32.604   7.340   2.431  1.00 20.00    -0.363 OA
BRANCH   9  10
HETATM   10  C4  UNL     1     -31.932   8.324   1.840  1.00 20.00     0.124 C 
HETATM   11  C3  UNL     1     -32.454   9.497   1.477  1.00 20.00     0.037 C 
ENDBRANCH   9  10
ENDBRANCH   8   9
ENDBRANCH   6   8
TORSDOF 3
ENDMDL
MODEL 3
REMARK VINA RESULT:      -4.5     11.104     12.548
REMARK  3 active torsions:
REMARK  status: ('A' for Active; 'I' for Inactive)
REMARK    1  A    between atoms: C4_4  and  O11_11 
REMARK    2  A    between atoms: C8_8  and  C10_10 
REMARK    3  A    between atoms: C10_10  and  O11_11 
ROOT
HETATM    1  C1  UNL     1     -34.831  13.749  -5.859  1.00 20.00    -0.030 C 
HETATM    2  C2  UNL     1     -34.926  13.321  -4.594  1.00 20.00    -0.030 C 
HETATM    3  C5  UNL     1     -34.355  15.123  -6.221  1.00 20.00     0.031 C 
HETATM    4  C6  UNL     1     -34.538  14.159  -3.414  1.00 20.00     0.034 C 
HETATM    5  C7  UNL     1     -34.316  16.101  -5.028  1.00 20.00    -0.009 C 
HETATM    6  C8  UNL     1     -33.707  15.405  -3.787  1.00 20.00     0.017 C 
HETATM    7  C9  UNL     1     -33.570  17.373  -5.435  1.00 20.00     0.011 C 
ENDROOT
BRANCH   6   8
HETATM    8  C10 UNL     1     -33.597  16.327  -2.571  1.00 20.00     0.179 C 
BRANCH   8   9
HETATM    9  O11 UNL     1     -34.622  15.984  -1.658  1.00 20.00    -0.363 OA
BRANCH   9  10
HETATM   10  C4  UNL     1     -34.723  16.777  -0.594  1.00 20.00     0.124 C 
HETATM   11  C3  UNL     1     -33.879  17.765  -0.293  1.00 20.00     0.037 C 
ENDBRANCH   9  10
ENDBRANCH   8   9
ENDBRANCH   6   8
TORSDOF 3
ENDMDL
MODEL 4
REMARK VINA RESULT:      -4.4     11.104     12.091
REMARK  3 active torsions:
REMARK  status: ('A' for Active; 'I' for Inactive)
REMARK    1  A    between atoms: C4_4  and  O11_11 
REMARK    2  A    between atoms: C8_8  and  C10_10 
REMARK    3  A    between atoms: C10_10  and  O11_11 
ROOT
HETATM    1  C1  UNL     1     -34.693  13.307  -4.155  1.00 20.00    -0.030 C 
HETATM    2  C2  UNL     1     -33.465  13.756  -3.870  1.00 20.00    -0.030 C 
HETATM    3  C5  UNL     1     -35.922  14.155  -4.033  1.00 20.00     0.031 C 
HETATM    4  C6  UNL     1     -33.189  15.161  -3.427  1.00 20.00     0.034 C 
HETATM    5  C7  UNL     1     -35.699  15.456  -3.233  1.00 20.00    -0.009 C 
HETATM    6  C8  UNL     1     -34.371  16.126  -3.661  1.00 20.00     0.017 C 
HETATM    7  C9  UNL     1     -36.917  16.369  -3.395  1.00 20.00     0.011 C 
ENDROOT
BRANCH   6   8
HETATM    8  C10 UNL     1     -34.101  17.447  -2.938  1.00 20.00     0.179 C 
BRANCH   8   9
HETATM    9  O11 UNL     1     -33.348  17.172  -1.773  1.00 20.00    -0.363 OA
BRANCH   9  10
HETATM   10  C4  UNL     1     -33.847  17.669  -0.644  1.00 20.00     0.124 C 
HETATM   11  C3  UNL     1     -34.850  17.130   0.052  1.00 20.00     0.037 C 
ENDBRANCH   9  10
ENDBRANCH   8   9
ENDBRANCH   6   8
TORSDOF 3
ENDMDL
MODEL 5
REMARK VINA RESULT:      -4.3     11.270     13.178
REMARK  3 active torsions:
REMARK  status: ('A' for Active; 'I' for Inactive)
REMARK    1  A    between atoms: C4_4  and  O11_11 
REMARK    2  A    between atoms: C8_8  and  C10_10 
REMARK    3  A    between atoms: C10_10  and  O11_11 
ROOT
HETATM    1  C1  UNL     1     -35.152  15.714  -7.375  1.00 20.00    -0.030 C 
HETATM    2  C2  UNL     1     -34.344  16.698  -6.962  1.00 20.00    -0.030 C 
HETATM    3  C5  UNL     1     -35.441  14.496  -6.552  1.00 20.00     0.031 C 
HETATM    4  C6  UNL     1     -33.670  16.698  -5.624  1.00 20.00     0.034 C 
HETATM    5  C7  UNL     1     -34.476  14.309  -5.362  1.00 20.00    -0.009 C 
HETATM    6  C8  UNL     1     -34.251  15.659  -4.641  1.00 20.00     0.017 C 
HETATM    7  C9  UNL     1     -35.012  13.212  -4.439  1.00 20.00     0.011 C 
ENDROOT
BRANCH   6   8
HETATM    8  C10 UNL     1     -33.334  15.546  -3.420  1.00 20.00     0.179 C 
BRANCH   8   9
HETATM    9  O11 UNL     1     -33.653  16.593  -2.525  1.00 20.00    -0.363 OA
BRANCH   9  10
HETATM   10  C4  UNL     1     -34.555  16.290  -1.595  1.00 20.00     0.124 C 
HETATM   11  C3  UNL     1     -34.686  16.916  -0.423  1.00 20.00     0.037 C 
ENDBRANCH   9  10
ENDBRANCH   8   9
ENDBRANCH   6   8
TORSDOF 3
ENDMDL
MODEL 6
REMARK VINA RESULT:      -4.3      9.268     11.029
REMARK  3 active torsions:
REMARK  status: ('A' for Active; 'I' for Inactive)
REMARK    1  A    between atoms: C4_4  and  O11_11 
REMARK    2  A    between atoms: C8_8  and  C10_10 
REMARK    3  A    between atoms: C10_10  and  O11_11 
ROOT
HETATM    1  C1  UNL     1     -40.940   6.948  -0.451  1.00 20.00    -0.030 C 
HETATM    2  C2  UNL     1     -40.526   5.682  -0.314  1.00 20.00    -0.030 C 
HETATM    3  C5  UNL     1     -41.906   7.381  -1.510  1.00 20.00     0.031 C 
HETATM    4  C6  UNL     1     -41.008   4.564  -1.188  1.00 20.00     0.034 C 
HETATM    5  C7  UNL     1     -42.111   6.335  -2.627  1.00 20.00    -0.009 C 
HETATM    6  C8  UNL     1     -42.262   4.923  -2.014  1.00 20.00     0.017 C 
HETATM    7  C9  UNL     1     -43.300   6.746  -3.499  1.00 20.00     0.011 C 
ENDROOT
BRANCH   6   8
HETATM    8  C10 UNL     1     -42.510   3.834  -3.060  1.00 20.00     0.179 C 
BRANCH   8   9
HETATM    9  O11 UNL     1     -41.553   2.809  -2.874  1.00 20.00    -0.363 OA
BRANCH   9  10
HETATM   10  C4  UNL     1     -41.436   1.951  -3.883  1.00 20.00     0.124 C 
HETATM   11  C3  UNL     1     -41.747   0.654  -3.825  1.00 20.00     0.037 C 
ENDBRANCH   9  10
ENDBRANCH   8   9
ENDBRANCH   6   8
TORSDOF 3
ENDMDL
MODEL 7
REMARK VINA RESULT:      -4.2     11.180     12.669
REMARK  3 active torsions:
REMARK  status: ('A' for Active; 'I' for Inactive)
REMARK    1  A    between atoms: C4_4  and  O11_11 
REMARK    2  A    between atoms: C8_8  and  C10_10 
REMARK    3  A    between atoms: C10_10  and  O11_11 
ROOT
HETATM    1  C1  UNL     1     -33.507  18.641  -1.084  1.00 20.00    -0.030 C 
HETATM    2  C2  UNL     1     -34.016  17.607  -0.403  1.00 20.00    -0.030 C 
HETATM    3  C5  UNL     1     -33.500  18.709  -2.581  1.00 20.00     0.031 C 
HETATM    4  C6  UNL     1     -34.658  16.426  -1.066  1.00 20.00     0.034 C 
HETATM    5  C7  UNL     1     -33.807  17.359  -3.264  1.00 20.00    -0.009 C 
HETATM    6  C8  UNL     1     -34.991  16.659  -2.555  1.00 20.00     0.017 C 
HETATM    7  C9  UNL     1     -34.046  17.586  -4.759  1.00 20.00     0.011 C 
ENDROOT
BRANCH   6   8
HETATM    8  C10 UNL     1     -35.382  15.329  -3.203  1.00 20.00     0.179 C 
BRANCH   8   9
HETATM    9  O11 UNL     1     -34.292  14.436  -3.082  1.00 20.00    -0.363 OA
BRANCH   9  10
HETATM   10  C4  UNL     1     -34.049  13.688  -4.154  1.00 20.00     0.124 C 
HETATM   11  C3  UNL     1     -34.790  13.676  -5.263  1.00 20.00     0.037 C 
ENDBRANCH   9  10
ENDBRANCH   8   9
ENDBRANCH   6   8
TORSDOF 3
ENDMDL
MODEL 8
REMARK VINA RESULT:      -4.2      9.813     10.963
REMARK  3 active torsions:
REMARK  status: ('A' for Active; 'I' for Inactive)
REMARK    1  A    between atoms: C4_4  and  O11_11 
REMARK    2  A    between atoms: C8_8  and  C10_10 
REMARK    3  A    between atoms: C10_10  and  O11_11 
ROOT
HETATM    1  C1  UNL     1     -40.678   5.043  -0.636  1.00 20.00    -0.030 C 
HETATM    2  C2  UNL     1     -40.809   6.370  -0.521  1.00 20.00    -0.030 C 
HETATM    3  C5  UNL     1     -41.477   4.224  -1.604  1.00 20.00     0.031 C 
HETATM    4  C6  UNL     1     -41.745   7.177  -1.369  1.00 20.00     0.034 C 
HETATM    5  C7  UNL     1     -42.686   4.975  -2.201  1.00 20.00    -0.009 C 
HETATM    6  C8  UNL     1     -42.277   6.413  -2.600  1.00 20.00     0.017 C 
HETATM    7  C9  UNL     1     -43.266   4.165  -3.363  1.00 20.00     0.011 C 
ENDROOT
BRANCH   6   8
HETATM    8  C10 UNL     1     -43.417   7.209  -3.240  1.00 20.00     0.179 C 
BRANCH   8   9
HETATM    9  O11 UNL     1     -43.024   7.579  -4.546  1.00 20.00    -0.363 OA
BRANCH   9  10
HETATM   10  C4  UNL     1     -42.458   8.779  -4.651  1.00 20.00     0.124 C 
HETATM   11  C3  UNL     1     -41.733   9.194  -5.692  1.00 20.00     0.037 C 
ENDBRANCH   9  10
ENDBRANCH   8   9
ENDBRANCH   6   8
TORSDOF 3
ENDMDL
MODEL 9
REMARK VINA RESULT:      -4.2     11.550     12.430
REMARK  3 active torsions:
REMARK  status: ('A' for Active; 'I' for Inactive)
REMARK    1  A    between atoms: C4_4  and  O11_11 
REMARK    2  A    between atoms: C8_8  and  C10_10 
REMARK    3  A    between atoms: C10_10  and  O11_11 
ROOT
HETATM    1  C1  UNL     1     -32.820  18.552   4.019  1.00 20.00    -0.030 C 
HETATM    2  C2  UNL     1     -34.064  18.059   3.969  1.00 20.00    -0.030 C 
HETATM    3  C5  UNL     1     -32.070  19.003   2.803  1.00 20.00     0.031 C 
HETATM    4  C6  UNL     1     -34.843  17.933   2.695  1.00 20.00     0.034 C 
HETATM    5  C7  UNL     1     -32.704  18.535   1.476  1.00 20.00    -0.009 C 
HETATM    6  C8  UNL     1     -34.238  18.730   1.519  1.00 20.00     0.017 C 
HETATM    7  C9  UNL     1     -32.034  19.263   0.307  1.00 20.00     0.011 C 
ENDROOT
BRANCH   6   8
HETATM    8  C10 UNL     1     -34.935  18.326   0.218  1.00 20.00     0.179 C 
BRANCH   8   9
HETATM    9  O11 UNL     1     -34.840  16.922   0.079  1.00 20.00    -0.363 OA
BRANCH   9  10
HETATM   10  C4  UNL     1     -34.736  16.481  -1.172  1.00 20.00     0.124 C 
HETATM   11  C3  UNL     1     -33.747  16.791  -2.012  1.00 20.00     0.037 C 
ENDBRANCH   9  10
ENDBRANCH   8   9
ENDBRANCH   6   8
TORSDOF 3
ENDMDL
