MODEL 1
REMARK VINA RESULT:      -5.1      0.000      0.000
REMARK  3 active torsions:
REMARK  status: ('A' for Active; 'I' for Inactive)
REMARK    1  A    between atoms: C2_2  and  O6_6 
REMARK    2  A    between atoms: C4_4  and  C5_5 
REMARK    3  A    between atoms: C4_4  and  O6_6 
ROOT
HETATM    1  C3  UNL     1     -35.287   5.379   3.820  1.00 20.00     0.049 C 
HETATM    2  C4  UNL     1     -34.078   5.341   4.706  1.00 20.00     0.231 C 
ENDROOT
BRANCH   2   3
HETATM    3  C5  UNL     1     -34.447   5.285   6.173  1.00 20.00     0.413 C 
HETATM    4  F7  UNL     1     -35.698   4.798   6.336  1.00 20.00    -0.168 F 
HETATM    5  F8  UNL     1     -33.608   4.476   6.855  1.00 20.00    -0.168 F 
HETATM    6  F9  UNL     1     -34.404   6.506   6.747  1.00 20.00    -0.168 F 
ENDBRANCH   2   3
BRANCH   2   7
HETATM    7  O6  UNL     1     -33.292   6.510   4.491  1.00 20.00    -0.350 OA
BRANCH   7   8
HETATM    8  C2  UNL     1     -32.503   6.465   3.428  1.00 20.00     0.125 C 
HETATM    9  C1  UNL     1     -32.199   7.511   2.655  1.00 20.00     0.037 C 
ENDBRANCH   7   8
ENDBRANCH   2   7
TORSDOF 3
ENDMDL
MODEL 2
REMARK VINA RESULT:      -5.0      1.984      2.488
REMARK  3 active torsions:
REMARK  status: ('A' for Active; 'I' for Inactive)
REMARK    1  A    between atoms: C2_2  and  O6_6 
REMARK    2  A    between atoms: C4_4  and  C5_5 
REMARK    3  A    between atoms: C4_4  and  O6_6 
ROOT
HETATM    1  C3  UNL     1     -34.050   6.106   5.833  1.00 20.00     0.049 C 
HETATM    2  C4  UNL     1     -34.016   6.284   4.346  1.00 20.00     0.231 C 
ENDROOT
BRANCH   2   3
HETATM    3  C5  UNL     1     -34.928   5.309   3.633  1.00 20.00     0.413 C 
HETATM    4  F7  UNL     1     -34.423   4.975   2.424  1.00 20.00    -0.168 F 
HETATM    5  F8  UNL     1     -35.068   4.167   4.340  1.00 20.00    -0.168 F 
HETATM    6  F9  UNL     1     -36.159   5.827   3.435  1.00 20.00    -0.168 F 
ENDBRANCH   2   3
BRANCH   2   7
HETATM    7  O6  UNL     1     -32.688   6.077   3.871  1.00 20.00    -0.350 OA
BRANCH   7   8
HETATM    8  C2  UNL     1     -32.036   7.180   3.534  1.00 20.00     0.125 C 
HETATM    9  C1  UNL     1     -32.131   7.794   2.353  1.00 20.00     0.037 C 
ENDBRANCH   7   8
ENDBRANCH   2   7
TORSDOF 3
ENDMDL
MODEL 3
REMARK VINA RESULT:      -5.0      1.400      2.095
REMARK  3 active torsions:
REMARK  status: ('A' for Active; 'I' for Inactive)
REMARK    1  A    between atoms: C2_2  and  O6_6 
REMARK    2  A    between atoms: C4_4  and  C5_5 
REMARK    3  A    between atoms: C4_4  and  O6_6 
ROOT
HETATM    1  C3  UNL     1     -33.981   6.516   6.365  1.00 20.00     0.049 C 
HETATM    2  C4  UNL     1     -34.806   5.731   5.391  1.00 20.00     0.231 C 
ENDROOT
BRANCH   2   3
HETATM    3  C5  UNL     1     -34.842   4.256   5.733  1.00 20.00     0.413 C 
HETATM    4  F7  UNL     1     -33.638   3.838   6.185  1.00 20.00    -0.168 F 
HETATM    5  F8  UNL     1     -35.747   4.003   6.703  1.00 20.00    -0.168 F 
HETATM    6  F9  UNL     1     -35.162   3.501   4.660  1.00 20.00    -0.168 F 
ENDBRANCH   2   3
BRANCH   2   7
HETATM    7  O6  UNL     1     -34.260   5.869   4.082  1.00 20.00    -0.350 OA
BRANCH   7   8
HETATM    8  C2  UNL     1     -33.079   6.467   4.030  1.00 20.00     0.125 C 
HETATM    9  C1  UNL     1     -32.243   6.423   2.990  1.00 20.00     0.037 C 
ENDBRANCH   7   8
ENDBRANCH   2   7
TORSDOF 3
ENDMDL
MODEL 4
REMARK VINA RESULT:      -4.6      2.734      3.874
REMARK  3 active torsions:
REMARK  status: ('A' for Active; 'I' for Inactive)
REMARK    1  A    between atoms: C2_2  and  O6_6 
REMARK    2  A    between atoms: C4_4  and  C5_5 
REMARK    3  A    between atoms: C4_4  and  O6_6 
ROOT
HETATM    1  C3  UNL     1     -34.492   5.435   2.879  1.00 20.00     0.049 C 
HETATM    2  C4  UNL     1     -33.844   6.521   3.684  1.00 20.00     0.231 C 
ENDROOT
BRANCH   2   3
HETATM    3  C5  UNL     1     -32.424   6.793   3.235  1.00 20.00     0.413 C 
HETATM    4  F7  UNL     1     -31.801   5.645   2.887  1.00 20.00    -0.168 F 
HETATM    5  F8  UNL     1     -32.401   7.607   2.158  1.00 20.00    -0.168 F 
HETATM    6  F9  UNL     1     -31.694   7.376   4.211  1.00 20.00    -0.168 F 
ENDBRANCH   2   3
BRANCH   2   7
HETATM    7  O6  UNL     1     -33.810   6.141   5.057  1.00 20.00    -0.350 OA
BRANCH   7   8
HETATM    8  C2  UNL     1     -34.804   5.355   5.444  1.00 20.00     0.125 C 
HETATM    9  C1  UNL     1     -34.662   4.235   6.158  1.00 20.00     0.037 C 
ENDBRANCH   7   8
ENDBRANCH   2   7
TORSDOF 3
ENDMDL
MODEL 5
REMARK VINA RESULT:      -4.6      2.732      3.846
REMARK  3 active torsions:
REMARK  status: ('A' for Active; 'I' for Inactive)
REMARK    1  A    between atoms: C2_2  and  O6_6 
REMARK    2  A    between atoms: C4_4  and  C5_5 
REMARK    3  A    between atoms: C4_4  and  O6_6 
ROOT
HETATM    1  C3  UNL     1     -34.491   5.427   2.896  1.00 20.00     0.049 C 
HETATM    2  C4  UNL     1     -33.843   6.528   3.680  1.00 20.00     0.231 C 
ENDROOT
BRANCH   2   3
HETATM    3  C5  UNL     1     -32.425   6.796   3.224  1.00 20.00     0.413 C 
HETATM    4  F7  UNL     1     -31.705   7.377   4.210  1.00 20.00    -0.168 F 
HETATM    5  F8  UNL     1     -31.796   5.648   2.890  1.00 20.00    -0.168 F 
HETATM    6  F9  UNL     1     -32.390   7.615   2.152  1.00 20.00    -0.168 F 
ENDBRANCH   2   3
BRANCH   2   7
HETATM    7  O6  UNL     1     -33.805   6.171   5.060  1.00 20.00    -0.350 OA
BRANCH   7   8
HETATM    8  C2  UNL     1     -34.777   5.362   5.455  1.00 20.00     0.125 C 
HETATM    9  C1  UNL     1     -34.609   4.279   6.217  1.00 20.00     0.037 C 
ENDBRANCH   7   8
ENDBRANCH   2   7
TORSDOF 3
ENDMDL
MODEL 6
REMARK VINA RESULT:      -4.6      2.733      3.904
REMARK  3 active torsions:
REMARK  status: ('A' for Active; 'I' for Inactive)
REMARK    1  A    between atoms: C2_2  and  O6_6 
REMARK    2  A    between atoms: C4_4  and  C5_5 
REMARK    3  A    between atoms: C4_4  and  O6_6 
ROOT
HETATM    1  C3  UNL     1     -34.506   5.427   2.868  1.00 20.00     0.049 C 
HETATM    2  C4  UNL     1     -33.851   6.503   3.679  1.00 20.00     0.231 C 
ENDROOT
BRANCH   2   3
HETATM    3  C5  UNL     1     -32.429   6.769   3.230  1.00 20.00     0.413 C 
HETATM    4  F7  UNL     1     -32.410   7.595   2.160  1.00 20.00    -0.168 F 
HETATM    5  F8  UNL     1     -31.713   7.362   4.210  1.00 20.00    -0.168 F 
HETATM    6  F9  UNL     1     -31.792   5.631   2.882  1.00 20.00    -0.168 F 
ENDBRANCH   2   3
BRANCH   2   7
HETATM    7  O6  UNL     1     -33.817   6.114   5.049  1.00 20.00    -0.350 OA
BRANCH   7   8
HETATM    8  C2  UNL     1     -34.826   5.348   5.438  1.00 20.00     0.125 C 
HETATM    9  C1  UNL     1     -34.706   4.225   6.149  1.00 20.00     0.037 C 
ENDBRANCH   7   8
ENDBRANCH   2   7
TORSDOF 3
ENDMDL
MODEL 7
REMARK VINA RESULT:      -4.3      2.172      3.473
REMARK  3 active torsions:
REMARK  status: ('A' for Active; 'I' for Inactive)
REMARK    1  A    between atoms: C2_2  and  O6_6 
REMARK    2  A    between atoms: C4_4  and  C5_5 
REMARK    3  A    between atoms: C4_4  and  O6_6 
ROOT
HETATM    1  C3  UNL     1     -32.612   6.751   3.136  1.00 20.00     0.049 C 
HETATM    2  C4  UNL     1     -33.469   5.941   4.060  1.00 20.00     0.231 C 
ENDROOT
BRANCH   2   3
HETATM    3  C5  UNL     1     -34.603   5.252   3.331  1.00 20.00     0.413 C 
HETATM    4  F7  UNL     1     -34.857   4.040   3.874  1.00 20.00    -0.168 F 
HETATM    5  F8  UNL     1     -35.741   5.975   3.407  1.00 20.00    -0.168 F 
HETATM    6  F9  UNL     1     -34.318   5.065   2.024  1.00 20.00    -0.168 F 
ENDBRANCH   2   3
BRANCH   2   7
HETATM    7  O6  UNL     1     -34.034   6.792   5.055  1.00 20.00    -0.350 OA
BRANCH   7   8
HETATM    8  C2  UNL     1     -34.020   6.300   6.285  1.00 20.00     0.125 C 
HETATM    9  C1  UNL     1     -34.752   5.266   6.705  1.00 20.00     0.037 C 
ENDBRANCH   7   8
ENDBRANCH   2   7
TORSDOF 3
ENDMDL
MODEL 8
REMARK VINA RESULT:      -4.0     12.194     12.964
REMARK  3 active torsions:
REMARK  status: ('A' for Active; 'I' for Inactive)
REMARK    1  A    between atoms: C2_2  and  O6_6 
REMARK    2  A    between atoms: C4_4  and  C5_5 
REMARK    3  A    between atoms: C4_4  and  O6_6 
ROOT
HETATM    1  C3  UNL     1     -33.270  16.350  -5.046  1.00 20.00     0.049 C 
HETATM    2  C4  UNL     1     -33.353  15.603  -3.749  1.00 20.00     0.231 C 
ENDROOT
BRANCH   2   3
HETATM    3  C5  UNL     1     -33.687  14.141  -3.953  1.00 20.00     0.413 C 
HETATM    4  F7  UNL     1     -34.756  13.783  -3.207  1.00 20.00    -0.168 F 
HETATM    5  F8  UNL     1     -33.993  13.887  -5.244  1.00 20.00    -0.168 F 
HETATM    6  F9  UNL     1     -32.657  13.339  -3.606  1.00 20.00    -0.168 F 
ENDBRANCH   2   3
BRANCH   2   7
HETATM    7  O6  UNL     1     -34.369  16.179  -2.931  1.00 20.00    -0.350 OA
BRANCH   7   8
HETATM    8  C2  UNL     1     -33.937  16.714  -1.798  1.00 20.00     0.125 C 
HETATM    9  C1  UNL     1     -34.622  16.735  -0.652  1.00 20.00     0.037 C 
ENDBRANCH   7   8
ENDBRANCH   2   7
TORSDOF 3
ENDMDL
MODEL 9
REMARK VINA RESULT:      -3.9     12.044     12.819
REMARK  3 active torsions:
REMARK  status: ('A' for Active; 'I' for Inactive)
REMARK    1  A    between atoms: C2_2  and  O6_6 
REMARK    2  A    between atoms: C4_4  and  C5_5 
REMARK    3  A    between atoms: C4_4  and  O6_6 
ROOT
HETATM    1  C3  UNL     1     -33.374  16.446  -4.480  1.00 20.00     0.049 C 
HETATM    2  C4  UNL     1     -33.409  15.431  -3.378  1.00 20.00     0.231 C 
ENDROOT
BRANCH   2   3
HETATM    3  C5  UNL     1     -33.695  14.037  -3.895  1.00 20.00     0.413 C 
HETATM    4  F7  UNL     1     -32.651  13.212  -3.656  1.00 20.00    -0.168 F 
HETATM    5  F8  UNL     1     -34.777  13.504  -3.287  1.00 20.00    -0.168 F 
HETATM    6  F9  UNL     1     -33.925  14.034  -5.226  1.00 20.00    -0.168 F 
ENDBRANCH   2   3
BRANCH   2   7
HETATM    7  O6  UNL     1     -34.430  15.775  -2.445  1.00 20.00    -0.350 OA
BRANCH   7   8
HETATM    8  C2  UNL     1     -34.092  16.705  -1.564  1.00 20.00     0.125 C 
HETATM    9  C1  UNL     1     -34.717  16.925  -0.405  1.00 20.00     0.037 C 
ENDBRANCH   7   8
ENDBRANCH   2   7
TORSDOF 3
ENDMDL
