MODEL 1
REMARK VINA RESULT:      -4.8      0.000      0.000
REMARK  1 active torsions:
REMARK  status: ('A' for Active; 'I' for Inactive)
REMARK    1  A    between atoms: C1_1  and  C7_7 
ROOT
HETATM    1  C2  UNL     1     -37.047  16.855  -3.158  1.00 20.00     0.002 C 
HETATM    2  C3  UNL     1     -36.573  15.756  -4.108  1.00 20.00     0.012 C 
HETATM    3  C4  UNL     1     -34.302  15.428  -2.923  1.00 20.00     0.013 C 
HETATM    4  C5  UNL     1     -35.975  17.915  -2.903  1.00 20.00     0.008 C 
HETATM    5  C6  UNL     1     -34.582  16.148  -1.603  1.00 20.00     0.009 C 
HETATM    6  C7  UNL     1     -35.557  14.778  -3.515  1.00 20.00     0.055 C 
HETATM    7  C8  UNL     1     -35.014  17.629  -1.724  1.00 20.00    -0.048 C 
HETATM    8  C10 UNL     1     -35.691  18.040  -0.397  1.00 20.00     0.015 C 
HETATM    9  C11 UNL     1     -33.763  18.518  -1.901  1.00 20.00     0.015 C 
ENDROOT
BRANCH   6  10
HETATM   10  C1  UNL     1     -35.130  13.824  -4.592  1.00 20.00     0.127 C 
HETATM   11  C9  UNL     1     -34.857  14.414  -5.950  1.00 20.00     0.091 C 
HETATM   12  O12 UNL     1     -35.006  12.619  -4.375  1.00 20.00    -0.298 OA
ENDBRANCH   6  10
TORSDOF 1
ENDMDL
MODEL 2
REMARK VINA RESULT:      -4.7      2.503      4.693
REMARK  1 active torsions:
REMARK  status: ('A' for Active; 'I' for Inactive)
REMARK    1  A    between atoms: C1_1  and  C7_7 
ROOT
HETATM    1  C2  UNL     1     -33.750  17.253  -4.680  1.00 20.00     0.002 C 
HETATM    2  C3  UNL     1     -33.719  17.841  -3.270  1.00 20.00     0.012 C 
HETATM    3  C4  UNL     1     -34.838  15.791  -2.168  1.00 20.00     0.013 C 
HETATM    4  C5  UNL     1     -35.107  16.639  -5.031  1.00 20.00     0.008 C 
HETATM    5  C6  UNL     1     -34.672  14.762  -3.287  1.00 20.00     0.009 C 
HETATM    6  C7  UNL     1     -33.697  16.814  -2.137  1.00 20.00     0.055 C 
HETATM    7  C8  UNL     1     -35.287  15.149  -4.654  1.00 20.00    -0.048 C 
HETATM    8  C10 UNL     1     -34.640  14.260  -5.739  1.00 20.00     0.015 C 
HETATM    9  C11 UNL     1     -36.801  14.840  -4.643  1.00 20.00     0.015 C 
ENDROOT
BRANCH   6  10
HETATM   10  C1  UNL     1     -33.756  17.545  -0.829  1.00 20.00     0.127 C 
HETATM   11  C9  UNL     1     -34.904  17.207   0.085  1.00 20.00     0.091 C 
HETATM   12  O12 UNL     1     -32.908  18.380  -0.516  1.00 20.00    -0.298 OA
ENDBRANCH   6  10
TORSDOF 1
ENDMDL
MODEL 3
REMARK VINA RESULT:      -4.7      2.326      4.616
REMARK  1 active torsions:
REMARK  status: ('A' for Active; 'I' for Inactive)
REMARK    1  A    between atoms: C1_1  and  C7_7 
ROOT
HETATM    1  C2  UNL     1     -35.928  17.026  -4.424  1.00 20.00     0.002 C 
HETATM    2  C3  UNL     1     -35.530  17.453  -3.011  1.00 20.00     0.012 C 
HETATM    3  C4  UNL     1     -33.540  15.815  -2.856  1.00 20.00     0.013 C 
HETATM    4  C5  UNL     1     -35.966  15.505  -4.589  1.00 20.00     0.008 C 
HETATM    5  C6  UNL     1     -33.381  15.446  -4.332  1.00 20.00     0.009 C 
HETATM    6  C7  UNL     1     -34.056  17.244  -2.661  1.00 20.00     0.055 C 
HETATM    7  C8  UNL     1     -34.633  14.843  -5.013  1.00 20.00    -0.048 C 
HETATM    8  C10 UNL     1     -34.456  14.973  -6.542  1.00 20.00     0.015 C 
HETATM    9  C11 UNL     1     -34.723  13.336  -4.683  1.00 20.00     0.015 C 
ENDROOT
BRANCH   6  10
HETATM   10  C1  UNL     1     -33.849  17.627  -1.225  1.00 20.00     0.127 C 
HETATM   11  C9  UNL     1     -34.772  16.997  -0.216  1.00 20.00     0.091 C 
HETATM   12  O12 UNL     1     -32.966  18.416  -0.887  1.00 20.00    -0.298 OA
ENDBRANCH   6  10
TORSDOF 1
ENDMDL
MODEL 4
REMARK VINA RESULT:      -4.6      2.209      4.815
REMARK  1 active torsions:
REMARK  status: ('A' for Active; 'I' for Inactive)
REMARK    1  A    between atoms: C1_1  and  C7_7 
ROOT
HETATM    1  C2  UNL     1     -33.096  15.383  -3.504  1.00 20.00     0.002 C 
HETATM    2  C3  UNL     1     -33.579  16.456  -2.528  1.00 20.00     0.012 C 
HETATM    3  C4  UNL     1     -36.085  16.036  -2.988  1.00 20.00     0.013 C 
HETATM    4  C5  UNL     1     -33.813  15.449  -4.853  1.00 20.00     0.008 C 
HETATM    5  C6  UNL     1     -36.005  14.679  -3.690  1.00 20.00     0.009 C 
HETATM    6  C7  UNL     1     -34.975  16.226  -1.949  1.00 20.00     0.055 C 
HETATM    7  C8  UNL     1     -35.122  14.630  -4.959  1.00 20.00    -0.048 C 
HETATM    8  C10 UNL     1     -34.781  13.151  -5.248  1.00 20.00     0.015 C 
HETATM    9  C11 UNL     1     -35.924  15.166  -6.166  1.00 20.00     0.015 C 
ENDROOT
BRANCH   6  10
HETATM   10  C1  UNL     1     -35.333  17.401  -1.088  1.00 20.00     0.127 C 
HETATM   11  C9  UNL     1     -34.747  17.428   0.299  1.00 20.00     0.091 C 
HETATM   12  O12 UNL     1     -36.067  18.301  -1.495  1.00 20.00    -0.298 OA
ENDBRANCH   6  10
TORSDOF 1
ENDMDL
MODEL 5
REMARK VINA RESULT:      -4.6      1.398      2.197
REMARK  1 active torsions:
REMARK  status: ('A' for Active; 'I' for Inactive)
REMARK    1  A    between atoms: C1_1  and  C7_7 
ROOT
HETATM    1  C2  UNL     1     -34.498  16.068  -2.003  1.00 20.00     0.002 C 
HETATM    2  C3  UNL     1     -34.799  14.918  -2.964  1.00 20.00     0.012 C 
HETATM    3  C4  UNL     1     -34.463  16.340  -5.094  1.00 20.00     0.013 C 
HETATM    4  C5  UNL     1     -35.230  17.358  -2.381  1.00 20.00     0.008 C 
HETATM    5  C6  UNL     1     -33.736  17.547  -4.499  1.00 20.00     0.009 C 
HETATM    6  C7  UNL     1     -34.152  15.039  -4.345  1.00 20.00     0.055 C 
HETATM    7  C8  UNL     1     -34.483  18.290  -3.365  1.00 20.00    -0.048 C 
HETATM    8  C10 UNL     1     -33.452  19.139  -2.589  1.00 20.00     0.015 C 
HETATM    9  C11 UNL     1     -35.516  19.260  -3.979  1.00 20.00     0.015 C 
ENDROOT
BRANCH   6  10
HETATM   10  C1  UNL     1     -34.614  13.888  -5.189  1.00 20.00     0.127 C 
HETATM   11  C9  UNL     1     -35.042  14.209  -6.596  1.00 20.00     0.091 C 
HETATM   12  O12 UNL     1     -34.639  12.737  -4.755  1.00 20.00    -0.298 OA
ENDBRANCH   6  10
TORSDOF 1
ENDMDL
MODEL 6
REMARK VINA RESULT:      -4.4      2.507      3.914
REMARK  1 active torsions:
REMARK  status: ('A' for Active; 'I' for Inactive)
REMARK    1  A    between atoms: C1_1  and  C7_7 
ROOT
HETATM    1  C2  UNL     1     -36.038  14.716  -6.793  1.00 20.00     0.002 C 
HETATM    2  C3  UNL     1     -34.732  14.526  -6.022  1.00 20.00     0.012 C 
HETATM    3  C4  UNL     1     -35.818  14.835  -3.700  1.00 20.00     0.013 C 
HETATM    4  C5  UNL     1     -36.842  15.921  -6.300  1.00 20.00     0.008 C 
HETATM    5  C6  UNL     1     -37.293  14.666  -4.069  1.00 20.00     0.009 C 
HETATM    6  C7  UNL     1     -34.891  14.005  -4.593  1.00 20.00     0.055 C 
HETATM    7  C8  UNL     1     -37.833  15.640  -5.144  1.00 20.00    -0.048 C 
HETATM    8  C10 UNL     1     -39.137  15.044  -5.718  1.00 20.00     0.015 C 
HETATM    9  C11 UNL     1     -38.190  16.990  -4.483  1.00 20.00     0.015 C 
ENDROOT
BRANCH   6  10
HETATM   10  C1  UNL     1     -33.536  13.958  -3.950  1.00 20.00     0.127 C 
HETATM   11  C9  UNL     1     -32.908  15.280  -3.596  1.00 20.00     0.091 C 
HETATM   12  O12 UNL     1     -32.966  12.892  -3.720  1.00 20.00    -0.298 OA
ENDBRANCH   6  10
TORSDOF 1
ENDMDL
MODEL 7
REMARK VINA RESULT:      -4.4      3.953      6.292
REMARK  1 active torsions:
REMARK  status: ('A' for Active; 'I' for Inactive)
REMARK    1  A    between atoms: C1_1  and  C7_7 
ROOT
HETATM    1  C2  UNL     1     -35.280  17.980   0.910  1.00 20.00     0.002 C 
HETATM    2  C3  UNL     1     -34.106  18.165   1.872  1.00 20.00     0.012 C 
HETATM    3  C4  UNL     1     -32.368  18.543  -0.001  1.00 20.00     0.013 C 
HETATM    4  C5  UNL     1     -34.948  17.038  -0.248  1.00 20.00     0.008 C 
HETATM    5  C6  UNL     1     -33.301  18.818  -1.181  1.00 20.00     0.009 C 
HETATM    6  C7  UNL     1     -32.954  19.016   1.333  1.00 20.00     0.055 C 
HETATM    7  C8  UNL     1     -34.328  17.705  -1.500  1.00 20.00    -0.048 C 
HETATM    8  C10 UNL     1     -35.450  18.322  -2.364  1.00 20.00     0.015 C 
HETATM    9  C11 UNL     1     -33.648  16.602  -2.341  1.00 20.00     0.015 C 
ENDROOT
BRANCH   6  10
HETATM   10  C1  UNL     1     -31.854  19.027   2.353  1.00 20.00     0.127 C 
HETATM   11  C9  UNL     1     -32.247  18.733   3.777  1.00 20.00     0.091 C 
HETATM   12  O12 UNL     1     -30.687  19.263   2.042  1.00 20.00    -0.298 OA
ENDBRANCH   6  10
TORSDOF 1
ENDMDL
MODEL 8
REMARK VINA RESULT:      -4.3      2.009      4.598
REMARK  1 active torsions:
REMARK  status: ('A' for Active; 'I' for Inactive)
REMARK    1  A    between atoms: C1_1  and  C7_7 
ROOT
HETATM    1  C2  UNL     1     -34.939  13.924  -4.302  1.00 20.00     0.002 C 
HETATM    2  C3  UNL     1     -34.472  14.728  -3.089  1.00 20.00     0.012 C 
HETATM    3  C4  UNL     1     -35.098  17.017  -4.106  1.00 20.00     0.013 C 
HETATM    4  C5  UNL     1     -34.446  14.515  -5.624  1.00 20.00     0.008 C 
HETATM    5  C6  UNL     1     -36.003  16.562  -5.252  1.00 20.00     0.009 C 
HETATM    6  C7  UNL     1     -35.164  16.078  -2.898  1.00 20.00     0.055 C 
HETATM    7  C8  UNL     1     -35.364  15.583  -6.266  1.00 20.00    -0.048 C 
HETATM    8  C10 UNL     1     -36.504  14.884  -7.040  1.00 20.00     0.015 C 
HETATM    9  C11 UNL     1     -34.526  16.378  -7.292  1.00 20.00     0.015 C 
ENDROOT
BRANCH   6  10
HETATM   10  C1  UNL     1     -34.536  16.773  -1.726  1.00 20.00     0.127 C 
HETATM   11  C9  UNL     1     -33.694  17.984  -2.029  1.00 20.00     0.091 C 
HETATM   12  O12 UNL     1     -34.703  16.376  -0.573  1.00 20.00    -0.298 OA
ENDBRANCH   6  10
TORSDOF 1
ENDMDL
MODEL 9
REMARK VINA RESULT:      -4.3      2.735      3.932
REMARK  1 active torsions:
REMARK  status: ('A' for Active; 'I' for Inactive)
REMARK    1  A    between atoms: C1_1  and  C7_7 
ROOT
HETATM    1  C2  UNL     1     -35.661  15.608  -7.731  1.00 20.00     0.002 C 
HETATM    2  C3  UNL     1     -35.109  14.501  -6.833  1.00 20.00     0.012 C 
HETATM    3  C4  UNL     1     -34.546  16.089  -4.876  1.00 20.00     0.013 C 
HETATM    4  C5  UNL     1     -34.755  16.840  -7.770  1.00 20.00     0.008 C 
HETATM    5  C6  UNL     1     -35.355  17.320  -5.288  1.00 20.00     0.009 C 
HETATM    6  C7  UNL     1     -35.196  14.779  -5.331  1.00 20.00     0.055 C 
HETATM    7  C8  UNL     1     -35.025  17.907  -6.681  1.00 20.00    -0.048 C 
HETATM    8  C10 UNL     1     -36.207  18.800  -7.117  1.00 20.00     0.015 C 
HETATM    9  C11 UNL     1     -33.775  18.808  -6.577  1.00 20.00     0.015 C 
ENDROOT
BRANCH   6  10
HETATM   10  C1  UNL     1     -34.538  13.647  -4.599  1.00 20.00     0.127 C 
HETATM   11  C9  UNL     1     -33.338  13.992  -3.757  1.00 20.00     0.091 C 
HETATM   12  O12 UNL     1     -34.960  12.494  -4.679  1.00 20.00    -0.298 OA
ENDBRANCH   6  10
TORSDOF 1
ENDMDL
