MODEL 1
REMARK VINA RESULT:      -4.4      0.000      0.000
REMARK  2 active torsions:
REMARK  status: ('A' for Active; 'I' for Inactive)
REMARK    1  A    between atoms: C5_5  and  S10_10 
REMARK    2  A    between atoms: C8_8  and  S10_10 
ROOT
HETATM    1  C1  UNL     1     -36.669  14.480  -4.028  1.00 20.00     0.080 C 
HETATM    2  C2  UNL     1     -33.325  13.803  -3.780  1.00 20.00     0.009 C 
HETATM    3  C3  UNL     1     -34.510  13.273  -4.617  1.00 20.00     0.037 C 
HETATM    4  C4  UNL     1     -34.317  14.770  -3.086  1.00 20.00     0.014 C 
HETATM    5  C5  UNL     1     -35.261  14.598  -4.321  1.00 20.00     0.100 C 
HETATM    6  C6  UNL     1     -33.758  16.118  -2.665  1.00 20.00     0.012 C 
HETATM    7  N9  UNL     1     -37.802  14.385  -3.793  1.00 20.00    -0.196 NA
ENDROOT
BRANCH   5   8
HETATM    8  S10 UNL     1     -35.008  15.827  -5.662  1.00 20.00    -0.144 SA
BRANCH   8   9
HETATM    9  C8  UNL     1     -36.259  15.203  -6.802  1.00 20.00     0.071 C 
HETATM   10  C7  UNL     1     -35.612  14.405  -7.918  1.00 20.00     0.016 C 
ENDBRANCH   8   9
ENDBRANCH   5   8
TORSDOF 2
ENDMDL
MODEL 2
REMARK VINA RESULT:      -4.2      1.405      1.760
REMARK  2 active torsions:
REMARK  status: ('A' for Active; 'I' for Inactive)
REMARK    1  A    between atoms: C5_5  and  S10_10 
REMARK    2  A    between atoms: C8_8  and  S10_10 
ROOT
HETATM    1  C1  UNL     1     -36.791  14.466  -4.021  1.00 20.00     0.080 C 
HETATM    2  C2  UNL     1     -33.439  13.809  -3.825  1.00 20.00     0.009 C 
HETATM    3  C3  UNL     1     -34.631  13.281  -4.653  1.00 20.00     0.037 C 
HETATM    4  C4  UNL     1     -34.429  14.760  -3.106  1.00 20.00     0.014 C 
HETATM    5  C5  UNL     1     -35.388  14.597  -4.331  1.00 20.00     0.100 C 
HETATM    6  C6  UNL     1     -33.872  16.107  -2.676  1.00 20.00     0.012 C 
HETATM    7  N9  UNL     1     -37.920  14.361  -3.773  1.00 20.00    -0.196 NA
ENDROOT
BRANCH   5   8
HETATM    8  S10 UNL     1     -35.160  15.844  -5.660  1.00 20.00    -0.144 SA
BRANCH   8   9
HETATM    9  C8  UNL     1     -36.486  16.965  -5.170  1.00 20.00     0.071 C 
HETATM   10  C7  UNL     1     -35.928  18.336  -4.838  1.00 20.00     0.016 C 
ENDBRANCH   8   9
ENDBRANCH   5   8
TORSDOF 2
ENDMDL
MODEL 3
REMARK VINA RESULT:      -4.2      1.212      3.175
REMARK  2 active torsions:
REMARK  status: ('A' for Active; 'I' for Inactive)
REMARK    1  A    between atoms: C5_5  and  S10_10 
REMARK    2  A    between atoms: C8_8  and  S10_10 
ROOT
HETATM    1  C1  UNL     1     -37.208  14.672  -4.153  1.00 20.00     0.080 C 
HETATM    2  C2  UNL     1     -34.659  14.323  -6.407  1.00 20.00     0.009 C 
HETATM    3  C3  UNL     1     -36.034  15.025  -6.381  1.00 20.00     0.037 C 
HETATM    4  C4  UNL     1     -34.944  13.828  -4.966  1.00 20.00     0.014 C 
HETATM    5  C5  UNL     1     -35.976  14.995  -4.830  1.00 20.00     0.100 C 
HETATM    6  C6  UNL     1     -33.737  13.692  -4.053  1.00 20.00     0.012 C 
HETATM    7  N9  UNL     1     -38.200  14.413  -3.607  1.00 20.00    -0.196 NA
ENDROOT
BRANCH   5   8
HETATM    8  S10 UNL     1     -35.288  16.559  -4.154  1.00 20.00    -0.144 SA
BRANCH   8   9
HETATM    9  C8  UNL     1     -35.753  16.302  -2.430  1.00 20.00     0.071 C 
HETATM   10  C7  UNL     1     -34.531  16.366  -1.534  1.00 20.00     0.016 C 
ENDBRANCH   8   9
ENDBRANCH   5   8
TORSDOF 2
ENDMDL
MODEL 4
REMARK VINA RESULT:      -4.1      1.533      2.107
REMARK  2 active torsions:
REMARK  status: ('A' for Active; 'I' for Inactive)
REMARK    1  A    between atoms: C5_5  and  S10_10 
REMARK    2  A    between atoms: C8_8  and  S10_10 
ROOT
HETATM    1  C1  UNL     1     -34.625  13.658  -4.477  1.00 20.00     0.080 C 
HETATM    2  C2  UNL     1     -33.793  16.356  -2.544  1.00 20.00     0.009 C 
HETATM    3  C3  UNL     1     -33.030  15.319  -3.397  1.00 20.00     0.037 C 
HETATM    4  C4  UNL     1     -35.106  15.630  -2.933  1.00 20.00     0.014 C 
HETATM    5  C5  UNL     1     -34.348  15.040  -4.167  1.00 20.00     0.100 C 
HETATM    6  C6  UNL     1     -36.340  16.505  -3.073  1.00 20.00     0.012 C 
HETATM    7  N9  UNL     1     -34.847  12.547  -4.727  1.00 20.00    -0.196 NA
ENDROOT
BRANCH   5   8
HETATM    8  S10 UNL     1     -34.458  16.053  -5.697  1.00 20.00    -0.144 SA
BRANCH   8   9
HETATM    9  C8  UNL     1     -35.791  15.137  -6.497  1.00 20.00     0.071 C 
HETATM   10  C7  UNL     1     -35.374  14.699  -7.889  1.00 20.00     0.016 C 
ENDBRANCH   8   9
ENDBRANCH   5   8
TORSDOF 2
ENDMDL
MODEL 5
REMARK VINA RESULT:      -4.1      2.064      2.766
REMARK  2 active torsions:
REMARK  status: ('A' for Active; 'I' for Inactive)
REMARK    1  A    between atoms: C5_5  and  S10_10 
REMARK    2  A    between atoms: C8_8  and  S10_10 
ROOT
HETATM    1  C1  UNL     1     -34.884  13.834  -4.459  1.00 20.00     0.080 C 
HETATM    2  C2  UNL     1     -33.433  16.883  -3.905  1.00 20.00     0.009 C 
HETATM    3  C3  UNL     1     -33.747  16.005  -5.137  1.00 20.00     0.037 C 
HETATM    4  C4  UNL     1     -34.050  15.769  -3.021  1.00 20.00     0.014 C 
HETATM    5  C5  UNL     1     -34.815  15.265  -4.289  1.00 20.00     0.100 C 
HETATM    6  C6  UNL     1     -34.766  16.230  -1.763  1.00 20.00     0.012 C 
HETATM    7  N9  UNL     1     -34.939  12.683  -4.595  1.00 20.00    -0.196 NA
ENDROOT
BRANCH   5   8
HETATM    8  S10 UNL     1     -36.484  15.998  -4.525  1.00 20.00    -0.144 SA
BRANCH   8   9
HETATM    9  C8  UNL     1     -37.440  14.674  -3.758  1.00 20.00     0.071 C 
HETATM   10  C7  UNL     1     -38.901  14.775  -4.153  1.00 20.00     0.016 C 
ENDBRANCH   8   9
ENDBRANCH   5   8
TORSDOF 2
ENDMDL
MODEL 6
REMARK VINA RESULT:      -4.0      1.943      3.750
REMARK  2 active torsions:
REMARK  status: ('A' for Active; 'I' for Inactive)
REMARK    1  A    between atoms: C5_5  and  S10_10 
REMARK    2  A    between atoms: C8_8  and  S10_10 
ROOT
HETATM    1  C1  UNL     1     -35.167  13.830  -4.682  1.00 20.00     0.080 C 
HETATM    2  C2  UNL     1     -35.495  16.500  -6.796  1.00 20.00     0.009 C 
HETATM    3  C3  UNL     1     -36.410  15.367  -6.282  1.00 20.00     0.037 C 
HETATM    4  C4  UNL     1     -34.352  15.890  -5.946  1.00 20.00     0.014 C 
HETATM    5  C5  UNL     1     -35.448  15.189  -5.078  1.00 20.00     0.100 C 
HETATM    6  C6  UNL     1     -33.351  16.873  -5.363  1.00 20.00     0.012 C 
HETATM    7  N9  UNL     1     -34.941  12.737  -4.363  1.00 20.00    -0.196 NA
ENDROOT
BRANCH   5   8
HETATM    8  S10 UNL     1     -36.012  16.156  -3.621  1.00 20.00    -0.144 SA
BRANCH   8   9
HETATM    9  C8  UNL     1     -34.804  15.532  -2.435  1.00 20.00     0.071 C 
HETATM   10  C7  UNL     1     -34.649  16.498  -1.275  1.00 20.00     0.016 C 
ENDBRANCH   8   9
ENDBRANCH   5   8
TORSDOF 2
ENDMDL
MODEL 7
REMARK VINA RESULT:      -4.0      1.875      4.008
REMARK  2 active torsions:
REMARK  status: ('A' for Active; 'I' for Inactive)
REMARK    1  A    between atoms: C5_5  and  S10_10 
REMARK    2  A    between atoms: C8_8  and  S10_10 
ROOT
HETATM    1  C1  UNL     1     -33.943  13.883  -4.105  1.00 20.00     0.080 C 
HETATM    2  C2  UNL     1     -36.663  15.035  -5.830  1.00 20.00     0.009 C 
HETATM    3  C3  UNL     1     -36.359  14.629  -4.372  1.00 20.00     0.037 C 
HETATM    4  C4  UNL     1     -35.196  14.677  -6.179  1.00 20.00     0.014 C 
HETATM    5  C5  UNL     1     -34.852  14.854  -4.664  1.00 20.00     0.100 C 
HETATM    6  C6  UNL     1     -34.543  15.509  -7.269  1.00 20.00     0.012 C 
HETATM    7  N9  UNL     1     -33.211  13.102  -3.656  1.00 20.00    -0.196 NA
ENDROOT
BRANCH   5   8
HETATM    8  S10 UNL     1     -34.321  16.547  -4.186  1.00 20.00    -0.144 SA
BRANCH   8   9
HETATM    9  C8  UNL     1     -33.688  16.147  -2.544  1.00 20.00     0.071 C 
HETATM   10  C7  UNL     1     -34.739  16.427  -1.487  1.00 20.00     0.016 C 
ENDBRANCH   8   9
ENDBRANCH   5   8
TORSDOF 2
ENDMDL
MODEL 8
REMARK VINA RESULT:      -3.9      2.418      4.279
REMARK  2 active torsions:
REMARK  status: ('A' for Active; 'I' for Inactive)
REMARK    1  A    between atoms: C5_5  and  S10_10 
REMARK    2  A    between atoms: C8_8  and  S10_10 
ROOT
HETATM    1  C1  UNL     1     -33.715  16.370  -4.628  1.00 20.00     0.080 C 
HETATM    2  C2  UNL     1     -35.153  13.274  -4.396  1.00 20.00     0.009 C 
HETATM    3  C3  UNL     1     -33.920  13.978  -3.789  1.00 20.00     0.037 C 
HETATM    4  C4  UNL     1     -35.449  14.581  -5.175  1.00 20.00     0.014 C 
HETATM    5  C5  UNL     1     -34.587  15.341  -4.114  1.00 20.00     0.100 C 
HETATM    6  C6  UNL     1     -36.914  14.900  -5.418  1.00 20.00     0.012 C 
HETATM    7  N9  UNL     1     -33.014  17.197  -5.042  1.00 20.00    -0.196 NA
ENDROOT
BRANCH   5   8
HETATM    8  S10 UNL     1     -35.528  15.988  -2.675  1.00 20.00    -0.144 SA
BRANCH   8   9
HETATM    9  C8  UNL     1     -34.130  16.663  -1.755  1.00 20.00     0.071 C 
HETATM   10  C7  UNL     1     -34.556  17.059  -0.354  1.00 20.00     0.016 C 
ENDBRANCH   8   9
ENDBRANCH   5   8
TORSDOF 2
ENDMDL
MODEL 9
REMARK VINA RESULT:      -3.8      2.033      3.172
REMARK  2 active torsions:
REMARK  status: ('A' for Active; 'I' for Inactive)
REMARK    1  A    between atoms: C5_5  and  S10_10 
REMARK    2  A    between atoms: C8_8  and  S10_10 
ROOT
HETATM    1  C1  UNL     1     -35.044  13.666  -4.988  1.00 20.00     0.080 C 
HETATM    2  C2  UNL     1     -34.239  16.290  -7.030  1.00 20.00     0.009 C 
HETATM    3  C3  UNL     1     -34.738  14.841  -7.222  1.00 20.00     0.037 C 
HETATM    4  C4  UNL     1     -34.247  16.033  -5.502  1.00 20.00     0.014 C 
HETATM    5  C5  UNL     1     -35.256  14.867  -5.760  1.00 20.00     0.100 C 
HETATM    6  C6  UNL     1     -34.582  17.226  -4.623  1.00 20.00     0.012 C 
HETATM    7  N9  UNL     1     -34.875  12.700  -4.367  1.00 20.00    -0.196 NA
ENDROOT
BRANCH   5   8
HETATM    8  S10 UNL     1     -37.027  15.349  -5.684  1.00 20.00    -0.144 SA
BRANCH   8   9
HETATM    9  C8  UNL     1     -37.349  14.823  -3.988  1.00 20.00     0.071 C 
HETATM   10  C7  UNL     1     -38.815  15.002  -3.644  1.00 20.00     0.016 C 
ENDBRANCH   8   9
ENDBRANCH   5   8
TORSDOF 2
ENDMDL
