MODEL 1
REMARK VINA RESULT:      -4.1      0.000      0.000
REMARK  2 active torsions:
REMARK  status: ('A' for Active; 'I' for Inactive)
REMARK    1  A    between atoms: C2_2  and  C3_3 
REMARK    2  A    between atoms: C2_2  and  N4_4 
ROOT
HETATM    1  C1  UNL     1     -33.151   6.227   3.580  1.00 20.00     0.332 C 
HETATM    2  N4  UNL     1     -34.214   6.391   4.050  1.00 20.00    -0.242 NA
HETATM    3  O5  UNL     1     -32.085   6.066   3.109  1.00 20.00    -0.260 OA
ENDROOT
BRANCH   2   4
HETATM    4  C2  UNL     1     -34.890   5.158   4.458  1.00 20.00     0.224 C 
BRANCH   4   5
HETATM    5  C3  UNL     1     -34.584   4.885   5.913  1.00 20.00     0.372 C 
HETATM    6  F6  UNL     1     -35.462   3.981   6.412  1.00 20.00    -0.213 F 
HETATM    7  F7  UNL     1     -34.725   6.020   6.640  1.00 20.00    -0.213 F 
ENDBRANCH   4   5
ENDBRANCH   2   4
TORSDOF 2
ENDMDL
MODEL 2
REMARK VINA RESULT:      -4.1      0.610      1.163
REMARK  2 active torsions:
REMARK  status: ('A' for Active; 'I' for Inactive)
REMARK    1  A    between atoms: C2_2  and  C3_3 
REMARK    2  A    between atoms: C2_2  and  N4_4 
ROOT
HETATM    1  C1  UNL     1     -33.119   6.173   3.693  1.00 20.00     0.332 C 
HETATM    2  N4  UNL     1     -34.089   6.342   4.333  1.00 20.00    -0.242 NA
HETATM    3  O5  UNL     1     -32.146   6.008   3.054  1.00 20.00    -0.260 OA
ENDROOT
BRANCH   2   4
HETATM    4  C2  UNL     1     -34.952   5.164   4.442  1.00 20.00     0.224 C 
BRANCH   4   5
HETATM    5  C3  UNL     1     -35.017   4.731   5.889  1.00 20.00     0.372 C 
HETATM    6  F6  UNL     1     -34.860   5.802   6.704  1.00 20.00    -0.213 F 
HETATM    7  F7  UNL     1     -34.006   3.871   6.163  1.00 20.00    -0.213 F 
ENDBRANCH   4   5
ENDBRANCH   2   4
TORSDOF 2
ENDMDL
MODEL 3
REMARK VINA RESULT:      -4.1      2.779      3.089
REMARK  2 active torsions:
REMARK  status: ('A' for Active; 'I' for Inactive)
REMARK    1  A    between atoms: C2_2  and  C3_3 
REMARK    2  A    between atoms: C2_2  and  N4_4 
ROOT
HETATM    1  C1  UNL     1     -34.402   5.810   6.339  1.00 20.00     0.332 C 
HETATM    2  N4  UNL     1     -35.088   4.877   6.148  1.00 20.00    -0.242 NA
HETATM    3  O5  UNL     1     -33.715   6.745   6.535  1.00 20.00    -0.260 OA
ENDROOT
BRANCH   2   4
HETATM    4  C2  UNL     1     -35.007   4.336   4.790  1.00 20.00     0.224 C 
BRANCH   4   5
HETATM    5  C3  UNL     1     -35.023   5.480   3.800  1.00 20.00     0.372 C 
HETATM    6  F6  UNL     1     -36.292   5.727   3.395  1.00 20.00    -0.213 F 
HETATM    7  F7  UNL     1     -34.309   5.151   2.696  1.00 20.00    -0.213 F 
ENDBRANCH   4   5
ENDBRANCH   2   4
TORSDOF 2
ENDMDL
MODEL 4
REMARK VINA RESULT:      -3.9      1.400      1.485
REMARK  2 active torsions:
REMARK  status: ('A' for Active; 'I' for Inactive)
REMARK    1  A    between atoms: C2_2  and  C3_3 
REMARK    2  A    between atoms: C2_2  and  N4_4 
ROOT
HETATM    1  C1  UNL     1     -32.598   6.832   3.213  1.00 20.00     0.332 C 
HETATM    2  N4  UNL     1     -33.452   6.056   3.422  1.00 20.00    -0.242 NA
HETATM    3  O5  UNL     1     -31.741   7.610   2.998  1.00 20.00    -0.260 OA
ENDROOT
BRANCH   2   4
HETATM    4  C2  UNL     1     -33.922   6.036   4.809  1.00 20.00     0.224 C 
BRANCH   4   5
HETATM    5  C3  UNL     1     -34.894   4.891   4.985  1.00 20.00     0.372 C 
HETATM    6  F6  UNL     1     -35.987   5.083   4.206  1.00 20.00    -0.213 F 
HETATM    7  F7  UNL     1     -35.324   4.839   6.269  1.00 20.00    -0.213 F 
ENDBRANCH   4   5
ENDBRANCH   2   4
TORSDOF 2
ENDMDL
MODEL 5
REMARK VINA RESULT:      -3.9      3.206      3.643
REMARK  2 active torsions:
REMARK  status: ('A' for Active; 'I' for Inactive)
REMARK    1  A    between atoms: C2_2  and  C3_3 
REMARK    2  A    between atoms: C2_2  and  N4_4 
ROOT
HETATM    1  C1  UNL     1     -34.929   4.620   4.472  1.00 20.00     0.332 C 
HETATM    2  N4  UNL     1     -34.640   5.552   3.820  1.00 20.00    -0.242 NA
HETATM    3  O5  UNL     1     -35.222   3.684   5.122  1.00 20.00    -0.260 OA
ENDROOT
BRANCH   2   4
HETATM    4  C2  UNL     1     -33.552   6.361   4.374  1.00 20.00     0.224 C 
BRANCH   4   5
HETATM    5  C3  UNL     1     -32.594   6.728   3.263  1.00 20.00     0.372 C 
HETATM    6  F6  UNL     1     -32.035   5.609   2.741  1.00 20.00    -0.213 F 
HETATM    7  F7  UNL     1     -31.584   7.488   3.752  1.00 20.00    -0.213 F 
ENDBRANCH   4   5
ENDBRANCH   2   4
TORSDOF 2
ENDMDL
MODEL 6
REMARK VINA RESULT:      -3.8      1.146      1.411
REMARK  2 active torsions:
REMARK  status: ('A' for Active; 'I' for Inactive)
REMARK    1  A    between atoms: C2_2  and  C3_3 
REMARK    2  A    between atoms: C2_2  and  N4_4 
ROOT
HETATM    1  C1  UNL     1     -32.977   6.468   3.343  1.00 20.00     0.332 C 
HETATM    2  N4  UNL     1     -33.907   5.862   3.724  1.00 20.00    -0.242 NA
HETATM    3  O5  UNL     1     -32.046   7.075   2.957  1.00 20.00    -0.260 OA
ENDROOT
BRANCH   2   4
HETATM    4  C2  UNL     1     -34.182   6.014   5.154  1.00 20.00     0.224 C 
BRANCH   4   5
HETATM    5  C3  UNL     1     -34.915   4.788   5.650  1.00 20.00     0.372 C 
HETATM    6  F6  UNL     1     -34.142   4.108   6.532  1.00 20.00    -0.213 F 
HETATM    7  F7  UNL     1     -35.172   3.949   4.617  1.00 20.00    -0.213 F 
ENDBRANCH   4   5
ENDBRANCH   2   4
TORSDOF 2
ENDMDL
MODEL 7
REMARK VINA RESULT:      -3.7      3.176      3.810
REMARK  2 active torsions:
REMARK  status: ('A' for Active; 'I' for Inactive)
REMARK    1  A    between atoms: C2_2  and  C3_3 
REMARK    2  A    between atoms: C2_2  and  N4_4 
ROOT
HETATM    1  C1  UNL     1     -34.681   4.727   5.181  1.00 20.00     0.332 C 
HETATM    2  N4  UNL     1     -34.212   5.799   5.091  1.00 20.00    -0.242 NA
HETATM    3  O5  UNL     1     -35.153   3.653   5.276  1.00 20.00    -0.260 OA
ENDROOT
BRANCH   2   4
HETATM    4  C2  UNL     1     -33.982   6.243   3.715  1.00 20.00     0.224 C 
BRANCH   4   5
HETATM    5  C3  UNL     1     -32.540   6.676   3.570  1.00 20.00     0.372 C 
HETATM    6  F6  UNL     1     -32.431   7.613   2.597  1.00 20.00    -0.213 F 
HETATM    7  F7  UNL     1     -31.772   5.623   3.198  1.00 20.00    -0.213 F 
ENDBRANCH   4   5
ENDBRANCH   2   4
TORSDOF 2
ENDMDL
MODEL 8
REMARK VINA RESULT:      -3.6      3.215      3.688
REMARK  2 active torsions:
REMARK  status: ('A' for Active; 'I' for Inactive)
REMARK    1  A    between atoms: C2_2  and  C3_3 
REMARK    2  A    between atoms: C2_2  and  N4_4 
ROOT
HETATM    1  C1  UNL     1     -34.130   6.090   5.841  1.00 20.00     0.332 C 
HETATM    2  N4  UNL     1     -34.266   5.314   4.972  1.00 20.00    -0.242 NA
HETATM    3  O5  UNL     1     -33.994   6.865   6.716  1.00 20.00    -0.260 OA
ENDROOT
BRANCH   2   4
HETATM    4  C2  UNL     1     -34.102   5.877   3.630  1.00 20.00     0.224 C 
BRANCH   4   5
HETATM    5  C3  UNL     1     -32.713   6.463   3.505  1.00 20.00     0.372 C 
HETATM    6  F6  UNL     1     -32.750   7.596   2.763  1.00 20.00    -0.213 F 
HETATM    7  F7  UNL     1     -31.897   5.592   2.864  1.00 20.00    -0.213 F 
ENDBRANCH   4   5
ENDBRANCH   2   4
TORSDOF 2
ENDMDL
MODEL 9
REMARK VINA RESULT:      -3.6      2.962      3.317
REMARK  2 active torsions:
REMARK  status: ('A' for Active; 'I' for Inactive)
REMARK    1  A    between atoms: C2_2  and  C3_3 
REMARK    2  A    between atoms: C2_2  and  N4_4 
ROOT
HETATM    1  C1  UNL     1     -34.690   5.052   6.029  1.00 20.00     0.332 C 
HETATM    2  N4  UNL     1     -34.145   6.066   5.802  1.00 20.00    -0.242 NA
HETATM    3  O5  UNL     1     -35.237   4.037   6.260  1.00 20.00    -0.260 OA
ENDROOT
BRANCH   2   4
HETATM    4  C2  UNL     1     -33.985   6.360   4.376  1.00 20.00     0.224 C 
BRANCH   4   5
HETATM    5  C3  UNL     1     -34.746   5.331   3.571  1.00 20.00     0.372 C 
HETATM    6  F6  UNL     1     -34.147   5.142   2.370  1.00 20.00    -0.213 F 
HETATM    7  F7  UNL     1     -36.004   5.770   3.324  1.00 20.00    -0.213 F 
ENDBRANCH   4   5
ENDBRANCH   2   4
TORSDOF 2
ENDMDL
