MODEL 1
REMARK VINA RESULT:      -4.4      0.000      0.000
REMARK  2 active torsions:
REMARK  status: ('A' for Active; 'I' for Inactive)
REMARK    1  A    between atoms: C4_4  and  C8_8 
REMARK    2  A    between atoms: C5_5  and  C9_9 
ROOT
HETATM    1  C1  UNL     1     -33.732  17.530  -3.154  1.00 20.00     0.005 C 
HETATM    2  C2  UNL     1     -33.402  16.554  -4.288  1.00 20.00     0.006 C 
HETATM    3  C3  UNL     1     -34.627  15.365  -2.598  1.00 20.00     0.010 C 
HETATM    4  C4  UNL     1     -34.150  16.667  -1.960  1.00 20.00    -0.014 C 
HETATM    5  C5  UNL     1     -33.604  15.151  -3.710  1.00 20.00    -0.000 C 
ENDROOT
BRANCH   5   6
HETATM    6  C9  UNL     1     -34.048  14.133  -4.745  1.00 20.00     0.058 C 
HETATM    7  C7  UNL     1     -35.250  13.327  -4.282  1.00 20.00     0.022 C 
HETATM    8 BR10 UNL     1     -34.517  15.070  -6.396  1.00 20.00    -0.091 Br
ENDBRANCH   5   6
BRANCH   4   9
HETATM    9  C8  UNL     1     -35.204  17.324  -1.085  1.00 20.00     0.000 C 
HETATM   10  C6  UNL     1     -34.805  17.338   0.357  1.00 20.00     0.005 C 
ENDBRANCH   4   9
TORSDOF 2
ENDMDL
MODEL 2
REMARK VINA RESULT:      -4.3      1.264      1.515
REMARK  2 active torsions:
REMARK  status: ('A' for Active; 'I' for Inactive)
REMARK    1  A    between atoms: C4_4  and  C8_8 
REMARK    2  A    between atoms: C5_5  and  C9_9 
ROOT
HETATM    1  C1  UNL     1     -33.736  17.905  -2.423  1.00 20.00     0.005 C 
HETATM    2  C2  UNL     1     -33.752  17.370  -3.858  1.00 20.00     0.006 C 
HETATM    3  C3  UNL     1     -34.719  15.706  -2.420  1.00 20.00     0.010 C 
HETATM    4  C4  UNL     1     -33.987  16.696  -1.517  1.00 20.00    -0.014 C 
HETATM    5  C5  UNL     1     -33.975  15.859  -3.743  1.00 20.00    -0.000 C 
ENDROOT
BRANCH   5   6
HETATM    6  C9  UNL     1     -34.727  15.273  -4.925  1.00 20.00     0.058 C 
HETATM    7  C7  UNL     1     -34.139  15.710  -6.256  1.00 20.00     0.022 C 
HETATM    8 BR10 UNL     1     -34.657  13.321  -4.816  1.00 20.00    -0.091 Br
ENDBRANCH   5   6
BRANCH   4   9
HETATM    9  C8  UNL     1     -34.763  17.041  -0.257  1.00 20.00     0.000 C 
HETATM   10  C6  UNL     1     -34.113  18.144   0.517  1.00 20.00     0.005 C 
ENDBRANCH   4   9
TORSDOF 2
ENDMDL
MODEL 3
REMARK VINA RESULT:      -4.3      2.467      4.615
REMARK  2 active torsions:
REMARK  status: ('A' for Active; 'I' for Inactive)
REMARK    1  A    between atoms: C4_4  and  C8_8 
REMARK    2  A    between atoms: C5_5  and  C9_9 
ROOT
HETATM    1  C1  UNL     1     -36.240  14.797  -3.792  1.00 20.00     0.005 C 
HETATM    2  C2  UNL     1     -35.950  15.935  -2.809  1.00 20.00     0.006 C 
HETATM    3  C3  UNL     1     -33.863  14.915  -3.423  1.00 20.00     0.010 C 
HETATM    4  C4  UNL     1     -34.967  13.948  -3.847  1.00 20.00    -0.014 C 
HETATM    5  C5  UNL     1     -34.528  15.695  -2.293  1.00 20.00    -0.000 C 
ENDROOT
BRANCH   5   6
HETATM    6  C9  UNL     1     -33.795  16.976  -1.937  1.00 20.00     0.058 C 
HETATM    7  C7  UNL     1     -34.026  18.075  -2.961  1.00 20.00     0.022 C 
HETATM    8 BR10 UNL     1     -34.418  17.601  -0.192  1.00 20.00    -0.091 Br
ENDBRANCH   5   6
BRANCH   4   9
HETATM    9  C8  UNL     1     -34.721  13.322  -5.209  1.00 20.00     0.000 C 
HETATM   10  C6  UNL     1     -34.792  14.331  -6.311  1.00 20.00     0.005 C 
ENDBRANCH   4   9
TORSDOF 2
ENDMDL
MODEL 4
REMARK VINA RESULT:      -4.2      1.790      2.578
REMARK  2 active torsions:
REMARK  status: ('A' for Active; 'I' for Inactive)
REMARK    1  A    between atoms: C4_4  and  C8_8 
REMARK    2  A    between atoms: C5_5  and  C9_9 
ROOT
HETATM    1  C1  UNL     1     -33.876  13.999  -3.475  1.00 20.00     0.005 C 
HETATM    2  C2  UNL     1     -34.454  13.527  -4.814  1.00 20.00     0.006 C 
HETATM    3  C3  UNL     1     -35.326  15.715  -4.341  1.00 20.00     0.010 C 
HETATM    4  C4  UNL     1     -34.738  15.186  -3.036  1.00 20.00    -0.014 C 
HETATM    5  C5  UNL     1     -35.657  14.430  -5.095  1.00 20.00    -0.000 C 
ENDROOT
BRANCH   5   6
HETATM    6  C9  UNL     1     -35.907  14.653  -6.576  1.00 20.00     0.058 C 
HETATM    7  C7  UNL     1     -37.268  15.272  -6.845  1.00 20.00     0.022 C 
HETATM    8 BR10 UNL     1     -34.523  15.841  -7.282  1.00 20.00    -0.091 Br
ENDBRANCH   5   6
BRANCH   4   9
HETATM    9  C8  UNL     1     -33.961  16.237  -2.261  1.00 20.00     0.000 C 
HETATM   10  C6  UNL     1     -34.617  16.571  -0.958  1.00 20.00     0.005 C 
ENDBRANCH   4   9
TORSDOF 2
ENDMDL
MODEL 5
REMARK VINA RESULT:      -4.2      1.704      2.182
REMARK  2 active torsions:
REMARK  status: ('A' for Active; 'I' for Inactive)
REMARK    1  A    between atoms: C4_4  and  C8_8 
REMARK    2  A    between atoms: C5_5  and  C9_9 
ROOT
HETATM    1  C1  UNL     1     -33.580  18.564  -1.662  1.00 20.00     0.005 C 
HETATM    2  C2  UNL     1     -33.858  17.656  -2.864  1.00 20.00     0.006 C 
HETATM    3  C3  UNL     1     -34.617  16.537  -0.878  1.00 20.00     0.010 C 
HETATM    4  C4  UNL     1     -33.710  17.676  -0.421  1.00 20.00    -0.014 C 
HETATM    5  C5  UNL     1     -34.107  16.259  -2.289  1.00 20.00    -0.000 C 
ENDROOT
BRANCH   5   6
HETATM    6  C9  UNL     1     -35.068  15.430  -3.122  1.00 20.00     0.058 C 
HETATM    7  C7  UNL     1     -35.633  16.211  -4.297  1.00 20.00     0.022 C 
HETATM    8 BR10 UNL     1     -34.126  13.858  -3.804  1.00 20.00    -0.091 Br
ENDBRANCH   5   6
BRANCH   4   9
HETATM    9  C8  UNL     1     -34.246  18.417   0.793  1.00 20.00     0.000 C 
HETATM   10  C6  UNL     1     -35.337  17.654   1.477  1.00 20.00     0.005 C 
ENDBRANCH   4   9
TORSDOF 2
ENDMDL
MODEL 6
REMARK VINA RESULT:      -4.2     11.501     12.428
REMARK  2 active torsions:
REMARK  status: ('A' for Active; 'I' for Inactive)
REMARK    1  A    between atoms: C4_4  and  C8_8 
REMARK    2  A    between atoms: C5_5  and  C9_9 
ROOT
HETATM    1  C1  UNL     1     -34.829   5.016   3.737  1.00 20.00     0.005 C 
HETATM    2  C2  UNL     1     -33.978   5.637   2.624  1.00 20.00     0.006 C 
HETATM    3  C3  UNL     1     -33.413   6.710   4.698  1.00 20.00     0.010 C 
HETATM    4  C4  UNL     1     -34.728   5.969   4.931  1.00 20.00    -0.014 C 
HETATM    5  C5  UNL     1     -33.436   6.951   3.192  1.00 20.00    -0.000 C 
ENDROOT
BRANCH   5   6
HETATM    6  C9  UNL     1     -32.080   7.335   2.626  1.00 20.00     0.058 C 
HETATM    7  C7  UNL     1     -32.170   8.501   1.656  1.00 20.00     0.022 C 
HETATM    8 BR10 UNL     1     -30.894   7.832   4.100  1.00 20.00    -0.091 Br
ENDBRANCH   5   6
BRANCH   4   9
HETATM    9  C8  UNL     1     -34.784   5.258   6.273  1.00 20.00     0.000 C 
HETATM   10  C6  UNL     1     -34.815   3.771   6.117  1.00 20.00     0.005 C 
ENDBRANCH   4   9
TORSDOF 2
ENDMDL
MODEL 7
REMARK VINA RESULT:      -4.0      2.331      4.655
REMARK  2 active torsions:
REMARK  status: ('A' for Active; 'I' for Inactive)
REMARK    1  A    between atoms: C4_4  and  C8_8 
REMARK    2  A    between atoms: C5_5  and  C9_9 
ROOT
HETATM    1  C1  UNL     1     -35.473  14.402  -4.366  1.00 20.00     0.005 C 
HETATM    2  C2  UNL     1     -35.182  15.084  -3.025  1.00 20.00     0.006 C 
HETATM    3  C3  UNL     1     -33.621  15.915  -4.652  1.00 20.00     0.010 C 
HETATM    4  C4  UNL     1     -34.245  14.654  -5.246  1.00 20.00    -0.014 C 
HETATM    5  C5  UNL     1     -33.778  15.682  -3.152  1.00 20.00    -0.000 C 
ENDROOT
BRANCH   5   6
HETATM    6  C9  UNL     1     -33.586  16.941  -2.326  1.00 20.00     0.058 C 
HETATM    7  C7  UNL     1     -33.996  18.193  -3.083  1.00 20.00     0.022 C 
HETATM    8 BR10 UNL     1     -34.665  16.806  -0.701  1.00 20.00    -0.091 Br
ENDBRANCH   5   6
BRANCH   4   9
HETATM    9  C8  UNL     1     -34.582  14.793  -6.721  1.00 20.00     0.000 C 
HETATM   10  C6  UNL     1     -36.033  15.085  -6.939  1.00 20.00     0.005 C 
ENDBRANCH   4   9
TORSDOF 2
ENDMDL
MODEL 8
REMARK VINA RESULT:      -3.9     11.429     12.423
REMARK  2 active torsions:
REMARK  status: ('A' for Active; 'I' for Inactive)
REMARK    1  A    between atoms: C4_4  and  C8_8 
REMARK    2  A    between atoms: C5_5  and  C9_9 
ROOT
HETATM    1  C1  UNL     1     -33.396   6.306   1.962  1.00 20.00     0.005 C 
HETATM    2  C2  UNL     1     -34.315   5.469   2.858  1.00 20.00     0.006 C 
HETATM    3  C3  UNL     1     -32.909   6.818   4.264  1.00 20.00     0.010 C 
HETATM    4  C4  UNL     1     -32.283   6.835   2.871  1.00 20.00    -0.014 C 
HETATM    5  C5  UNL     1     -33.690   5.507   4.255  1.00 20.00    -0.000 C 
ENDROOT
BRANCH   5   6
HETATM    6  C9  UNL     1     -34.713   5.412   5.373  1.00 20.00     0.058 C 
HETATM    7  C7  UNL     1     -34.860   3.995   5.901  1.00 20.00     0.022 C 
HETATM    8 BR10 UNL     1     -34.159   6.577   6.842  1.00 20.00    -0.091 Br
ENDBRANCH   5   6
BRANCH   4   9
HETATM    9  C8  UNL     1     -31.776   8.207   2.461  1.00 20.00     0.000 C 
HETATM   10  C6  UNL     1     -31.878   8.424   0.984  1.00 20.00     0.005 C 
ENDBRANCH   4   9
TORSDOF 2
ENDMDL
MODEL 9
REMARK VINA RESULT:      -3.9      2.660      4.718
REMARK  2 active torsions:
REMARK  status: ('A' for Active; 'I' for Inactive)
REMARK    1  A    between atoms: C4_4  and  C8_8 
REMARK    2  A    between atoms: C5_5  and  C9_9 
ROOT
HETATM    1  C1  UNL     1     -35.510  16.245  -3.394  1.00 20.00     0.005 C 
HETATM    2  C2  UNL     1     -36.000  17.037  -2.177  1.00 20.00     0.006 C 
HETATM    3  C3  UNL     1     -33.664  16.561  -1.881  1.00 20.00     0.010 C 
HETATM    4  C4  UNL     1     -34.162  15.640  -2.992  1.00 20.00    -0.014 C 
HETATM    5  C5  UNL     1     -34.939  16.840  -1.091  1.00 20.00    -0.000 C 
ENDROOT
BRANCH   5   6
HETATM    6  C9  UNL     1     -34.814  18.027  -0.152  1.00 20.00     0.058 C 
HETATM    7  C7  UNL     1     -35.195  17.674   1.275  1.00 20.00     0.022 C 
HETATM    8 BR10 UNL     1     -32.964  18.661  -0.172  1.00 20.00    -0.091 Br
ENDBRANCH   5   6
BRANCH   4   9
HETATM    9  C8  UNL     1     -33.188  15.522  -4.152  1.00 20.00     0.000 C 
HETATM   10  C6  UNL     1     -33.290  16.683  -5.090  1.00 20.00     0.005 C 
ENDBRANCH   4   9
TORSDOF 2
ENDMDL
