MODEL 1
REMARK VINA RESULT:      -4.2      0.000      0.000
REMARK  2 active torsions:
REMARK  status: ('A' for Active; 'I' for Inactive)
REMARK    1  A    between atoms: C4_4  and  C9_9 
REMARK    2  A    between atoms: C5_5  and  C8_8 
ROOT
HETATM    1  C1  UNL     1     -34.676  13.762  -5.349  1.00 20.00     0.032 C 
HETATM    2  C2  UNL     1     -33.537  15.892  -4.663  1.00 20.00     0.038 C 
HETATM    3  C3  UNL     1     -35.523  13.892  -4.089  1.00 20.00     0.168 C 
HETATM    4  C4  UNL     1     -34.155  15.120  -5.838  1.00 20.00     0.008 C 
HETATM    5  C5  UNL     1     -34.456  15.912  -3.439  1.00 20.00     0.121 C 
HETATM    6  O10 UNL     1     -34.806  14.576  -3.063  1.00 20.00    -0.386 OA
ENDROOT
BRANCH   4   7
HETATM    7  C9  UNL     1     -35.254  15.929  -6.533  1.00 20.00     0.082 C 
HETATM    8  C7  UNL     1     -34.667  17.068  -7.349  1.00 20.00     0.027 C 
HETATM    9 CL11 UNL     1     -36.199  14.850  -7.593  1.00 20.00    -0.125 Cl
ENDBRANCH   4   7
BRANCH   5  10
HETATM   10  C8  UNL     1     -33.765  16.562  -2.248  1.00 20.00     0.027 C 
HETATM   11  C6  UNL     1     -34.622  16.532  -1.022  1.00 20.00     0.007 C 
ENDBRANCH   5  10
TORSDOF 2
ENDMDL
MODEL 2
REMARK VINA RESULT:      -4.2      1.645      2.814
REMARK  2 active torsions:
REMARK  status: ('A' for Active; 'I' for Inactive)
REMARK    1  A    between atoms: C4_4  and  C9_9 
REMARK    2  A    between atoms: C5_5  and  C8_8 
ROOT
HETATM    1  C1  UNL     1     -34.917  17.129  -5.116  1.00 20.00     0.032 C 
HETATM    2  C2  UNL     1     -35.569  15.848  -3.057  1.00 20.00     0.038 C 
HETATM    3  C3  UNL     1     -33.715  17.641  -4.331  1.00 20.00     0.168 C 
HETATM    4  C4  UNL     1     -35.423  15.782  -4.584  1.00 20.00     0.008 C 
HETATM    5  C5  UNL     1     -34.321  16.425  -2.383  1.00 20.00     0.121 C 
HETATM    6  O10 UNL     1     -34.009  17.707  -2.936  1.00 20.00    -0.386 OA
ENDROOT
BRANCH   4   7
HETATM    7  C9  UNL     1     -34.515  14.627  -5.017  1.00 20.00     0.082 C 
HETATM    8  C7  UNL     1     -34.974  13.311  -4.416  1.00 20.00     0.027 C 
HETATM    9 CL11 UNL     1     -34.517  14.512  -6.797  1.00 20.00    -0.125 Cl
ENDBRANCH   4   7
BRANCH   5  10
HETATM   10  C8  UNL     1     -34.545  16.608  -0.888  1.00 20.00     0.027 C 
HETATM   11  C6  UNL     1     -33.810  17.798  -0.357  1.00 20.00     0.007 C 
ENDBRANCH   5  10
TORSDOF 2
ENDMDL
MODEL 3
REMARK VINA RESULT:      -4.2      2.049      3.002
REMARK  2 active torsions:
REMARK  status: ('A' for Active; 'I' for Inactive)
REMARK    1  A    between atoms: C4_4  and  C9_9 
REMARK    2  A    between atoms: C5_5  and  C8_8 
ROOT
HETATM    1  C1  UNL     1     -35.947  16.542  -4.285  1.00 20.00     0.032 C 
HETATM    2  C2  UNL     1     -34.784  15.783  -2.193  1.00 20.00     0.038 C 
HETATM    3  C3  UNL     1     -35.162  17.843  -4.166  1.00 20.00     0.168 C 
HETATM    4  C4  UNL     1     -35.230  15.370  -3.603  1.00 20.00     0.008 C 
HETATM    5  C5  UNL     1     -34.051  17.128  -2.192  1.00 20.00     0.121 C 
HETATM    6  O10 UNL     1     -34.866  18.134  -2.801  1.00 20.00    -0.386 OA
ENDROOT
BRANCH   4   7
HETATM    7  C9  UNL     1     -34.056  14.860  -4.442  1.00 20.00     0.082 C 
HETATM    8  C7  UNL     1     -33.376  13.676  -3.779  1.00 20.00     0.027 C 
HETATM    9 CL11 UNL     1     -34.647  14.389  -6.058  1.00 20.00    -0.125 Cl
ENDBRANCH   4   7
BRANCH   5  10
HETATM   10  C8  UNL     1     -33.743  17.580  -0.770  1.00 20.00     0.027 C 
HETATM   11  C6  UNL     1     -34.864  17.266   0.169  1.00 20.00     0.007 C 
ENDBRANCH   5  10
TORSDOF 2
ENDMDL
MODEL 4
REMARK VINA RESULT:      -4.0      2.688      4.061
REMARK  2 active torsions:
REMARK  status: ('A' for Active; 'I' for Inactive)
REMARK    1  A    between atoms: C4_4  and  C9_9 
REMARK    2  A    between atoms: C5_5  and  C8_8 
ROOT
HETATM    1  C1  UNL     1     -34.689  13.555  -5.114  1.00 20.00     0.032 C 
HETATM    2  C2  UNL     1     -36.525  14.666  -3.810  1.00 20.00     0.038 C 
HETATM    3  C3  UNL     1     -35.130  14.390  -6.311  1.00 20.00     0.168 C 
HETATM    4  C4  UNL     1     -35.057  14.218  -3.780  1.00 20.00     0.008 C 
HETATM    5  C5  UNL     1     -36.862  15.451  -5.081  1.00 20.00     0.121 C 
HETATM    6  O10 UNL     1     -36.524  14.683  -6.240  1.00 20.00    -0.386 OA
ENDROOT
BRANCH   4   7
HETATM    7  C9  UNL     1     -34.116  15.380  -3.449  1.00 20.00     0.082 C 
HETATM    8  C7  UNL     1     -34.416  15.958  -2.077  1.00 20.00     0.027 C 
HETATM    9 CL11 UNL     1     -32.428  14.807  -3.508  1.00 20.00    -0.125 Cl
ENDBRANCH   4   7
BRANCH   5  10
HETATM   10  C8  UNL     1     -38.352  15.763  -5.150  1.00 20.00     0.027 C 
HETATM   11  C6  UNL     1     -39.173  14.706  -4.482  1.00 20.00     0.007 C 
ENDBRANCH   5  10
TORSDOF 2
ENDMDL
MODEL 5
REMARK VINA RESULT:      -4.0      1.381      1.789
REMARK  2 active torsions:
REMARK  status: ('A' for Active; 'I' for Inactive)
REMARK    1  A    between atoms: C4_4  and  C9_9 
REMARK    2  A    between atoms: C5_5  and  C8_8 
ROOT
HETATM    1  C1  UNL     1     -36.205  14.327  -4.445  1.00 20.00     0.032 C 
HETATM    2  C2  UNL     1     -34.201  15.139  -3.169  1.00 20.00     0.038 C 
HETATM    3  C3  UNL     1     -37.012  15.398  -3.722  1.00 20.00     0.168 C 
HETATM    4  C4  UNL     1     -34.718  14.692  -4.544  1.00 20.00     0.008 C 
HETATM    5  C5  UNL     1     -35.119  16.177  -2.518  1.00 20.00     0.121 C 
HETATM    6  O10 UNL     1     -36.456  15.672  -2.437  1.00 20.00    -0.386 OA
ENDROOT
BRANCH   4   7
HETATM    7  C9  UNL     1     -34.467  15.755  -5.617  1.00 20.00     0.082 C 
HETATM    8  C7  UNL     1     -33.222  16.567  -5.308  1.00 20.00     0.027 C 
HETATM    9 CL11 UNL     1     -34.292  14.960  -7.204  1.00 20.00    -0.125 Cl
ENDBRANCH   4   7
BRANCH   5  10
HETATM   10  C8  UNL     1     -34.660  16.500  -1.102  1.00 20.00     0.027 C 
HETATM   11  C6  UNL     1     -33.606  17.561  -1.087  1.00 20.00     0.007 C 
ENDBRANCH   5  10
TORSDOF 2
ENDMDL
MODEL 6
REMARK VINA RESULT:      -4.0      2.587      4.134
REMARK  2 active torsions:
REMARK  status: ('A' for Active; 'I' for Inactive)
REMARK    1  A    between atoms: C4_4  and  C9_9 
REMARK    2  A    between atoms: C5_5  and  C8_8 
ROOT
HETATM    1  C1  UNL     1     -35.112  14.803  -3.038  1.00 20.00     0.032 C 
HETATM    2  C2  UNL     1     -35.163  16.269  -5.076  1.00 20.00     0.038 C 
HETATM    3  C3  UNL     1     -34.111  13.926  -3.780  1.00 20.00     0.168 C 
HETATM    4  C4  UNL     1     -35.096  16.252  -3.542  1.00 20.00     0.008 C 
HETATM    5  C5  UNL     1     -34.148  15.312  -5.708  1.00 20.00     0.121 C 
HETATM    6  O10 UNL     1     -34.325  13.990  -5.189  1.00 20.00    -0.386 OA
ENDROOT
BRANCH   4   7
HETATM    7  C9  UNL     1     -33.877  17.018  -3.020  1.00 20.00     0.082 C 
HETATM    8  C7  UNL     1     -33.864  18.447  -3.532  1.00 20.00     0.027 C 
HETATM    9 CL11 UNL     1     -33.900  17.016  -1.236  1.00 20.00    -0.125 Cl
ENDBRANCH   4   7
BRANCH   5  10
HETATM   10  C8  UNL     1     -34.329  15.245  -7.219  1.00 20.00     0.027 C 
HETATM   11  C6  UNL     1     -35.516  14.418  -7.600  1.00 20.00     0.007 C 
ENDBRANCH   5  10
TORSDOF 2
ENDMDL
MODEL 7
REMARK VINA RESULT:      -3.9      2.747      4.471
REMARK  2 active torsions:
REMARK  status: ('A' for Active; 'I' for Inactive)
REMARK    1  A    between atoms: C4_4  and  C9_9 
REMARK    2  A    between atoms: C5_5  and  C8_8 
ROOT
HETATM    1  C1  UNL     1     -33.171  15.340  -3.452  1.00 20.00     0.032 C 
HETATM    2  C2  UNL     1     -35.574  14.863  -4.003  1.00 20.00     0.038 C 
HETATM    3  C3  UNL     1     -33.078  16.055  -4.795  1.00 20.00     0.168 C 
HETATM    4  C4  UNL     1     -34.604  15.322  -2.905  1.00 20.00     0.008 C 
HETATM    5  C5  UNL     1     -35.352  15.615  -5.318  1.00 20.00     0.121 C 
HETATM    6  O10 UNL     1     -33.989  15.490  -5.736  1.00 20.00    -0.386 OA
ENDROOT
BRANCH   4   7
HETATM    7  C9  UNL     1     -35.005  16.682  -2.327  1.00 20.00     0.082 C 
HETATM    8  C7  UNL     1     -36.478  16.968  -2.563  1.00 20.00     0.027 C 
HETATM    9 CL11 UNL     1     -34.659  16.703  -0.577  1.00 20.00    -0.125 Cl
ENDBRANCH   4   7
BRANCH   5  10
HETATM   10  C8  UNL     1     -36.229  15.046  -6.426  1.00 20.00     0.027 C 
HETATM   11  C6  UNL     1     -35.415  14.506  -7.558  1.00 20.00     0.007 C 
ENDBRANCH   5  10
TORSDOF 2
ENDMDL
MODEL 8
REMARK VINA RESULT:      -3.8      1.598      2.604
REMARK  2 active torsions:
REMARK  status: ('A' for Active; 'I' for Inactive)
REMARK    1  A    between atoms: C4_4  and  C9_9 
REMARK    2  A    between atoms: C5_5  and  C8_8 
ROOT
HETATM    1  C1  UNL     1     -34.349  16.702  -5.107  1.00 20.00     0.032 C 
HETATM    2  C2  UNL     1     -35.803  16.805  -3.062  1.00 20.00     0.038 C 
HETATM    3  C3  UNL     1     -33.291  16.036  -4.236  1.00 20.00     0.168 C 
HETATM    4  C4  UNL     1     -35.767  16.484  -4.564  1.00 20.00     0.008 C 
HETATM    5  C5  UNL     1     -34.664  16.122  -2.300  1.00 20.00     0.121 C 
HETATM    6  O10 UNL     1     -33.403  16.469  -2.881  1.00 20.00    -0.386 OA
ENDROOT
BRANCH   4   7
HETATM    7  C9  UNL     1     -36.270  15.067  -4.852  1.00 20.00     0.082 C 
HETATM    8  C7  UNL     1     -37.598  14.803  -4.165  1.00 20.00     0.027 C 
HETATM    9 CL11 UNL     1     -36.449  14.852  -6.614  1.00 20.00    -0.125 Cl
ENDBRANCH   4   7
BRANCH   5  10
HETATM   10  C8  UNL     1     -34.640  16.566  -0.843  1.00 20.00     0.027 C 
HETATM   11  C6  UNL     1     -33.713  17.721  -0.629  1.00 20.00     0.007 C 
ENDBRANCH   5  10
TORSDOF 2
ENDMDL
MODEL 9
REMARK VINA RESULT:      -3.8      2.191      3.498
REMARK  2 active torsions:
REMARK  status: ('A' for Active; 'I' for Inactive)
REMARK    1  A    between atoms: C4_4  and  C9_9 
REMARK    2  A    between atoms: C5_5  and  C8_8 
ROOT
HETATM    1  C1  UNL     1     -33.774  15.827  -2.931  1.00 20.00     0.032 C 
HETATM    2  C2  UNL     1     -33.234  16.740  -5.207  1.00 20.00     0.038 C 
HETATM    3  C3  UNL     1     -34.648  17.059  -2.722  1.00 20.00     0.168 C 
HETATM    4  C4  UNL     1     -33.612  15.479  -4.416  1.00 20.00     0.008 C 
HETATM    5  C5  UNL     1     -34.149  17.923  -4.877  1.00 20.00     0.121 C 
HETATM    6  O10 UNL     1     -34.149  18.168  -3.467  1.00 20.00    -0.386 OA
ENDROOT
BRANCH   4   7
HETATM    7  C9  UNL     1     -34.870  14.812  -4.980  1.00 20.00     0.082 C 
HETATM    8  C7  UNL     1     -34.759  14.607  -6.480  1.00 20.00     0.027 C 
HETATM    9 CL11 UNL     1     -35.115  13.240  -4.172  1.00 20.00    -0.125 Cl
ENDBRANCH   4   7
BRANCH   5  10
HETATM   10  C8  UNL     1     -33.668  19.192  -5.568  1.00 20.00     0.027 C 
HETATM   11  C6  UNL     1     -33.784  19.094  -7.056  1.00 20.00     0.007 C 
ENDBRANCH   5  10
TORSDOF 2
ENDMDL
