MODEL 1
REMARK VINA RESULT:      -4.8      0.000      0.000
REMARK  1 active torsions:
REMARK  status: ('A' for Active; 'I' for Inactive)
REMARK    1  A    between atoms: C6_6  and  C10_10 
ROOT
HETATM    1  C1  UNL     1     -33.293  16.782  -4.888  1.00 20.00     0.001 C 
HETATM    2  C2  UNL     1     -33.961  17.626  -3.804  1.00 20.00     0.005 C 
HETATM    3  C3  UNL     1     -34.675  15.903  -2.009  1.00 20.00     0.006 C 
HETATM    4  C4  UNL     1     -34.054  15.526  -5.298  1.00 20.00     0.008 C 
HETATM    5  C5  UNL     1     -35.271  15.028  -3.113  1.00 20.00     0.009 C 
HETATM    6  C6  UNL     1     -33.745  17.063  -2.396  1.00 20.00    -0.005 C 
HETATM    7  C7  UNL     1     -34.335  14.467  -4.207  1.00 20.00    -0.048 C 
HETATM    8  C8  UNL     1     -35.086  13.302  -4.901  1.00 20.00     0.015 C 
HETATM    9  C9  UNL     1     -33.035  13.889  -3.625  1.00 20.00     0.015 C 
ENDROOT
BRANCH   6  10
HETATM   10  C10 UNL     1     -33.877  18.184  -1.354  1.00 20.00     0.089 C 
HETATM   11 BR11 UNL     1     -34.858  17.517   0.176  1.00 20.00    -0.096 Br
ENDBRANCH   6  10
TORSDOF 1
ENDMDL
MODEL 2
REMARK VINA RESULT:      -4.7      1.525      2.768
REMARK  1 active torsions:
REMARK  status: ('A' for Active; 'I' for Inactive)
REMARK    1  A    between atoms: C6_6  and  C10_10 
ROOT
HETATM    1  C1  UNL     1     -34.681  13.599  -3.909  1.00 20.00     0.001 C 
HETATM    2  C2  UNL     1     -33.730  14.663  -3.363  1.00 20.00     0.005 C 
HETATM    3  C3  UNL     1     -34.339  16.799  -4.692  1.00 20.00     0.006 C 
HETATM    4  C4  UNL     1     -34.796  13.544  -5.428  1.00 20.00     0.008 C 
HETATM    5  C5  UNL     1     -34.301  15.984  -5.985  1.00 20.00     0.009 C 
HETATM    6  C6  UNL     1     -34.352  16.062  -3.344  1.00 20.00    -0.005 C 
HETATM    7  C7  UNL     1     -35.295  14.813  -6.157  1.00 20.00    -0.048 C 
HETATM    8  C8  UNL     1     -35.341  14.468  -7.668  1.00 20.00     0.015 C 
HETATM    9  C9  UNL     1     -36.723  15.191  -5.733  1.00 20.00     0.015 C 
ENDROOT
BRANCH   6  10
HETATM   10  C10 UNL     1     -33.658  16.933  -2.286  1.00 20.00     0.089 C 
HETATM   11 BR11 UNL     1     -34.676  16.866  -0.641  1.00 20.00    -0.096 Br
ENDBRANCH   6  10
TORSDOF 1
ENDMDL
MODEL 3
REMARK VINA RESULT:      -4.7      1.261      1.638
REMARK  1 active torsions:
REMARK  status: ('A' for Active; 'I' for Inactive)
REMARK    1  A    between atoms: C6_6  and  C10_10 
ROOT
HETATM    1  C1  UNL     1     -33.070  16.185  -4.581  1.00 20.00     0.001 C 
HETATM    2  C2  UNL     1     -33.820  16.852  -3.429  1.00 20.00     0.005 C 
HETATM    3  C3  UNL     1     -35.903  15.356  -3.077  1.00 20.00     0.006 C 
HETATM    4  C4  UNL     1     -33.931  15.785  -5.773  1.00 20.00     0.008 C 
HETATM    5  C5  UNL     1     -36.151  15.379  -4.586  1.00 20.00     0.009 C 
HETATM    6  C6  UNL     1     -34.552  15.846  -2.535  1.00 20.00    -0.005 C 
HETATM    7  C7  UNL     1     -35.081  14.781  -5.526  1.00 20.00    -0.048 C 
HETATM    8  C8  UNL     1     -35.759  14.537  -6.898  1.00 20.00     0.015 C 
HETATM    9  C9  UNL     1     -34.556  13.424  -5.029  1.00 20.00     0.015 C 
ENDROOT
BRANCH   6  10
HETATM   10  C10 UNL     1     -34.756  16.439  -1.132  1.00 20.00     0.089 C 
HETATM   11 BR11 UNL     1     -33.527  17.913  -0.879  1.00 20.00    -0.096 Br
ENDBRANCH   6  10
TORSDOF 1
ENDMDL
MODEL 4
REMARK VINA RESULT:      -4.4      2.939      4.644
REMARK  1 active torsions:
REMARK  status: ('A' for Active; 'I' for Inactive)
REMARK    1  A    between atoms: C6_6  and  C10_10 
ROOT
HETATM    1  C1  UNL     1     -35.163  13.604  -4.212  1.00 20.00     0.001 C 
HETATM    2  C2  UNL     1     -35.713  14.200  -5.507  1.00 20.00     0.005 C 
HETATM    3  C3  UNL     1     -34.149  16.204  -5.998  1.00 20.00     0.006 C 
HETATM    4  C4  UNL     1     -34.848  14.611  -3.113  1.00 20.00     0.008 C 
HETATM    5  C5  UNL     1     -34.296  16.650  -4.543  1.00 20.00     0.009 C 
HETATM    6  C6  UNL     1     -34.619  14.796  -6.398  1.00 20.00    -0.005 C 
HETATM    7  C7  UNL     1     -33.803  15.709  -3.420  1.00 20.00    -0.048 C 
HETATM    8  C8  UNL     1     -33.663  16.562  -2.134  1.00 20.00     0.015 C 
HETATM    9  C9  UNL     1     -32.420  15.111  -3.724  1.00 20.00     0.015 C 
ENDROOT
BRANCH   6  10
HETATM   10  C10 UNL     1     -35.085  14.818  -7.861  1.00 20.00     0.089 C 
HETATM   11 BR11 UNL     1     -36.989  15.160  -7.918  1.00 20.00    -0.096 Br
ENDBRANCH   6  10
TORSDOF 1
ENDMDL
MODEL 5
REMARK VINA RESULT:      -4.4      2.517      4.458
REMARK  1 active torsions:
REMARK  status: ('A' for Active; 'I' for Inactive)
REMARK    1  A    between atoms: C6_6  and  C10_10 
ROOT
HETATM    1  C1  UNL     1     -36.577  18.032  -2.542  1.00 20.00     0.001 C 
HETATM    2  C2  UNL     1     -36.383  16.970  -3.623  1.00 20.00     0.005 C 
HETATM    3  C3  UNL     1     -34.514  15.444  -2.686  1.00 20.00     0.006 C 
HETATM    4  C4  UNL     1     -35.294  18.647  -1.995  1.00 20.00     0.008 C 
HETATM    5  C5  UNL     1     -33.696  16.689  -2.341  1.00 20.00     0.009 C 
HETATM    6  C6  UNL     1     -35.998  15.603  -3.050  1.00 20.00    -0.005 C 
HETATM    7  C7  UNL     1     -34.271  17.701  -1.324  1.00 20.00    -0.048 C 
HETATM    8  C8  UNL     1     -33.095  18.588  -0.843  1.00 20.00     0.015 C 
HETATM    9  C9  UNL     1     -34.861  17.012  -0.083  1.00 20.00     0.015 C 
ENDROOT
BRANCH   6  10
HETATM   10  C10 UNL     1     -36.399  14.490  -4.029  1.00 20.00     0.089 C 
HETATM   11 BR11 UNL     1     -34.848  13.401  -4.424  1.00 20.00    -0.096 Br
ENDBRANCH   6  10
TORSDOF 1
ENDMDL
MODEL 6
REMARK VINA RESULT:      -4.4      2.800      4.310
REMARK  1 active torsions:
REMARK  status: ('A' for Active; 'I' for Inactive)
REMARK    1  A    between atoms: C6_6  and  C10_10 
ROOT
HETATM    1  C1  UNL     1     -33.717  17.816  -4.512  1.00 20.00     0.001 C 
HETATM    2  C2  UNL     1     -33.386  16.591  -5.363  1.00 20.00     0.005 C 
HETATM    3  C3  UNL     1     -34.911  14.727  -4.412  1.00 20.00     0.006 C 
HETATM    4  C4  UNL     1     -33.773  17.570  -3.009  1.00 20.00     0.008 C 
HETATM    5  C5  UNL     1     -34.477  15.119  -2.999  1.00 20.00     0.009 C 
HETATM    6  C6  UNL     1     -34.594  15.674  -5.580  1.00 20.00    -0.005 C 
HETATM    7  C7  UNL     1     -34.801  16.540  -2.486  1.00 20.00    -0.048 C 
HETATM    8  C8  UNL     1     -34.658  16.515  -0.943  1.00 20.00     0.015 C 
HETATM    9  C9  UNL     1     -36.244  16.962  -2.804  1.00 20.00     0.015 C 
ENDROOT
BRANCH   6  10
HETATM   10  C10 UNL     1     -34.406  14.849  -6.861  1.00 20.00     0.089 C 
HETATM   11 BR11 UNL     1     -36.068  14.826  -7.853  1.00 20.00    -0.096 Br
ENDBRANCH   6  10
TORSDOF 1
ENDMDL
MODEL 7
REMARK VINA RESULT:      -4.3      2.982      4.658
REMARK  1 active torsions:
REMARK  status: ('A' for Active; 'I' for Inactive)
REMARK    1  A    between atoms: C6_6  and  C10_10 
ROOT
HETATM    1  C1  UNL     1     -33.830  13.583  -4.349  1.00 20.00     0.001 C 
HETATM    2  C2  UNL     1     -34.896  13.480  -5.438  1.00 20.00     0.005 C 
HETATM    3  C3  UNL     1     -35.819  15.889  -5.652  1.00 20.00     0.006 C 
HETATM    4  C4  UNL     1     -34.245  14.354  -3.101  1.00 20.00     0.008 C 
HETATM    5  C5  UNL     1     -35.939  15.959  -4.129  1.00 20.00     0.009 C 
HETATM    6  C6  UNL     1     -35.004  14.751  -6.285  1.00 20.00    -0.005 C 
HETATM    7  C7  UNL     1     -34.659  15.834  -3.273  1.00 20.00    -0.048 C 
HETATM    8  C8  UNL     1     -34.998  16.368  -1.858  1.00 20.00     0.015 C 
HETATM    9  C9  UNL     1     -33.504  16.689  -3.820  1.00 20.00     0.015 C 
ENDROOT
BRANCH   6  10
HETATM   10  C10 UNL     1     -35.593  14.416  -7.664  1.00 20.00     0.089 C 
HETATM   11 BR11 UNL     1     -37.363  15.188  -7.804  1.00 20.00    -0.096 Br
ENDBRANCH   6  10
TORSDOF 1
ENDMDL
MODEL 8
REMARK VINA RESULT:      -4.2      2.280      4.279
REMARK  1 active torsions:
REMARK  status: ('A' for Active; 'I' for Inactive)
REMARK    1  A    between atoms: C6_6  and  C10_10 
ROOT
HETATM    1  C1  UNL     1     -33.757  18.527  -3.513  1.00 20.00     0.001 C 
HETATM    2  C2  UNL     1     -33.691  17.135  -4.140  1.00 20.00     0.005 C 
HETATM    3  C3  UNL     1     -35.230  15.691  -2.641  1.00 20.00     0.006 C 
HETATM    4  C4  UNL     1     -33.601  18.568  -1.998  1.00 20.00     0.008 C 
HETATM    5  C5  UNL     1     -34.541  16.272  -1.406  1.00 20.00     0.009 C 
HETATM    6  C6  UNL     1     -35.005  16.361  -4.006  1.00 20.00    -0.005 C 
HETATM    7  C7  UNL     1     -34.634  17.792  -1.147  1.00 20.00    -0.048 C 
HETATM    8  C8  UNL     1     -34.254  18.029   0.337  1.00 20.00     0.015 C 
HETATM    9  C9  UNL     1     -36.058  18.334  -1.345  1.00 20.00     0.015 C 
ENDROOT
BRANCH   6  10
HETATM   10  C10 UNL     1     -35.106  15.299  -5.111  1.00 20.00     0.089 C 
HETATM   11 BR11 UNL     1     -34.922  13.540  -4.322  1.00 20.00    -0.096 Br
ENDBRANCH   6  10
TORSDOF 1
ENDMDL
MODEL 9
REMARK VINA RESULT:      -4.1      1.164      1.823
REMARK  1 active torsions:
REMARK  status: ('A' for Active; 'I' for Inactive)
REMARK    1  A    between atoms: C6_6  and  C10_10 
ROOT
HETATM    1  C1  UNL     1     -36.559  16.581  -4.026  1.00 20.00     0.001 C 
HETATM    2  C2  UNL     1     -35.965  16.916  -2.659  1.00 20.00     0.005 C 
HETATM    3  C3  UNL     1     -33.540  16.019  -2.782  1.00 20.00     0.006 C 
HETATM    4  C4  UNL     1     -36.295  15.164  -4.521  1.00 20.00     0.008 C 
HETATM    5  C5  UNL     1     -34.075  14.705  -3.352  1.00 20.00     0.009 C 
HETATM    6  C6  UNL     1     -34.470  17.241  -2.724  1.00 20.00    -0.005 C 
HETATM    7  C7  UNL     1     -34.823  14.728  -4.705  1.00 20.00    -0.048 C 
HETATM    8  C8  UNL     1     -34.853  13.272  -5.237  1.00 20.00     0.015 C 
HETATM    9  C9  UNL     1     -34.101  15.584  -5.757  1.00 20.00     0.015 C 
ENDROOT
BRANCH   6  10
HETATM   10  C10 UNL     1     -34.070  18.122  -1.531  1.00 20.00     0.089 C 
HETATM   11 BR11 UNL     1     -34.872  17.412   0.081  1.00 20.00    -0.096 Br
ENDBRANCH   6  10
TORSDOF 1
ENDMDL
