MODEL 1
REMARK VINA RESULT:      -4.3      0.000      0.000
REMARK  1 active torsions:
REMARK  status: ('A' for Active; 'I' for Inactive)
REMARK    1  A    between atoms: C4_4  and  C9_9 
ROOT
HETATM    1  C1  UNL     1     -33.549  17.150  -4.613  1.00 20.00     0.032 C 
HETATM    2  C2  UNL     1     -33.958  15.119  -3.186  1.00 20.00     0.043 C 
HETATM    3  C3  UNL     1     -34.828  16.795  -5.355  1.00 20.00     0.169 C 
HETATM    4  C4  UNL     1     -33.541  16.597  -3.187  1.00 20.00     0.008 C 
HETATM    5  C5  UNL     1     -35.150  14.758  -4.101  1.00 20.00     0.054 C 
HETATM    6  C6  UNL     1     -36.513  15.073  -3.471  1.00 20.00     0.045 C 
HETATM    7  C7  UNL     1     -35.111  13.244  -4.378  1.00 20.00     0.045 C 
HETATM    8  O10 UNL     1     -35.027  15.386  -5.384  1.00 20.00    -0.381 OA
ENDROOT
BRANCH   4   9
HETATM    9  C9  UNL     1     -34.362  17.462  -2.230  1.00 20.00     0.082 C 
HETATM   10  C8  UNL     1     -33.656  18.771  -1.920  1.00 20.00     0.027 C 
HETATM   11 CL11 UNL     1     -34.655  16.560  -0.719  1.00 20.00    -0.125 Cl
ENDBRANCH   4   9
TORSDOF 1
ENDMDL
MODEL 2
REMARK VINA RESULT:      -4.2      2.395      3.968
REMARK  1 active torsions:
REMARK  status: ('A' for Active; 'I' for Inactive)
REMARK    1  A    between atoms: C4_4  and  C9_9 
ROOT
HETATM    1  C1  UNL     1     -34.920  17.151  -5.951  1.00 20.00     0.032 C 
HETATM    2  C2  UNL     1     -35.244  15.675  -3.940  1.00 20.00     0.043 C 
HETATM    3  C3  UNL     1     -33.551  17.497  -5.384  1.00 20.00     0.169 C 
HETATM    4  C4  UNL     1     -35.415  15.789  -5.462  1.00 20.00     0.008 C 
HETATM    5  C5  UNL     1     -33.911  16.211  -3.373  1.00 20.00     0.054 C 
HETATM    6  C6  UNL     1     -32.750  15.216  -3.511  1.00 20.00     0.045 C 
HETATM    7  C7  UNL     1     -34.098  16.493  -1.872  1.00 20.00     0.045 C 
HETATM    8  O10 UNL     1     -33.569  17.473  -3.961  1.00 20.00    -0.381 OA
ENDROOT
BRANCH   4   9
HETATM    9  C9  UNL     1     -34.778  14.634  -6.235  1.00 20.00     0.082 C 
HETATM   10  C8  UNL     1     -35.450  14.429  -7.583  1.00 20.00     0.027 C 
HETATM   11 CL11 UNL     1     -34.894  13.139  -5.268  1.00 20.00    -0.125 Cl
ENDBRANCH   4   9
TORSDOF 1
ENDMDL
MODEL 3
REMARK VINA RESULT:      -4.0      2.484      3.932
REMARK  1 active torsions:
REMARK  status: ('A' for Active; 'I' for Inactive)
REMARK    1  A    between atoms: C4_4  and  C9_9 
ROOT
HETATM    1  C1  UNL     1     -35.677  17.341  -3.595  1.00 20.00     0.032 C 
HETATM    2  C2  UNL     1     -34.714  16.164  -1.591  1.00 20.00     0.043 C 
HETATM    3  C3  UNL     1     -35.381  18.649  -2.876  1.00 20.00     0.169 C 
HETATM    4  C4  UNL     1     -34.761  16.209  -3.125  1.00 20.00     0.008 C 
HETATM    5  C5  UNL     1     -34.601  17.533  -0.883  1.00 20.00     0.054 C 
HETATM    6  C6  UNL     1     -33.167  18.078  -0.845  1.00 20.00     0.045 C 
HETATM    7  C7  UNL     1     -35.068  17.367   0.574  1.00 20.00     0.045 C 
HETATM    8  O10 UNL     1     -35.493  18.492  -1.466  1.00 20.00    -0.381 OA
ENDROOT
BRANCH   4   9
HETATM    9  C9  UNL     1     -33.380  16.280  -3.776  1.00 20.00     0.082 C 
HETATM   10  C8  UNL     1     -33.479  16.598  -5.259  1.00 20.00     0.027 C 
HETATM   11 CL11 UNL     1     -32.537  14.724  -3.547  1.00 20.00    -0.125 Cl
ENDBRANCH   4   9
TORSDOF 1
ENDMDL
MODEL 4
REMARK VINA RESULT:      -4.0      1.885      3.911
REMARK  1 active torsions:
REMARK  status: ('A' for Active; 'I' for Inactive)
REMARK    1  A    between atoms: C4_4  and  C9_9 
ROOT
HETATM    1  C1  UNL     1     -36.219  15.698  -3.057  1.00 20.00     0.032 C 
HETATM    2  C2  UNL     1     -33.903  16.515  -2.511  1.00 20.00     0.043 C 
HETATM    3  C3  UNL     1     -36.326  16.872  -4.018  1.00 20.00     0.169 C 
HETATM    4  C4  UNL     1     -34.766  15.283  -2.819  1.00 20.00     0.008 C 
HETATM    5  C5  UNL     1     -34.170  17.758  -3.389  1.00 20.00     0.054 C 
HETATM    6  C6  UNL     1     -33.474  17.695  -4.755  1.00 20.00     0.045 C 
HETATM    7  C7  UNL     1     -33.630  18.998  -2.655  1.00 20.00     0.045 C 
HETATM    8  O10 UNL     1     -35.576  17.987  -3.547  1.00 20.00    -0.381 OA
ENDROOT
BRANCH   4   9
HETATM    9  C9  UNL     1     -34.219  14.426  -3.961  1.00 20.00     0.082 C 
HETATM   10  C8  UNL     1     -35.172  13.296  -4.314  1.00 20.00     0.027 C 
HETATM   11 CL11 UNL     1     -32.634  13.754  -3.491  1.00 20.00    -0.125 Cl
ENDBRANCH   4   9
TORSDOF 1
ENDMDL
MODEL 5
REMARK VINA RESULT:      -4.0      1.904      3.019
REMARK  1 active torsions:
REMARK  status: ('A' for Active; 'I' for Inactive)
REMARK    1  A    between atoms: C4_4  and  C9_9 
ROOT
HETATM    1  C1  UNL     1     -34.787  13.514  -5.244  1.00 20.00     0.032 C 
HETATM    2  C2  UNL     1     -36.558  14.697  -3.906  1.00 20.00     0.043 C 
HETATM    3  C3  UNL     1     -35.207  14.376  -6.425  1.00 20.00     0.169 C 
HETATM    4  C4  UNL     1     -35.114  14.177  -3.905  1.00 20.00     0.008 C 
HETATM    5  C5  UNL     1     -37.015  15.407  -5.200  1.00 20.00     0.054 C 
HETATM    6  C6  UNL     1     -36.558  16.870  -5.281  1.00 20.00     0.045 C 
HETATM    7  C7  UNL     1     -38.553  15.403  -5.242  1.00 20.00     0.045 C 
HETATM    8  O10 UNL     1     -36.597  14.681  -6.363  1.00 20.00    -0.381 OA
ENDROOT
BRANCH   4   9
HETATM    9  C9  UNL     1     -34.084  15.240  -3.523  1.00 20.00     0.082 C 
HETATM   10  C8  UNL     1     -32.677  14.666  -3.494  1.00 20.00     0.027 C 
HETATM   11 CL11 UNL     1     -34.494  15.915  -1.924  1.00 20.00    -0.125 Cl
ENDBRANCH   4   9
TORSDOF 1
ENDMDL
MODEL 6
REMARK VINA RESULT:      -4.0      1.886      2.625
REMARK  1 active torsions:
REMARK  status: ('A' for Active; 'I' for Inactive)
REMARK    1  A    between atoms: C4_4  and  C9_9 
ROOT
HETATM    1  C1  UNL     1     -36.375  16.506  -3.917  1.00 20.00     0.032 C 
HETATM    2  C2  UNL     1     -34.522  15.850  -5.487  1.00 20.00     0.043 C 
HETATM    3  C3  UNL     1     -37.060  15.202  -4.298  1.00 20.00     0.169 C 
HETATM    4  C4  UNL     1     -34.859  16.434  -4.108  1.00 20.00     0.008 C 
HETATM    5  C5  UNL     1     -35.369  14.634  -5.925  1.00 20.00     0.054 C 
HETATM    6  C6  UNL     1     -34.885  13.310  -5.320  1.00 20.00     0.045 C 
HETATM    7  C7  UNL     1     -35.275  14.501  -7.456  1.00 20.00     0.045 C 
HETATM    8  O10 UNL     1     -36.759  14.843  -5.643  1.00 20.00    -0.381 OA
ENDROOT
BRANCH   4   9
HETATM    9  C9  UNL     1     -34.168  15.709  -2.953  1.00 20.00     0.082 C 
HETATM   10  C8  UNL     1     -34.012  16.613  -1.741  1.00 20.00     0.027 C 
HETATM   11 CL11 UNL     1     -32.566  15.134  -3.488  1.00 20.00    -0.125 Cl
ENDBRANCH   4   9
TORSDOF 1
ENDMDL
MODEL 7
REMARK VINA RESULT:      -4.0      1.981      2.971
REMARK  1 active torsions:
REMARK  status: ('A' for Active; 'I' for Inactive)
REMARK    1  A    between atoms: C4_4  and  C9_9 
ROOT
HETATM    1  C1  UNL     1     -34.920  14.081  -3.524  1.00 20.00     0.032 C 
HETATM    2  C2  UNL     1     -36.021  15.717  -5.086  1.00 20.00     0.043 C 
HETATM    3  C3  UNL     1     -34.195  13.521  -4.738  1.00 20.00     0.169 C 
HETATM    4  C4  UNL     1     -35.333  15.540  -3.724  1.00 20.00     0.008 C 
HETATM    5  C5  UNL     1     -35.361  14.977  -6.271  1.00 20.00     0.054 C 
HETATM    6  C6  UNL     1     -34.157  15.727  -6.857  1.00 20.00     0.045 C 
HETATM    7  C7  UNL     1     -36.402  14.831  -7.395  1.00 20.00     0.045 C 
HETATM    8  O10 UNL     1     -34.997  13.639  -5.909  1.00 20.00    -0.381 OA
ENDROOT
BRANCH   4   9
HETATM    9  C9  UNL     1     -34.168  16.504  -3.501  1.00 20.00     0.082 C 
HETATM   10  C8  UNL     1     -33.822  16.625  -2.026  1.00 20.00     0.027 C 
HETATM   11 CL11 UNL     1     -34.592  18.108  -4.156  1.00 20.00    -0.125 Cl
ENDBRANCH   4   9
TORSDOF 1
ENDMDL
MODEL 8
REMARK VINA RESULT:      -3.9      2.649      4.133
REMARK  1 active torsions:
REMARK  status: ('A' for Active; 'I' for Inactive)
REMARK    1  A    between atoms: C4_4  and  C9_9 
ROOT
HETATM    1  C1  UNL     1     -34.549  13.808  -5.219  1.00 20.00     0.032 C 
HETATM    2  C2  UNL     1     -33.693  16.098  -4.624  1.00 20.00     0.043 C 
HETATM    3  C3  UNL     1     -35.560  13.975  -4.094  1.00 20.00     0.169 C 
HETATM    4  C4  UNL     1     -34.080  15.155  -5.772  1.00 20.00     0.008 C 
HETATM    5  C5  UNL     1     -34.647  16.103  -3.409  1.00 20.00     0.054 C 
HETATM    6  C6  UNL     1     -35.890  16.979  -3.621  1.00 20.00     0.045 C 
HETATM    7  C7  UNL     1     -33.888  16.667  -2.195  1.00 20.00     0.045 C 
HETATM    8  O10 UNL     1     -35.024  14.770  -3.041  1.00 20.00    -0.381 OA
ENDROOT
BRANCH   4   9
HETATM    9  C9  UNL     1     -35.093  15.761  -6.743  1.00 20.00     0.082 C 
HETATM   10  C8  UNL     1     -35.367  14.832  -7.914  1.00 20.00     0.027 C 
HETATM   11 CL11 UNL     1     -34.476  17.324  -7.345  1.00 20.00    -0.125 Cl
ENDBRANCH   4   9
TORSDOF 1
ENDMDL
MODEL 9
REMARK VINA RESULT:      -3.9      2.579      4.231
REMARK  1 active torsions:
REMARK  status: ('A' for Active; 'I' for Inactive)
REMARK    1  A    between atoms: C4_4  and  C9_9 
ROOT
HETATM    1  C1  UNL     1     -34.050  15.445  -2.916  1.00 20.00     0.032 C 
HETATM    2  C2  UNL     1     -33.303  16.757  -4.928  1.00 20.00     0.043 C 
HETATM    3  C3  UNL     1     -35.059  16.553  -2.659  1.00 20.00     0.169 C 
HETATM    4  C4  UNL     1     -33.652  15.362  -4.390  1.00 20.00     0.008 C 
HETATM    5  C5  UNL     1     -34.248  17.899  -4.491  1.00 20.00     0.054 C 
HETATM    6  C6  UNL     1     -35.534  17.972  -5.326  1.00 20.00     0.045 C 
HETATM    7  C7  UNL     1     -33.509  19.238  -4.669  1.00 20.00     0.045 C 
HETATM    8  O10 UNL     1     -34.555  17.812  -3.094  1.00 20.00    -0.381 OA
ENDROOT
BRANCH   4   9
HETATM    9  C9  UNL     1     -34.701  14.631  -5.228  1.00 20.00     0.082 C 
HETATM   10  C8  UNL     1     -34.735  13.146  -4.905  1.00 20.00     0.027 C 
HETATM   11 CL11 UNL     1     -34.343  14.864  -6.961  1.00 20.00    -0.125 Cl
ENDBRANCH   4   9
TORSDOF 1
ENDMDL
