MODEL 1
REMARK VINA RESULT:      -4.5      0.000      0.000
REMARK  1 active torsions:
REMARK  status: ('A' for Active; 'I' for Inactive)
REMARK    1  A    between atoms: C9_9  and  N10_10 
ROOT
HETATM    1  C1  UNL     1     -32.154   9.156   1.075  1.00 20.00     0.013 C 
HETATM    2  C2  UNL     1     -32.027   8.303   1.910  1.00 20.00    -0.087 C 
HETATM    3  C9  UNL     1     -31.867   7.262   2.929  1.00 20.00     0.364 C 
ENDROOT
BRANCH   3   4
HETATM    4  N10 UNL     1     -33.142   6.964   3.564  1.00 20.00     0.100 N 
HETATM    5  C3  UNL     1     -33.864   5.874   2.897  1.00 20.00     0.278 C 
HETATM    6  C5  UNL     1     -34.779   5.284   3.981  1.00 20.00     0.015 C 
HETATM    7  C6  UNL     1     -34.397   6.042   5.264  1.00 20.00     0.015 C 
HETATM    8  C7  UNL     1     -36.258   5.428   3.647  1.00 20.00     0.012 C 
HETATM    9  C4  UNL     1     -32.994   6.553   4.959  1.00 20.00     0.278 C 
HETATM   10  C8  UNL     1     -34.454   5.181   6.516  1.00 20.00     0.012 C 
ENDBRANCH   3   4
TORSDOF 1
ENDMDL
MODEL 2
REMARK VINA RESULT:      -4.3     10.959     11.607
REMARK  1 active torsions:
REMARK  status: ('A' for Active; 'I' for Inactive)
REMARK    1  A    between atoms: C9_9  and  N10_10 
ROOT
HETATM    1  C1  UNL     1     -35.083  17.433   0.684  1.00 20.00     0.013 C 
HETATM    2  C2  UNL     1     -34.621  17.097  -0.371  1.00 20.00    -0.087 C 
HETATM    3  C9  UNL     1     -34.054  16.689  -1.660  1.00 20.00     0.364 C 
ENDROOT
BRANCH   3   4
HETATM    4  N10 UNL     1     -34.889  15.680  -2.293  1.00 20.00     0.100 N 
HETATM    5  C3  UNL     1     -35.981  16.264  -3.081  1.00 20.00     0.278 C 
HETATM    6  C5  UNL     1     -36.326  15.196  -4.131  1.00 20.00     0.015 C 
HETATM    7  C6  UNL     1     -35.275  14.093  -3.920  1.00 20.00     0.015 C 
HETATM    8  C7  UNL     1     -37.749  14.669  -3.990  1.00 20.00     0.012 C 
HETATM    9  C4  UNL     1     -34.141  14.826  -3.214  1.00 20.00     0.278 C 
HETATM   10  C8  UNL     1     -34.832  13.423  -5.211  1.00 20.00     0.012 C 
ENDBRANCH   3   4
TORSDOF 1
ENDMDL
MODEL 3
REMARK VINA RESULT:      -4.2     11.117     11.858
REMARK  1 active torsions:
REMARK  status: ('A' for Active; 'I' for Inactive)
REMARK    1  A    between atoms: C9_9  and  N10_10 
ROOT
HETATM    1  C1  UNL     1     -34.752  17.020  -0.129  1.00 20.00     0.013 C 
HETATM    2  C2  UNL     1     -34.351  17.179  -1.249  1.00 20.00    -0.087 C 
HETATM    3  C9  UNL     1     -33.858  17.377  -2.615  1.00 20.00     0.364 C 
ENDROOT
BRANCH   3   4
HETATM    4  N10 UNL     1     -34.461  16.414  -3.523  1.00 20.00     0.100 N 
HETATM    5  C3  UNL     1     -34.047  15.035  -3.240  1.00 20.00     0.278 C 
HETATM    6  C5  UNL     1     -35.182  14.158  -3.793  1.00 20.00     0.015 C 
HETATM    7  C6  UNL     1     -36.252  15.161  -4.259  1.00 20.00     0.015 C 
HETATM    8  C7  UNL     1     -34.724  13.242  -4.920  1.00 20.00     0.012 C 
HETATM    9  C4  UNL     1     -35.922  16.416  -3.459  1.00 20.00     0.278 C 
HETATM   10  C8  UNL     1     -37.676  14.676  -4.035  1.00 20.00     0.012 C 
ENDBRANCH   3   4
TORSDOF 1
ENDMDL
MODEL 4
REMARK VINA RESULT:      -4.2     10.946     12.420
REMARK  1 active torsions:
REMARK  status: ('A' for Active; 'I' for Inactive)
REMARK    1  A    between atoms: C9_9  and  N10_10 
ROOT
HETATM    1  C1  UNL     1     -34.821  17.032  -0.085  1.00 20.00     0.013 C 
HETATM    2  C2  UNL     1     -34.367  17.263  -1.172  1.00 20.00    -0.087 C 
HETATM    3  C9  UNL     1     -33.812  17.549  -2.498  1.00 20.00     0.364 C 
ENDROOT
BRANCH   3   4
HETATM    4  N10 UNL     1     -33.814  16.352  -3.325  1.00 20.00     0.100 N 
HETATM    5  C3  UNL     1     -35.064  15.592  -3.215  1.00 20.00     0.278 C 
HETATM    6  C5  UNL     1     -35.167  14.805  -4.531  1.00 20.00     0.015 C 
HETATM    7  C6  UNL     1     -33.974  15.297  -5.369  1.00 20.00     0.015 C 
HETATM    8  C7  UNL     1     -35.138  13.296  -4.321  1.00 20.00     0.012 C 
HETATM    9  C4  UNL     1     -33.650  16.650  -4.747  1.00 20.00     0.278 C 
HETATM   10  C8  UNL     1     -34.276  15.388  -6.857  1.00 20.00     0.012 C 
ENDBRANCH   3   4
TORSDOF 1
ENDMDL
MODEL 5
REMARK VINA RESULT:      -4.1     11.128     12.475
REMARK  1 active torsions:
REMARK  status: ('A' for Active; 'I' for Inactive)
REMARK    1  A    between atoms: C9_9  and  N10_10 
ROOT
HETATM    1  C1  UNL     1     -34.817  16.987  -0.159  1.00 20.00     0.013 C 
HETATM    2  C2  UNL     1     -34.284  17.187  -1.215  1.00 20.00    -0.087 C 
HETATM    3  C9  UNL     1     -33.630  17.435  -2.503  1.00 20.00     0.364 C 
ENDROOT
BRANCH   3   4
HETATM    4  N10 UNL     1     -34.285  16.687  -3.565  1.00 20.00     0.100 N 
HETATM    5  C3  UNL     1     -33.587  16.801  -4.850  1.00 20.00     0.278 C 
HETATM    6  C5  UNL     1     -33.980  15.535  -5.628  1.00 20.00     0.015 C 
HETATM    7  C6  UNL     1     -34.809  14.710  -4.630  1.00 20.00     0.015 C 
HETATM    8  C7  UNL     1     -34.754  15.843  -6.904  1.00 20.00     0.012 C 
HETATM    9  C4  UNL     1     -34.366  15.255  -3.278  1.00 20.00     0.278 C 
HETATM   10  C8  UNL     1     -34.598  13.210  -4.760  1.00 20.00     0.012 C 
ENDBRANCH   3   4
TORSDOF 1
ENDMDL
MODEL 6
REMARK VINA RESULT:      -4.1     11.224     13.259
REMARK  1 active torsions:
REMARK  status: ('A' for Active; 'I' for Inactive)
REMARK    1  A    between atoms: C9_9  and  N10_10 
ROOT
HETATM    1  C1  UNL     1     -34.699  16.712  -1.105  1.00 20.00     0.013 C 
HETATM    2  C2  UNL     1     -34.498  15.953  -2.013  1.00 20.00    -0.087 C 
HETATM    3  C9  UNL     1     -34.251  15.023  -3.119  1.00 20.00     0.364 C 
ENDROOT
BRANCH   3   4
HETATM    4  N10 UNL     1     -34.744  15.573  -4.372  1.00 20.00     0.100 N 
HETATM    5  C3  UNL     1     -33.708  16.300  -5.116  1.00 20.00     0.278 C 
HETATM    6  C5  UNL     1     -34.160  16.242  -6.583  1.00 20.00     0.015 C 
HETATM    7  C6  UNL     1     -35.409  15.344  -6.568  1.00 20.00     0.015 C 
HETATM    8  C7  UNL     1     -34.449  17.619  -7.166  1.00 20.00     0.012 C 
HETATM    9  C4  UNL     1     -35.243  14.544  -5.282  1.00 20.00     0.278 C 
HETATM   10  C8  UNL     1     -35.537  14.462  -7.800  1.00 20.00     0.012 C 
ENDBRANCH   3   4
TORSDOF 1
ENDMDL
MODEL 7
REMARK VINA RESULT:      -4.0      9.154     11.361
REMARK  1 active torsions:
REMARK  status: ('A' for Active; 'I' for Inactive)
REMARK    1  A    between atoms: C9_9  and  N10_10 
ROOT
HETATM    1  C1  UNL     1     -41.178   1.896  -3.991  1.00 20.00     0.013 C 
HETATM    2  C2  UNL     1     -42.027   2.242  -3.217  1.00 20.00    -0.087 C 
HETATM    3  C9  UNL     1     -43.067   2.661  -2.273  1.00 20.00     0.364 C 
ENDROOT
BRANCH   3   4
HETATM    4  N10 UNL     1     -42.881   4.051  -1.888  1.00 20.00     0.100 N 
HETATM    5  C3  UNL     1     -41.503   4.345  -1.480  1.00 20.00     0.278 C 
HETATM    6  C5  UNL     1     -41.328   5.852  -1.729  1.00 20.00     0.015 C 
HETATM    7  C6  UNL     1     -42.642   6.286  -2.402  1.00 20.00     0.015 C 
HETATM    8  C7  UNL     1     -41.050   6.633  -0.452  1.00 20.00     0.012 C 
HETATM    9  C4  UNL     1     -43.186   4.982  -2.973  1.00 20.00     0.278 C 
HETATM   10  C8  UNL     1     -42.453   7.362  -3.460  1.00 20.00     0.012 C 
ENDBRANCH   3   4
TORSDOF 1
ENDMDL
MODEL 8
REMARK VINA RESULT:      -4.0     11.127     12.069
REMARK  1 active torsions:
REMARK  status: ('A' for Active; 'I' for Inactive)
REMARK    1  A    between atoms: C9_9  and  N10_10 
ROOT
HETATM    1  C1  UNL     1     -34.424  15.033  -7.061  1.00 20.00     0.013 C 
HETATM    2  C2  UNL     1     -34.604  14.344  -6.096  1.00 20.00    -0.087 C 
HETATM    3  C9  UNL     1     -34.822  13.498  -4.919  1.00 20.00     0.364 C 
ENDROOT
BRANCH   3   4
HETATM    4  N10 UNL     1     -35.238  14.300  -3.779  1.00 20.00     0.100 N 
HETATM    5  C3  UNL     1     -34.182  15.204  -3.309  1.00 20.00     0.278 C 
HETATM    6  C5  UNL     1     -34.925  16.351  -2.606  1.00 20.00     0.015 C 
HETATM    7  C6  UNL     1     -36.414  16.052  -2.851  1.00 20.00     0.015 C 
HETATM    8  C7  UNL     1     -34.593  16.447  -1.123  1.00 20.00     0.012 C 
HETATM    9  C4  UNL     1     -36.390  15.150  -4.078  1.00 20.00     0.278 C 
HETATM   10  C8  UNL     1     -37.258  17.301  -3.052  1.00 20.00     0.012 C 
ENDBRANCH   3   4
TORSDOF 1
ENDMDL
MODEL 9
REMARK VINA RESULT:      -4.0      0.627      2.015
REMARK  1 active torsions:
REMARK  status: ('A' for Active; 'I' for Inactive)
REMARK    1  A    between atoms: C9_9  and  N10_10 
ROOT
HETATM    1  C1  UNL     1     -32.120   8.568   1.365  1.00 20.00     0.013 C 
HETATM    2  C2  UNL     1     -31.919   8.034   2.421  1.00 20.00    -0.087 C 
HETATM    3  C9  UNL     1     -31.671   7.385   3.711  1.00 20.00     0.364 C 
ENDROOT
BRANCH   3   4
HETATM    4  N10 UNL     1     -32.668   6.358   3.970  1.00 20.00     0.100 N 
HETATM    5  C3  UNL     1     -33.162   6.386   5.352  1.00 20.00     0.278 C 
HETATM    6  C5  UNL     1     -34.558   5.748   5.287  1.00 20.00     0.015 C 
HETATM    7  C6  UNL     1     -34.804   5.510   3.787  1.00 20.00     0.015 C 
HETATM    8  C7  UNL     1     -34.659   4.463   6.097  1.00 20.00     0.012 C 
HETATM    9  C4  UNL     1     -33.850   6.492   3.119  1.00 20.00     0.278 C 
HETATM   10  C8  UNL     1     -36.252   5.717   3.370  1.00 20.00     0.012 C 
ENDBRANCH   3   4
TORSDOF 1
ENDMDL
