MODEL 1
REMARK VINA RESULT:      -5.0      0.000      0.000
REMARK  3 active torsions:
REMARK  status: ('A' for Active; 'I' for Inactive)
REMARK    1  A    between atoms: C1_1  and  C7_7 
REMARK    2  A    between atoms: C8_8  and  C11_11 
REMARK    3  A    between atoms: C11_11  and  C12_12 
ROOT
HETATM    1  C2  UNL     1     -36.522  15.816  -3.994  1.00 20.00     0.001 C 
HETATM    2  C3  UNL     1     -36.137  14.370  -4.294  1.00 20.00     0.012 C 
HETATM    3  C4  UNL     1     -33.578  14.511  -3.824  1.00 20.00     0.012 C 
HETATM    4  C5  UNL     1     -36.154  16.312  -2.599  1.00 20.00     0.005 C 
HETATM    5  C6  UNL     1     -33.675  15.848  -3.084  1.00 20.00     0.005 C 
HETATM    6  C7  UNL     1     -34.704  14.169  -4.800  1.00 20.00     0.055 C 
HETATM    7  C8  UNL     1     -34.797  15.869  -2.036  1.00 20.00    -0.014 C 
ENDROOT
BRANCH   6   8
HETATM    8  C1  UNL     1     -34.502  14.877  -6.111  1.00 20.00     0.127 C 
HETATM    9  C9  UNL     1     -35.335  14.404  -7.271  1.00 20.00     0.091 C 
HETATM   10  O13 UNL     1     -33.696  15.798  -6.229  1.00 20.00    -0.298 OA
ENDBRANCH   6   8
BRANCH   7  11
HETATM   11  C11 UNL     1     -34.417  16.782  -0.864  1.00 20.00     0.004 C 
BRANCH  11  12
HETATM   12  C12 UNL     1     -33.574  17.957  -1.339  1.00 20.00    -0.004 C 
HETATM   13  C10 UNL     1     -32.798  18.572  -0.185  1.00 20.00     0.005 C 
ENDBRANCH  11  12
ENDBRANCH   7  11
TORSDOF 3
ENDMDL
MODEL 2
REMARK VINA RESULT:      -4.9      1.318      1.814
REMARK  3 active torsions:
REMARK  status: ('A' for Active; 'I' for Inactive)
REMARK    1  A    between atoms: C1_1  and  C7_7 
REMARK    2  A    between atoms: C8_8  and  C11_11 
REMARK    3  A    between atoms: C11_11  and  C12_12 
ROOT
HETATM    1  C2  UNL     1     -35.423  14.532  -3.961  1.00 20.00     0.001 C 
HETATM    2  C3  UNL     1     -34.382  14.223  -5.034  1.00 20.00     0.012 C 
HETATM    3  C4  UNL     1     -33.430  16.620  -5.401  1.00 20.00     0.012 C 
HETATM    4  C5  UNL     1     -34.881  15.205  -2.703  1.00 20.00     0.005 C 
HETATM    5  C6  UNL     1     -34.045  17.181  -4.115  1.00 20.00     0.005 C 
HETATM    6  C7  UNL     1     -34.080  15.373  -6.001  1.00 20.00     0.055 C 
HETATM    7  C8  UNL     1     -33.802  16.280  -2.897  1.00 20.00    -0.014 C 
ENDROOT
BRANCH   6   8
HETATM    8  C1  UNL     1     -35.310  15.743  -6.784  1.00 20.00     0.127 C 
HETATM    9  C9  UNL     1     -35.914  14.665  -7.642  1.00 20.00     0.091 C 
HETATM   10  O13 UNL     1     -35.797  16.869  -6.725  1.00 20.00    -0.298 OA
ENDBRANCH   6   8
BRANCH   7  11
HETATM   11  C11 UNL     1     -33.701  17.124  -1.620  1.00 20.00     0.004 C 
BRANCH  11  12
HETATM   12  C12 UNL     1     -34.752  16.702  -0.603  1.00 20.00    -0.004 C 
HETATM   13  C10 UNL     1     -34.797  17.672   0.567  1.00 20.00     0.005 C 
ENDBRANCH  11  12
ENDBRANCH   7  11
TORSDOF 3
ENDMDL
MODEL 3
REMARK VINA RESULT:      -4.7      1.597      2.077
REMARK  3 active torsions:
REMARK  status: ('A' for Active; 'I' for Inactive)
REMARK    1  A    between atoms: C1_1  and  C7_7 
REMARK    2  A    between atoms: C8_8  and  C11_11 
REMARK    3  A    between atoms: C11_11  and  C12_12 
ROOT
HETATM    1  C2  UNL     1     -33.914  17.003  -5.095  1.00 20.00     0.001 C 
HETATM    2  C3  UNL     1     -35.378  16.727  -5.430  1.00 20.00     0.012 C 
HETATM    3  C4  UNL     1     -35.936  15.041  -3.524  1.00 20.00     0.012 C 
HETATM    4  C5  UNL     1     -33.656  17.524  -3.684  1.00 20.00     0.005 C 
HETATM    5  C6  UNL     1     -34.690  15.387  -2.702  1.00 20.00     0.005 C 
HETATM    6  C7  UNL     1     -35.891  15.342  -5.022  1.00 20.00     0.055 C 
HETATM    7  C8  UNL     1     -34.479  16.900  -2.548  1.00 20.00    -0.014 C 
ENDROOT
BRANCH   6   8
HETATM    8  C1  UNL     1     -35.142  14.264  -5.756  1.00 20.00     0.127 C 
HETATM    9  C9  UNL     1     -34.999  14.432  -7.244  1.00 20.00     0.091 C 
HETATM   10  O13 UNL     1     -34.670  13.293  -5.168  1.00 20.00    -0.298 OA
ENDBRANCH   6   8
BRANCH   7  11
HETATM   11  C11 UNL     1     -33.803  17.212  -1.209  1.00 20.00     0.004 C 
BRANCH  11  12
HETATM   12  C12 UNL     1     -34.775  17.035  -0.052  1.00 20.00    -0.004 C 
HETATM   13  C10 UNL     1     -34.564  18.106   1.007  1.00 20.00     0.005 C 
ENDBRANCH  11  12
ENDBRANCH   7  11
TORSDOF 3
ENDMDL
MODEL 4
REMARK VINA RESULT:      -4.7      1.527      2.267
REMARK  3 active torsions:
REMARK  status: ('A' for Active; 'I' for Inactive)
REMARK    1  A    between atoms: C1_1  and  C7_7 
REMARK    2  A    between atoms: C8_8  and  C11_11 
REMARK    3  A    between atoms: C11_11  and  C12_12 
ROOT
HETATM    1  C2  UNL     1     -34.438  15.338  -2.834  1.00 20.00     0.001 C 
HETATM    2  C3  UNL     1     -33.244  15.497  -3.772  1.00 20.00     0.012 C 
HETATM    3  C4  UNL     1     -33.496  18.025  -4.349  1.00 20.00     0.012 C 
HETATM    4  C5  UNL     1     -34.448  16.272  -1.628  1.00 20.00     0.005 C 
HETATM    5  C6  UNL     1     -34.467  18.305  -3.197  1.00 20.00     0.005 C 
HETATM    6  C7  UNL     1     -33.397  16.582  -4.843  1.00 20.00     0.055 C 
HETATM    7  C8  UNL     1     -33.990  17.719  -1.861  1.00 20.00    -0.014 C 
ENDROOT
BRANCH   6   8
HETATM    8  C1  UNL     1     -34.540  16.258  -5.765  1.00 20.00     0.127 C 
HETATM    9  C9  UNL     1     -34.459  14.954  -6.511  1.00 20.00     0.091 C 
HETATM   10  O13 UNL     1     -35.494  17.021  -5.901  1.00 20.00    -0.298 OA
ENDBRANCH   6   8
BRANCH   7  11
HETATM   11  C11 UNL     1     -34.467  18.591  -0.694  1.00 20.00     0.004 C 
BRANCH  11  12
HETATM   12  C12 UNL     1     -33.570  18.413   0.522  1.00 20.00    -0.004 C 
HETATM   13  C10 UNL     1     -32.146  18.852   0.218  1.00 20.00     0.005 C 
ENDBRANCH  11  12
ENDBRANCH   7  11
TORSDOF 3
ENDMDL
MODEL 5
REMARK VINA RESULT:      -4.4      1.862      2.792
REMARK  3 active torsions:
REMARK  status: ('A' for Active; 'I' for Inactive)
REMARK    1  A    between atoms: C1_1  and  C7_7 
REMARK    2  A    between atoms: C8_8  and  C11_11 
REMARK    3  A    between atoms: C11_11  and  C12_12 
ROOT
HETATM    1  C2  UNL     1     -33.581  15.612  -2.894  1.00 20.00     0.001 C 
HETATM    2  C3  UNL     1     -34.002  15.855  -4.340  1.00 20.00     0.012 C 
HETATM    3  C4  UNL     1     -36.429  16.712  -3.932  1.00 20.00     0.012 C 
HETATM    4  C5  UNL     1     -33.685  16.823  -1.972  1.00 20.00     0.005 C 
HETATM    5  C6  UNL     1     -36.207  16.965  -2.438  1.00 20.00     0.005 C 
HETATM    6  C7  UNL     1     -35.502  15.706  -4.616  1.00 20.00     0.055 C 
HETATM    7  C8  UNL     1     -34.909  17.732  -2.151  1.00 20.00    -0.014 C 
ENDROOT
BRANCH   6   8
HETATM    8  C1  UNL     1     -35.953  14.298  -4.339  1.00 20.00     0.127 C 
HETATM    9  C9  UNL     1     -34.998  13.196  -4.710  1.00 20.00     0.091 C 
HETATM   10  O13 UNL     1     -37.048  14.060  -3.834  1.00 20.00    -0.298 OA
ENDBRANCH   6   8
BRANCH   7  11
HETATM   11  C11 UNL     1     -35.070  18.607  -0.902  1.00 20.00     0.004 C 
BRANCH  11  12
HETATM   12  C12 UNL     1     -34.333  18.004   0.285  1.00 20.00    -0.004 C 
HETATM   13  C10 UNL     1     -35.304  17.609   1.386  1.00 20.00     0.005 C 
ENDBRANCH  11  12
ENDBRANCH   7  11
TORSDOF 3
ENDMDL
MODEL 6
REMARK VINA RESULT:      -4.3     11.838     12.830
REMARK  3 active torsions:
REMARK  status: ('A' for Active; 'I' for Inactive)
REMARK    1  A    between atoms: C1_1  and  C7_7 
REMARK    2  A    between atoms: C8_8  and  C11_11 
REMARK    3  A    between atoms: C11_11  and  C12_12 
ROOT
HETATM    1  C2  UNL     1     -34.245   4.987   2.685  1.00 20.00     0.001 C 
HETATM    2  C3  UNL     1     -35.385   5.501   3.561  1.00 20.00     0.012 C 
HETATM    3  C4  UNL     1     -33.988   6.640   5.443  1.00 20.00     0.012 C 
HETATM    4  C5  UNL     1     -33.266   6.051   2.200  1.00 20.00     0.005 C 
HETATM    5  C6  UNL     1     -32.688   6.634   4.634  1.00 20.00     0.005 C 
HETATM    6  C7  UNL     1     -35.058   5.619   5.054  1.00 20.00     0.055 C 
HETATM    7  C8  UNL     1     -32.876   7.149   3.200  1.00 20.00    -0.014 C 
ENDROOT
BRANCH   6   8
HETATM    8  C1  UNL     1     -34.737   4.269   5.633  1.00 20.00     0.127 C 
HETATM    9  C9  UNL     1     -33.856   4.248   6.853  1.00 20.00     0.091 C 
HETATM   10  O13 UNL     1     -35.173   3.233   5.135  1.00 20.00    -0.298 OA
ENDBRANCH   6   8
BRANCH   7  11
HETATM   11  C11 UNL     1     -31.600   7.844   2.710  1.00 20.00     0.004 C 
BRANCH  11  12
HETATM   12  C12 UNL     1     -31.818   8.487   1.348  1.00 20.00    -0.004 C 
HETATM   13  C10 UNL     1     -32.500   9.839   1.488  1.00 20.00     0.005 C 
ENDBRANCH  11  12
ENDBRANCH   7  11
TORSDOF 3
ENDMDL
MODEL 7
REMARK VINA RESULT:      -4.3      1.676      2.514
REMARK  3 active torsions:
REMARK  status: ('A' for Active; 'I' for Inactive)
REMARK    1  A    between atoms: C1_1  and  C7_7 
REMARK    2  A    between atoms: C8_8  and  C11_11 
REMARK    3  A    between atoms: C11_11  and  C12_12 
ROOT
HETATM    1  C2  UNL     1     -33.765  14.915  -4.494  1.00 20.00     0.001 C 
HETATM    2  C3  UNL     1     -33.994  16.047  -5.492  1.00 20.00     0.012 C 
HETATM    3  C4  UNL     1     -36.110  17.129  -4.425  1.00 20.00     0.012 C 
HETATM    4  C5  UNL     1     -33.597  15.352  -3.042  1.00 20.00     0.005 C 
HETATM    5  C6  UNL     1     -35.938  16.408  -3.084  1.00 20.00     0.005 C 
HETATM    6  C7  UNL     1     -35.452  16.493  -5.649  1.00 20.00     0.055 C 
HETATM    7  C8  UNL     1     -34.503  16.487  -2.545  1.00 20.00    -0.014 C 
ENDROOT
BRANCH   6   8
HETATM    8  C1  UNL     1     -36.296  15.367  -6.179  1.00 20.00     0.127 C 
HETATM    9  C9  UNL     1     -35.782  14.653  -7.400  1.00 20.00     0.091 C 
HETATM   10  O13 UNL     1     -37.352  15.044  -5.640  1.00 20.00    -0.298 OA
ENDBRANCH   6   8
BRANCH   7  11
HETATM   11  C11 UNL     1     -34.508  16.491  -1.012  1.00 20.00     0.004 C 
BRANCH  11  12
HETATM   12  C12 UNL     1     -35.300  17.673  -0.471  1.00 20.00    -0.004 C 
HETATM   13  C10 UNL     1     -35.303  17.676   1.049  1.00 20.00     0.005 C 
ENDBRANCH  11  12
ENDBRANCH   7  11
TORSDOF 3
ENDMDL
MODEL 8
REMARK VINA RESULT:      -4.3      1.534      2.013
REMARK  3 active torsions:
REMARK  status: ('A' for Active; 'I' for Inactive)
REMARK    1  A    between atoms: C1_1  and  C7_7 
REMARK    2  A    between atoms: C8_8  and  C11_11 
REMARK    3  A    between atoms: C11_11  and  C12_12 
ROOT
HETATM    1  C2  UNL     1     -36.335  17.920  -2.962  1.00 20.00     0.001 C 
HETATM    2  C3  UNL     1     -36.617  16.458  -3.300  1.00 20.00     0.012 C 
HETATM    3  C4  UNL     1     -34.283  15.441  -2.745  1.00 20.00     0.012 C 
HETATM    4  C5  UNL     1     -35.847  18.177  -1.540  1.00 20.00     0.005 C 
HETATM    5  C6  UNL     1     -33.811  16.670  -1.962  1.00 20.00     0.005 C 
HETATM    6  C7  UNL     1     -35.401  15.651  -3.767  1.00 20.00     0.055 C 
HETATM    7  C8  UNL     1     -34.852  17.168  -0.950  1.00 20.00    -0.014 C 
ENDROOT
BRANCH   6   8
HETATM    8  C1  UNL     1     -34.848  16.218  -5.045  1.00 20.00     0.127 C 
HETATM    9  C9  UNL     1     -33.353  16.362  -5.132  1.00 20.00     0.091 C 
HETATM   10  O13 UNL     1     -35.582  16.547  -5.975  1.00 20.00    -0.298 OA
ENDBRANCH   6   8
BRANCH   7  11
HETATM   11  C11 UNL     1     -34.159  17.798   0.264  1.00 20.00     0.004 C 
BRANCH  11  12
HETATM   12  C12 UNL     1     -33.310  18.992  -0.150  1.00 20.00    -0.004 C 
HETATM   13  C10 UNL     1     -31.918  18.906   0.455  1.00 20.00     0.005 C 
ENDBRANCH  11  12
ENDBRANCH   7  11
TORSDOF 3
ENDMDL
MODEL 9
REMARK VINA RESULT:      -4.2      2.168      5.351
REMARK  3 active torsions:
REMARK  status: ('A' for Active; 'I' for Inactive)
REMARK    1  A    between atoms: C1_1  and  C7_7 
REMARK    2  A    between atoms: C8_8  and  C11_11 
REMARK    3  A    between atoms: C11_11  and  C12_12 
ROOT
HETATM    1  C2  UNL     1     -34.478  14.701  -6.229  1.00 20.00     0.001 C 
HETATM    2  C3  UNL     1     -34.560  13.643  -5.131  1.00 20.00     0.012 C 
HETATM    3  C4  UNL     1     -36.295  14.796  -3.566  1.00 20.00     0.012 C 
HETATM    4  C5  UNL     1     -35.805  15.053  -6.894  1.00 20.00     0.005 C 
HETATM    5  C6  UNL     1     -36.746  15.805  -4.626  1.00 20.00     0.005 C 
HETATM    6  C7  UNL     1     -34.907  14.176  -3.737  1.00 20.00     0.055 C 
HETATM    7  C8  UNL     1     -37.037  15.152  -5.984  1.00 20.00    -0.014 C 
ENDROOT
BRANCH   6   8
HETATM    8  C1  UNL     1     -33.843  15.120  -3.251  1.00 20.00     0.127 C 
HETATM    9  C9  UNL     1     -34.266  16.159  -2.249  1.00 20.00     0.091 C 
HETATM   10  O13 UNL     1     -32.683  15.046  -3.653  1.00 20.00    -0.298 OA
ENDBRANCH   6   8
BRANCH   7  11
HETATM   11  C11 UNL     1     -38.143  15.917  -6.719  1.00 20.00     0.004 C 
BRANCH  11  12
HETATM   12  C12 UNL     1     -38.649  15.128  -7.918  1.00 20.00    -0.004 C 
HETATM   13  C10 UNL     1     -40.013  14.519  -7.633  1.00 20.00     0.005 C 
ENDBRANCH  11  12
ENDBRANCH   7  11
TORSDOF 3
ENDMDL
