MODEL 1
REMARK VINA RESULT:      -4.5      0.000      0.000
REMARK  2 active torsions:
REMARK  status: ('A' for Active; 'I' for Inactive)
REMARK    1  A    between atoms: C4_4  and  C9_9 
REMARK    2  A    between atoms: C5_5  and  C8_8 
ROOT
HETATM    1  C1  UNL     1     -34.171  16.696  -4.851  1.00 20.00     0.032 C 
HETATM    2  C2  UNL     1     -34.367  15.371  -2.722  1.00 20.00     0.038 C 
HETATM    3  C3  UNL     1     -33.763  17.930  -4.044  1.00 20.00     0.168 C 
HETATM    4  C4  UNL     1     -33.753  15.414  -4.131  1.00 20.00     0.008 C 
HETATM    5  C5  UNL     1     -34.655  16.773  -2.169  1.00 20.00     0.121 C 
HETATM    6  O10 UNL     1     -33.666  17.688  -2.639  1.00 20.00    -0.386 OA
ENDROOT
BRANCH   4   7
HETATM    7  C9  UNL     1     -34.124  14.172  -4.935  1.00 20.00     0.082 C 
HETATM    8  C7  UNL     1     -35.275  13.420  -4.290  1.00 20.00     0.027 C 
HETATM    9 CL11 UNL     1     -34.570  14.653  -6.594  1.00 20.00    -0.125 Cl
ENDBRANCH   4   7
BRANCH   5  10
HETATM   10  C8  UNL     1     -34.639  16.784  -0.647  1.00 20.00     0.027 C 
HETATM   11  C6  UNL     1     -33.845  17.930  -0.107  1.00 20.00     0.007 C 
ENDBRANCH   5  10
TORSDOF 2
ENDMDL
MODEL 2
REMARK VINA RESULT:      -4.3      2.413      4.201
REMARK  2 active torsions:
REMARK  status: ('A' for Active; 'I' for Inactive)
REMARK    1  A    between atoms: C4_4  and  C9_9 
REMARK    2  A    between atoms: C5_5  and  C8_8 
ROOT
HETATM    1  C1  UNL     1     -33.589  17.907  -3.822  1.00 20.00     0.032 C 
HETATM    2  C2  UNL     1     -34.122  15.777  -2.597  1.00 20.00     0.038 C 
HETATM    3  C3  UNL     1     -33.575  17.141  -5.147  1.00 20.00     0.168 C 
HETATM    4  C4  UNL     1     -34.531  17.242  -2.820  1.00 20.00     0.008 C 
HETATM    5  C5  UNL     1     -33.379  15.190  -3.804  1.00 20.00     0.121 C 
HETATM    6  O10 UNL     1     -33.894  15.755  -5.008  1.00 20.00    -0.386 OA
ENDROOT
BRANCH   4   7
HETATM    7  C9  UNL     1     -34.583  18.010  -1.502  1.00 20.00     0.082 C 
HETATM    8  C7  UNL     1     -34.685  17.065  -0.318  1.00 20.00     0.027 C 
HETATM    9 CL11 UNL     1     -33.120  19.017  -1.348  1.00 20.00    -0.125 Cl
ENDBRANCH   4   7
BRANCH   5  10
HETATM   10  C8  UNL     1     -33.539  13.677  -3.874  1.00 20.00     0.027 C 
HETATM   11  C6  UNL     1     -34.875  13.284  -4.416  1.00 20.00     0.007 C 
ENDBRANCH   5  10
TORSDOF 2
ENDMDL
MODEL 3
REMARK VINA RESULT:      -4.3      2.711      4.883
REMARK  2 active torsions:
REMARK  status: ('A' for Active; 'I' for Inactive)
REMARK    1  A    between atoms: C4_4  and  C9_9 
REMARK    2  A    between atoms: C5_5  and  C8_8 
ROOT
HETATM    1  C1  UNL     1     -34.760  14.812  -2.870  1.00 20.00     0.032 C 
HETATM    2  C2  UNL     1     -33.873  16.293  -4.699  1.00 20.00     0.038 C 
HETATM    3  C3  UNL     1     -34.741  13.619  -3.827  1.00 20.00     0.168 C 
HETATM    4  C4  UNL     1     -33.683  15.828  -3.246  1.00 20.00     0.008 C 
HETATM    5  C5  UNL     1     -34.593  15.244  -5.556  1.00 20.00     0.121 C 
HETATM    6  O10 UNL     1     -34.227  13.935  -5.123  1.00 20.00    -0.386 OA
ENDROOT
BRANCH   4   7
HETATM    7  C9  UNL     1     -33.665  17.012  -2.283  1.00 20.00     0.082 C 
HETATM    8  C7  UNL     1     -34.257  18.254  -2.925  1.00 20.00     0.027 C 
HETATM    9 CL11 UNL     1     -34.585  16.592  -0.814  1.00 20.00    -0.125 Cl
ENDBRANCH   4   7
BRANCH   5  10
HETATM   10  C8  UNL     1     -34.231  15.385  -7.028  1.00 20.00     0.027 C 
HETATM   11  C6  UNL     1     -35.269  14.778  -7.916  1.00 20.00     0.007 C 
ENDBRANCH   5  10
TORSDOF 2
ENDMDL
MODEL 4
REMARK VINA RESULT:      -4.2      1.033      1.033
REMARK  2 active torsions:
REMARK  status: ('A' for Active; 'I' for Inactive)
REMARK    1  A    between atoms: C4_4  and  C9_9 
REMARK    2  A    between atoms: C5_5  and  C8_8 
ROOT
HETATM    1  C1  UNL     1     -35.774  16.368  -4.809  1.00 20.00     0.032 C 
HETATM    2  C2  UNL     1     -34.397  15.416  -2.932  1.00 20.00     0.038 C 
HETATM    3  C3  UNL     1     -35.842  17.710  -4.078  1.00 20.00     0.168 C 
HETATM    4  C4  UNL     1     -34.491  15.619  -4.454  1.00 20.00     0.008 C 
HETATM    5  C5  UNL     1     -35.173  16.486  -2.154  1.00 20.00     0.121 C 
HETATM    6  O10 UNL     1     -35.110  17.729  -2.851  1.00 20.00    -0.386 OA
ENDROOT
BRANCH   4   7
HETATM    7  C9  UNL     1     -34.390  14.291  -5.197  1.00 20.00     0.082 C 
HETATM    8  C7  UNL     1     -34.952  13.150  -4.368  1.00 20.00     0.027 C 
HETATM    9 CL11 UNL     1     -35.276  14.409  -6.741  1.00 20.00    -0.125 Cl
ENDBRANCH   4   7
BRANCH   5  10
HETATM   10  C8  UNL     1     -34.596  16.685  -0.758  1.00 20.00     0.027 C 
HETATM   11  C6  UNL     1     -33.537  17.740  -0.740  1.00 20.00     0.007 C 
ENDBRANCH   5  10
TORSDOF 2
ENDMDL
MODEL 5
REMARK VINA RESULT:      -4.2      1.620      2.771
REMARK  2 active torsions:
REMARK  status: ('A' for Active; 'I' for Inactive)
REMARK    1  A    between atoms: C4_4  and  C9_9 
REMARK    2  A    between atoms: C5_5  and  C8_8 
ROOT
HETATM    1  C1  UNL     1     -34.429  14.196  -5.297  1.00 20.00     0.032 C 
HETATM    2  C2  UNL     1     -34.591  16.553  -4.436  1.00 20.00     0.038 C 
HETATM    3  C3  UNL     1     -34.312  13.680  -3.861  1.00 20.00     0.168 C 
HETATM    4  C4  UNL     1     -35.235  15.493  -5.345  1.00 20.00     0.008 C 
HETATM    5  C5  UNL     1     -33.783  15.927  -3.292  1.00 20.00     0.121 C 
HETATM    6  O10 UNL     1     -34.401  14.711  -2.875  1.00 20.00    -0.386 OA
ENDROOT
BRANCH   4   7
HETATM    7  C9  UNL     1     -35.389  16.007  -6.773  1.00 20.00     0.082 C 
HETATM    8  C7  UNL     1     -34.503  17.215  -7.023  1.00 20.00     0.027 C 
HETATM    9 CL11 UNL     1     -34.973  14.705  -7.917  1.00 20.00    -0.125 Cl
ENDBRANCH   4   7
BRANCH   5  10
HETATM   10  C8  UNL     1     -33.697  16.862  -2.094  1.00 20.00     0.027 C 
HETATM   11  C6  UNL     1     -34.696  16.507  -1.040  1.00 20.00     0.007 C 
ENDBRANCH   5  10
TORSDOF 2
ENDMDL
MODEL 6
REMARK VINA RESULT:      -4.1      1.376      1.473
REMARK  2 active torsions:
REMARK  status: ('A' for Active; 'I' for Inactive)
REMARK    1  A    between atoms: C4_4  and  C9_9 
REMARK    2  A    between atoms: C5_5  and  C8_8 
ROOT
HETATM    1  C1  UNL     1     -34.094  17.356  -3.990  1.00 20.00     0.032 C 
HETATM    2  C2  UNL     1     -34.476  16.015  -1.897  1.00 20.00     0.038 C 
HETATM    3  C3  UNL     1     -33.670  18.557  -3.142  1.00 20.00     0.168 C 
HETATM    4  C4  UNL     1     -33.783  16.046  -3.270  1.00 20.00     0.008 C 
HETATM    5  C5  UNL     1     -34.723  17.422  -1.339  1.00 20.00     0.121 C 
HETATM    6  O10 UNL     1     -33.665  18.292  -1.738  1.00 20.00    -0.386 OA
ENDROOT
BRANCH   4   7
HETATM    7  C9  UNL     1     -34.169  14.834  -4.113  1.00 20.00     0.082 C 
HETATM    8  C7  UNL     1     -33.293  13.637  -3.793  1.00 20.00     0.027 C 
HETATM    9 CL11 UNL     1     -35.880  14.429  -3.814  1.00 20.00    -0.125 Cl
ENDBRANCH   4   7
BRANCH   5  10
HETATM   10  C8  UNL     1     -34.794  17.412   0.182  1.00 20.00     0.027 C 
HETATM   11  C6  UNL     1     -33.800  18.348   0.790  1.00 20.00     0.007 C 
ENDBRANCH   5  10
TORSDOF 2
ENDMDL
MODEL 7
REMARK VINA RESULT:      -4.1      2.770      4.704
REMARK  2 active torsions:
REMARK  status: ('A' for Active; 'I' for Inactive)
REMARK    1  A    between atoms: C4_4  and  C9_9 
REMARK    2  A    between atoms: C5_5  and  C8_8 
ROOT
HETATM    1  C1  UNL     1     -36.063  17.533  -2.093  1.00 20.00     0.032 C 
HETATM    2  C2  UNL     1     -33.758  16.570  -1.803  1.00 20.00     0.038 C 
HETATM    3  C3  UNL     1     -36.378  16.462  -3.138  1.00 20.00     0.168 C 
HETATM    4  C4  UNL     1     -35.039  17.022  -1.082  1.00 20.00     0.008 C 
HETATM    5  C5  UNL     1     -34.026  16.140  -3.251  1.00 20.00     0.121 C 
HETATM    6  O10 UNL     1     -35.313  15.531  -3.342  1.00 20.00    -0.386 OA
ENDROOT
BRANCH   4   7
HETATM    7  C9  UNL     1     -34.733  18.066  -0.012  1.00 20.00     0.082 C 
HETATM    8  C7  UNL     1     -35.194  17.604   1.358  1.00 20.00     0.027 C 
HETATM    9 CL11 UNL     1     -32.979  18.386   0.016  1.00 20.00    -0.125 Cl
ENDBRANCH   4   7
BRANCH   5  10
HETATM   10  C8  UNL     1     -32.984  15.141  -3.737  1.00 20.00     0.027 C 
HETATM   11  C6  UNL     1     -33.539  13.756  -3.823  1.00 20.00     0.007 C 
ENDBRANCH   5  10
TORSDOF 2
ENDMDL
MODEL 8
REMARK VINA RESULT:      -4.1      2.017      2.825
REMARK  2 active torsions:
REMARK  status: ('A' for Active; 'I' for Inactive)
REMARK    1  A    between atoms: C4_4  and  C9_9 
REMARK    2  A    between atoms: C5_5  and  C8_8 
ROOT
HETATM    1  C1  UNL     1     -34.481  13.987  -5.313  1.00 20.00     0.032 C 
HETATM    2  C2  UNL     1     -34.982  16.322  -4.526  1.00 20.00     0.038 C 
HETATM    3  C3  UNL     1     -34.080  13.594  -3.890  1.00 20.00     0.168 C 
HETATM    4  C4  UNL     1     -35.521  15.105  -5.296  1.00 20.00     0.008 C 
HETATM    5  C5  UNL     1     -33.925  15.931  -3.486  1.00 20.00     0.121 C 
HETATM    6  O10 UNL     1     -34.237  14.651  -2.940  1.00 20.00    -0.386 OA
ENDROOT
BRANCH   4   7
HETATM    7  C9  UNL     1     -35.958  15.490  -6.706  1.00 20.00     0.082 C 
HETATM    8  C7  UNL     1     -35.212  14.683  -7.754  1.00 20.00     0.027 C 
HETATM    9 CL11 UNL     1     -37.713  15.223  -6.874  1.00 20.00    -0.125 Cl
ENDBRANCH   4   7
BRANCH   5  10
HETATM   10  C8  UNL     1     -33.866  16.940  -2.347  1.00 20.00     0.027 C 
HETATM   11  C6  UNL     1     -34.642  16.480  -1.156  1.00 20.00     0.007 C 
ENDBRANCH   5  10
TORSDOF 2
ENDMDL
MODEL 9
REMARK VINA RESULT:      -4.0      2.763      4.792
REMARK  2 active torsions:
REMARK  status: ('A' for Active; 'I' for Inactive)
REMARK    1  A    between atoms: C4_4  and  C9_9 
REMARK    2  A    between atoms: C5_5  and  C8_8 
ROOT
HETATM    1  C1  UNL     1     -34.799  15.913  -1.917  1.00 20.00     0.032 C 
HETATM    2  C2  UNL     1     -33.782  17.818  -3.207  1.00 20.00     0.038 C 
HETATM    3  C3  UNL     1     -34.487  14.963  -3.075  1.00 20.00     0.168 C 
HETATM    4  C4  UNL     1     -33.792  17.060  -1.869  1.00 20.00     0.008 C 
HETATM    5  C5  UNL     1     -34.227  16.933  -4.379  1.00 20.00     0.121 C 
HETATM    6  O10 UNL     1     -33.798  15.590  -4.159  1.00 20.00    -0.386 OA
ENDROOT
BRANCH   4   7
HETATM    7  C9  UNL     1     -34.068  18.003  -0.701  1.00 20.00     0.082 C 
HETATM    8  C7  UNL     1     -34.902  17.323   0.371  1.00 20.00     0.027 C 
HETATM    9 CL11 UNL     1     -32.519  18.550  -0.006  1.00 20.00    -0.125 Cl
ENDBRANCH   4   7
BRANCH   5  10
HETATM   10  C8  UNL     1     -33.637  17.418  -5.697  1.00 20.00     0.027 C 
HETATM   11  C6  UNL     1     -34.405  16.905  -6.872  1.00 20.00     0.007 C 
ENDBRANCH   5  10
TORSDOF 2
ENDMDL
