MODEL 1
REMARK VINA RESULT:      -4.7      0.000      0.000
REMARK  1 active torsions:
REMARK  status: ('A' for Active; 'I' for Inactive)
REMARK    1  A    between atoms: C1_1  and  C3_3 
REMARK       I    between atoms: C3_3  and  N11_11 
ROOT
HETATM    1  C3  UNL     1     -33.961  15.435  -3.366  1.00 20.00     0.243 C 
HETATM    2  C4  UNL     1     -36.760  15.285  -5.810  1.00 20.00     0.030 C 
HETATM    3  C5  UNL     1     -36.255  15.716  -4.437  1.00 20.00     0.127 C 
HETATM    4  C6  UNL     1     -34.394  14.952  -5.757  1.00 20.00     0.134 C 
HETATM    5  C7  UNL     1     -35.517  15.379  -6.713  1.00 20.00    -0.030 C 
HETATM    6  C9  UNL     1     -35.297  16.820  -7.202  1.00 20.00     0.016 C 
HETATM    7  C10 UNL     1     -35.624  14.443  -7.918  1.00 20.00     0.016 C 
HETATM    8  N11 UNL     1     -34.834  15.383  -4.436  1.00 20.00    -0.348 N 
HETATM    9  O12 UNL     1     -32.767  15.140  -3.424  1.00 20.00    -0.268 OA
ENDROOT
BRANCH   1  10
HETATM   10  C1  UNL     1     -34.520  15.879  -2.075  1.00 20.00     0.070 C 
HETATM   11  C2  UNL     1     -34.029  16.907  -1.370  1.00 20.00    -0.026 C 
HETATM   12  C8  UNL     1     -34.590  17.358  -0.061  1.00 20.00     0.036 C 
ENDBRANCH   1  10
TORSDOF 1
ENDMDL
MODEL 2
REMARK VINA RESULT:      -4.5      1.448      1.747
REMARK  1 active torsions:
REMARK  status: ('A' for Active; 'I' for Inactive)
REMARK    1  A    between atoms: C1_1  and  C3_3 
REMARK       I    between atoms: C3_3  and  N11_11 
ROOT
HETATM    1  C3  UNL     1     -34.117  17.048  -2.723  1.00 20.00     0.243 C 
HETATM    2  C4  UNL     1     -35.115  14.093  -4.749  1.00 20.00     0.030 C 
HETATM    3  C5  UNL     1     -35.132  14.813  -3.404  1.00 20.00     0.127 C 
HETATM    4  C6  UNL     1     -34.239  16.293  -5.079  1.00 20.00     0.134 C 
HETATM    5  C7  UNL     1     -35.098  15.232  -5.783  1.00 20.00    -0.030 C 
HETATM    6  C9  UNL     1     -36.517  15.765  -6.041  1.00 20.00     0.016 C 
HETATM    7  C10 UNL     1     -34.475  14.783  -7.105  1.00 20.00     0.016 C 
HETATM    8  N11 UNL     1     -34.486  16.097  -3.655  1.00 20.00    -0.348 N 
HETATM    9  O12 UNL     1     -33.572  18.119  -2.994  1.00 20.00    -0.268 OA
ENDROOT
BRANCH   1  10
HETATM   10  C1  UNL     1     -34.410  16.739  -1.310  1.00 20.00     0.070 C 
HETATM   11  C2  UNL     1     -34.824  17.653  -0.423  1.00 20.00    -0.026 C 
HETATM   12  C8  UNL     1     -35.118  17.345   1.009  1.00 20.00     0.036 C 
ENDBRANCH   1  10
TORSDOF 1
ENDMDL
MODEL 3
REMARK VINA RESULT:      -4.4      1.478      4.990
REMARK  1 active torsions:
REMARK  status: ('A' for Active; 'I' for Inactive)
REMARK    1  A    between atoms: C1_1  and  C3_3 
REMARK       I    between atoms: C3_3  and  N11_11 
ROOT
HETATM    1  C3  UNL     1     -34.358  14.449  -4.248  1.00 20.00     0.243 C 
HETATM    2  C4  UNL     1     -33.778  17.961  -3.171  1.00 20.00     0.030 C 
HETATM    3  C5  UNL     1     -34.115  16.985  -4.293  1.00 20.00     0.127 C 
HETATM    4  C6  UNL     1     -34.153  15.813  -2.191  1.00 20.00     0.134 C 
HETATM    5  C7  UNL     1     -34.375  17.307  -1.912  1.00 20.00    -0.030 C 
HETATM    6  C9  UNL     1     -35.875  17.620  -1.788  1.00 20.00     0.016 C 
HETATM    7  C10 UNL     1     -33.653  17.762  -0.644  1.00 20.00     0.016 C 
HETATM    8  N11 UNL     1     -34.221  15.683  -3.641  1.00 20.00    -0.348 N 
HETATM    9  O12 UNL     1     -34.442  13.379  -3.645  1.00 20.00    -0.268 OA
ENDROOT
BRANCH   1  10
HETATM   10  C1  UNL     1     -34.407  14.438  -5.723  1.00 20.00     0.070 C 
HETATM   11  C2  UNL     1     -35.547  14.425  -6.425  1.00 20.00    -0.026 C 
HETATM   12  C8  UNL     1     -35.602  14.410  -7.918  1.00 20.00     0.036 C 
ENDBRANCH   1  10
TORSDOF 1
ENDMDL
MODEL 4
REMARK VINA RESULT:      -4.4     11.661     13.276
REMARK  1 active torsions:
REMARK  status: ('A' for Active; 'I' for Inactive)
REMARK    1  A    between atoms: C1_1  and  C3_3 
REMARK       I    between atoms: C3_3  and  N11_11 
ROOT
HETATM    1  C3  UNL     1     -32.285   7.171   3.662  1.00 20.00     0.243 C 
HETATM    2  C4  UNL     1     -35.426   5.261   4.229  1.00 20.00     0.030 C 
HETATM    3  C5  UNL     1     -34.412   5.831   3.243  1.00 20.00     0.127 C 
HETATM    4  C6  UNL     1     -33.555   6.065   5.480  1.00 20.00     0.134 C 
HETATM    5  C7  UNL     1     -34.591   4.932   5.479  1.00 20.00    -0.030 C 
HETATM    6  C9  UNL     1     -33.901   3.565   5.337  1.00 20.00     0.016 C 
HETATM    7  C10 UNL     1     -35.445   4.942   6.746  1.00 20.00     0.016 C 
HETATM    8  N11 UNL     1     -33.356   6.400   4.075  1.00 20.00    -0.348 N 
HETATM    9  O12 UNL     1     -31.421   7.626   4.412  1.00 20.00    -0.268 OA
ENDROOT
BRANCH   1  10
HETATM   10  C1  UNL     1     -32.190   7.452   2.216  1.00 20.00     0.070 C 
HETATM   11  C2  UNL     1     -32.228   8.686   1.699  1.00 20.00    -0.026 C 
HETATM   12  C8  UNL     1     -32.135   8.975   0.236  1.00 20.00     0.036 C 
ENDBRANCH   1  10
TORSDOF 1
ENDMDL
MODEL 5
REMARK VINA RESULT:      -4.3      1.999      2.902
REMARK  1 active torsions:
REMARK  status: ('A' for Active; 'I' for Inactive)
REMARK    1  A    between atoms: C1_1  and  C3_3 
REMARK       I    between atoms: C3_3  and  N11_11 
ROOT
HETATM    1  C3  UNL     1     -35.018  17.121  -1.784  1.00 20.00     0.243 C 
HETATM    2  C4  UNL     1     -33.587  15.257  -4.667  1.00 20.00     0.030 C 
HETATM    3  C5  UNL     1     -33.410  15.797  -3.252  1.00 20.00     0.127 C 
HETATM    4  C6  UNL     1     -35.708  16.063  -3.915  1.00 20.00     0.134 C 
HETATM    5  C7  UNL     1     -35.090  14.941  -4.762  1.00 20.00    -0.030 C 
HETATM    6  C9  UNL     1     -35.404  13.564  -4.154  1.00 20.00     0.016 C 
HETATM    7  C10 UNL     1     -35.584  14.983  -6.208  1.00 20.00     0.016 C 
HETATM    8  N11 UNL     1     -34.706  16.369  -2.901  1.00 20.00    -0.348 N 
HETATM    9  O12 UNL     1     -36.134  17.580  -1.539  1.00 20.00    -0.268 OA
ENDROOT
BRANCH   1  10
HETATM   10  C1  UNL     1     -33.922  17.375  -0.829  1.00 20.00     0.070 C 
HETATM   11  C2  UNL     1     -33.268  18.541  -0.746  1.00 20.00    -0.026 C 
HETATM   12  C8  UNL     1     -32.155  18.801   0.216  1.00 20.00     0.036 C 
ENDBRANCH   1  10
TORSDOF 1
ENDMDL
MODEL 6
REMARK VINA RESULT:      -4.2      2.225      5.725
REMARK  1 active torsions:
REMARK  status: ('A' for Active; 'I' for Inactive)
REMARK    1  A    between atoms: C1_1  and  C3_3 
REMARK       I    between atoms: C3_3  and  N11_11 
ROOT
HETATM    1  C3  UNL     1     -33.726  18.050  -4.240  1.00 20.00     0.243 C 
HETATM    2  C4  UNL     1     -34.465  16.837  -0.802  1.00 20.00     0.030 C 
HETATM    3  C5  UNL     1     -33.984  16.524  -2.215  1.00 20.00     0.127 C 
HETATM    4  C6  UNL     1     -34.193  18.909  -1.963  1.00 20.00     0.134 C 
HETATM    5  C7  UNL     1     -34.020  18.292  -0.568  1.00 20.00    -0.030 C 
HETATM    6  C9  UNL     1     -32.549  18.353  -0.124  1.00 20.00     0.016 C 
HETATM    7  C10 UNL     1     -34.896  18.988   0.474  1.00 20.00     0.016 C 
HETATM    8  N11 UNL     1     -33.947  17.815  -2.896  1.00 20.00    -0.348 N 
HETATM    9  O12 UNL     1     -33.707  19.166  -4.761  1.00 20.00    -0.268 OA
ENDROOT
BRANCH   1  10
HETATM   10  C1  UNL     1     -33.497  16.866  -5.090  1.00 20.00     0.070 C 
HETATM   11  C2  UNL     1     -34.374  16.431  -6.004  1.00 20.00    -0.026 C 
HETATM   12  C8  UNL     1     -34.148  15.231  -6.865  1.00 20.00     0.036 C 
ENDBRANCH   1  10
TORSDOF 1
ENDMDL
MODEL 7
REMARK VINA RESULT:      -4.1      2.283      4.825
REMARK  1 active torsions:
REMARK  status: ('A' for Active; 'I' for Inactive)
REMARK    1  A    between atoms: C1_1  and  C3_3 
REMARK       I    between atoms: C3_3  and  N11_11 
ROOT
HETATM    1  C3  UNL     1     -37.349  14.945  -4.464  1.00 20.00     0.243 C 
HETATM    2  C4  UNL     1     -33.825  15.982  -5.045  1.00 20.00     0.030 C 
HETATM    3  C5  UNL     1     -35.310  16.243  -5.271  1.00 20.00     0.127 C 
HETATM    4  C6  UNL     1     -35.056  14.490  -3.641  1.00 20.00     0.134 C 
HETATM    5  C7  UNL     1     -33.767  15.323  -3.655  1.00 20.00    -0.030 C 
HETATM    6  C9  UNL     1     -33.791  16.382  -2.541  1.00 20.00     0.016 C 
HETATM    7  C10 UNL     1     -32.523  14.448  -3.498  1.00 20.00     0.016 C 
HETATM    8  N11 UNL     1     -35.996  15.231  -4.474  1.00 20.00    -0.348 N 
HETATM    9  O12 UNL     1     -37.874  14.076  -3.768  1.00 20.00    -0.268 OA
ENDROOT
BRANCH   1  10
HETATM   10  C1  UNL     1     -38.203  15.754  -5.354  1.00 20.00     0.070 C 
HETATM   11  C2  UNL     1     -38.671  15.316  -6.530  1.00 20.00    -0.026 C 
HETATM   12  C8  UNL     1     -39.533  16.133  -7.436  1.00 20.00     0.036 C 
ENDBRANCH   1  10
TORSDOF 1
ENDMDL
MODEL 8
REMARK VINA RESULT:      -4.1     11.347     12.692
REMARK  1 active torsions:
REMARK  status: ('A' for Active; 'I' for Inactive)
REMARK    1  A    between atoms: C1_1  and  C3_3 
REMARK       I    between atoms: C3_3  and  N11_11 
ROOT
HETATM    1  C3  UNL     1     -42.669   7.046  -3.338  1.00 20.00     0.243 C 
HETATM    2  C4  UNL     1     -40.927   6.400  -0.116  1.00 20.00     0.030 C 
HETATM    3  C5  UNL     1     -41.299   7.388  -1.218  1.00 20.00     0.127 C 
HETATM    4  C6  UNL     1     -42.527   5.344  -1.544  1.00 20.00     0.134 C 
HETATM    5  C7  UNL     1     -42.120   5.429  -0.066  1.00 20.00    -0.030 C 
HETATM    6  C9  UNL     1     -43.265   6.005   0.782  1.00 20.00     0.016 C 
HETATM    7  C10 UNL     1     -41.711   4.065   0.490  1.00 20.00     0.016 C 
HETATM    8  N11 UNL     1     -42.185   6.644  -2.108  1.00 20.00    -0.348 N 
HETATM    9  O12 UNL     1     -43.417   6.374  -4.049  1.00 20.00    -0.268 OA
ENDROOT
BRANCH   1  10
HETATM   10  C1  UNL     1     -42.250   8.379  -3.812  1.00 20.00     0.070 C 
HETATM   11  C2  UNL     1     -42.307   8.761  -5.095  1.00 20.00    -0.026 C 
HETATM   12  C8  UNL     1     -41.880  10.108  -5.579  1.00 20.00     0.036 C 
ENDBRANCH   1  10
TORSDOF 1
ENDMDL
MODEL 9
REMARK VINA RESULT:      -4.0      2.114      2.666
REMARK  1 active torsions:
REMARK  status: ('A' for Active; 'I' for Inactive)
REMARK    1  A    between atoms: C1_1  and  C3_3 
REMARK       I    between atoms: C3_3  and  N11_11 
ROOT
HETATM    1  C3  UNL     1     -35.104  15.377  -2.931  1.00 20.00     0.243 C 
HETATM    2  C4  UNL     1     -38.600  16.491  -3.542  1.00 20.00     0.030 C 
HETATM    3  C5  UNL     1     -37.181  16.843  -3.107  1.00 20.00     0.127 C 
HETATM    4  C6  UNL     1     -37.198  14.613  -4.012  1.00 20.00     0.134 C 
HETATM    5  C7  UNL     1     -38.408  15.371  -4.579  1.00 20.00    -0.030 C 
HETATM    6  C9  UNL     1     -38.085  15.951  -5.965  1.00 20.00     0.016 C 
HETATM    7  C10 UNL     1     -39.644  14.476  -4.677  1.00 20.00     0.016 C 
HETATM    8  N11 UNL     1     -36.408  15.623  -3.318  1.00 20.00    -0.348 N 
HETATM    9  O12 UNL     1     -34.501  14.324  -3.136  1.00 20.00    -0.268 OA
ENDROOT
BRANCH   1  10
HETATM   10  C1  UNL     1     -34.405  16.470  -2.228  1.00 20.00     0.070 C 
HETATM   11  C2  UNL     1     -34.497  16.680  -0.908  1.00 20.00    -0.026 C 
HETATM   12  C8  UNL     1     -33.794  17.787  -0.194  1.00 20.00     0.036 C 
ENDBRANCH   1  10
TORSDOF 1
ENDMDL
