MODEL 1
REMARK VINA RESULT:      -5.1      0.000      0.000
REMARK  2 active torsions:
REMARK  status: ('A' for Active; 'I' for Inactive)
REMARK    1  A    between atoms: C3_3  and  C6_6 
REMARK    2  A    between atoms: C6_6  and  C7_7 
ROOT
HETATM    1  C4  UNL     1     -34.972   5.535   3.219  1.00 20.00     0.011 C 
HETATM    2  C6  UNL     1     -33.971   6.360   3.994  1.00 20.00    -0.001 C 
ENDROOT
BRANCH   2   3
HETATM    3  C3  UNL     1     -32.653   6.447   3.213  1.00 20.00    -0.010 A 
HETATM    4  C1  UNL     1     -32.309   7.692   2.443  1.00 20.00     0.005 A 
HETATM    5  C2  UNL     1     -31.547   7.346   3.692  1.00 20.00     0.005 A 
ENDBRANCH   2   3
BRANCH   2   6
HETATM    6  C7  UNL     1     -33.720   5.855   5.429  1.00 20.00     0.058 C 
HETATM    7  C5  UNL     1     -33.892   6.883   6.539  1.00 20.00     0.022 C 
HETATM    8 BR8  UNL     1     -34.887   4.321   5.818  1.00 20.00    -0.091 Br
ENDBRANCH   2   6
TORSDOF 2
ENDMDL
MODEL 2
REMARK VINA RESULT:      -4.0      1.369      2.181
REMARK  2 active torsions:
REMARK  status: ('A' for Active; 'I' for Inactive)
REMARK    1  A    between atoms: C3_3  and  C6_6 
REMARK    2  A    between atoms: C6_6  and  C7_7 
ROOT
HETATM    1  C4  UNL     1     -33.829   6.907   6.389  1.00 20.00     0.011 C 
HETATM    2  C6  UNL     1     -33.426   6.002   5.247  1.00 20.00    -0.001 C 
ENDROOT
BRANCH   2   3
HETATM    3  C3  UNL     1     -33.143   6.842   3.995  1.00 20.00    -0.010 A 
HETATM    4  C1  UNL     1     -31.745   7.308   3.694  1.00 20.00     0.005 A 
HETATM    5  C2  UNL     1     -32.384   6.248   2.841  1.00 20.00     0.005 A 
ENDBRANCH   2   3
BRANCH   2   6
HETATM    6  C7  UNL     1     -34.449   4.891   4.937  1.00 20.00     0.058 C 
HETATM    7  C5  UNL     1     -35.136   4.261   6.142  1.00 20.00     0.022 C 
HETATM    8 BR8  UNL     1     -35.834   5.570   3.718  1.00 20.00    -0.091 Br
ENDBRANCH   2   6
TORSDOF 2
ENDMDL
MODEL 3
REMARK VINA RESULT:      -3.9     11.634     12.342
REMARK  2 active torsions:
REMARK  status: ('A' for Active; 'I' for Inactive)
REMARK    1  A    between atoms: C3_3  and  C6_6 
REMARK    2  A    between atoms: C6_6  and  C7_7 
ROOT
HETATM    1  C4  UNL     1     -36.104  15.336  -3.330  1.00 20.00     0.011 C 
HETATM    2  C6  UNL     1     -34.844  15.497  -2.509  1.00 20.00    -0.001 C 
ENDROOT
BRANCH   2   3
HETATM    3  C3  UNL     1     -34.850  16.864  -1.814  1.00 20.00    -0.010 A 
HETATM    4  C1  UNL     1     -34.751  16.952  -0.315  1.00 20.00     0.005 A 
HETATM    5  C2  UNL     1     -33.596  17.392  -1.172  1.00 20.00     0.005 A 
ENDBRANCH   2   3
BRANCH   2   6
HETATM    6  C7  UNL     1     -33.544  15.302  -3.314  1.00 20.00     0.058 C 
HETATM    7  C5  UNL     1     -33.237  13.876  -3.753  1.00 20.00     0.022 C 
HETATM    8 BR8  UNL     1     -33.557  16.452  -4.909  1.00 20.00    -0.091 Br
ENDBRANCH   2   6
TORSDOF 2
ENDMDL
MODEL 4
REMARK VINA RESULT:      -3.8      1.422      1.763
REMARK  2 active torsions:
REMARK  status: ('A' for Active; 'I' for Inactive)
REMARK    1  A    between atoms: C3_3  and  C6_6 
REMARK    2  A    between atoms: C6_6  and  C7_7 
ROOT
HETATM    1  C4  UNL     1     -34.458   5.016   2.655  1.00 20.00     0.011 C 
HETATM    2  C6  UNL     1     -34.441   6.054   3.755  1.00 20.00    -0.001 C 
ENDROOT
BRANCH   2   3
HETATM    3  C3  UNL     1     -33.029   6.638   3.894  1.00 20.00    -0.010 A 
HETATM    4  C1  UNL     1     -31.887   6.055   3.107  1.00 20.00     0.005 A 
HETATM    5  C2  UNL     1     -32.419   7.419   2.764  1.00 20.00     0.005 A 
ENDBRANCH   2   3
BRANCH   2   6
HETATM    6  C7  UNL     1     -34.952   5.535   5.113  1.00 20.00     0.058 C 
HETATM    7  C5  UNL     1     -34.863   4.030   5.330  1.00 20.00     0.022 C 
HETATM    8 BR8  UNL     1     -33.997   6.430   6.581  1.00 20.00    -0.091 Br
ENDBRANCH   2   6
TORSDOF 2
ENDMDL
MODEL 5
REMARK VINA RESULT:      -3.8      2.262      4.028
REMARK  2 active torsions:
REMARK  status: ('A' for Active; 'I' for Inactive)
REMARK    1  A    between atoms: C3_3  and  C6_6 
REMARK    2  A    between atoms: C6_6  and  C7_7 
ROOT
HETATM    1  C4  UNL     1     -33.538   6.749   6.107  1.00 20.00     0.011 C 
HETATM    2  C6  UNL     1     -34.210   6.285   4.835  1.00 20.00    -0.001 C 
ENDROOT
BRANCH   2   3
HETATM    3  C3  UNL     1     -35.178   5.137   5.148  1.00 20.00    -0.010 A 
HETATM    4  C1  UNL     1     -34.654   3.748   5.386  1.00 20.00     0.005 A 
HETATM    5  C2  UNL     1     -35.224   4.542   6.528  1.00 20.00     0.005 A 
ENDBRANCH   2   3
BRANCH   2   6
HETATM    6  C7  UNL     1     -33.226   5.877   3.720  1.00 20.00     0.058 C 
HETATM    7  C5  UNL     1     -33.853   5.408   2.414  1.00 20.00     0.022 C 
HETATM    8 BR8  UNL     1     -32.003   7.365   3.322  1.00 20.00    -0.091 Br
ENDBRANCH   2   6
TORSDOF 2
ENDMDL
MODEL 6
REMARK VINA RESULT:      -3.7     11.641     12.374
REMARK  2 active torsions:
REMARK  status: ('A' for Active; 'I' for Inactive)
REMARK    1  A    between atoms: C3_3  and  C6_6 
REMARK    2  A    between atoms: C6_6  and  C7_7 
ROOT
HETATM    1  C4  UNL     1     -33.331  16.204  -4.416  1.00 20.00     0.011 C 
HETATM    2  C6  UNL     1     -34.397  16.270  -3.346  1.00 20.00    -0.001 C 
ENDROOT
BRANCH   2   3
HETATM    3  C3  UNL     1     -33.755  16.610  -1.995  1.00 20.00    -0.010 A 
HETATM    4  C1  UNL     1     -34.028  17.936  -1.340  1.00 20.00     0.005 A 
HETATM    5  C2  UNL     1     -34.599  16.675  -0.752  1.00 20.00     0.005 A 
ENDBRANCH   2   3
BRANCH   2   6
HETATM    6  C7  UNL     1     -35.252  14.992  -3.235  1.00 20.00     0.058 C 
HETATM    7  C5  UNL     1     -36.711  15.125  -3.651  1.00 20.00     0.022 C 
HETATM    8 BR8  UNL     1     -34.438  13.542  -4.285  1.00 20.00    -0.091 Br
ENDBRANCH   2   6
TORSDOF 2
ENDMDL
MODEL 7
REMARK VINA RESULT:      -3.6     11.492     12.828
REMARK  2 active torsions:
REMARK  status: ('A' for Active; 'I' for Inactive)
REMARK    1  A    between atoms: C3_3  and  C6_6 
REMARK    2  A    between atoms: C6_6  and  C7_7 
ROOT
HETATM    1  C4  UNL     1     -33.990  13.772  -3.617  1.00 20.00     0.011 C 
HETATM    2  C6  UNL     1     -34.026  15.276  -3.466  1.00 20.00    -0.001 C 
ENDROOT
BRANCH   2   3
HETATM    3  C3  UNL     1     -34.982  15.660  -2.330  1.00 20.00    -0.010 A 
HETATM    4  C1  UNL     1     -34.501  16.518  -1.191  1.00 20.00     0.005 A 
HETATM    5  C2  UNL     1     -35.469  17.077  -2.197  1.00 20.00     0.005 A 
ENDBRANCH   2   3
BRANCH   2   6
HETATM    6  C7  UNL     1     -34.391  16.027  -4.761  1.00 20.00     0.058 C 
HETATM    7  C5  UNL     1     -33.387  17.068  -5.236  1.00 20.00     0.022 C 
HETATM    8 BR8  UNL     1     -34.693  14.746  -6.222  1.00 20.00    -0.091 Br
ENDBRANCH   2   6
TORSDOF 2
ENDMDL
MODEL 8
REMARK VINA RESULT:      -3.5     11.214     12.272
REMARK  2 active torsions:
REMARK  status: ('A' for Active; 'I' for Inactive)
REMARK    1  A    between atoms: C3_3  and  C6_6 
REMARK    2  A    between atoms: C6_6  and  C7_7 
ROOT
HETATM    1  C4  UNL     1     -36.527  15.895  -3.324  1.00 20.00     0.011 C 
HETATM    2  C6  UNL     1     -35.091  15.647  -3.729  1.00 20.00    -0.001 C 
ENDROOT
BRANCH   2   3
HETATM    3  C3  UNL     1     -34.756  14.159  -3.564  1.00 20.00    -0.010 A 
HETATM    4  C1  UNL     1     -34.410  13.323  -4.765  1.00 20.00     0.005 A 
HETATM    5  C2  UNL     1     -33.347  13.674  -3.761  1.00 20.00     0.005 A 
ENDBRANCH   2   3
BRANCH   2   6
HETATM    6  C7  UNL     1     -34.068  16.521  -2.977  1.00 20.00     0.058 C 
HETATM    7  C5  UNL     1     -33.847  17.920  -3.535  1.00 20.00     0.022 C 
HETATM    8 BR8  UNL     1     -34.579  16.682  -1.084  1.00 20.00    -0.091 Br
ENDBRANCH   2   6
TORSDOF 2
ENDMDL
MODEL 9
REMARK VINA RESULT:      -3.4     11.756     13.381
REMARK  2 active torsions:
REMARK  status: ('A' for Active; 'I' for Inactive)
REMARK    1  A    between atoms: C3_3  and  C6_6 
REMARK    2  A    between atoms: C6_6  and  C7_7 
ROOT
HETATM    1  C4  UNL     1     -33.450  17.253  -4.915  1.00 20.00     0.011 C 
HETATM    2  C6  UNL     1     -33.781  15.819  -5.262  1.00 20.00    -0.001 C 
ENDROOT
BRANCH   2   3
HETATM    3  C3  UNL     1     -34.835  15.785  -6.375  1.00 20.00    -0.010 A 
HETATM    4  C1  UNL     1     -34.604  14.962  -7.613  1.00 20.00     0.005 A 
HETATM    5  C2  UNL     1     -35.644  14.540  -6.613  1.00 20.00     0.005 A 
ENDBRANCH   2   3
BRANCH   2   6
HETATM    6  C7  UNL     1     -34.235  14.972  -4.056  1.00 20.00     0.058 C 
HETATM    7  C5  UNL     1     -33.378  13.756  -3.733  1.00 20.00     0.022 C 
HETATM    8 BR8  UNL     1     -34.350  16.095  -2.447  1.00 20.00    -0.091 Br
ENDBRANCH   2   6
TORSDOF 2
ENDMDL
