MODEL 1
REMARK VINA RESULT:      -4.4      0.000      0.000
REMARK  3 active torsions:
REMARK  status: ('A' for Active; 'I' for Inactive)
REMARK    1  A    between atoms: C4_4  and  C5_5 
REMARK    2  A    between atoms: C4_4  and  O7_7 
REMARK    3  A    between atoms: C5_5  and  C6_6 
ROOT
HETATM    1  C1  UNL     1     -35.159   5.492   3.405  1.00 20.00     0.014 C 
HETATM    2  C5  UNL     1     -34.037   6.208   4.126  1.00 20.00     0.023 C 
ENDROOT
BRANCH   2   3
HETATM    3  C4  UNL     1     -32.724   6.082   3.335  1.00 20.00     0.172 C 
BRANCH   3   4
HETATM    4  O7  UNL     1     -31.987   7.296   3.440  1.00 20.00    -0.396 OA
HETATM    5  C3  UNL     1     -32.077   8.063   2.248  1.00 20.00     0.201 C 
ENDBRANCH   3   4
ENDBRANCH   2   3
BRANCH   2   6
HETATM    6  C6  UNL     1     -33.849   5.745   5.592  1.00 20.00     0.084 C 
HETATM    7  C2  UNL     1     -33.861   6.890   6.601  1.00 20.00     0.027 C 
HETATM    8 CL8  UNL     1     -35.061   4.519   6.079  1.00 20.00    -0.125 Cl
ENDBRANCH   2   6
TORSDOF 3
ENDMDL
MODEL 2
REMARK VINA RESULT:      -4.2      1.301      1.517
REMARK  3 active torsions:
REMARK  status: ('A' for Active; 'I' for Inactive)
REMARK    1  A    between atoms: C4_4  and  C5_5 
REMARK    2  A    between atoms: C4_4  and  O7_7 
REMARK    3  A    between atoms: C5_5  and  C6_6 
ROOT
HETATM    1  C1  UNL     1     -34.402   5.077   2.882  1.00 20.00     0.014 C 
HETATM    2  C5  UNL     1     -34.229   6.160   3.926  1.00 20.00     0.023 C 
ENDROOT
BRANCH   2   3
HETATM    3  C4  UNL     1     -32.753   6.583   4.022  1.00 20.00     0.172 C 
BRANCH   3   4
HETATM    4  O7  UNL     1     -32.200   6.676   2.713  1.00 20.00    -0.396 OA
HETATM    5  C3  UNL     1     -32.101   8.027   2.286  1.00 20.00     0.201 C 
ENDBRANCH   3   4
ENDBRANCH   2   3
BRANCH   2   6
HETATM    6  C6  UNL     1     -34.786   5.772   5.318  1.00 20.00     0.084 C 
HETATM    7  C2  UNL     1     -34.738   4.272   5.598  1.00 20.00     0.027 C 
HETATM    8 CL8  UNL     1     -33.964   6.645   6.649  1.00 20.00    -0.125 Cl
ENDBRANCH   2   6
TORSDOF 3
ENDMDL
MODEL 3
REMARK VINA RESULT:      -3.9      1.371      2.035
REMARK  3 active torsions:
REMARK  status: ('A' for Active; 'I' for Inactive)
REMARK    1  A    between atoms: C4_4  and  C5_5 
REMARK    2  A    between atoms: C4_4  and  O7_7 
REMARK    3  A    between atoms: C5_5  and  C6_6 
ROOT
HETATM    1  C1  UNL     1     -33.800   6.747   6.343  1.00 20.00     0.014 C 
HETATM    2  C5  UNL     1     -33.555   6.006   5.045  1.00 20.00     0.023 C 
ENDROOT
BRANCH   2   3
HETATM    3  C4  UNL     1     -33.478   6.993   3.869  1.00 20.00     0.172 C 
BRANCH   3   4
HETATM    4  O7  UNL     1     -32.172   6.954   3.301  1.00 20.00    -0.396 OA
HETATM    5  C3  UNL     1     -32.013   7.947   2.298  1.00 20.00     0.201 C 
ENDBRANCH   3   4
ENDBRANCH   2   3
BRANCH   2   6
HETATM    6  C6  UNL     1     -34.593   4.890   4.766  1.00 20.00     0.084 C 
HETATM    7  C2  UNL     1     -35.174   4.266   6.033  1.00 20.00     0.027 C 
HETATM    8 CL8  UNL     1     -35.935   5.454   3.721  1.00 20.00    -0.125 Cl
ENDBRANCH   2   6
TORSDOF 3
ENDMDL
MODEL 4
REMARK VINA RESULT:      -3.5     11.842     12.306
REMARK  3 active torsions:
REMARK  status: ('A' for Active; 'I' for Inactive)
REMARK    1  A    between atoms: C4_4  and  C5_5 
REMARK    2  A    between atoms: C4_4  and  O7_7 
REMARK    3  A    between atoms: C5_5  and  C6_6 
ROOT
HETATM    1  C1  UNL     1     -34.680  13.221  -4.801  1.00 20.00     0.014 C 
HETATM    2  C5  UNL     1     -35.304  14.221  -3.851  1.00 20.00     0.023 C 
ENDROOT
BRANCH   2   3
HETATM    3  C4  UNL     1     -36.637  14.740  -4.417  1.00 20.00     0.172 C 
BRANCH   3   4
HETATM    4  O7  UNL     1     -37.718  14.131  -3.718  1.00 20.00    -0.396 OA
HETATM    5  C3  UNL     1     -38.910  14.895  -3.839  1.00 20.00     0.201 C 
ENDBRANCH   3   4
ENDBRANCH   2   3
BRANCH   2   6
HETATM    6  C6  UNL     1     -34.362  15.395  -3.484  1.00 20.00     0.084 C 
HETATM    7  C2  UNL     1     -34.634  15.987  -2.104  1.00 20.00     0.027 C 
HETATM    8 CL8  UNL     1     -32.633  14.942  -3.599  1.00 20.00    -0.125 Cl
ENDBRANCH   2   6
TORSDOF 3
ENDMDL
MODEL 5
REMARK VINA RESULT:      -3.5     11.578     12.092
REMARK  3 active torsions:
REMARK  status: ('A' for Active; 'I' for Inactive)
REMARK    1  A    between atoms: C4_4  and  C5_5 
REMARK    2  A    between atoms: C4_4  and  O7_7 
REMARK    3  A    between atoms: C5_5  and  C6_6 
ROOT
HETATM    1  C1  UNL     1     -33.400  16.527  -4.475  1.00 20.00     0.014 C 
HETATM    2  C5  UNL     1     -33.407  15.637  -3.249  1.00 20.00     0.023 C 
ENDROOT
BRANCH   2   3
HETATM    3  C4  UNL     1     -33.101  14.181  -3.641  1.00 20.00     0.172 C 
BRANCH   3   4
HETATM    4  O7  UNL     1     -34.295  13.408  -3.567  1.00 20.00    -0.396 OA
HETATM    5  C3  UNL     1     -34.797  13.104  -4.861  1.00 20.00     0.201 C 
ENDBRANCH   3   4
ENDBRANCH   2   3
BRANCH   2   6
HETATM    6  C6  UNL     1     -34.718  15.727  -2.429  1.00 20.00     0.084 C 
HETATM    7  C2  UNL     1     -34.575  16.522  -1.134  1.00 20.00     0.027 C 
HETATM    8 CL8  UNL     1     -36.075  16.401  -3.385  1.00 20.00    -0.125 Cl
ENDBRANCH   2   6
TORSDOF 3
ENDMDL
MODEL 6
REMARK VINA RESULT:      -3.5     11.688     12.321
REMARK  3 active torsions:
REMARK  status: ('A' for Active; 'I' for Inactive)
REMARK    1  A    between atoms: C4_4  and  C5_5 
REMARK    2  A    between atoms: C4_4  and  O7_7 
REMARK    3  A    between atoms: C5_5  and  C6_6 
ROOT
HETATM    1  C1  UNL     1     -34.574  13.260  -4.924  1.00 20.00     0.014 C 
HETATM    2  C5  UNL     1     -35.094  14.071  -3.756  1.00 20.00     0.023 C 
ENDROOT
BRANCH   2   3
HETATM    3  C4  UNL     1     -36.371  14.830  -4.155  1.00 20.00     0.172 C 
BRANCH   3   4
HETATM    4  O7  UNL     1     -37.512  14.118  -3.688  1.00 20.00    -0.396 OA
HETATM    5  C3  UNL     1     -38.715  14.809  -3.993  1.00 20.00     0.201 C 
ENDBRANCH   3   4
ENDBRANCH   2   3
BRANCH   2   6
HETATM    6  C6  UNL     1     -34.040  15.035  -3.155  1.00 20.00     0.084 C 
HETATM    7  C2  UNL     1     -33.381  15.942  -4.191  1.00 20.00     0.027 C 
HETATM    8 CL8  UNL     1     -34.714  16.043  -1.836  1.00 20.00    -0.125 Cl
ENDBRANCH   2   6
TORSDOF 3
ENDMDL
MODEL 7
REMARK VINA RESULT:      -3.4     11.759     12.355
REMARK  3 active torsions:
REMARK  status: ('A' for Active; 'I' for Inactive)
REMARK    1  A    between atoms: C4_4  and  C5_5 
REMARK    2  A    between atoms: C4_4  and  O7_7 
REMARK    3  A    between atoms: C5_5  and  C6_6 
ROOT
HETATM    1  C1  UNL     1     -33.202  13.789  -3.656  1.00 20.00     0.014 C 
HETATM    2  C5  UNL     1     -34.589  14.300  -3.329  1.00 20.00     0.023 C 
ENDROOT
BRANCH   2   3
HETATM    3  C4  UNL     1     -35.598  13.836  -4.394  1.00 20.00     0.172 C 
BRANCH   3   4
HETATM    4  O7  UNL     1     -34.906  13.524  -5.599  1.00 20.00    -0.396 OA
HETATM    5  C3  UNL     1     -35.340  14.345  -6.674  1.00 20.00     0.201 C 
ENDBRANCH   3   4
ENDBRANCH   2   3
BRANCH   2   6
HETATM    6  C6  UNL     1     -34.653  15.836  -3.137  1.00 20.00     0.084 C 
HETATM    7  C2  UNL     1     -34.541  16.274  -1.679  1.00 20.00     0.027 C 
HETATM    8 CL8  UNL     1     -33.413  16.695  -4.104  1.00 20.00    -0.125 Cl
ENDBRANCH   2   6
TORSDOF 3
ENDMDL
MODEL 8
REMARK VINA RESULT:      -3.3     11.897     12.812
REMARK  3 active torsions:
REMARK  status: ('A' for Active; 'I' for Inactive)
REMARK    1  A    between atoms: C4_4  and  C5_5 
REMARK    2  A    between atoms: C4_4  and  O7_7 
REMARK    3  A    between atoms: C5_5  and  C6_6 
ROOT
HETATM    1  C1  UNL     1     -34.478  16.176  -1.738  1.00 20.00     0.014 C 
HETATM    2  C5  UNL     1     -34.575  15.699  -3.172  1.00 20.00     0.023 C 
ENDROOT
BRANCH   2   3
HETATM    3  C4  UNL     1     -33.492  14.645  -3.461  1.00 20.00     0.172 C 
BRANCH   3   4
HETATM    4  O7  UNL     1     -34.082  13.350  -3.477  1.00 20.00    -0.396 OA
HETATM    5  C3  UNL     1     -34.969  13.198  -4.576  1.00 20.00     0.201 C 
ENDBRANCH   3   4
ENDBRANCH   2   3
BRANCH   2   6
HETATM    6  C6  UNL     1     -34.524  16.847  -4.210  1.00 20.00     0.084 C 
HETATM    7  C2  UNL     1     -33.340  16.751  -5.169  1.00 20.00     0.027 C 
HETATM    8 CL8  UNL     1     -36.038  16.975  -5.159  1.00 20.00    -0.125 Cl
ENDBRANCH   2   6
TORSDOF 3
ENDMDL
MODEL 9
REMARK VINA RESULT:      -3.3     11.722     12.676
REMARK  3 active torsions:
REMARK  status: ('A' for Active; 'I' for Inactive)
REMARK    1  A    between atoms: C4_4  and  C5_5 
REMARK    2  A    between atoms: C4_4  and  O7_7 
REMARK    3  A    between atoms: C5_5  and  C6_6 
ROOT
HETATM    1  C1  UNL     1     -34.411  16.622  -1.222  1.00 20.00     0.014 C 
HETATM    2  C5  UNL     1     -33.907  16.089  -2.546  1.00 20.00     0.023 C 
ENDROOT
BRANCH   2   3
HETATM    3  C4  UNL     1     -34.080  17.146  -3.651  1.00 20.00     0.172 C 
BRANCH   3   4
HETATM    4  O7  UNL     1     -33.077  16.963  -4.644  1.00 20.00    -0.396 OA
HETATM    5  C3  UNL     1     -33.636  16.948  -5.950  1.00 20.00     0.201 C 
ENDBRANCH   3   4
ENDBRANCH   2   3
BRANCH   2   6
HETATM    6  C6  UNL     1     -34.554  14.744  -2.958  1.00 20.00     0.084 C 
HETATM    7  C2  UNL     1     -35.835  14.907  -3.772  1.00 20.00     0.027 C 
HETATM    8 CL8  UNL     1     -33.419  13.687  -3.855  1.00 20.00    -0.125 Cl
ENDBRANCH   2   6
TORSDOF 3
ENDMDL
