MODEL 1
REMARK VINA RESULT:      -4.6      0.000      0.000
REMARK  2 active torsions:
REMARK  status: ('A' for Active; 'I' for Inactive)
REMARK    1  A    between atoms: C5_5  and  C9_9 
REMARK    2  A    between atoms: C6_6  and  C10_10 
ROOT
HETATM    1  C1  UNL     1     -34.938  15.890  -1.938  1.00 20.00     0.005 C 
HETATM    2  C2  UNL     1     -33.743  17.593  -3.368  1.00 20.00     0.005 C 
HETATM    3  C3  UNL     1     -35.056  14.959  -3.144  1.00 20.00     0.006 C 
HETATM    4  C4  UNL     1     -33.860  16.663  -4.574  1.00 20.00     0.006 C 
HETATM    5  C5  UNL     1     -33.716  16.811  -2.049  1.00 20.00    -0.015 C 
HETATM    6  C6  UNL     1     -35.082  15.742  -4.463  1.00 20.00     0.003 C 
ENDROOT
BRANCH   6   7
HETATM    7  C10 UNL     1     -35.149  14.789  -5.655  1.00 20.00     0.082 C 
HETATM    8  C8  UNL     1     -34.708  13.387  -5.270  1.00 20.00     0.027 C 
HETATM    9 CL11 UNL     1     -34.112  15.409  -6.969  1.00 20.00    -0.125 Cl
ENDBRANCH   6   7
BRANCH   5  10
HETATM   10  C9  UNL     1     -33.650  17.764  -0.858  1.00 20.00     0.000 C 
HETATM   11  C7  UNL     1     -34.686  17.439   0.167  1.00 20.00     0.005 C 
ENDBRANCH   5  10
TORSDOF 2
ENDMDL
MODEL 2
REMARK VINA RESULT:      -4.6      1.084      1.196
REMARK  2 active torsions:
REMARK  status: ('A' for Active; 'I' for Inactive)
REMARK    1  A    between atoms: C5_5  and  C9_9 
REMARK    2  A    between atoms: C6_6  and  C10_10 
ROOT
HETATM    1  C1  UNL     1     -34.802  15.887  -1.920  1.00 20.00     0.005 C 
HETATM    2  C2  UNL     1     -33.692  17.707  -3.272  1.00 20.00     0.005 C 
HETATM    3  C3  UNL     1     -34.657  14.923  -3.096  1.00 20.00     0.006 C 
HETATM    4  C4  UNL     1     -33.546  16.744  -4.449  1.00 20.00     0.006 C 
HETATM    5  C5  UNL     1     -33.710  16.964  -1.931  1.00 20.00    -0.015 C 
HETATM    6  C6  UNL     1     -34.638  15.666  -4.438  1.00 20.00     0.003 C 
ENDROOT
BRANCH   6   7
HETATM    7  C10 UNL     1     -34.441  14.687  -5.594  1.00 20.00     0.082 C 
HETATM    8  C8  UNL     1     -35.531  14.839  -6.641  1.00 20.00     0.027 C 
HETATM    9 CL11 UNL     1     -34.438  13.017  -4.963  1.00 20.00    -0.125 Cl
ENDBRANCH   6   7
BRANCH   5  10
HETATM   10  C9  UNL     1     -33.908  17.944  -0.775  1.00 20.00     0.000 C 
HETATM   11  C7  UNL     1     -34.802  17.379   0.280  1.00 20.00     0.005 C 
ENDBRANCH   5  10
TORSDOF 2
ENDMDL
MODEL 3
REMARK VINA RESULT:      -4.5      2.416      4.835
REMARK  2 active torsions:
REMARK  status: ('A' for Active; 'I' for Inactive)
REMARK    1  A    between atoms: C5_5  and  C9_9 
REMARK    2  A    between atoms: C6_6  and  C10_10 
ROOT
HETATM    1  C1  UNL     1     -34.590  15.009  -3.014  1.00 20.00     0.005 C 
HETATM    2  C2  UNL     1     -33.597  16.861  -4.412  1.00 20.00     0.005 C 
HETATM    3  C3  UNL     1     -34.773  15.983  -1.852  1.00 20.00     0.006 C 
HETATM    4  C4  UNL     1     -33.780  17.836  -3.251  1.00 20.00     0.006 C 
HETATM    5  C5  UNL     1     -34.628  15.728  -4.369  1.00 20.00    -0.015 C 
HETATM    6  C6  UNL     1     -33.741  17.117  -1.896  1.00 20.00     0.003 C 
ENDROOT
BRANCH   6   7
HETATM    7  C10 UNL     1     -33.976  18.105  -0.754  1.00 20.00     0.082 C 
HETATM    8  C8  UNL     1     -32.664  18.594  -0.165  1.00 20.00     0.027 C 
HETATM    9 CL11 UNL     1     -34.954  17.320   0.516  1.00 20.00    -0.125 Cl
ENDBRANCH   6   7
BRANCH   5  10
HETATM   10  C9  UNL     1     -34.393  14.740  -5.511  1.00 20.00     0.000 C 
HETATM   11  C7  UNL     1     -34.617  13.330  -5.074  1.00 20.00     0.005 C 
ENDBRANCH   5  10
TORSDOF 2
ENDMDL
MODEL 4
REMARK VINA RESULT:      -4.5      2.033      4.660
REMARK  2 active torsions:
REMARK  status: ('A' for Active; 'I' for Inactive)
REMARK    1  A    between atoms: C5_5  and  C9_9 
REMARK    2  A    between atoms: C6_6  and  C10_10 
ROOT
HETATM    1  C1  UNL     1     -35.275  14.524  -3.758  1.00 20.00     0.005 C 
HETATM    2  C2  UNL     1     -33.737  15.987  -5.125  1.00 20.00     0.005 C 
HETATM    3  C3  UNL     1     -35.119  15.469  -2.569  1.00 20.00     0.006 C 
HETATM    4  C4  UNL     1     -33.580  16.933  -3.936  1.00 20.00     0.006 C 
HETATM    5  C5  UNL     1     -35.084  15.255  -5.093  1.00 20.00    -0.015 C 
HETATM    6  C6  UNL     1     -33.771  16.201  -2.601  1.00 20.00     0.003 C 
ENDROOT
BRANCH   6   7
HETATM    7  C10 UNL     1     -33.659  17.177  -1.430  1.00 20.00     0.082 C 
HETATM    8  C8  UNL     1     -34.748  16.935  -0.400  1.00 20.00     0.027 C 
HETATM    9 CL11 UNL     1     -33.767  18.850  -2.042  1.00 20.00    -0.125 Cl
ENDBRANCH   6   7
BRANCH   5  10
HETATM   10  C9  UNL     1     -35.195  14.279  -6.264  1.00 20.00     0.000 C 
HETATM   11  C7  UNL     1     -34.646  14.864  -7.523  1.00 20.00     0.005 C 
ENDBRANCH   5  10
TORSDOF 2
ENDMDL
MODEL 5
REMARK VINA RESULT:      -4.4      1.278      1.712
REMARK  2 active torsions:
REMARK  status: ('A' for Active; 'I' for Inactive)
REMARK    1  A    between atoms: C5_5  and  C9_9 
REMARK    2  A    between atoms: C6_6  and  C10_10 
ROOT
HETATM    1  C1  UNL     1     -34.585  16.730  -0.751  1.00 20.00     0.005 C 
HETATM    2  C2  UNL     1     -33.632  18.508  -2.269  1.00 20.00     0.005 C 
HETATM    3  C3  UNL     1     -34.777  15.805  -1.952  1.00 20.00     0.006 C 
HETATM    4  C4  UNL     1     -33.823  17.584  -3.470  1.00 20.00     0.006 C 
HETATM    5  C5  UNL     1     -33.431  17.716  -0.971  1.00 20.00    -0.015 C 
HETATM    6  C6  UNL     1     -34.978  16.598  -3.249  1.00 20.00     0.003 C 
ENDROOT
BRANCH   6   7
HETATM    7  C10 UNL     1     -35.116  15.654  -4.443  1.00 20.00     0.082 C 
HETATM    8  C8  UNL     1     -35.058  14.199  -4.008  1.00 20.00     0.027 C 
HETATM    9 CL11 UNL     1     -33.812  15.986  -5.615  1.00 20.00    -0.125 Cl
ENDBRANCH   6   7
BRANCH   5  10
HETATM   10  C9  UNL     1     -33.293  18.661   0.222  1.00 20.00     0.000 C 
HETATM   11  C7  UNL     1     -31.863  18.974   0.514  1.00 20.00     0.005 C 
ENDBRANCH   5  10
TORSDOF 2
ENDMDL
MODEL 6
REMARK VINA RESULT:      -4.3      4.094      6.829
REMARK  2 active torsions:
REMARK  status: ('A' for Active; 'I' for Inactive)
REMARK    1  A    between atoms: C5_5  and  C9_9 
REMARK    2  A    between atoms: C6_6  and  C10_10 
ROOT
HETATM    1  C1  UNL     1     -33.309  18.121  -0.739  1.00 20.00     0.005 C 
HETATM    2  C2  UNL     1     -35.356  17.489   0.597  1.00 20.00     0.005 C 
HETATM    3  C3  UNL     1     -32.582  18.496   0.551  1.00 20.00     0.006 C 
HETATM    4  C4  UNL     1     -34.629  17.863   1.888  1.00 20.00     0.006 C 
HETATM    5  C5  UNL     1     -34.376  17.047  -0.497  1.00 20.00    -0.015 C 
HETATM    6  C6  UNL     1     -33.562  18.938   1.645  1.00 20.00     0.003 C 
ENDROOT
BRANCH   6   7
HETATM    7  C10 UNL     1     -32.816  19.259   2.940  1.00 20.00     0.082 C 
HETATM    8  C8  UNL     1     -31.315  19.106   2.768  1.00 20.00     0.027 C 
HETATM    9 CL11 UNL     1     -33.389  18.175   4.238  1.00 20.00    -0.125 Cl
ENDBRANCH   6   7
BRANCH   5  10
HETATM   10  C9  UNL     1     -35.122  16.727  -1.792  1.00 20.00     0.000 C 
HETATM   11  C7  UNL     1     -34.343  15.795  -2.661  1.00 20.00     0.005 C 
ENDBRANCH   5  10
TORSDOF 2
ENDMDL
MODEL 7
REMARK VINA RESULT:      -4.3      1.459      1.984
REMARK  2 active torsions:
REMARK  status: ('A' for Active; 'I' for Inactive)
REMARK    1  A    between atoms: C5_5  and  C9_9 
REMARK    2  A    between atoms: C6_6  and  C10_10 
ROOT
HETATM    1  C1  UNL     1     -35.660  16.889  -3.233  1.00 20.00     0.005 C 
HETATM    2  C2  UNL     1     -33.366  15.895  -2.884  1.00 20.00     0.005 C 
HETATM    3  C3  UNL     1     -35.664  16.379  -4.673  1.00 20.00     0.006 C 
HETATM    4  C4  UNL     1     -33.368  15.385  -4.324  1.00 20.00     0.006 C 
HETATM    5  C5  UNL     1     -34.788  16.015  -2.323  1.00 20.00    -0.015 C 
HETATM    6  C6  UNL     1     -34.241  16.259  -5.234  1.00 20.00     0.003 C 
ENDROOT
BRANCH   6   7
HETATM    7  C10 UNL     1     -34.267  15.700  -6.655  1.00 20.00     0.082 C 
HETATM    8  C8  UNL     1     -34.776  16.731  -7.648  1.00 20.00     0.027 C 
HETATM    9 CL11 UNL     1     -35.308  14.251  -6.703  1.00 20.00    -0.125 Cl
ENDBRANCH   6   7
BRANCH   5  10
HETATM   10  C9  UNL     1     -34.761  16.575  -0.901  1.00 20.00     0.000 C 
HETATM   11  C7  UNL     1     -33.716  17.630  -0.744  1.00 20.00     0.005 C 
ENDBRANCH   5  10
TORSDOF 2
ENDMDL
MODEL 8
REMARK VINA RESULT:      -4.3      2.945      5.159
REMARK  2 active torsions:
REMARK  status: ('A' for Active; 'I' for Inactive)
REMARK    1  A    between atoms: C5_5  and  C9_9 
REMARK    2  A    between atoms: C6_6  and  C10_10 
ROOT
HETATM    1  C1  UNL     1     -34.774  15.824  -1.933  1.00 20.00     0.005 C 
HETATM    2  C2  UNL     1     -33.803  17.542  -3.507  1.00 20.00     0.005 C 
HETATM    3  C3  UNL     1     -34.607  16.796  -0.766  1.00 20.00     0.006 C 
HETATM    4  C4  UNL     1     -33.636  18.516  -2.341  1.00 20.00     0.006 C 
HETATM    5  C5  UNL     1     -34.956  16.561  -3.265  1.00 20.00    -0.015 C 
HETATM    6  C6  UNL     1     -33.453  17.777  -1.009  1.00 20.00     0.003 C 
ENDROOT
BRANCH   6   7
HETATM    7  C10 UNL     1     -33.339  18.771   0.147  1.00 20.00     0.082 C 
HETATM    8  C8  UNL     1     -31.894  18.959   0.575  1.00 20.00     0.027 C 
HETATM    9 CL11 UNL     1     -34.307  18.187   1.528  1.00 20.00    -0.125 Cl
ENDBRANCH   6   7
BRANCH   5  10
HETATM   10  C9  UNL     1     -35.070  15.568  -4.421  1.00 20.00     0.000 C 
HETATM   11  C7  UNL     1     -35.241  14.168  -3.929  1.00 20.00     0.005 C 
ENDBRANCH   5  10
TORSDOF 2
ENDMDL
MODEL 9
REMARK VINA RESULT:      -4.2     12.558     14.160
REMARK  2 active torsions:
REMARK  status: ('A' for Active; 'I' for Inactive)
REMARK    1  A    between atoms: C5_5  and  C9_9 
REMARK    2  A    between atoms: C6_6  and  C10_10 
ROOT
HETATM    1  C1  UNL     1     -40.988   4.856  -1.266  1.00 20.00     0.005 C 
HETATM    2  C2  UNL     1     -43.088   5.824  -2.277  1.00 20.00     0.005 C 
HETATM    3  C3  UNL     1     -41.129   3.620  -2.152  1.00 20.00     0.006 C 
HETATM    4  C4  UNL     1     -43.231   4.589  -3.164  1.00 20.00     0.006 C 
HETATM    5  C5  UNL     1     -41.624   6.094  -1.911  1.00 20.00    -0.015 C 
HETATM    6  C6  UNL     1     -42.594   3.352  -2.518  1.00 20.00     0.003 C 
ENDROOT
BRANCH   6   7
HETATM    7  C10 UNL     1     -42.705   2.142  -3.446  1.00 20.00     0.082 C 
HETATM    8  C8  UNL     1     -43.271   0.935  -2.718  1.00 20.00     0.027 C 
HETATM    9 CL11 UNL     1     -41.093   1.750  -4.104  1.00 20.00    -0.125 Cl
ENDBRANCH   6   7
BRANCH   5  10
HETATM   10  C9  UNL     1     -41.513   7.303  -0.983  1.00 20.00     0.000 C 
HETATM   11  C7  UNL     1     -42.800   8.056  -0.903  1.00 20.00     0.005 C 
ENDBRANCH   5  10
TORSDOF 2
ENDMDL
