MODEL 1
REMARK VINA RESULT:      -5.2      0.000      0.000
REMARK  2 active torsions:
REMARK  status: ('A' for Active; 'I' for Inactive)
REMARK    1  A    between atoms: C5_5  and  C7_7 
REMARK    2  A    between atoms: C6_6  and  C8_8 
ROOT
HETATM    1  C1  UNL     1     -34.515   5.288   2.517  1.00 20.00     0.001 C 
HETATM    2  C2  UNL     1     -33.605   6.501   2.339  1.00 20.00     0.005 C 
HETATM    3  C3  UNL     1     -35.071   5.205   3.936  1.00 20.00     0.013 C 
HETATM    4  C4  UNL     1     -33.039   6.436   4.803  1.00 20.00     0.018 C 
HETATM    5  C5  UNL     1     -32.475   6.518   3.377  1.00 20.00    -0.004 C 
HETATM    6  C6  UNL     1     -33.950   5.212   4.984  1.00 20.00     0.094 C 
ENDROOT
BRANCH   6   7
HETATM    7  C8  UNL     1     -34.531   5.178   6.396  1.00 20.00     0.391 C 
HETATM    8  F9  UNL     1     -35.750   4.618   6.378  1.00 20.00    -0.171 F 
HETATM    9  F10 UNL     1     -33.735   4.462   7.203  1.00 20.00    -0.171 F 
HETATM   10  F11 UNL     1     -34.633   6.426   6.881  1.00 20.00    -0.171 F 
ENDBRANCH   6   7
BRANCH   5  11
HETATM   11  C7  UNL     1     -31.609   7.765   3.210  1.00 20.00     0.089 C 
HETATM   12 BR12 UNL     1     -32.087   8.665   1.560  1.00 20.00    -0.096 Br
ENDBRANCH   5  11
TORSDOF 2
ENDMDL
MODEL 2
REMARK VINA RESULT:      -5.0     11.831     13.134
REMARK  2 active torsions:
REMARK  status: ('A' for Active; 'I' for Inactive)
REMARK    1  A    between atoms: C5_5  and  C7_7 
REMARK    2  A    between atoms: C6_6  and  C8_8 
ROOT
HETATM    1  C1  UNL     1     -33.608  17.456  -5.469  1.00 20.00     0.001 C 
HETATM    2  C2  UNL     1     -34.217  18.192  -4.279  1.00 20.00     0.005 C 
HETATM    3  C3  UNL     1     -33.830  15.949  -5.373  1.00 20.00     0.013 C 
HETATM    4  C4  UNL     1     -33.923  16.126  -2.853  1.00 20.00     0.018 C 
HETATM    5  C5  UNL     1     -33.695  17.642  -2.946  1.00 20.00    -0.004 C 
HETATM    6  C6  UNL     1     -33.305  15.385  -4.047  1.00 20.00     0.094 C 
ENDROOT
BRANCH   6   7
HETATM    7  C8  UNL     1     -33.582  13.885  -3.951  1.00 20.00     0.391 C 
HETATM    8  F9  UNL     1     -33.949  13.409  -5.150  1.00 20.00    -0.171 F 
HETATM    9  F10 UNL     1     -32.479  13.240  -3.545  1.00 20.00    -0.171 F 
HETATM   10  F11 UNL     1     -34.569  13.656  -3.071  1.00 20.00    -0.171 F 
ENDBRANCH   6   7
BRANCH   5  11
HETATM   11  C7  UNL     1     -34.356  18.360  -1.771  1.00 20.00     0.089 C 
HETATM   12 BR12 UNL     1     -34.754  17.078  -0.372  1.00 20.00    -0.096 Br
ENDBRANCH   5  11
TORSDOF 2
ENDMDL
MODEL 3
REMARK VINA RESULT:      -5.0     11.850     13.170
REMARK  2 active torsions:
REMARK  status: ('A' for Active; 'I' for Inactive)
REMARK    1  A    between atoms: C5_5  and  C7_7 
REMARK    2  A    between atoms: C6_6  and  C8_8 
ROOT
HETATM    1  C1  UNL     1     -33.597  17.463  -5.487  1.00 20.00     0.001 C 
HETATM    2  C2  UNL     1     -34.199  18.209  -4.300  1.00 20.00     0.005 C 
HETATM    3  C3  UNL     1     -33.840  15.959  -5.388  1.00 20.00     0.013 C 
HETATM    4  C4  UNL     1     -33.936  16.143  -2.868  1.00 20.00     0.018 C 
HETATM    5  C5  UNL     1     -33.688  17.655  -2.964  1.00 20.00    -0.004 C 
HETATM    6  C6  UNL     1     -33.325  15.390  -4.059  1.00 20.00     0.094 C 
ENDROOT
BRANCH   6   7
HETATM    7  C8  UNL     1     -33.623  13.895  -3.962  1.00 20.00     0.391 C 
HETATM    8  F9  UNL     1     -34.606  13.679  -3.075  1.00 20.00    -0.171 F 
HETATM    9  F10 UNL     1     -34.005  13.424  -5.158  1.00 20.00    -0.171 F 
HETATM   10  F11 UNL     1     -32.525  13.233  -3.564  1.00 20.00    -0.171 F 
ENDBRANCH   6   7
BRANCH   5  11
HETATM   11  C7  UNL     1     -34.342  18.384  -1.793  1.00 20.00     0.089 C 
HETATM   12 BR12 UNL     1     -34.720  17.118  -0.374  1.00 20.00    -0.096 Br
ENDBRANCH   5  11
TORSDOF 2
ENDMDL
MODEL 4
REMARK VINA RESULT:      -5.0     12.057     13.002
REMARK  2 active torsions:
REMARK  status: ('A' for Active; 'I' for Inactive)
REMARK    1  A    between atoms: C5_5  and  C7_7 
REMARK    2  A    between atoms: C6_6  and  C8_8 
ROOT
HETATM    1  C1  UNL     1     -33.442  17.209  -4.651  1.00 20.00     0.001 C 
HETATM    2  C2  UNL     1     -33.977  17.551  -3.263  1.00 20.00     0.005 C 
HETATM    3  C3  UNL     1     -34.165  16.007  -5.252  1.00 20.00     0.013 C 
HETATM    4  C4  UNL     1     -34.646  15.136  -2.928  1.00 20.00     0.018 C 
HETATM    5  C5  UNL     1     -33.916  16.343  -2.320  1.00 20.00    -0.004 C 
HETATM    6  C6  UNL     1     -34.104  14.788  -4.322  1.00 20.00     0.094 C 
ENDROOT
BRANCH   6   7
HETATM    7  C8  UNL     1     -34.875  13.614  -4.922  1.00 20.00     0.391 C 
HETATM    8  F9  UNL     1     -35.332  13.937  -6.140  1.00 20.00    -0.171 F 
HETATM    9  F10 UNL     1     -34.073  12.544  -5.027  1.00 20.00    -0.171 F 
HETATM   10  F11 UNL     1     -35.917  13.300  -4.136  1.00 20.00    -0.171 F 
ENDBRANCH   6   7
BRANCH   5  11
HETATM   11  C7  UNL     1     -34.502  16.695  -0.954  1.00 20.00     0.089 C 
HETATM   12 BR12 UNL     1     -33.576  18.240  -0.235  1.00 20.00    -0.096 Br
ENDBRANCH   5  11
TORSDOF 2
ENDMDL
MODEL 5
REMARK VINA RESULT:      -4.7      9.850     11.213
REMARK  2 active torsions:
REMARK  status: ('A' for Active; 'I' for Inactive)
REMARK    1  A    between atoms: C5_5  and  C7_7 
REMARK    2  A    between atoms: C6_6  and  C8_8 
ROOT
HETATM    1  C1  UNL     1     -40.737   5.793  -0.282  1.00 20.00     0.001 C 
HETATM    2  C2  UNL     1     -41.277   7.052  -0.955  1.00 20.00     0.005 C 
HETATM    3  C3  UNL     1     -40.786   4.590  -1.220  1.00 20.00     0.013 C 
HETATM    4  C4  UNL     1     -42.738   5.626  -2.446  1.00 20.00     0.018 C 
HETATM    5  C5  UNL     1     -42.694   6.837  -1.502  1.00 20.00    -0.004 C 
HETATM    6  C6  UNL     1     -42.200   4.358  -1.769  1.00 20.00     0.094 C 
ENDROOT
BRANCH   6   7
HETATM    7  C8  UNL     1     -42.214   3.180  -2.741  1.00 20.00     0.391 C 
HETATM    8  F9  UNL     1     -42.808   2.121  -2.172  1.00 20.00    -0.171 F 
HETATM    9  F10 UNL     1     -42.888   3.511  -3.852  1.00 20.00    -0.171 F 
HETATM   10  F11 UNL     1     -40.958   2.847  -3.077  1.00 20.00    -0.171 F 
ENDBRANCH   6   7
BRANCH   5  11
HETATM   11  C7  UNL     1     -43.193   8.094  -2.213  1.00 20.00     0.089 C 
HETATM   12 BR12 UNL     1     -42.662   8.034  -4.077  1.00 20.00    -0.096 Br
ENDBRANCH   5  11
TORSDOF 2
ENDMDL
MODEL 6
REMARK VINA RESULT:      -4.6     11.958     13.234
REMARK  2 active torsions:
REMARK  status: ('A' for Active; 'I' for Inactive)
REMARK    1  A    between atoms: C5_5  and  C7_7 
REMARK    2  A    between atoms: C6_6  and  C8_8 
ROOT
HETATM    1  C1  UNL     1     -34.053  13.630  -4.341  1.00 20.00     0.001 C 
HETATM    2  C2  UNL     1     -34.524  14.322  -5.618  1.00 20.00     0.005 C 
HETATM    3  C3  UNL     1     -34.391  14.452  -3.099  1.00 20.00     0.013 C 
HETATM    4  C4  UNL     1     -34.308  16.568  -4.479  1.00 20.00     0.018 C 
HETATM    5  C5  UNL     1     -33.964  15.746  -5.729  1.00 20.00    -0.004 C 
HETATM    6  C6  UNL     1     -33.829  15.877  -3.195  1.00 20.00     0.094 C 
ENDROOT
BRANCH   6   7
HETATM    7  C8  UNL     1     -34.221  16.694  -1.965  1.00 20.00     0.391 C 
HETATM    8  F9  UNL     1     -33.126  17.210  -1.388  1.00 20.00    -0.171 F 
HETATM    9  F10 UNL     1     -35.039  17.695  -2.321  1.00 20.00    -0.171 F 
HETATM   10  F11 UNL     1     -34.853  15.912  -1.076  1.00 20.00    -0.171 F 
ENDBRANCH   6   7
BRANCH   5  11
HETATM   11  C7  UNL     1     -34.488  16.433  -6.989  1.00 20.00     0.089 C 
HETATM   12 BR12 UNL     1     -35.700  15.238  -7.918  1.00 20.00    -0.096 Br
ENDBRANCH   5  11
TORSDOF 2
ENDMDL
MODEL 7
REMARK VINA RESULT:      -4.6     12.348     13.543
REMARK  2 active torsions:
REMARK  status: ('A' for Active; 'I' for Inactive)
REMARK    1  A    between atoms: C5_5  and  C7_7 
REMARK    2  A    between atoms: C6_6  and  C8_8 
ROOT
HETATM    1  C1  UNL     1     -34.617  15.553  -7.215  1.00 20.00     0.001 C 
HETATM    2  C2  UNL     1     -34.612  17.010  -6.761  1.00 20.00     0.005 C 
HETATM    3  C3  UNL     1     -34.802  14.597  -6.039  1.00 20.00     0.013 C 
HETATM    4  C4  UNL     1     -33.747  16.298  -4.494  1.00 20.00     0.018 C 
HETATM    5  C5  UNL     1     -33.556  17.260  -5.676  1.00 20.00    -0.004 C 
HETATM    6  C6  UNL     1     -33.747  14.832  -4.950  1.00 20.00     0.094 C 
ENDROOT
BRANCH   6   7
HETATM    7  C8  UNL     1     -33.981  13.899  -3.763  1.00 20.00     0.391 C 
HETATM    8  F9  UNL     1     -34.342  14.609  -2.685  1.00 20.00    -0.171 F 
HETATM    9  F10 UNL     1     -34.954  13.023  -4.054  1.00 20.00    -0.171 F 
HETATM   10  F11 UNL     1     -32.856  13.222  -3.482  1.00 20.00    -0.171 F 
ENDBRANCH   6   7
BRANCH   5  11
HETATM   11  C7  UNL     1     -33.604  18.712  -5.202  1.00 20.00     0.089 C 
HETATM   12 BR12 UNL     1     -33.905  18.756  -3.287  1.00 20.00    -0.096 Br
ENDBRANCH   5  11
TORSDOF 2
ENDMDL
MODEL 8
REMARK VINA RESULT:      -4.6     11.848     12.682
REMARK  2 active torsions:
REMARK  status: ('A' for Active; 'I' for Inactive)
REMARK    1  A    between atoms: C5_5  and  C7_7 
REMARK    2  A    between atoms: C6_6  and  C8_8 
ROOT
HETATM    1  C1  UNL     1     -36.635  16.694  -3.317  1.00 20.00     0.001 C 
HETATM    2  C2  UNL     1     -35.886  17.158  -2.071  1.00 20.00     0.005 C 
HETATM    3  C3  UNL     1     -36.200  15.296  -3.748  1.00 20.00     0.013 C 
HETATM    4  C4  UNL     1     -33.933  15.680  -2.698  1.00 20.00     0.018 C 
HETATM    5  C5  UNL     1     -34.366  17.089  -2.266  1.00 20.00    -0.004 C 
HETATM    6  C6  UNL     1     -34.682  15.216  -3.955  1.00 20.00     0.094 C 
ENDROOT
BRANCH   6   7
HETATM    7  C8  UNL     1     -34.265  13.797  -4.338  1.00 20.00     0.391 C 
HETATM    8  F9  UNL     1     -33.080  13.501  -3.784  1.00 20.00    -0.171 F 
HETATM    9  F10 UNL     1     -35.180  12.917  -3.904  1.00 20.00    -0.171 F 
HETATM   10  F11 UNL     1     -34.160  13.693  -5.672  1.00 20.00    -0.171 F 
ENDBRANCH   6   7
BRANCH   5  11
HETATM   11  C7  UNL     1     -33.639  17.509  -0.990  1.00 20.00     0.089 C 
HETATM   12 BR12 UNL     1     -34.894  17.535   0.488  1.00 20.00    -0.096 Br
ENDBRANCH   5  11
TORSDOF 2
ENDMDL
MODEL 9
REMARK VINA RESULT:      -4.5     12.834     14.050
REMARK  2 active torsions:
REMARK  status: ('A' for Active; 'I' for Inactive)
REMARK    1  A    between atoms: C5_5  and  C7_7 
REMARK    2  A    between atoms: C6_6  and  C8_8 
ROOT
HETATM    1  C1  UNL     1     -35.014  13.325  -4.136  1.00 20.00     0.001 C 
HETATM    2  C2  UNL     1     -34.212  14.207  -3.184  1.00 20.00     0.005 C 
HETATM    3  C3  UNL     1     -34.830  13.754  -5.590  1.00 20.00     0.013 C 
HETATM    4  C4  UNL     1     -34.363  16.119  -4.831  1.00 20.00     0.018 C 
HETATM    5  C5  UNL     1     -34.551  15.692  -3.368  1.00 20.00    -0.004 C 
HETATM    6  C6  UNL     1     -35.174  15.235  -5.789  1.00 20.00     0.094 C 
ENDROOT
BRANCH   6   7
HETATM    7  C8  UNL     1     -34.936  15.654  -7.239  1.00 20.00     0.391 C 
HETATM    8  F9  UNL     1     -34.306  14.673  -7.903  1.00 20.00    -0.171 F 
HETATM    9  F10 UNL     1     -36.107  15.905  -7.842  1.00 20.00    -0.171 F 
HETATM   10  F11 UNL     1     -34.180  16.762  -7.279  1.00 20.00    -0.171 F 
ENDBRANCH   6   7
BRANCH   5  11
HETATM   11  C7  UNL     1     -33.700  16.557  -2.440  1.00 20.00     0.089 C 
HETATM   12 BR12 UNL     1     -34.639  16.820  -0.764  1.00 20.00    -0.096 Br
ENDBRANCH   5  11
TORSDOF 2
ENDMDL
