MODEL 1
REMARK VINA RESULT:      -4.2      0.000      0.000
REMARK  3 active torsions:
REMARK  status: ('A' for Active; 'I' for Inactive)
REMARK    1  A    between atoms: C4_4  and  C5_5 
REMARK    2  A    between atoms: C4_4  and  O7_7 
REMARK    3  A    between atoms: C5_5  and  C6_6 
ROOT
HETATM    1  C1  UNL     1     -34.437   5.406   2.793  1.00 20.00     0.014 C 
HETATM    2  C5  UNL     1     -33.650   5.624   4.070  1.00 20.00     0.023 C 
ENDROOT
BRANCH   2   3
HETATM    3  C4  UNL     1     -32.736   6.853   3.932  1.00 20.00     0.172 C 
BRANCH   3   4
HETATM    4  O7  UNL     1     -32.155   6.869   2.632  1.00 20.00    -0.396 OA
HETATM    5  C3  UNL     1     -32.064   8.192   2.121  1.00 20.00     0.201 C 
ENDBRANCH   3   4
ENDBRANCH   2   3
BRANCH   2   6
HETATM    6  C6  UNL     1     -34.544   5.724   5.331  1.00 20.00     0.084 C 
HETATM    7  C2  UNL     1     -33.935   6.572   6.443  1.00 20.00     0.027 C 
HETATM    8 CL8  UNL     1     -34.984   4.118   5.994  1.00 20.00    -0.125 Cl
ENDBRANCH   2   6
TORSDOF 3
ENDMDL
MODEL 2
REMARK VINA RESULT:      -4.2      1.349      1.505
REMARK  3 active torsions:
REMARK  status: ('A' for Active; 'I' for Inactive)
REMARK    1  A    between atoms: C4_4  and  C5_5 
REMARK    2  A    between atoms: C4_4  and  O7_7 
REMARK    3  A    between atoms: C5_5  and  C6_6 
ROOT
HETATM    1  C1  UNL     1     -35.511   5.472   3.563  1.00 20.00     0.014 C 
HETATM    2  C5  UNL     1     -34.100   5.557   4.108  1.00 20.00     0.023 C 
ENDROOT
BRANCH   2   3
HETATM    3  C4  UNL     1     -33.474   6.920   3.765  1.00 20.00     0.172 C 
BRANCH   3   4
HETATM    4  O7  UNL     1     -32.386   6.730   2.866  1.00 20.00    -0.396 OA
HETATM    5  C3  UNL     1     -32.006   7.950   2.246  1.00 20.00     0.201 C 
ENDBRANCH   3   4
ENDBRANCH   2   3
BRANCH   2   6
HETATM    6  C6  UNL     1     -34.009   5.260   5.625  1.00 20.00     0.084 C 
HETATM    7  C2  UNL     1     -35.129   4.360   6.137  1.00 20.00     0.027 C 
HETATM    8 CL8  UNL     1     -33.955   6.750   6.619  1.00 20.00    -0.125 Cl
ENDBRANCH   2   6
TORSDOF 3
ENDMDL
MODEL 3
REMARK VINA RESULT:      -3.9      0.852      1.955
REMARK  3 active torsions:
REMARK  status: ('A' for Active; 'I' for Inactive)
REMARK    1  A    between atoms: C4_4  and  C5_5 
REMARK    2  A    between atoms: C4_4  and  O7_7 
REMARK    3  A    between atoms: C5_5  and  C6_6 
ROOT
HETATM    1  C1  UNL     1     -33.640   6.710   6.354  1.00 20.00     0.014 C 
HETATM    2  C5  UNL     1     -33.855   6.520   4.866  1.00 20.00     0.023 C 
ENDROOT
BRANCH   2   3
HETATM    3  C4  UNL     1     -32.518   6.633   4.113  1.00 20.00     0.172 C 
BRANCH   3   4
HETATM    4  O7  UNL     1     -32.770   6.871   2.732  1.00 20.00    -0.396 OA
HETATM    5  C3  UNL     1     -32.076   8.020   2.267  1.00 20.00     0.201 C 
ENDBRANCH   3   4
ENDBRANCH   2   3
BRANCH   2   6
HETATM    6  C6  UNL     1     -34.589   5.202   4.515  1.00 20.00     0.084 C 
HETATM    7  C2  UNL     1     -35.861   5.413   3.700  1.00 20.00     0.027 C 
HETATM    8 CL8  UNL     1     -34.979   4.222   5.964  1.00 20.00    -0.125 Cl
ENDBRANCH   2   6
TORSDOF 3
ENDMDL
MODEL 4
REMARK VINA RESULT:      -3.4     11.769     12.467
REMARK  3 active torsions:
REMARK  status: ('A' for Active; 'I' for Inactive)
REMARK    1  A    between atoms: C4_4  and  C5_5 
REMARK    2  A    between atoms: C4_4  and  O7_7 
REMARK    3  A    between atoms: C5_5  and  C6_6 
ROOT
HETATM    1  C1  UNL     1     -33.310  16.417  -5.100  1.00 20.00     0.014 C 
HETATM    2  C5  UNL     1     -33.800  15.700  -3.859  1.00 20.00     0.023 C 
ENDROOT
BRANCH   2   3
HETATM    3  C4  UNL     1     -33.094  14.342  -3.711  1.00 20.00     0.172 C 
BRANCH   3   4
HETATM    4  O7  UNL     1     -34.057  13.337  -3.407  1.00 20.00    -0.396 OA
HETATM    5  C3  UNL     1     -35.125  13.341  -4.344  1.00 20.00     0.201 C 
ENDBRANCH   3   4
ENDBRANCH   2   3
BRANCH   2   6
HETATM    6  C6  UNL     1     -33.670  16.547  -2.569  1.00 20.00     0.084 C 
HETATM    7  C2  UNL     1     -34.738  16.236  -1.526  1.00 20.00     0.027 C 
HETATM    8 CL8  UNL     1     -33.667  18.309  -2.897  1.00 20.00    -0.125 Cl
ENDBRANCH   2   6
TORSDOF 3
ENDMDL
MODEL 5
REMARK VINA RESULT:      -3.4     11.725     12.437
REMARK  3 active torsions:
REMARK  status: ('A' for Active; 'I' for Inactive)
REMARK    1  A    between atoms: C4_4  and  C5_5 
REMARK    2  A    between atoms: C4_4  and  O7_7 
REMARK    3  A    between atoms: C5_5  and  C6_6 
ROOT
HETATM    1  C1  UNL     1     -34.532  16.686  -1.311  1.00 20.00     0.014 C 
HETATM    2  C5  UNL     1     -34.723  15.608  -2.358  1.00 20.00     0.023 C 
ENDROOT
BRANCH   2   3
HETATM    3  C4  UNL     1     -35.992  15.880  -3.182  1.00 20.00     0.172 C 
BRANCH   3   4
HETATM    4  O7  UNL     1     -36.728  14.670  -3.333  1.00 20.00    -0.396 OA
HETATM    5  C3  UNL     1     -38.030  14.916  -3.846  1.00 20.00     0.201 C 
ENDBRANCH   3   4
ENDBRANCH   2   3
BRANCH   2   6
HETATM    6  C6  UNL     1     -33.487  15.415  -3.272  1.00 20.00     0.084 C 
HETATM    7  C2  UNL     1     -33.493  16.317  -4.502  1.00 20.00     0.027 C 
HETATM    8 CL8  UNL     1     -33.273  13.714  -3.794  1.00 20.00    -0.125 Cl
ENDBRANCH   2   6
TORSDOF 3
ENDMDL
MODEL 6
REMARK VINA RESULT:      -3.3     11.909     12.433
REMARK  3 active torsions:
REMARK  status: ('A' for Active; 'I' for Inactive)
REMARK    1  A    between atoms: C4_4  and  C5_5 
REMARK    2  A    between atoms: C4_4  and  O7_7 
REMARK    3  A    between atoms: C5_5  and  C6_6 
ROOT
HETATM    1  C1  UNL     1     -36.738  14.603  -3.889  1.00 20.00     0.014 C 
HETATM    2  C5  UNL     1     -35.266  14.244  -3.831  1.00 20.00     0.023 C 
ENDROOT
BRANCH   2   3
HETATM    3  C4  UNL     1     -34.820  13.596  -5.152  1.00 20.00     0.172 C 
BRANCH   3   4
HETATM    4  O7  UNL     1     -35.451  14.260  -6.243  1.00 20.00    -0.396 OA
HETATM    5  C3  UNL     1     -34.498  14.882  -7.093  1.00 20.00     0.201 C 
ENDBRANCH   3   4
ENDBRANCH   2   3
BRANCH   2   6
HETATM    6  C6  UNL     1     -34.358  15.441  -3.454  1.00 20.00     0.084 C 
HETATM    7  C2  UNL     1     -32.873  15.169  -3.670  1.00 20.00     0.027 C 
HETATM    8 CL8  UNL     1     -34.613  15.999  -1.771  1.00 20.00    -0.125 Cl
ENDBRANCH   2   6
TORSDOF 3
ENDMDL
MODEL 7
REMARK VINA RESULT:      -3.3     11.920     12.811
REMARK  3 active torsions:
REMARK  status: ('A' for Active; 'I' for Inactive)
REMARK    1  A    between atoms: C4_4  and  C5_5 
REMARK    2  A    between atoms: C4_4  and  O7_7 
REMARK    3  A    between atoms: C5_5  and  C6_6 
ROOT
HETATM    1  C1  UNL     1     -34.614  16.496  -1.151  1.00 20.00     0.014 C 
HETATM    2  C5  UNL     1     -34.075  16.057  -2.497  1.00 20.00     0.023 C 
ENDROOT
BRANCH   2   3
HETATM    3  C4  UNL     1     -35.022  15.034  -3.146  1.00 20.00     0.172 C 
BRANCH   3   4
HETATM    4  O7  UNL     1     -34.305  13.835  -3.424  1.00 20.00    -0.396 OA
HETATM    5  C3  UNL     1     -34.718  13.258  -4.655  1.00 20.00     0.201 C 
ENDBRANCH   3   4
ENDBRANCH   2   3
BRANCH   2   6
HETATM    6  C6  UNL     1     -33.779  17.239  -3.454  1.00 20.00     0.084 C 
HETATM    7  C2  UNL     1     -34.966  18.178  -3.646  1.00 20.00     0.027 C 
HETATM    8 CL8  UNL     1     -33.195  16.698  -5.059  1.00 20.00    -0.125 Cl
ENDBRANCH   2   6
TORSDOF 3
ENDMDL
MODEL 8
REMARK VINA RESULT:      -3.3     11.753     13.151
REMARK  3 active torsions:
REMARK  status: ('A' for Active; 'I' for Inactive)
REMARK    1  A    between atoms: C4_4  and  C5_5 
REMARK    2  A    between atoms: C4_4  and  O7_7 
REMARK    3  A    between atoms: C5_5  and  C6_6 
ROOT
HETATM    1  C1  UNL     1     -34.342  13.662  -3.758  1.00 20.00     0.014 C 
HETATM    2  C5  UNL     1     -35.363  14.386  -4.612  1.00 20.00     0.023 C 
ENDROOT
BRANCH   2   3
HETATM    3  C4  UNL     1     -36.478  14.974  -3.731  1.00 20.00     0.172 C 
BRANCH   3   4
HETATM    4  O7  UNL     1     -37.625  14.132  -3.793  1.00 20.00    -0.396 OA
HETATM    5  C3  UNL     1     -38.825  14.892  -3.819  1.00 20.00     0.201 C 
ENDBRANCH   3   4
ENDBRANCH   2   3
BRANCH   2   6
HETATM    6  C6  UNL     1     -34.740  15.467  -5.529  1.00 20.00     0.084 C 
HETATM    7  C2  UNL     1     -34.457  14.974  -6.945  1.00 20.00     0.027 C 
HETATM    8 CL8  UNL     1     -33.241  16.173  -4.846  1.00 20.00    -0.125 Cl
ENDBRANCH   2   6
TORSDOF 3
ENDMDL
MODEL 9
REMARK VINA RESULT:      -3.3      2.900      3.945
REMARK  3 active torsions:
REMARK  status: ('A' for Active; 'I' for Inactive)
REMARK    1  A    between atoms: C4_4  and  C5_5 
REMARK    2  A    between atoms: C4_4  and  O7_7 
REMARK    3  A    between atoms: C5_5  and  C6_6 
ROOT
HETATM    1  C1  UNL     1     -34.030   5.394   2.569  1.00 20.00     0.014 C 
HETATM    2  C5  UNL     1     -33.568   6.559   3.422  1.00 20.00     0.023 C 
ENDROOT
BRANCH   2   3
HETATM    3  C4  UNL     1     -33.675   6.205   4.915  1.00 20.00     0.172 C 
BRANCH   3   4
HETATM    4  O7  UNL     1     -34.899   5.517   5.153  1.00 20.00    -0.396 OA
HETATM    5  C3  UNL     1     -34.711   4.413   6.026  1.00 20.00     0.201 C 
ENDBRANCH   3   4
ENDBRANCH   2   3
BRANCH   2   6
HETATM    6  C6  UNL     1     -32.146   7.057   3.060  1.00 20.00     0.084 C 
HETATM    7  C2  UNL     1     -31.388   7.645   4.246  1.00 20.00     0.027 C 
HETATM    8 CL8  UNL     1     -32.152   8.248   1.721  1.00 20.00    -0.125 Cl
ENDBRANCH   2   6
TORSDOF 3
ENDMDL
