MODEL 1
REMARK VINA RESULT:      -5.1      0.000      0.000
REMARK  2 active torsions:
REMARK  status: ('A' for Active; 'I' for Inactive)
REMARK    1  A    between atoms: C1_1  and  C7_7 
REMARK    2  A    between atoms: C8_8  and  C12_12 
ROOT
HETATM    1  C2  UNL     1     -36.368  15.085  -3.727  1.00 20.00     0.001 C 
HETATM    2  C3  UNL     1     -35.489  13.981  -4.312  1.00 20.00     0.012 C 
HETATM    3  C4  UNL     1     -33.459  15.539  -4.751  1.00 20.00     0.012 C 
HETATM    4  C5  UNL     1     -35.650  16.230  -3.007  1.00 20.00     0.005 C 
HETATM    5  C6  UNL     1     -33.169  15.485  -3.250  1.00 20.00     0.006 C 
HETATM    6  C7  UNL     1     -34.392  14.441  -5.273  1.00 20.00     0.055 C 
HETATM    7  C8  UNL     1     -34.343  15.835  -2.304  1.00 20.00    -0.011 C 
ENDROOT
BRANCH   6   8
HETATM    8  C1  UNL     1     -34.990  14.871  -6.583  1.00 20.00     0.127 C 
HETATM    9  C9  UNL     1     -34.831  16.320  -6.957  1.00 20.00     0.091 C 
HETATM   10  O13 UNL     1     -35.577  14.076  -7.316  1.00 20.00    -0.298 OA
ENDBRANCH   6   8
BRANCH   7  11
HETATM   11  C12 UNL     1     -33.918  16.955  -1.344  1.00 20.00    -0.019 C 
HETATM   12  C10 UNL     1     -33.839  18.285  -2.084  1.00 20.00     0.010 C 
HETATM   13  C11 UNL     1     -34.887  17.043  -0.171  1.00 20.00     0.010 C 
ENDBRANCH   7  11
TORSDOF 2
ENDMDL
MODEL 2
REMARK VINA RESULT:      -5.0      0.704      1.177
REMARK  2 active torsions:
REMARK  status: ('A' for Active; 'I' for Inactive)
REMARK    1  A    between atoms: C1_1  and  C7_7 
REMARK    2  A    between atoms: C8_8  and  C12_12 
ROOT
HETATM    1  C2  UNL     1     -36.361  15.015  -3.477  1.00 20.00     0.001 C 
HETATM    2  C3  UNL     1     -35.225  14.063  -3.848  1.00 20.00     0.012 C 
HETATM    3  C4  UNL     1     -33.482  15.950  -4.220  1.00 20.00     0.012 C 
HETATM    4  C5  UNL     1     -35.966  16.332  -2.805  1.00 20.00     0.005 C 
HETATM    5  C6  UNL     1     -33.379  16.073  -2.700  1.00 20.00     0.006 C 
HETATM    6  C7  UNL     1     -34.121  14.652  -4.726  1.00 20.00     0.055 C 
HETATM    7  C8  UNL     1     -34.707  16.259  -1.928  1.00 20.00    -0.011 C 
ENDROOT
BRANCH   6   8
HETATM    8  C1  UNL     1     -34.618  14.851  -6.130  1.00 20.00     0.127 C 
HETATM    9  C9  UNL     1     -34.296  16.168  -6.783  1.00 20.00     0.091 C 
HETATM   10  O13 UNL     1     -35.254  13.977  -6.719  1.00 20.00    -0.298 OA
ENDBRANCH   6   8
BRANCH   7  11
HETATM   11  C12 UNL     1     -34.623  17.513  -1.046  1.00 20.00    -0.019 C 
HETATM   12  C10 UNL     1     -35.073  17.193   0.375  1.00 20.00     0.010 C 
HETATM   13  C11 UNL     1     -33.204  18.071  -1.053  1.00 20.00     0.010 C 
ENDBRANCH   7  11
TORSDOF 2
ENDMDL
MODEL 3
REMARK VINA RESULT:      -4.8      1.426      2.117
REMARK  2 active torsions:
REMARK  status: ('A' for Active; 'I' for Inactive)
REMARK    1  A    between atoms: C1_1  and  C7_7 
REMARK    2  A    between atoms: C8_8  and  C12_12 
ROOT
HETATM    1  C2  UNL     1     -34.280  14.808  -3.186  1.00 20.00     0.001 C 
HETATM    2  C3  UNL     1     -33.116  15.431  -3.955  1.00 20.00     0.012 C 
HETATM    3  C4  UNL     1     -34.080  17.841  -3.877  1.00 20.00     0.012 C 
HETATM    4  C5  UNL     1     -34.994  15.703  -2.170  1.00 20.00     0.005 C 
HETATM    5  C6  UNL     1     -33.635  17.908  -2.417  1.00 20.00     0.006 C 
HETATM    6  C7  UNL     1     -33.431  16.726  -4.705  1.00 20.00     0.055 C 
HETATM    7  C8  UNL     1     -34.103  16.756  -1.495  1.00 20.00    -0.011 C 
ENDROOT
BRANCH   6   8
HETATM    8  C1  UNL     1     -34.277  16.440  -5.913  1.00 20.00     0.127 C 
HETATM    9  C9  UNL     1     -35.588  17.172  -6.012  1.00 20.00     0.091 C 
HETATM   10  O13 UNL     1     -33.913  15.648  -6.783  1.00 20.00    -0.298 OA
ENDBRANCH   6   8
BRANCH   7  11
HETATM   11  C12 UNL     1     -34.828  17.334  -0.272  1.00 20.00    -0.019 C 
HETATM   12  C10 UNL     1     -33.879  18.207   0.543  1.00 20.00     0.010 C 
HETATM   13  C11 UNL     1     -36.055  18.126  -0.708  1.00 20.00     0.010 C 
ENDBRANCH   7  11
TORSDOF 2
ENDMDL
MODEL 4
REMARK VINA RESULT:      -4.7      1.538      2.375
REMARK  2 active torsions:
REMARK  status: ('A' for Active; 'I' for Inactive)
REMARK    1  A    between atoms: C1_1  and  C7_7 
REMARK    2  A    between atoms: C8_8  and  C12_12 
ROOT
HETATM    1  C2  UNL     1     -34.025  15.152  -2.873  1.00 20.00     0.001 C 
HETATM    2  C3  UNL     1     -33.167  15.686  -4.019  1.00 20.00     0.012 C 
HETATM    3  C4  UNL     1     -34.368  17.985  -4.128  1.00 20.00     0.012 C 
HETATM    4  C5  UNL     1     -34.575  16.183  -1.884  1.00 20.00     0.005 C 
HETATM    5  C6  UNL     1     -33.594  18.382  -2.871  1.00 20.00     0.006 C 
HETATM    6  C7  UNL     1     -33.809  16.773  -4.881  1.00 20.00     0.055 C 
HETATM    7  C8  UNL     1     -33.681  17.413  -1.667  1.00 20.00    -0.011 C 
ENDROOT
BRANCH   6   8
HETATM    8  C1  UNL     1     -34.881  16.185  -5.754  1.00 20.00     0.127 C 
HETATM    9  C9  UNL     1     -34.461  15.093  -6.701  1.00 20.00     0.091 C 
HETATM   10  O13 UNL     1     -36.047  16.574  -5.695  1.00 20.00    -0.298 OA
ENDBRANCH   6   8
BRANCH   7  11
HETATM   11  C12 UNL     1     -34.152  18.176  -0.422  1.00 20.00    -0.019 C 
HETATM   12  C10 UNL     1     -35.048  17.290   0.436  1.00 20.00     0.010 C 
HETATM   13  C11 UNL     1     -32.955  18.674   0.380  1.00 20.00     0.010 C 
ENDBRANCH   7  11
TORSDOF 2
ENDMDL
MODEL 5
REMARK VINA RESULT:      -4.7      1.225      2.078
REMARK  2 active torsions:
REMARK  status: ('A' for Active; 'I' for Inactive)
REMARK    1  A    between atoms: C1_1  and  C7_7 
REMARK    2  A    between atoms: C8_8  and  C12_12 
ROOT
HETATM    1  C2  UNL     1     -33.716  16.734  -5.154  1.00 20.00     0.001 C 
HETATM    2  C3  UNL     1     -35.188  16.480  -5.479  1.00 20.00     0.012 C 
HETATM    3  C4  UNL     1     -35.560  14.841  -3.501  1.00 20.00     0.012 C 
HETATM    4  C5  UNL     1     -33.308  16.633  -3.682  1.00 20.00     0.005 C 
HETATM    5  C6  UNL     1     -35.591  16.057  -2.576  1.00 20.00     0.006 C 
HETATM    6  C7  UNL     1     -35.758  15.149  -4.989  1.00 20.00     0.055 C 
HETATM    7  C8  UNL     1     -34.397  17.037  -2.678  1.00 20.00    -0.011 C 
ENDROOT
BRANCH   6   8
HETATM    8  C1  UNL     1     -35.222  14.014  -5.814  1.00 20.00     0.127 C 
HETATM    9  C9  UNL     1     -35.185  14.218  -7.305  1.00 20.00     0.091 C 
HETATM   10  O13 UNL     1     -34.828  12.969  -5.296  1.00 20.00    -0.298 OA
ENDBRANCH   6   8
BRANCH   7  11
HETATM   11  C12 UNL     1     -33.769  17.233  -1.291  1.00 20.00    -0.019 C 
HETATM   12  C10 UNL     1     -33.187  18.637  -1.168  1.00 20.00     0.010 C 
HETATM   13  C11 UNL     1     -34.802  16.976  -0.200  1.00 20.00     0.010 C 
ENDBRANCH   7  11
TORSDOF 2
ENDMDL
MODEL 6
REMARK VINA RESULT:      -4.7      1.972      4.998
REMARK  2 active torsions:
REMARK  status: ('A' for Active; 'I' for Inactive)
REMARK    1  A    between atoms: C1_1  and  C7_7 
REMARK    2  A    between atoms: C8_8  and  C12_12 
ROOT
HETATM    1  C2  UNL     1     -32.997  16.166  -4.190  1.00 20.00     0.001 C 
HETATM    2  C3  UNL     1     -33.648  15.205  -3.196  1.00 20.00     0.012 C 
HETATM    3  C4  UNL     1     -36.052  15.552  -4.114  1.00 20.00     0.012 C 
HETATM    4  C5  UNL     1     -33.671  16.307  -5.557  1.00 20.00     0.005 C 
HETATM    5  C6  UNL     1     -35.667  14.658  -5.293  1.00 20.00     0.006 C 
HETATM    6  C7  UNL     1     -35.126  15.457  -2.897  1.00 20.00     0.055 C 
HETATM    7  C8  UNL     1     -34.380  15.042  -6.063  1.00 20.00    -0.011 C 
ENDROOT
BRANCH   6   8
HETATM    8  C1  UNL     1     -35.285  16.687  -2.047  1.00 20.00     0.127 C 
HETATM    9  C9  UNL     1     -34.427  16.774  -0.814  1.00 20.00     0.091 C 
HETATM   10  O13 UNL     1     -36.076  17.580  -2.347  1.00 20.00    -0.298 OA
ENDBRANCH   6   8
BRANCH   7  11
HETATM   11  C12 UNL     1     -34.698  15.194  -7.557  1.00 20.00    -0.019 C 
HETATM   12  C10 UNL     1     -35.946  14.397  -7.918  1.00 20.00     0.010 C 
HETATM   13  C11 UNL     1     -34.872  16.666  -7.914  1.00 20.00     0.010 C 
ENDBRANCH   7  11
TORSDOF 2
ENDMDL
MODEL 7
REMARK VINA RESULT:      -4.7      2.066      4.996
REMARK  2 active torsions:
REMARK  status: ('A' for Active; 'I' for Inactive)
REMARK    1  A    between atoms: C1_1  and  C7_7 
REMARK    2  A    between atoms: C8_8  and  C12_12 
ROOT
HETATM    1  C2  UNL     1     -33.284  16.431  -4.349  1.00 20.00     0.001 C 
HETATM    2  C3  UNL     1     -33.369  15.639  -3.045  1.00 20.00     0.012 C 
HETATM    3  C4  UNL     1     -35.952  15.386  -3.120  1.00 20.00     0.012 C 
HETATM    4  C5  UNL     1     -34.358  16.144  -5.401  1.00 20.00     0.005 C 
HETATM    5  C6  UNL     1     -35.756  14.313  -4.192  1.00 20.00     0.006 C 
HETATM    6  C7  UNL     1     -34.702  15.722  -2.300  1.00 20.00     0.055 C 
HETATM    7  C8  UNL     1     -34.886  14.702  -5.412  1.00 20.00    -0.011 C 
ENDROOT
BRANCH   6   8
HETATM    8  C1  UNL     1     -34.864  17.075  -1.667  1.00 20.00     0.127 C 
HETATM    9  C9  UNL     1     -33.769  17.524  -0.738  1.00 20.00     0.091 C 
HETATM   10  O13 UNL     1     -35.844  17.783  -1.899  1.00 20.00    -0.298 OA
ENDBRANCH   6   8
BRANCH   7  11
HETATM   11  C12 UNL     1     -35.671  14.453  -6.707  1.00 20.00    -0.019 C 
HETATM   12  C10 UNL     1     -37.000  15.198  -6.674  1.00 20.00     0.010 C 
HETATM   13  C11 UNL     1     -34.843  14.872  -7.917  1.00 20.00     0.010 C 
ENDBRANCH   7  11
TORSDOF 2
ENDMDL
MODEL 8
REMARK VINA RESULT:      -4.5      2.464      5.240
REMARK  2 active torsions:
REMARK  status: ('A' for Active; 'I' for Inactive)
REMARK    1  A    between atoms: C1_1  and  C7_7 
REMARK    2  A    between atoms: C8_8  and  C12_12 
ROOT
HETATM    1  C2  UNL     1     -33.543  18.771  -2.392  1.00 20.00     0.001 C 
HETATM    2  C3  UNL     1     -33.231  17.843  -1.219  1.00 20.00     0.012 C 
HETATM    3  C4  UNL     1     -34.910  16.005  -1.954  1.00 20.00     0.012 C 
HETATM    4  C5  UNL     1     -33.986  18.108  -3.698  1.00 20.00     0.005 C 
HETATM    5  C6  UNL     1     -33.901  15.595  -3.027  1.00 20.00     0.006 C 
HETATM    6  C7  UNL     1     -34.343  16.871  -0.825  1.00 20.00     0.055 C 
HETATM    7  C8  UNL     1     -33.384  16.719  -3.957  1.00 20.00    -0.011 C 
ENDROOT
BRANCH   6   8
HETATM    8  C1  UNL     1     -35.463  17.606  -0.144  1.00 20.00     0.127 C 
HETATM    9  C9  UNL     1     -35.403  17.692   1.358  1.00 20.00     0.091 C 
HETATM   10  O13 UNL     1     -36.383  18.116  -0.783  1.00 20.00    -0.298 OA
ENDBRANCH   6   8
BRANCH   7  11
HETATM   11  C12 UNL     1     -33.613  16.325  -5.423  1.00 20.00    -0.019 C 
HETATM   12  C10 UNL     1     -34.430  15.041  -5.505  1.00 20.00     0.010 C 
HETATM   13  C11 UNL     1     -34.304  17.457  -6.174  1.00 20.00     0.010 C 
ENDBRANCH   7  11
TORSDOF 2
ENDMDL
MODEL 9
REMARK VINA RESULT:      -4.5      1.733      3.443
REMARK  2 active torsions:
REMARK  status: ('A' for Active; 'I' for Inactive)
REMARK    1  A    between atoms: C1_1  and  C7_7 
REMARK    2  A    between atoms: C8_8  and  C12_12 
ROOT
HETATM    1  C2  UNL     1     -34.354  18.634  -3.355  1.00 20.00     0.001 C 
HETATM    2  C3  UNL     1     -35.565  17.704  -3.298  1.00 20.00     0.012 C 
HETATM    3  C4  UNL     1     -34.534  16.127  -1.512  1.00 20.00     0.012 C 
HETATM    4  C5  UNL     1     -33.528  18.771  -2.074  1.00 20.00     0.005 C 
HETATM    5  C6  UNL     1     -34.844  17.201  -0.470  1.00 20.00     0.006 C 
HETATM    6  C7  UNL     1     -35.285  16.273  -2.840  1.00 20.00     0.055 C 
HETATM    7  C8  UNL     1     -34.326  18.629  -0.770  1.00 20.00    -0.011 C 
ENDROOT
BRANCH   6   8
HETATM    8  C1  UNL     1     -34.559  15.512  -3.914  1.00 20.00     0.127 C 
HETATM    9  C9  UNL     1     -33.181  15.011  -3.576  1.00 20.00     0.091 C 
HETATM   10  O13 UNL     1     -35.069  15.305  -5.015  1.00 20.00    -0.298 OA
ENDBRANCH   6   8
BRANCH   7  11
HETATM   11  C12 UNL     1     -33.478  19.130   0.408  1.00 20.00    -0.019 C 
HETATM   12  C10 UNL     1     -33.898  18.433   1.697  1.00 20.00     0.010 C 
HETATM   13  C11 UNL     1     -31.996  18.906   0.128  1.00 20.00     0.010 C 
ENDBRANCH   7  11
TORSDOF 2
ENDMDL
