MODEL 1
REMARK VINA RESULT:      -4.5      0.000      0.000
REMARK  3 active torsions:
REMARK  status: ('A' for Active; 'I' for Inactive)
REMARK    1  A    between atoms: C5_5  and  S11_11 
REMARK    2  A    between atoms: C8_8  and  C9_9 
REMARK    3  A    between atoms: C9_9  and  S11_11 
ROOT
HETATM    1  C1  UNL     1     -34.790  13.915  -4.950  1.00 20.00     0.080 C 
HETATM    2  C2  UNL     1     -35.837  16.695  -6.644  1.00 20.00     0.009 C 
HETATM    3  C3  UNL     1     -36.074  16.087  -5.248  1.00 20.00     0.037 C 
HETATM    4  C4  UNL     1     -34.836  15.549  -6.941  1.00 20.00     0.014 C 
HETATM    5  C5  UNL     1     -34.761  15.284  -5.405  1.00 20.00     0.100 C 
HETATM    6  C6  UNL     1     -35.402  14.456  -7.843  1.00 20.00     0.012 C 
HETATM    7  N10 UNL     1     -34.813  12.814  -4.584  1.00 20.00    -0.196 NA
ENDROOT
BRANCH   5   8
HETATM    8  S11 UNL     1     -33.330  16.147  -4.624  1.00 20.00    -0.143 SA
BRANCH   8   9
HETATM    9  C9  UNL     1     -33.657  15.668  -2.914  1.00 20.00     0.075 C 
BRANCH   9  10
HETATM   10  C8  UNL     1     -33.805  16.904  -2.033  1.00 20.00     0.006 C 
HETATM   11  C7  UNL     1     -34.685  16.613  -0.826  1.00 20.00     0.006 C 
ENDBRANCH   9  10
ENDBRANCH   8   9
ENDBRANCH   5   8
TORSDOF 3
ENDMDL
MODEL 2
REMARK VINA RESULT:      -4.4      1.705      2.276
REMARK  3 active torsions:
REMARK  status: ('A' for Active; 'I' for Inactive)
REMARK    1  A    between atoms: C5_5  and  S11_11 
REMARK    2  A    between atoms: C8_8  and  C9_9 
REMARK    3  A    between atoms: C9_9  and  S11_11 
ROOT
HETATM    1  C1  UNL     1     -37.006  14.788  -4.284  1.00 20.00     0.080 C 
HETATM    2  C2  UNL     1     -34.440  15.037  -6.531  1.00 20.00     0.009 C 
HETATM    3  C3  UNL     1     -35.937  15.404  -6.504  1.00 20.00     0.037 C 
HETATM    4  C4  UNL     1     -34.557  14.579  -5.054  1.00 20.00     0.014 C 
HETATM    5  C5  UNL     1     -35.884  15.395  -4.959  1.00 20.00     0.100 C 
HETATM    6  C6  UNL     1     -34.618  13.063  -4.884  1.00 20.00     0.012 C 
HETATM    7  N10 UNL     1     -37.909  14.301  -3.742  1.00 20.00    -0.196 NA
ENDROOT
BRANCH   5   8
HETATM    8  S11 UNL     1     -35.609  17.084  -4.269  1.00 20.00    -0.143 SA
BRANCH   8   9
HETATM    9  C9  UNL     1     -35.963  16.704  -2.540  1.00 20.00     0.075 C 
BRANCH   9  10
HETATM   10  C8  UNL     1     -34.688  16.288  -1.813  1.00 20.00     0.006 C 
HETATM   11  C7  UNL     1     -34.604  16.939  -0.441  1.00 20.00     0.006 C 
ENDBRANCH   9  10
ENDBRANCH   8   9
ENDBRANCH   5   8
TORSDOF 3
ENDMDL
MODEL 3
REMARK VINA RESULT:      -4.4      2.168      2.718
REMARK  3 active torsions:
REMARK  status: ('A' for Active; 'I' for Inactive)
REMARK    1  A    between atoms: C5_5  and  S11_11 
REMARK    2  A    between atoms: C8_8  and  C9_9 
REMARK    3  A    between atoms: C9_9  and  S11_11 
ROOT
HETATM    1  C1  UNL     1     -33.867  16.587  -4.714  1.00 20.00     0.080 C 
HETATM    2  C2  UNL     1     -34.775  13.293  -4.869  1.00 20.00     0.009 C 
HETATM    3  C3  UNL     1     -33.876  14.159  -3.965  1.00 20.00     0.037 C 
HETATM    4  C4  UNL     1     -35.179  14.575  -5.643  1.00 20.00     0.014 C 
HETATM    5  C5  UNL     1     -34.654  15.411  -4.434  1.00 20.00     0.100 C 
HETATM    6  C6  UNL     1     -34.480  14.724  -6.992  1.00 20.00     0.012 C 
HETATM    7  N10 UNL     1     -33.233  17.532  -4.938  1.00 20.00    -0.196 NA
ENDROOT
BRANCH   5   8
HETATM    8  S11 UNL     1     -36.008  15.857  -3.264  1.00 20.00    -0.143 SA
BRANCH   8   9
HETATM    9  C9  UNL     1     -35.112  17.105  -2.315  1.00 20.00     0.075 C 
BRANCH   9  10
HETATM   10  C8  UNL     1     -34.538  16.496  -1.040  1.00 20.00     0.006 C 
HETATM   11  C7  UNL     1     -34.939  17.308   0.182  1.00 20.00     0.006 C 
ENDBRANCH   9  10
ENDBRANCH   8   9
ENDBRANCH   5   8
TORSDOF 3
ENDMDL
MODEL 4
REMARK VINA RESULT:      -4.2      1.874      4.095
REMARK  3 active torsions:
REMARK  status: ('A' for Active; 'I' for Inactive)
REMARK    1  A    between atoms: C5_5  and  S11_11 
REMARK    2  A    between atoms: C8_8  and  C9_9 
REMARK    3  A    between atoms: C9_9  and  S11_11 
ROOT
HETATM    1  C1  UNL     1     -36.624  14.395  -4.049  1.00 20.00     0.080 C 
HETATM    2  C2  UNL     1     -33.223  14.389  -3.680  1.00 20.00     0.009 C 
HETATM    3  C3  UNL     1     -34.309  13.349  -4.022  1.00 20.00     0.037 C 
HETATM    4  C4  UNL     1     -34.322  15.483  -3.659  1.00 20.00     0.014 C 
HETATM    5  C5  UNL     1     -35.243  14.505  -4.452  1.00 20.00     0.100 C 
HETATM    6  C6  UNL     1     -34.743  15.904  -2.253  1.00 20.00     0.012 C 
HETATM    7  N10 UNL     1     -37.734  14.307  -3.725  1.00 20.00    -0.196 NA
ENDROOT
BRANCH   5   8
HETATM    8  S11 UNL     1     -35.169  14.808  -6.270  1.00 20.00    -0.143 SA
BRANCH   8   9
HETATM    9  C9  UNL     1     -36.470  16.057  -6.364  1.00 20.00     0.075 C 
BRANCH   9  10
HETATM   10  C8  UNL     1     -35.864  17.456  -6.404  1.00 20.00     0.006 C 
HETATM   11  C7  UNL     1     -34.422  17.414  -6.889  1.00 20.00     0.006 C 
ENDBRANCH   9  10
ENDBRANCH   8   9
ENDBRANCH   5   8
TORSDOF 3
ENDMDL
MODEL 5
REMARK VINA RESULT:      -4.1      2.385      4.859
REMARK  3 active torsions:
REMARK  status: ('A' for Active; 'I' for Inactive)
REMARK    1  A    between atoms: C5_5  and  S11_11 
REMARK    2  A    between atoms: C8_8  and  C9_9 
REMARK    3  A    between atoms: C9_9  and  S11_11 
ROOT
HETATM    1  C1  UNL     1     -33.792  17.963  -3.913  1.00 20.00     0.080 C 
HETATM    2  C2  UNL     1     -34.786  16.510  -0.981  1.00 20.00     0.009 C 
HETATM    3  C3  UNL     1     -35.390  16.712  -2.384  1.00 20.00     0.037 C 
HETATM    4  C4  UNL     1     -33.476  17.172  -1.482  1.00 20.00     0.014 C 
HETATM    5  C5  UNL     1     -33.961  16.909  -2.942  1.00 20.00     0.100 C 
HETATM    6  C6  UNL     1     -33.303  18.617  -1.020  1.00 20.00     0.012 C 
HETATM    7  N10 UNL     1     -33.657  18.810  -4.694  1.00 20.00    -0.196 NA
ENDROOT
BRANCH   5   8
HETATM    8  S11 UNL     1     -33.268  15.343  -3.627  1.00 20.00    -0.143 SA
BRANCH   8   9
HETATM    9  C9  UNL     1     -34.021  15.437  -5.265  1.00 20.00     0.075 C 
BRANCH   9  10
HETATM   10  C8  UNL     1     -35.035  14.312  -5.451  1.00 20.00     0.006 C 
HETATM   11  C7  UNL     1     -35.023  13.363  -4.263  1.00 20.00     0.006 C 
ENDBRANCH   9  10
ENDBRANCH   8   9
ENDBRANCH   5   8
TORSDOF 3
ENDMDL
MODEL 6
REMARK VINA RESULT:      -4.0     11.625     13.113
REMARK  3 active torsions:
REMARK  status: ('A' for Active; 'I' for Inactive)
REMARK    1  A    between atoms: C5_5  and  S11_11 
REMARK    2  A    between atoms: C8_8  and  C9_9 
REMARK    3  A    between atoms: C9_9  and  S11_11 
ROOT
HETATM    1  C1  UNL     1     -33.387   6.834   5.757  1.00 20.00     0.080 C 
HETATM    2  C2  UNL     1     -35.498   5.175   3.637  1.00 20.00     0.009 C 
HETATM    3  C3  UNL     1     -35.075   6.639   3.868  1.00 20.00     0.037 C 
HETATM    4  C4  UNL     1     -34.483   4.742   4.727  1.00 20.00     0.014 C 
HETATM    5  C5  UNL     1     -33.790   6.131   4.563  1.00 20.00     0.100 C 
HETATM    6  C6  UNL     1     -35.129   4.403   6.069  1.00 20.00     0.012 C 
HETATM    7  N10 UNL     1     -33.063   7.400   6.716  1.00 20.00    -0.196 NA
ENDROOT
BRANCH   5   8
HETATM    8  S11 UNL     1     -32.361   6.056   3.398  1.00 20.00    -0.143 SA
BRANCH   8   9
HETATM    9  C9  UNL     1     -32.076   7.832   3.244  1.00 20.00     0.075 C 
BRANCH   9  10
HETATM   10  C8  UNL     1     -31.987   8.233   1.775  1.00 20.00     0.006 C 
HETATM   11  C7  UNL     1     -32.470   9.660   1.567  1.00 20.00     0.006 C 
ENDBRANCH   9  10
ENDBRANCH   8   9
ENDBRANCH   5   8
TORSDOF 3
ENDMDL
MODEL 7
REMARK VINA RESULT:      -4.0      2.035      2.818
REMARK  3 active torsions:
REMARK  status: ('A' for Active; 'I' for Inactive)
REMARK    1  A    between atoms: C5_5  and  S11_11 
REMARK    2  A    between atoms: C8_8  and  C9_9 
REMARK    3  A    between atoms: C9_9  and  S11_11 
ROOT
HETATM    1  C1  UNL     1     -36.187  15.423  -3.689  1.00 20.00     0.080 C 
HETATM    2  C2  UNL     1     -33.145  16.182  -5.055  1.00 20.00     0.009 C 
HETATM    3  C3  UNL     1     -34.622  16.420  -5.424  1.00 20.00     0.037 C 
HETATM    4  C4  UNL     1     -33.614  15.519  -3.733  1.00 20.00     0.014 C 
HETATM    5  C5  UNL     1     -35.000  16.204  -3.940  1.00 20.00     0.100 C 
HETATM    6  C6  UNL     1     -33.543  13.994  -3.751  1.00 20.00     0.012 C 
HETATM    7  N10 UNL     1     -37.142  14.795  -3.488  1.00 20.00    -0.196 NA
ENDROOT
BRANCH   5   8
HETATM    8  S11 UNL     1     -35.126  17.801  -3.024  1.00 20.00    -0.143 SA
BRANCH   8   9
HETATM    9  C9  UNL     1     -35.735  17.138  -1.458  1.00 20.00     0.075 C 
BRANCH   9  10
HETATM   10  C8  UNL     1     -34.595  17.013  -0.453  1.00 20.00     0.006 C 
HETATM   11  C7  UNL     1     -33.410  17.877  -0.858  1.00 20.00     0.006 C 
ENDBRANCH   9  10
ENDBRANCH   8   9
ENDBRANCH   5   8
TORSDOF 3
ENDMDL
MODEL 8
REMARK VINA RESULT:      -3.9      2.205      3.610
REMARK  3 active torsions:
REMARK  status: ('A' for Active; 'I' for Inactive)
REMARK    1  A    between atoms: C5_5  and  S11_11 
REMARK    2  A    between atoms: C8_8  and  C9_9 
REMARK    3  A    between atoms: C9_9  and  S11_11 
ROOT
HETATM    1  C1  UNL     1     -34.961  13.710  -4.991  1.00 20.00     0.080 C 
HETATM    2  C2  UNL     1     -34.231  16.450  -6.903  1.00 20.00     0.009 C 
HETATM    3  C3  UNL     1     -34.600  14.977  -7.163  1.00 20.00     0.037 C 
HETATM    4  C4  UNL     1     -34.418  16.197  -5.384  1.00 20.00     0.014 C 
HETATM    5  C5  UNL     1     -35.222  14.910  -5.748  1.00 20.00     0.100 C 
HETATM    6  C6  UNL     1     -33.105  16.046  -4.620  1.00 20.00     0.012 C 
HETATM    7  N10 UNL     1     -34.752  12.745  -4.382  1.00 20.00    -0.196 NA
ENDROOT
BRANCH   5   8
HETATM    8  S11 UNL     1     -37.040  15.217  -5.782  1.00 20.00    -0.143 SA
BRANCH   8   9
HETATM    9  C9  UNL     1     -37.387  14.829  -4.053  1.00 20.00     0.075 C 
BRANCH   9  10
HETATM   10  C8  UNL     1     -38.892  14.810  -3.802  1.00 20.00     0.006 C 
HETATM   11  C7  UNL     1     -39.664  14.782  -5.112  1.00 20.00     0.006 C 
ENDBRANCH   9  10
ENDBRANCH   8   9
ENDBRANCH   5   8
TORSDOF 3
ENDMDL
MODEL 9
REMARK VINA RESULT:      -3.9      1.956      4.578
REMARK  3 active torsions:
REMARK  status: ('A' for Active; 'I' for Inactive)
REMARK    1  A    between atoms: C5_5  and  S11_11 
REMARK    2  A    between atoms: C8_8  and  C9_9 
REMARK    3  A    between atoms: C9_9  and  S11_11 
ROOT
HETATM    1  C1  UNL     1     -35.906  16.567  -3.370  1.00 20.00     0.080 C 
HETATM    2  C2  UNL     1     -33.585  17.565  -1.065  1.00 20.00     0.009 C 
HETATM    3  C3  UNL     1     -34.599  16.413  -1.197  1.00 20.00     0.037 C 
HETATM    4  C4  UNL     1     -33.996  18.048  -2.480  1.00 20.00     0.014 C 
HETATM    5  C5  UNL     1     -34.617  16.638  -2.727  1.00 20.00     0.100 C 
HETATM    6  C6  UNL     1     -34.923  19.262  -2.471  1.00 20.00     0.012 C 
HETATM    7  N10 UNL     1     -36.944  16.510  -3.886  1.00 20.00    -0.196 NA
ENDROOT
BRANCH   5   8
HETATM    8  S11 UNL     1     -33.446  15.511  -3.601  1.00 20.00    -0.143 SA
BRANCH   8   9
HETATM    9  C9  UNL     1     -34.432  14.002  -3.496  1.00 20.00     0.075 C 
BRANCH   9  10
HETATM   10  C8  UNL     1     -34.618  13.389  -4.879  1.00 20.00     0.006 C 
HETATM   11  C7  UNL     1     -34.574  14.457  -5.962  1.00 20.00     0.006 C 
ENDBRANCH   9  10
ENDBRANCH   8   9
ENDBRANCH   5   8
TORSDOF 3
ENDMDL
