MODEL 1
REMARK VINA RESULT:      -5.0      0.000      0.000
REMARK  1 active torsions:
REMARK  status: ('A' for Active; 'I' for Inactive)
REMARK    1  A    between atoms: C6_6  and  C11_11 
ROOT
HETATM    1  C1  UNL     1     -34.809  13.511  -4.060  1.00 20.00     0.001 C 
HETATM    2  C2  UNL     1     -33.967  14.550  -3.330  1.00 20.00     0.006 C 
HETATM    3  C3  UNL     1     -35.262  16.657  -4.039  1.00 20.00     0.007 C 
HETATM    4  C4  UNL     1     -34.903  13.690  -5.572  1.00 20.00     0.008 C 
HETATM    5  C5  UNL     1     -36.100  15.957  -5.113  1.00 20.00     0.009 C 
HETATM    6  C6  UNL     1     -34.777  15.772  -2.885  1.00 20.00     0.003 C 
HETATM    7  C7  UNL     1     -35.343  15.068  -6.132  1.00 20.00    -0.048 C 
HETATM    8  C8  UNL     1     -34.120  15.804  -6.718  1.00 20.00     0.015 C 
HETATM    9  C9  UNL     1     -36.307  14.803  -7.317  1.00 20.00     0.015 C 
ENDROOT
BRANCH   6  10
HETATM   10  C11 UNL     1     -33.945  16.619  -1.914  1.00 20.00     0.082 C 
HETATM   11  C10 UNL     1     -34.662  16.792  -0.589  1.00 20.00     0.027 C 
HETATM   12 CL12 UNL     1     -33.628  18.210  -2.650  1.00 20.00    -0.125 Cl
ENDBRANCH   6  10
TORSDOF 1
ENDMDL
MODEL 2
REMARK VINA RESULT:      -4.9      1.637      2.675
REMARK  1 active torsions:
REMARK  status: ('A' for Active; 'I' for Inactive)
REMARK    1  A    between atoms: C6_6  and  C11_11 
ROOT
HETATM    1  C1  UNL     1     -33.308  16.792  -4.963  1.00 20.00     0.001 C 
HETATM    2  C2  UNL     1     -33.966  17.633  -3.876  1.00 20.00     0.006 C 
HETATM    3  C3  UNL     1     -34.554  15.740  -2.235  1.00 20.00     0.007 C 
HETATM    4  C4  UNL     1     -34.189  15.706  -5.574  1.00 20.00     0.008 C 
HETATM    5  C5  UNL     1     -34.261  14.602  -3.216  1.00 20.00     0.009 C 
HETATM    6  C6  UNL     1     -33.784  17.044  -2.472  1.00 20.00     0.003 C 
HETATM    7  C7  UNL     1     -34.897  14.702  -4.626  1.00 20.00    -0.048 C 
HETATM    8  C8  UNL     1     -36.400  15.042  -4.540  1.00 20.00     0.015 C 
HETATM    9  C9  UNL     1     -34.799  13.299  -5.277  1.00 20.00     0.015 C 
ENDROOT
BRANCH   6  10
HETATM   10  C11 UNL     1     -34.204  18.078  -1.421  1.00 20.00     0.082 C 
HETATM   11  C10 UNL     1     -33.051  19.000  -1.072  1.00 20.00     0.027 C 
HETATM   12 CL12 UNL     1     -34.772  17.229   0.039  1.00 20.00    -0.125 Cl
ENDBRANCH   6  10
TORSDOF 1
ENDMDL
MODEL 3
REMARK VINA RESULT:      -4.8      1.273      1.354
REMARK  1 active torsions:
REMARK  status: ('A' for Active; 'I' for Inactive)
REMARK    1  A    between atoms: C6_6  and  C11_11 
ROOT
HETATM    1  C1  UNL     1     -34.804  13.822  -3.785  1.00 20.00     0.001 C 
HETATM    2  C2  UNL     1     -34.565  15.122  -3.027  1.00 20.00     0.006 C 
HETATM    3  C3  UNL     1     -36.131  16.647  -4.385  1.00 20.00     0.007 C 
HETATM    4  C4  UNL     1     -34.475  13.863  -5.275  1.00 20.00     0.008 C 
HETATM    5  C5  UNL     1     -36.358  15.647  -5.521  1.00 20.00     0.009 C 
HETATM    6  C6  UNL     1     -35.791  16.043  -3.018  1.00 20.00     0.003 C 
HETATM    7  C7  UNL     1     -35.101  14.986  -6.144  1.00 20.00    -0.048 C 
HETATM    8  C8  UNL     1     -34.025  16.039  -6.484  1.00 20.00     0.015 C 
HETATM    9  C9  UNL     1     -35.534  14.348  -7.488  1.00 20.00     0.015 C 
ENDROOT
BRANCH   6  10
HETATM   10  C11 UNL     1     -35.580  17.173  -2.003  1.00 20.00     0.082 C 
HETATM   11  C10 UNL     1     -34.899  18.365  -2.649  1.00 20.00     0.027 C 
HETATM   12 CL12 UNL     1     -34.595  16.566  -0.649  1.00 20.00    -0.125 Cl
ENDBRANCH   6  10
TORSDOF 1
ENDMDL
MODEL 4
REMARK VINA RESULT:      -4.7      1.117      1.976
REMARK  1 active torsions:
REMARK  status: ('A' for Active; 'I' for Inactive)
REMARK    1  A    between atoms: C6_6  and  C11_11 
ROOT
HETATM    1  C1  UNL     1     -36.491  16.439  -4.280  1.00 20.00     0.001 C 
HETATM    2  C2  UNL     1     -35.697  16.352  -2.983  1.00 20.00     0.006 C 
HETATM    3  C3  UNL     1     -33.334  16.207  -3.993  1.00 20.00     0.007 C 
HETATM    4  C4  UNL     1     -36.309  15.267  -5.240  1.00 20.00     0.008 C 
HETATM    5  C5  UNL     1     -33.806  15.964  -5.429  1.00 20.00     0.009 C 
HETATM    6  C6  UNL     1     -34.303  16.981  -3.091  1.00 20.00     0.003 C 
HETATM    7  C7  UNL     1     -34.868  14.857  -5.647  1.00 20.00    -0.048 C 
HETATM    8  C8  UNL     1     -34.476  13.553  -4.920  1.00 20.00     0.015 C 
HETATM    9  C9  UNL     1     -34.889  14.529  -7.161  1.00 20.00     0.015 C 
ENDROOT
BRANCH   6  10
HETATM   10  C11 UNL     1     -33.690  17.122  -1.693  1.00 20.00     0.082 C 
HETATM   11  C10 UNL     1     -34.677  16.705  -0.620  1.00 20.00     0.027 C 
HETATM   12 CL12 UNL     1     -33.191  18.813  -1.442  1.00 20.00    -0.125 Cl
ENDBRANCH   6  10
TORSDOF 1
ENDMDL
MODEL 5
REMARK VINA RESULT:      -4.6      2.270      4.492
REMARK  1 active torsions:
REMARK  status: ('A' for Active; 'I' for Inactive)
REMARK    1  A    between atoms: C6_6  and  C11_11 
ROOT
HETATM    1  C1  UNL     1     -33.950  13.918  -4.265  1.00 20.00     0.001 C 
HETATM    2  C2  UNL     1     -34.661  14.299  -5.558  1.00 20.00     0.006 C 
HETATM    3  C3  UNL     1     -34.221  16.833  -5.502  1.00 20.00     0.007 C 
HETATM    4  C4  UNL     1     -34.473  14.601  -3.004  1.00 20.00     0.008 C 
HETATM    5  C5  UNL     1     -33.718  16.861  -4.056  1.00 20.00     0.009 C 
HETATM    6  C6  UNL     1     -34.030  15.511  -6.253  1.00 20.00     0.003 C 
HETATM    7  C7  UNL     1     -34.589  16.148  -2.990  1.00 20.00    -0.048 C 
HETATM    8  C8  UNL     1     -36.072  16.558  -3.112  1.00 20.00     0.015 C 
HETATM    9  C9  UNL     1     -34.109  16.638  -1.601  1.00 20.00     0.015 C 
ENDROOT
BRANCH   6  10
HETATM   10  C11 UNL     1     -34.599  15.647  -7.670  1.00 20.00     0.082 C 
HETATM   11  C10 UNL     1     -35.174  17.032  -7.897  1.00 20.00     0.027 C 
HETATM   12 CL12 UNL     1     -35.862  14.414  -7.914  1.00 20.00    -0.125 Cl
ENDBRANCH   6  10
TORSDOF 1
ENDMDL
MODEL 6
REMARK VINA RESULT:      -4.6      1.326      1.965
REMARK  1 active torsions:
REMARK  status: ('A' for Active; 'I' for Inactive)
REMARK    1  A    between atoms: C6_6  and  C11_11 
ROOT
HETATM    1  C1  UNL     1     -33.064  16.299  -4.797  1.00 20.00     0.001 C 
HETATM    2  C2  UNL     1     -33.752  16.971  -3.616  1.00 20.00     0.006 C 
HETATM    3  C3  UNL     1     -35.598  15.225  -3.208  1.00 20.00     0.007 C 
HETATM    4  C4  UNL     1     -33.949  16.050  -6.016  1.00 20.00     0.008 C 
HETATM    5  C5  UNL     1     -35.367  14.462  -4.515  1.00 20.00     0.009 C 
HETATM    6  C6  UNL     1     -34.383  15.969  -2.642  1.00 20.00     0.003 C 
HETATM    7  C7  UNL     1     -35.291  15.298  -5.818  1.00 20.00    -0.048 C 
HETATM    8  C8  UNL     1     -36.464  16.297  -5.912  1.00 20.00     0.015 C 
HETATM    9  C9  UNL     1     -35.453  14.316  -7.006  1.00 20.00     0.015 C 
ENDROOT
BRANCH   6  10
HETATM   10  C11 UNL     1     -34.787  16.689  -1.350  1.00 20.00     0.082 C 
HETATM   11  C10 UNL     1     -35.964  17.616  -1.587  1.00 20.00     0.027 C 
HETATM   12 CL12 UNL     1     -33.394  17.615  -0.737  1.00 20.00    -0.125 Cl
ENDBRANCH   6  10
TORSDOF 1
ENDMDL
MODEL 7
REMARK VINA RESULT:      -4.5      2.278      4.706
REMARK  1 active torsions:
REMARK  status: ('A' for Active; 'I' for Inactive)
REMARK    1  A    between atoms: C6_6  and  C11_11 
ROOT
HETATM    1  C1  UNL     1     -37.190  16.138  -3.779  1.00 20.00     0.001 C 
HETATM    2  C2  UNL     1     -36.596  15.948  -5.168  1.00 20.00     0.006 C 
HETATM    3  C3  UNL     1     -34.457  14.685  -4.498  1.00 20.00     0.007 C 
HETATM    4  C4  UNL     1     -36.314  16.903  -2.791  1.00 20.00     0.008 C 
HETATM    5  C5  UNL     1     -34.589  14.962  -2.999  1.00 20.00     0.009 C 
HETATM    6  C6  UNL     1     -35.767  14.665  -5.294  1.00 20.00     0.003 C 
HETATM    7  C7  UNL     1     -34.853  16.429  -2.571  1.00 20.00    -0.048 C 
HETATM    8  C8  UNL     1     -33.881  17.401  -3.273  1.00 20.00     0.015 C 
HETATM    9  C9  UNL     1     -34.556  16.527  -1.053  1.00 20.00     0.015 C 
ENDROOT
BRANCH   6  10
HETATM   10  C11 UNL     1     -35.457  14.392  -6.771  1.00 20.00     0.082 C 
HETATM   11  C10 UNL     1     -34.248  15.184  -7.230  1.00 20.00     0.027 C 
HETATM   12 CL12 UNL     1     -36.879  14.822  -7.755  1.00 20.00    -0.125 Cl
ENDBRANCH   6  10
TORSDOF 1
ENDMDL
MODEL 8
REMARK VINA RESULT:      -4.4      2.188      5.440
REMARK  1 active torsions:
REMARK  status: ('A' for Active; 'I' for Inactive)
REMARK    1  A    between atoms: C6_6  and  C11_11 
ROOT
HETATM    1  C1  UNL     1     -35.560  18.952  -2.531  1.00 20.00     0.001 C 
HETATM    2  C2  UNL     1     -34.396  18.433  -3.366  1.00 20.00     0.006 C 
HETATM    3  C3  UNL     1     -33.911  16.279  -2.045  1.00 20.00     0.007 C 
HETATM    4  C4  UNL     1     -35.249  19.197  -1.057  1.00 20.00     0.008 C 
HETATM    5  C5  UNL     1     -34.794  16.641  -0.849  1.00 20.00     0.009 C 
HETATM    6  C6  UNL     1     -34.310  16.902  -3.387  1.00 20.00     0.003 C 
HETATM    7  C7  UNL     1     -34.608  18.050  -0.231  1.00 20.00    -0.048 C 
HETATM    8  C8  UNL     1     -33.116  18.361   0.015  1.00 20.00     0.015 C 
HETATM    9  C9  UNL     1     -35.292  18.040   1.159  1.00 20.00     0.015 C 
ENDROOT
BRANCH   6  10
HETATM   10  C11 UNL     1     -33.319  16.455  -4.468  1.00 20.00     0.082 C 
HETATM   11  C10 UNL     1     -34.029  16.184  -5.780  1.00 20.00     0.027 C 
HETATM   12 CL12 UNL     1     -32.475  14.987  -3.915  1.00 20.00    -0.125 Cl
ENDBRANCH   6  10
TORSDOF 1
ENDMDL
MODEL 9
REMARK VINA RESULT:      -4.3      2.278      4.694
REMARK  1 active torsions:
REMARK  status: ('A' for Active; 'I' for Inactive)
REMARK    1  A    between atoms: C6_6  and  C11_11 
ROOT
HETATM    1  C1  UNL     1     -33.744  17.241  -5.288  1.00 20.00     0.001 C 
HETATM    2  C2  UNL     1     -34.407  16.345  -6.327  1.00 20.00     0.006 C 
HETATM    3  C3  UNL     1     -36.526  15.730  -5.003  1.00 20.00     0.007 C 
HETATM    4  C4  UNL     1     -33.454  16.580  -3.944  1.00 20.00     0.008 C 
HETATM    5  C5  UNL     1     -36.027  16.283  -3.666  1.00 20.00     0.009 C 
HETATM    6  C6  UNL     1     -35.938  16.382  -6.260  1.00 20.00     0.003 C 
HETATM    7  C7  UNL     1     -34.610  15.853  -3.207  1.00 20.00    -0.048 C 
HETATM    8  C8  UNL     1     -34.422  14.326  -3.327  1.00 20.00     0.015 C 
HETATM    9  C9  UNL     1     -34.489  16.195  -1.701  1.00 20.00     0.015 C 
ENDROOT
BRANCH   6  10
HETATM   10  C11 UNL     1     -36.526  15.705  -7.504  1.00 20.00     0.082 C 
HETATM   11  C10 UNL     1     -37.966  15.289  -7.269  1.00 20.00     0.027 C 
HETATM   12 CL12 UNL     1     -35.538  14.282  -7.916  1.00 20.00    -0.125 Cl
ENDBRANCH   6  10
TORSDOF 1
ENDMDL
