MODEL 1
REMARK VINA RESULT:      -4.6      0.000      0.000
REMARK  2 active torsions:
REMARK  status: ('A' for Active; 'I' for Inactive)
REMARK    1  A    between atoms: C8_8  and  C9_9 
REMARK    2  A    between atoms: C9_9  and  N11_11 
ROOT
HETATM    1  C1  UNL     1     -35.133  13.793  -4.085  1.00 20.00     0.060 C 
HETATM    2  C8  UNL     1     -35.424  15.116  -3.511  1.00 20.00     0.154 C 
HETATM    3  N10 UNL     1     -34.904  12.749  -4.536  1.00 20.00    -0.197 NA
ENDROOT
BRANCH   2   4
HETATM    4  C9  UNL     1     -34.276  16.096  -3.727  1.00 20.00     0.286 C 
BRANCH   4   5
HETATM    5  N11 UNL     1     -33.830  16.658  -2.461  1.00 20.00     0.090 N 
HETATM    6  C2  UNL     1     -33.707  18.119  -2.503  1.00 20.00     0.277 C 
HETATM    7  C4  UNL     1     -33.868  18.573  -1.044  1.00 20.00     0.015 C 
HETATM    8  C5  UNL     1     -34.205  17.286  -0.273  1.00 20.00     0.015 C 
HETATM    9  C6  UNL     1     -32.621  19.260  -0.498  1.00 20.00     0.012 C 
HETATM   10  C3  UNL     1     -34.748  16.364  -1.360  1.00 20.00     0.277 C 
HETATM   11  C7  UNL     1     -35.190  17.501   0.865  1.00 20.00     0.012 C 
ENDBRANCH   4   5
ENDBRANCH   2   4
TORSDOF 2
ENDMDL
MODEL 2
REMARK VINA RESULT:      -4.5      0.590      1.986
REMARK  2 active torsions:
REMARK  status: ('A' for Active; 'I' for Inactive)
REMARK    1  A    between atoms: C8_8  and  C9_9 
REMARK    2  A    between atoms: C9_9  and  N11_11 
ROOT
HETATM    1  C1  UNL     1     -34.365  13.806  -4.047  1.00 20.00     0.060 C 
HETATM    2  C8  UNL     1     -33.849  15.043  -3.441  1.00 20.00     0.154 C 
HETATM    3  N10 UNL     1     -34.771  12.830  -4.525  1.00 20.00    -0.197 NA
ENDROOT
BRANCH   2   4
HETATM    4  C9  UNL     1     -34.784  16.225  -3.675  1.00 20.00     0.286 C 
BRANCH   4   5
HETATM    5  N11 UNL     1     -34.847  17.077  -2.497  1.00 20.00     0.090 N 
HETATM    6  C2  UNL     1     -34.807  16.314  -1.245  1.00 20.00     0.277 C 
HETATM    7  C4  UNL     1     -34.251  17.294  -0.201  1.00 20.00     0.015 C 
HETATM    8  C5  UNL     1     -33.891  18.554  -1.006  1.00 20.00     0.015 C 
HETATM    9  C6  UNL     1     -35.243  17.591   0.918  1.00 20.00     0.012 C 
HETATM   10  C3  UNL     1     -33.733  18.023  -2.426  1.00 20.00     0.277 C 
HETATM   11  C7  UNL     1     -32.645  19.263  -0.499  1.00 20.00     0.012 C 
ENDBRANCH   4   5
ENDBRANCH   2   4
TORSDOF 2
ENDMDL
MODEL 3
REMARK VINA RESULT:      -4.4      1.833      5.294
REMARK  2 active torsions:
REMARK  status: ('A' for Active; 'I' for Inactive)
REMARK    1  A    between atoms: C8_8  and  C9_9 
REMARK    2  A    between atoms: C9_9  and  N11_11 
ROOT
HETATM    1  C1  UNL     1     -32.385  18.630  -0.107  1.00 20.00     0.060 C 
HETATM    2  C8  UNL     1     -33.573  17.828  -0.436  1.00 20.00     0.154 C 
HETATM    3  N10 UNL     1     -31.448  19.263   0.154  1.00 20.00    -0.197 NA
ENDROOT
BRANCH   2   4
HETATM    4  C9  UNL     1     -34.054  18.081  -1.861  1.00 20.00     0.286 C 
BRANCH   4   5
HETATM    5  N11 UNL     1     -33.642  17.003  -2.746  1.00 20.00     0.090 N 
HETATM    6  C2  UNL     1     -34.450  15.790  -2.576  1.00 20.00     0.277 C 
HETATM    7  C4  UNL     1     -34.343  15.051  -3.919  1.00 20.00     0.015 C 
HETATM    8  C5  UNL     1     -33.546  16.005  -4.824  1.00 20.00     0.015 C 
HETATM    9  C6  UNL     1     -33.674  13.687  -3.791  1.00 20.00     0.012 C 
HETATM   10  C3  UNL     1     -33.750  17.362  -4.160  1.00 20.00     0.277 C 
HETATM   11  C7  UNL     1     -33.998  15.983  -6.275  1.00 20.00     0.012 C 
ENDBRANCH   4   5
ENDBRANCH   2   4
TORSDOF 2
ENDMDL
MODEL 4
REMARK VINA RESULT:      -4.3      1.999      5.088
REMARK  2 active torsions:
REMARK  status: ('A' for Active; 'I' for Inactive)
REMARK    1  A    between atoms: C8_8  and  C9_9 
REMARK    2  A    between atoms: C9_9  and  N11_11 
ROOT
HETATM    1  C1  UNL     1     -32.323  18.746  -0.184  1.00 20.00     0.060 C 
HETATM    2  C8  UNL     1     -33.470  18.091  -0.830  1.00 20.00     0.154 C 
HETATM    3  N10 UNL     1     -31.418  19.263   0.327  1.00 20.00    -0.197 NA
ENDROOT
BRANCH   2   4
HETATM    4  C9  UNL     1     -33.667  18.571  -2.264  1.00 20.00     0.286 C 
BRANCH   4   5
HETATM    5  N11 UNL     1     -34.090  17.476  -3.123  1.00 20.00     0.090 N 
HETATM    6  C2  UNL     1     -33.510  17.556  -4.469  1.00 20.00     0.277 C 
HETATM    7  C4  UNL     1     -33.511  16.109  -4.987  1.00 20.00     0.015 C 
HETATM    8  C5  UNL     1     -34.002  15.271  -3.796  1.00 20.00     0.015 C 
HETATM    9  C6  UNL     1     -34.389  15.925  -6.220  1.00 20.00     0.012 C 
HETATM   10  C3  UNL     1     -33.706  16.166  -2.597  1.00 20.00     0.277 C 
HETATM   11  C7  UNL     1     -33.334  13.909  -3.695  1.00 20.00     0.012 C 
ENDBRANCH   4   5
ENDBRANCH   2   4
TORSDOF 2
ENDMDL
MODEL 5
REMARK VINA RESULT:      -4.3      1.797      5.245
REMARK  2 active torsions:
REMARK  status: ('A' for Active; 'I' for Inactive)
REMARK    1  A    between atoms: C8_8  and  C9_9 
REMARK    2  A    between atoms: C9_9  and  N11_11 
ROOT
HETATM    1  C1  UNL     1     -34.761  17.353   0.287  1.00 20.00     0.060 C 
HETATM    2  C8  UNL     1     -34.763  16.547  -0.943  1.00 20.00     0.154 C 
HETATM    3  N10 UNL     1     -34.762  17.988   1.258  1.00 20.00    -0.197 NA
ENDROOT
BRANCH   2   4
HETATM    4  C9  UNL     1     -33.688  17.003  -1.924  1.00 20.00     0.286 C 
BRANCH   4   5
HETATM    5  N11 UNL     1     -33.599  16.091  -3.055  1.00 20.00     0.090 N 
HETATM    6  C2  UNL     1     -34.708  15.131  -3.096  1.00 20.00     0.277 C 
HETATM    7  C4  UNL     1     -34.825  14.725  -4.574  1.00 20.00     0.015 C 
HETATM    8  C5  UNL     1     -33.807  15.617  -5.302  1.00 20.00     0.015 C 
HETATM    9  C6  UNL     1     -34.555  13.242  -4.801  1.00 20.00     0.012 C 
HETATM   10  C3  UNL     1     -33.621  16.787  -4.342  1.00 20.00     0.277 C 
HETATM   11  C7  UNL     1     -34.265  16.056  -6.685  1.00 20.00     0.012 C 
ENDBRANCH   4   5
ENDBRANCH   2   4
TORSDOF 2
ENDMDL
MODEL 6
REMARK VINA RESULT:      -4.3      1.528      2.005
REMARK  2 active torsions:
REMARK  status: ('A' for Active; 'I' for Inactive)
REMARK    1  A    between atoms: C8_8  and  C9_9 
REMARK    2  A    between atoms: C9_9  and  N11_11 
ROOT
HETATM    1  C1  UNL     1     -34.051  13.642  -4.213  1.00 20.00     0.060 C 
HETATM    2  C8  UNL     1     -33.108  14.690  -3.793  1.00 20.00     0.154 C 
HETATM    3  N10 UNL     1     -34.793  12.814  -4.543  1.00 20.00    -0.197 NA
ENDROOT
BRANCH   2   4
HETATM    4  C9  UNL     1     -33.391  16.021  -4.483  1.00 20.00     0.286 C 
BRANCH   4   5
HETATM    5  N11 UNL     1     -33.946  16.983  -3.544  1.00 20.00     0.090 N 
HETATM    6  C2  UNL     1     -35.406  17.093  -3.645  1.00 20.00     0.277 C 
HETATM    7  C4  UNL     1     -35.861  17.594  -2.265  1.00 20.00     0.015 C 
HETATM    8  C5  UNL     1     -34.579  17.613  -1.417  1.00 20.00     0.015 C 
HETATM    9  C6  UNL     1     -36.531  18.962  -2.325  1.00 20.00     0.012 C 
HETATM   10  C3  UNL     1     -33.665  16.638  -2.150  1.00 20.00     0.277 C 
HETATM   11  C7  UNL     1     -34.806  17.230   0.036  1.00 20.00     0.012 C 
ENDBRANCH   4   5
ENDBRANCH   2   4
TORSDOF 2
ENDMDL
MODEL 7
REMARK VINA RESULT:      -4.1      1.712      2.563
REMARK  2 active torsions:
REMARK  status: ('A' for Active; 'I' for Inactive)
REMARK    1  A    between atoms: C8_8  and  C9_9 
REMARK    2  A    between atoms: C9_9  and  N11_11 
ROOT
HETATM    1  C1  UNL     1     -34.772  13.598  -5.298  1.00 20.00     0.060 C 
HETATM    2  C8  UNL     1     -34.569  14.681  -6.272  1.00 20.00     0.154 C 
HETATM    3  N10 UNL     1     -34.934  12.743  -4.531  1.00 20.00    -0.197 NA
ENDROOT
BRANCH   2   4
HETATM    4  C9  UNL     1     -33.946  15.916  -5.629  1.00 20.00     0.286 C 
BRANCH   4   5
HETATM    5  N11 UNL     1     -34.595  16.224  -4.363  1.00 20.00     0.090 N 
HETATM    6  C2  UNL     1     -33.639  16.370  -3.259  1.00 20.00     0.277 C 
HETATM    7  C4  UNL     1     -34.349  17.273  -2.238  1.00 20.00     0.015 C 
HETATM    8  C5  UNL     1     -35.660  17.682  -2.929  1.00 20.00     0.015 C 
HETATM    9  C6  UNL     1     -34.596  16.575  -0.905  1.00 20.00     0.012 C 
HETATM   10  C3  UNL     1     -35.352  17.475  -4.408  1.00 20.00     0.277 C 
HETATM   11  C7  UNL     1     -36.095  19.104  -2.611  1.00 20.00     0.012 C 
ENDBRANCH   4   5
ENDBRANCH   2   4
TORSDOF 2
ENDMDL
MODEL 8
REMARK VINA RESULT:      -4.1      1.741      5.178
REMARK  2 active torsions:
REMARK  status: ('A' for Active; 'I' for Inactive)
REMARK    1  A    between atoms: C8_8  and  C9_9 
REMARK    2  A    between atoms: C9_9  and  N11_11 
ROOT
HETATM    1  C1  UNL     1     -32.473  18.640  -0.076  1.00 20.00     0.060 C 
HETATM    2  C8  UNL     1     -33.705  17.913  -0.419  1.00 20.00     0.154 C 
HETATM    3  N10 UNL     1     -31.503  19.215   0.197  1.00 20.00    -0.197 NA
ENDROOT
BRANCH   2   4
HETATM    4  C9  UNL     1     -33.912  17.824  -1.927  1.00 20.00     0.286 C 
BRANCH   4   5
HETATM    5  N11 UNL     1     -34.593  16.589  -2.285  1.00 20.00     0.090 N 
HETATM    6  C2  UNL     1     -35.657  16.795  -3.273  1.00 20.00     0.277 C 
HETATM    7  C4  UNL     1     -35.809  15.440  -3.982  1.00 20.00     0.015 C 
HETATM    8  C5  UNL     1     -34.685  14.569  -3.395  1.00 20.00     0.015 C 
HETATM    9  C6  UNL     1     -37.185  14.817  -3.777  1.00 20.00     0.012 C 
HETATM   10  C3  UNL     1     -33.690  15.597  -2.868  1.00 20.00     0.277 C 
HETATM   11  C7  UNL     1     -34.069  13.613  -4.404  1.00 20.00     0.012 C 
ENDBRANCH   4   5
ENDBRANCH   2   4
TORSDOF 2
ENDMDL
MODEL 9
REMARK VINA RESULT:      -4.0      1.828      4.973
REMARK  2 active torsions:
REMARK  status: ('A' for Active; 'I' for Inactive)
REMARK    1  A    between atoms: C8_8  and  C9_9 
REMARK    2  A    between atoms: C9_9  and  N11_11 
ROOT
HETATM    1  C1  UNL     1     -34.977  17.373   0.066  1.00 20.00     0.060 C 
HETATM    2  C8  UNL     1     -34.422  16.615  -1.065  1.00 20.00     0.154 C 
HETATM    3  N10 UNL     1     -35.417  17.969   0.960  1.00 20.00    -0.197 NA
ENDROOT
BRANCH   2   4
HETATM    4  C9  UNL     1     -34.285  17.477  -2.316  1.00 20.00     0.286 C 
BRANCH   4   5
HETATM    5  N11 UNL     1     -34.667  16.730  -3.504  1.00 20.00     0.090 N 
HETATM    6  C2  UNL     1     -33.665  16.815  -4.572  1.00 20.00     0.277 C 
HETATM    7  C4  UNL     1     -33.877  15.548  -5.416  1.00 20.00     0.015 C 
HETATM    8  C5  UNL     1     -34.949  14.752  -4.656  1.00 20.00     0.015 C 
HETATM    9  C6  UNL     1     -34.298  15.857  -6.849  1.00 20.00     0.012 C 
HETATM   10  C3  UNL     1     -34.850  15.303  -3.238  1.00 20.00     0.277 C 
HETATM   11  C7  UNL     1     -34.745  13.246  -4.719  1.00 20.00     0.012 C 
ENDBRANCH   4   5
ENDBRANCH   2   4
TORSDOF 2
ENDMDL
