MODEL 1
REMARK VINA RESULT:      -4.5      0.000      0.000
REMARK  1 active torsions:
REMARK  status: ('A' for Active; 'I' for Inactive)
REMARK    1  A    between atoms: C1_1  and  C2_2 
ROOT
HETATM    1  C2  UNL     1     -35.235  14.924  -4.280  1.00 20.00     0.089 A 
HETATM    2  C3  UNL     1     -34.663  16.286  -4.641  1.00 20.00    -0.028 A 
HETATM    3  C4  UNL     1     -34.099  15.496  -3.447  1.00 20.00    -0.028 A 
HETATM    4  C5  UNL     1     -35.535  17.497  -4.384  1.00 20.00     0.016 C 
HETATM    5  C6  UNL     1     -33.826  16.450  -5.891  1.00 20.00     0.016 C 
HETATM    6  C7  UNL     1     -32.713  14.895  -3.541  1.00 20.00     0.016 C 
HETATM    7  C8  UNL     1     -34.425  15.946  -2.039  1.00 20.00     0.016 C 
ENDROOT
BRANCH   1   8
HETATM    8  C1  UNL     1     -35.032  13.756  -5.148  1.00 20.00     0.224 C 
HETATM    9  O9  UNL     1     -34.692  12.667  -4.696  1.00 20.00    -0.279 OA
HETATM   10 CL10 UNL     1     -35.328  14.126  -6.820  1.00 20.00    -0.043 Cl
ENDBRANCH   1   8
TORSDOF 1
ENDMDL
MODEL 2
REMARK VINA RESULT:      -4.4      1.804      2.812
REMARK  1 active torsions:
REMARK  status: ('A' for Active; 'I' for Inactive)
REMARK    1  A    between atoms: C1_1  and  C2_2 
ROOT
HETATM    1  C2  UNL     1     -34.602  14.925  -4.777  1.00 20.00     0.089 A 
HETATM    2  C3  UNL     1     -34.784  16.103  -3.832  1.00 20.00    -0.028 A 
HETATM    3  C4  UNL     1     -35.986  15.531  -4.604  1.00 20.00    -0.028 A 
HETATM    4  C5  UNL     1     -34.195  17.431  -4.256  1.00 20.00     0.016 C 
HETATM    5  C6  UNL     1     -34.691  15.897  -2.335  1.00 20.00     0.016 C 
HETATM    6  C7  UNL     1     -37.059  14.770  -3.854  1.00 20.00     0.016 C 
HETATM    7  C8  UNL     1     -36.557  16.308  -5.771  1.00 20.00     0.016 C 
ENDROOT
BRANCH   1   8
HETATM    8  C1  UNL     1     -34.288  13.582  -4.270  1.00 20.00     0.224 C 
HETATM    9  O9  UNL     1     -35.068  12.643  -4.402  1.00 20.00    -0.279 OA
HETATM   10 CL10 UNL     1     -32.734  13.522  -3.495  1.00 20.00    -0.043 Cl
ENDBRANCH   1   8
TORSDOF 1
ENDMDL
MODEL 3
REMARK VINA RESULT:      -4.3      1.793      2.886
REMARK  1 active torsions:
REMARK  status: ('A' for Active; 'I' for Inactive)
REMARK    1  A    between atoms: C1_1  and  C2_2 
ROOT
HETATM    1  C2  UNL     1     -34.233  15.666  -4.640  1.00 20.00     0.089 A 
HETATM    2  C3  UNL     1     -34.162  14.269  -4.042  1.00 20.00    -0.028 A 
HETATM    3  C4  UNL     1     -34.968  15.376  -3.341  1.00 20.00    -0.028 A 
HETATM    4  C5  UNL     1     -32.838  13.830  -3.455  1.00 20.00     0.016 C 
HETATM    5  C6  UNL     1     -34.892  13.121  -4.707  1.00 20.00     0.016 C 
HETATM    6  C7  UNL     1     -36.480  15.302  -3.326  1.00 20.00     0.016 C 
HETATM    7  C8  UNL     1     -34.421  16.004  -2.077  1.00 20.00     0.016 C 
ENDROOT
BRANCH   1   8
HETATM    8  C1  UNL     1     -34.962  15.925  -5.889  1.00 20.00     0.224 C 
HETATM    9  O9  UNL     1     -35.931  16.678  -5.925  1.00 20.00    -0.279 OA
HETATM   10 CL10 UNL     1     -34.288  15.056  -7.233  1.00 20.00    -0.043 Cl
ENDBRANCH   1   8
TORSDOF 1
ENDMDL
MODEL 4
REMARK VINA RESULT:      -4.3      2.298      3.308
REMARK  1 active torsions:
REMARK  status: ('A' for Active; 'I' for Inactive)
REMARK    1  A    between atoms: C1_1  and  C2_2 
ROOT
HETATM    1  C2  UNL     1     -34.087  15.749  -4.711  1.00 20.00     0.089 A 
HETATM    2  C3  UNL     1     -35.599  15.587  -4.678  1.00 20.00    -0.028 A 
HETATM    3  C4  UNL     1     -34.730  14.614  -5.493  1.00 20.00    -0.028 A 
HETATM    4  C5  UNL     1     -36.425  16.629  -5.401  1.00 20.00     0.016 C 
HETATM    5  C6  UNL     1     -36.283  15.102  -3.417  1.00 20.00     0.016 C 
HETATM    6  C7  UNL     1     -34.571  13.184  -5.023  1.00 20.00     0.016 C 
HETATM    7  C8  UNL     1     -34.719  14.717  -7.003  1.00 20.00     0.016 C 
ENDROOT
BRANCH   1   8
HETATM    8  C1  UNL     1     -33.265  15.486  -3.521  1.00 20.00     0.224 C 
HETATM    9  O9  UNL     1     -32.369  14.647  -3.528  1.00 20.00    -0.279 OA
HETATM   10 CL10 UNL     1     -33.724  16.484  -2.176  1.00 20.00    -0.043 Cl
ENDBRANCH   1   8
TORSDOF 1
ENDMDL
MODEL 5
REMARK VINA RESULT:      -4.3      1.719      1.991
REMARK  1 active torsions:
REMARK  status: ('A' for Active; 'I' for Inactive)
REMARK    1  A    between atoms: C1_1  and  C2_2 
ROOT
HETATM    1  C2  UNL     1     -35.751  15.767  -4.408  1.00 20.00     0.089 A 
HETATM    2  C3  UNL     1     -34.552  15.683  -5.341  1.00 20.00    -0.028 A 
HETATM    3  C4  UNL     1     -34.461  15.137  -3.905  1.00 20.00    -0.028 A 
HETATM    4  C5  UNL     1     -33.849  16.978  -5.688  1.00 20.00     0.016 C 
HETATM    5  C6  UNL     1     -34.565  14.718  -6.507  1.00 20.00     0.016 C 
HETATM    6  C7  UNL     1     -34.385  13.642  -3.680  1.00 20.00     0.016 C 
HETATM    7  C8  UNL     1     -33.669  15.905  -2.868  1.00 20.00     0.016 C 
ENDROOT
BRANCH   1   8
HETATM    8  C1  UNL     1     -36.955  14.958  -4.639  1.00 20.00     0.224 C 
HETATM    9  O9  UNL     1     -37.330  14.113  -3.832  1.00 20.00    -0.279 OA
HETATM   10 CL10 UNL     1     -37.730  15.354  -6.143  1.00 20.00    -0.043 Cl
ENDBRANCH   1   8
TORSDOF 1
ENDMDL
MODEL 6
REMARK VINA RESULT:      -4.2      1.828      2.628
REMARK  1 active torsions:
REMARK  status: ('A' for Active; 'I' for Inactive)
REMARK    1  A    between atoms: C1_1  and  C2_2 
ROOT
HETATM    1  C2  UNL     1     -35.166  16.096  -4.743  1.00 20.00     0.089 A 
HETATM    2  C3  UNL     1     -35.127  16.154  -3.223  1.00 20.00    -0.028 A 
HETATM    3  C4  UNL     1     -35.656  14.900  -3.941  1.00 20.00    -0.028 A 
HETATM    4  C5  UNL     1     -36.105  17.084  -2.538  1.00 20.00     0.016 C 
HETATM    5  C6  UNL     1     -33.801  16.095  -2.496  1.00 20.00     0.016 C 
HETATM    6  C7  UNL     1     -34.842  13.625  -3.909  1.00 20.00     0.016 C 
HETATM    7  C8  UNL     1     -37.144  14.621  -3.947  1.00 20.00     0.016 C 
ENDROOT
BRANCH   1   8
HETATM    8  C1  UNL     1     -33.931  16.029  -5.536  1.00 20.00     0.224 C 
HETATM    9  O9  UNL     1     -32.889  16.553  -5.153  1.00 20.00    -0.279 OA
HETATM   10 CL10 UNL     1     -34.151  15.146  -7.016  1.00 20.00    -0.043 Cl
ENDBRANCH   1   8
TORSDOF 1
ENDMDL
MODEL 7
REMARK VINA RESULT:      -4.2      2.576      3.627
REMARK  1 active torsions:
REMARK  status: ('A' for Active; 'I' for Inactive)
REMARK    1  A    between atoms: C1_1  and  C2_2 
ROOT
HETATM    1  C2  UNL     1     -35.184  16.087  -4.593  1.00 20.00     0.089 A 
HETATM    2  C3  UNL     1     -35.820  14.706  -4.557  1.00 20.00    -0.028 A 
HETATM    3  C4  UNL     1     -35.543  15.401  -5.902  1.00 20.00    -0.028 A 
HETATM    4  C5  UNL     1     -37.244  14.609  -4.051  1.00 20.00     0.016 C 
HETATM    5  C6  UNL     1     -34.996  13.501  -4.156  1.00 20.00     0.016 C 
HETATM    6  C7  UNL     1     -34.451  14.870  -6.804  1.00 20.00     0.016 C 
HETATM    7  C8  UNL     1     -36.700  15.974  -6.692  1.00 20.00     0.016 C 
ENDROOT
BRANCH   1   8
HETATM    8  C1  UNL     1     -33.783  16.292  -4.198  1.00 20.00     0.224 C 
HETATM    9  O9  UNL     1     -32.904  16.504  -5.028  1.00 20.00    -0.279 OA
HETATM   10 CL10 UNL     1     -33.567  16.194  -2.477  1.00 20.00    -0.043 Cl
ENDBRANCH   1   8
TORSDOF 1
ENDMDL
MODEL 8
REMARK VINA RESULT:      -4.2      1.910      2.512
REMARK  1 active torsions:
REMARK  status: ('A' for Active; 'I' for Inactive)
REMARK    1  A    between atoms: C1_1  and  C2_2 
ROOT
HETATM    1  C2  UNL     1     -35.500  14.701  -4.656  1.00 20.00     0.089 A 
HETATM    2  C3  UNL     1     -36.017  15.106  -6.028  1.00 20.00    -0.028 A 
HETATM    3  C4  UNL     1     -35.083  16.041  -5.241  1.00 20.00    -0.028 A 
HETATM    4  C5  UNL     1     -37.487  15.450  -6.144  1.00 20.00     0.016 C 
HETATM    5  C6  UNL     1     -35.502  14.408  -7.269  1.00 20.00     0.016 C 
HETATM    6  C7  UNL     1     -33.663  16.250  -5.719  1.00 20.00     0.016 C 
HETATM    7  C8  UNL     1     -35.652  17.288  -4.598  1.00 20.00     0.016 C 
ENDROOT
BRANCH   1   8
HETATM    8  C1  UNL     1     -34.536  13.604  -4.498  1.00 20.00     0.224 C 
HETATM    9  O9  UNL     1     -34.752  12.483  -4.949  1.00 20.00    -0.279 OA
HETATM   10 CL10 UNL     1     -33.118  14.101  -3.624  1.00 20.00    -0.043 Cl
ENDBRANCH   1   8
TORSDOF 1
ENDMDL
MODEL 9
REMARK VINA RESULT:      -4.2      2.790      3.826
REMARK  1 active torsions:
REMARK  status: ('A' for Active; 'I' for Inactive)
REMARK    1  A    between atoms: C1_1  and  C2_2 
ROOT
HETATM    1  C2  UNL     1     -35.049  15.826  -3.728  1.00 20.00     0.089 A 
HETATM    2  C3  UNL     1     -34.180  14.635  -4.105  1.00 20.00    -0.028 A 
HETATM    3  C4  UNL     1     -34.504  15.723  -5.144  1.00 20.00    -0.028 A 
HETATM    4  C5  UNL     1     -34.858  13.286  -4.208  1.00 20.00     0.016 C 
HETATM    5  C6  UNL     1     -32.773  14.519  -3.559  1.00 20.00     0.016 C 
HETATM    6  C7  UNL     1     -33.410  16.661  -5.606  1.00 20.00     0.016 C 
HETATM    7  C8  UNL     1     -35.493  15.421  -6.250  1.00 20.00     0.016 C 
ENDROOT
BRANCH   1   8
HETATM    8  C1  UNL     1     -34.567  16.857  -2.799  1.00 20.00     0.224 C 
HETATM    9  O9  UNL     1     -34.185  17.955  -3.194  1.00 20.00    -0.279 OA
HETATM   10 CL10 UNL     1     -34.615  16.323  -1.146  1.00 20.00    -0.043 Cl
ENDBRANCH   1   8
TORSDOF 1
ENDMDL
