MODEL 1
REMARK VINA RESULT:      -3.9      0.000      0.000
REMARK  4 active torsions:
REMARK  status: ('A' for Active; 'I' for Inactive)
REMARK    1  A    between atoms: C1_1  and  C7_7 
REMARK    2  A    between atoms: C1_1  and  C9_9 
REMARK    3  A    between atoms: C8_8  and  C9_9 
REMARK    4  A    between atoms: C9_9  and  N10_10 
ROOT
HETATM    1  C4  UNL     1     -33.736  18.203  -2.753  1.00 20.00     0.058 C 
HETATM    2  C9  UNL     1     -34.351  16.844  -3.111  1.00 20.00     0.214 C 
ENDROOT
BRANCH   2   3
HETATM    3  C1  UNL     1     -33.384  16.025  -3.990  1.00 20.00     0.165 C 
HETATM    4  O11 UNL     1     -32.861  16.507  -4.998  1.00 20.00    -0.295 OA
BRANCH   3   5
HETATM    5  C7  UNL     1     -33.104  14.583  -3.579  1.00 20.00     0.076 C 
HETATM    6  C2  UNL     1     -33.959  13.586  -4.341  1.00 20.00     0.013 C 
ENDBRANCH   3   5
ENDBRANCH   2   3
BRANCH   2   7
HETATM    7  C8  UNL     1     -34.726  16.079  -1.823  1.00 20.00     0.045 C 
HETATM    8  C3  UNL     1     -34.601  16.880  -0.530  1.00 20.00     0.008 C 
ENDBRANCH   2   7
BRANCH   2   9
HETATM    9  N10 UNL     1     -35.555  17.117  -3.908  1.00 20.00     0.096 N 
HETATM   10  C5  UNL     1     -36.034  18.472  -3.648  1.00 20.00     0.310 C 
HETATM   11  C6  UNL     1     -36.593  16.135  -3.607  1.00 20.00     0.310 C 
ENDBRANCH   2   9
TORSDOF 4
ENDMDL
MODEL 2
REMARK VINA RESULT:      -3.9      1.449      2.910
REMARK  4 active torsions:
REMARK  status: ('A' for Active; 'I' for Inactive)
REMARK    1  A    between atoms: C1_1  and  C7_7 
REMARK    2  A    between atoms: C1_1  and  C9_9 
REMARK    3  A    between atoms: C8_8  and  C9_9 
REMARK    4  A    between atoms: C9_9  and  N10_10 
ROOT
HETATM    1  C4  UNL     1     -35.645  16.328  -3.388  1.00 20.00     0.058 C 
HETATM    2  C9  UNL     1     -34.113  16.397  -3.411  1.00 20.00     0.214 C 
ENDROOT
BRANCH   2   3
HETATM    3  C1  UNL     1     -33.508  14.982  -3.520  1.00 20.00     0.165 C 
HETATM    4  O11 UNL     1     -32.288  14.802  -3.565  1.00 20.00    -0.295 OA
BRANCH   3   5
HETATM    5  C7  UNL     1     -34.473  13.803  -3.587  1.00 20.00     0.076 C 
HETATM    6  C2  UNL     1     -34.550  13.194  -4.976  1.00 20.00     0.013 C 
ENDBRANCH   3   5
ENDBRANCH   2   3
BRANCH   2   7
HETATM    7  C8  UNL     1     -33.642  17.301  -4.571  1.00 20.00     0.045 C 
HETATM    8  C3  UNL     1     -33.993  16.802  -5.970  1.00 20.00     0.008 C 
ENDBRANCH   2   7
BRANCH   2   9
HETATM    9  N10 UNL     1     -33.691  16.964  -2.123  1.00 20.00     0.096 N 
HETATM   10  C5  UNL     1     -34.608  16.546  -1.065  1.00 20.00     0.310 C 
HETATM   11  C6  UNL     1     -33.629  18.420  -2.208  1.00 20.00     0.310 C 
ENDBRANCH   2   9
TORSDOF 4
ENDMDL
MODEL 3
REMARK VINA RESULT:      -3.8      1.824      2.541
REMARK  4 active torsions:
REMARK  status: ('A' for Active; 'I' for Inactive)
REMARK    1  A    between atoms: C1_1  and  C7_7 
REMARK    2  A    between atoms: C1_1  and  C9_9 
REMARK    3  A    between atoms: C8_8  and  C9_9 
REMARK    4  A    between atoms: C9_9  and  N10_10 
ROOT
HETATM    1  C4  UNL     1     -35.982  17.004  -3.777  1.00 20.00     0.058 C 
HETATM    2  C9  UNL     1     -35.021  15.831  -4.005  1.00 20.00     0.214 C 
ENDROOT
BRANCH   2   3
HETATM    3  C1  UNL     1     -34.011  16.166  -5.122  1.00 20.00     0.165 C 
HETATM    4  O11 UNL     1     -32.807  16.298  -4.887  1.00 20.00    -0.295 OA
BRANCH   3   5
HETATM    5  C7  UNL     1     -34.554  16.347  -6.535  1.00 20.00     0.076 C 
HETATM    6  C2  UNL     1     -34.326  15.125  -7.407  1.00 20.00     0.013 C 
ENDBRANCH   3   5
ENDBRANCH   2   3
BRANCH   2   7
HETATM    7  C8  UNL     1     -34.302  15.474  -2.685  1.00 20.00     0.045 C 
HETATM    8  C3  UNL     1     -34.638  16.371  -1.497  1.00 20.00     0.008 C 
ENDBRANCH   2   7
BRANCH   2   9
HETATM    9  N10 UNL     1     -35.832  14.695  -4.463  1.00 20.00     0.096 N 
HETATM   10  C5  UNL     1     -37.153  14.737  -3.840  1.00 20.00     0.310 C 
HETATM   11  C6  UNL     1     -35.157  13.437  -4.161  1.00 20.00     0.310 C 
ENDBRANCH   2   9
TORSDOF 4
ENDMDL
MODEL 4
REMARK VINA RESULT:      -3.8      1.599      2.501
REMARK  4 active torsions:
REMARK  status: ('A' for Active; 'I' for Inactive)
REMARK    1  A    between atoms: C1_1  and  C7_7 
REMARK    2  A    between atoms: C1_1  and  C9_9 
REMARK    3  A    between atoms: C8_8  and  C9_9 
REMARK    4  A    between atoms: C9_9  and  N10_10 
ROOT
HETATM    1  C4  UNL     1     -34.246  16.135  -2.430  1.00 20.00     0.058 C 
HETATM    2  C9  UNL     1     -34.784  15.570  -3.750  1.00 20.00     0.214 C 
ENDROOT
BRANCH   2   3
HETATM    3  C1  UNL     1     -33.988  16.133  -4.946  1.00 20.00     0.165 C 
HETATM    4  O11 UNL     1     -32.822  16.515  -4.824  1.00 20.00    -0.295 OA
BRANCH   3   5
HETATM    5  C7  UNL     1     -34.700  16.218  -6.292  1.00 20.00     0.076 C 
HETATM    6  C2  UNL     1     -34.430  15.009  -7.170  1.00 20.00     0.013 C 
ENDBRANCH   3   5
ENDBRANCH   2   3
BRANCH   2   7
HETATM    7  C8  UNL     1     -34.739  14.027  -3.720  1.00 20.00     0.045 C 
HETATM    8  C3  UNL     1     -33.342  13.414  -3.758  1.00 20.00     0.008 C 
ENDBRANCH   2   7
BRANCH   2   9
HETATM    9  N10 UNL     1     -36.172  16.035  -3.879  1.00 20.00     0.096 N 
HETATM   10  C5  UNL     1     -36.444  17.085  -2.901  1.00 20.00     0.310 C 
HETATM   11  C6  UNL     1     -37.097  14.918  -3.710  1.00 20.00     0.310 C 
ENDBRANCH   2   9
TORSDOF 4
ENDMDL
MODEL 5
REMARK VINA RESULT:      -3.8      1.896      3.606
REMARK  4 active torsions:
REMARK  status: ('A' for Active; 'I' for Inactive)
REMARK    1  A    between atoms: C1_1  and  C7_7 
REMARK    2  A    between atoms: C1_1  and  C9_9 
REMARK    3  A    between atoms: C8_8  and  C9_9 
REMARK    4  A    between atoms: C9_9  and  N10_10 
ROOT
HETATM    1  C4  UNL     1     -35.821  14.632  -3.923  1.00 20.00     0.058 C 
HETATM    2  C9  UNL     1     -34.818  15.770  -3.699  1.00 20.00     0.214 C 
ENDROOT
BRANCH   2   3
HETATM    3  C1  UNL     1     -35.214  16.608  -2.466  1.00 20.00     0.165 C 
HETATM    4  O11 UNL     1     -36.314  17.161  -2.387  1.00 20.00    -0.295 OA
BRANCH   3   5
HETATM    5  C7  UNL     1     -34.189  16.748  -1.347  1.00 20.00     0.076 C 
HETATM    6  C2  UNL     1     -34.822  17.145  -0.025  1.00 20.00     0.013 C 
ENDBRANCH   3   5
ENDBRANCH   2   3
BRANCH   2   7
HETATM    7  C8  UNL     1     -33.392  15.194  -3.554  1.00 20.00     0.045 C 
HETATM    8  C3  UNL     1     -33.281  13.680  -3.708  1.00 20.00     0.008 C 
ENDBRANCH   2   7
BRANCH   2   9
HETATM    9  N10 UNL     1     -34.894  16.644  -4.877  1.00 20.00     0.096 N 
HETATM   10  C5  UNL     1     -35.302  15.875  -6.050  1.00 20.00     0.310 C 
HETATM   11  C6  UNL     1     -33.608  17.295  -5.107  1.00 20.00     0.310 C 
ENDBRANCH   2   9
TORSDOF 4
ENDMDL
MODEL 6
REMARK VINA RESULT:      -3.8      1.822      3.693
REMARK  4 active torsions:
REMARK  status: ('A' for Active; 'I' for Inactive)
REMARK    1  A    between atoms: C1_1  and  C7_7 
REMARK    2  A    between atoms: C1_1  and  C9_9 
REMARK    3  A    between atoms: C8_8  and  C9_9 
REMARK    4  A    between atoms: C9_9  and  N10_10 
ROOT
HETATM    1  C4  UNL     1     -32.823  14.642  -3.663  1.00 20.00     0.058 C 
HETATM    2  C9  UNL     1     -33.909  15.556  -4.245  1.00 20.00     0.214 C 
ENDROOT
BRANCH   2   3
HETATM    3  C1  UNL     1     -34.647  16.307  -3.117  1.00 20.00     0.165 C 
HETATM    4  O11 UNL     1     -35.846  16.585  -3.203  1.00 20.00    -0.295 OA
BRANCH   3   5
HETATM    5  C7  UNL     1     -33.839  16.713  -1.890  1.00 20.00     0.076 C 
HETATM    6  C2  UNL     1     -34.678  16.744  -0.625  1.00 20.00     0.013 C 
ENDBRANCH   3   5
ENDBRANCH   2   3
BRANCH   2   7
HETATM    7  C8  UNL     1     -33.284  16.538  -5.259  1.00 20.00     0.045 C 
HETATM    8  C3  UNL     1     -33.583  18.013  -5.008  1.00 20.00     0.008 C 
ENDBRANCH   2   7
BRANCH   2   9
HETATM    9  N10 UNL     1     -34.885  14.687  -4.916  1.00 20.00     0.096 N 
HETATM   10  C5  UNL     1     -34.828  13.339  -4.354  1.00 20.00     0.310 C 
HETATM   11  C6  UNL     1     -34.633  14.659  -6.353  1.00 20.00     0.310 C 
ENDBRANCH   2   9
TORSDOF 4
ENDMDL
MODEL 7
REMARK VINA RESULT:      -3.8      1.840      2.341
REMARK  4 active torsions:
REMARK  status: ('A' for Active; 'I' for Inactive)
REMARK    1  A    between atoms: C1_1  and  C7_7 
REMARK    2  A    between atoms: C1_1  and  C9_9 
REMARK    3  A    between atoms: C8_8  and  C9_9 
REMARK    4  A    between atoms: C9_9  and  N10_10 
ROOT
HETATM    1  C4  UNL     1     -33.404  15.701  -3.023  1.00 20.00     0.058 C 
HETATM    2  C9  UNL     1     -34.879  16.061  -3.243  1.00 20.00     0.214 C 
ENDROOT
BRANCH   2   3
HETATM    3  C1  UNL     1     -35.709  14.794  -3.536  1.00 20.00     0.165 C 
HETATM    4  O11 UNL     1     -36.928  14.761  -3.348  1.00 20.00    -0.295 OA
BRANCH   3   5
HETATM    5  C7  UNL     1     -34.967  13.567  -4.055  1.00 20.00     0.076 C 
HETATM    6  C2  UNL     1     -34.881  13.537  -5.571  1.00 20.00     0.013 C 
ENDBRANCH   3   5
ENDBRANCH   2   3
BRANCH   2   7
HETATM    7  C8  UNL     1     -35.426  16.819  -2.013  1.00 20.00     0.045 C 
HETATM    8  C3  UNL     1     -34.587  16.695  -0.745  1.00 20.00     0.008 C 
ENDBRANCH   2   7
BRANCH   2   9
HETATM    9  N10 UNL     1     -34.937  16.919  -4.434  1.00 20.00     0.096 N 
HETATM   10  C5  UNL     1     -33.589  17.188  -4.927  1.00 20.00     0.310 C 
HETATM   11  C6  UNL     1     -35.634  18.164  -4.127  1.00 20.00     0.310 C 
ENDBRANCH   2   9
TORSDOF 4
ENDMDL
MODEL 8
REMARK VINA RESULT:      -3.7      1.735      3.534
REMARK  4 active torsions:
REMARK  status: ('A' for Active; 'I' for Inactive)
REMARK    1  A    between atoms: C1_1  and  C7_7 
REMARK    2  A    between atoms: C1_1  and  C9_9 
REMARK    3  A    between atoms: C8_8  and  C9_9 
REMARK    4  A    between atoms: C9_9  and  N10_10 
ROOT
HETATM    1  C4  UNL     1     -35.966  16.410  -5.414  1.00 20.00     0.058 C 
HETATM    2  C9  UNL     1     -35.275  15.429  -4.459  1.00 20.00     0.214 C 
ENDROOT
BRANCH   2   3
HETATM    3  C1  UNL     1     -34.387  16.188  -3.451  1.00 20.00     0.165 C 
HETATM    4  O11 UNL     1     -33.449  16.899  -3.824  1.00 20.00    -0.295 OA
BRANCH   3   5
HETATM    5  C7  UNL     1     -34.695  16.018  -1.968  1.00 20.00     0.076 C 
HETATM    6  C2  UNL     1     -34.049  17.094  -1.113  1.00 20.00     0.013 C 
ENDBRANCH   3   5
ENDBRANCH   2   3
BRANCH   2   7
HETATM    7  C8  UNL     1     -36.331  14.563  -3.738  1.00 20.00     0.045 C 
HETATM    8  C3  UNL     1     -37.783  14.921  -4.038  1.00 20.00     0.008 C 
ENDBRANCH   2   7
BRANCH   2   9
HETATM    9  N10 UNL     1     -34.397  14.582  -5.278  1.00 20.00     0.096 N 
HETATM   10  C5  UNL     1     -34.773  14.682  -6.686  1.00 20.00     0.310 C 
HETATM   11  C6  UNL     1     -34.463  13.198  -4.822  1.00 20.00     0.310 C 
ENDBRANCH   2   9
TORSDOF 4
ENDMDL
MODEL 9
REMARK VINA RESULT:      -3.7      1.891      3.177
REMARK  4 active torsions:
REMARK  status: ('A' for Active; 'I' for Inactive)
REMARK    1  A    between atoms: C1_1  and  C7_7 
REMARK    2  A    between atoms: C1_1  and  C9_9 
REMARK    3  A    between atoms: C8_8  and  C9_9 
REMARK    4  A    between atoms: C9_9  and  N10_10 
ROOT
HETATM    1  C4  UNL     1     -35.678  16.936  -4.675  1.00 20.00     0.058 C 
HETATM    2  C9  UNL     1     -34.924  15.613  -4.499  1.00 20.00     0.214 C 
ENDROOT
BRANCH   2   3
HETATM    3  C1  UNL     1     -33.768  15.777  -3.490  1.00 20.00     0.165 C 
HETATM    4  O11 UNL     1     -32.787  15.028  -3.503  1.00 20.00    -0.295 OA
BRANCH   3   5
HETATM    5  C7  UNL     1     -33.885  16.891  -2.455  1.00 20.00     0.076 C 
HETATM    6  C2  UNL     1     -34.587  16.436  -1.188  1.00 20.00     0.013 C 
ENDBRANCH   3   5
ENDBRANCH   2   3
BRANCH   2   7
HETATM    7  C8  UNL     1     -35.903  14.503  -4.058  1.00 20.00     0.045 C 
HETATM    8  C3  UNL     1     -37.280  14.987  -3.613  1.00 20.00     0.008 C 
ENDBRANCH   2   7
BRANCH   2   9
HETATM    9  N10 UNL     1     -34.334  15.280  -5.803  1.00 20.00     0.096 N 
HETATM   10  C5  UNL     1     -34.261  16.473  -6.642  1.00 20.00     0.310 C 
HETATM   11  C6  UNL     1     -35.112  14.233  -6.457  1.00 20.00     0.310 C 
ENDBRANCH   2   9
TORSDOF 4
ENDMDL
