MODEL 1
REMARK VINA RESULT:      -4.8      0.000      0.000
REMARK  2 active torsions:
REMARK  status: ('A' for Active; 'I' for Inactive)
REMARK    1  A    between atoms: C2_2  and  C3_3 
REMARK    2  A    between atoms: C2_2  and  C10_10 
ROOT
HETATM    1  C1  UNL     1     -33.998  13.389  -4.289  1.00 20.00     0.066 C 
HETATM    2  C10 UNL     1     -32.966  14.140  -3.565  1.00 20.00     0.202 C 
HETATM    3  N11 UNL     1     -34.812  12.790  -4.860  1.00 20.00    -0.197 NA
ENDROOT
BRANCH   2   4
HETATM    4  C2  UNL     1     -33.035  15.622  -3.848  1.00 20.00     0.145 C 
HETATM    5  O12 UNL     1     -32.913  16.131  -4.956  1.00 20.00    -0.296 OA
BRANCH   4   6
HETATM    6  C3  UNL     1     -33.266  16.474  -2.673  1.00 20.00     0.073 A 
HETATM    7  C4  UNL     1     -34.659  16.658  -2.094  1.00 20.00    -0.029 A 
HETATM    8  C5  UNL     1     -33.950  17.825  -2.801  1.00 20.00    -0.029 A 
HETATM    9  C6  UNL     1     -34.789  16.673  -0.586  1.00 20.00     0.016 C 
HETATM   10  C7  UNL     1     -35.850  15.998  -2.755  1.00 20.00     0.016 C 
HETATM   11  C8  UNL     1     -34.452  18.298  -4.148  1.00 20.00     0.016 C 
HETATM   12  C9  UNL     1     -33.395  18.967  -1.974  1.00 20.00     0.016 C 
ENDBRANCH   4   6
ENDBRANCH   2   4
TORSDOF 2
ENDMDL
MODEL 2
REMARK VINA RESULT:      -4.8      1.723      2.088
REMARK  2 active torsions:
REMARK  status: ('A' for Active; 'I' for Inactive)
REMARK    1  A    between atoms: C2_2  and  C3_3 
REMARK    2  A    between atoms: C2_2  and  C10_10 
ROOT
HETATM    1  C1  UNL     1     -34.362  13.879  -3.739  1.00 20.00     0.066 C 
HETATM    2  C10 UNL     1     -33.851  15.127  -3.160  1.00 20.00     0.202 C 
HETATM    3  N11 UNL     1     -34.762  12.891  -4.198  1.00 20.00    -0.197 NA
ENDROOT
BRANCH   2   4
HETATM    4  C2  UNL     1     -34.922  15.893  -2.420  1.00 20.00     0.145 C 
HETATM    5  O12 UNL     1     -36.087  15.999  -2.784  1.00 20.00    -0.296 OA
BRANCH   4   6
HETATM    6  C3  UNL     1     -34.481  16.543  -1.178  1.00 20.00     0.073 A 
HETATM    7  C4  UNL     1     -35.276  17.680  -0.557  1.00 20.00    -0.029 A 
HETATM    8  C5  UNL     1     -33.898  17.947  -1.186  1.00 20.00    -0.029 A 
HETATM    9  C6  UNL     1     -35.418  17.688   0.950  1.00 20.00     0.016 C 
HETATM   10  C7  UNL     1     -36.522  18.199  -1.243  1.00 20.00     0.016 C 
HETATM   11  C8  UNL     1     -33.806  18.724  -2.481  1.00 20.00     0.016 C 
HETATM   12  C9  UNL     1     -32.710  18.212  -0.285  1.00 20.00     0.016 C 
ENDBRANCH   4   6
ENDBRANCH   2   4
TORSDOF 2
ENDMDL
MODEL 3
REMARK VINA RESULT:      -4.5      2.644      3.887
REMARK  2 active torsions:
REMARK  status: ('A' for Active; 'I' for Inactive)
REMARK    1  A    between atoms: C2_2  and  C3_3 
REMARK    2  A    between atoms: C2_2  and  C10_10 
ROOT
HETATM    1  C1  UNL     1     -34.191  16.262  -1.907  1.00 20.00     0.066 C 
HETATM    2  C10 UNL     1     -33.355  15.648  -2.944  1.00 20.00     0.202 C 
HETATM    3  N11 UNL     1     -34.851  16.745  -1.082  1.00 20.00    -0.197 NA
ENDROOT
BRANCH   2   4
HETATM    4  C2  UNL     1     -33.730  16.117  -4.331  1.00 20.00     0.145 C 
HETATM    5  O12 UNL     1     -32.945  16.572  -5.153  1.00 20.00    -0.296 OA
BRANCH   4   6
HETATM    6  C3  UNL     1     -35.156  15.996  -4.668  1.00 20.00     0.073 A 
HETATM    7  C4  UNL     1     -35.857  14.647  -4.658  1.00 20.00    -0.029 A 
HETATM    8  C5  UNL     1     -35.605  15.384  -5.985  1.00 20.00    -0.029 A 
HETATM    9  C6  UNL     1     -37.260  14.597  -4.092  1.00 20.00     0.016 C 
HETATM   10  C7  UNL     1     -35.078  13.388  -4.345  1.00 20.00     0.016 C 
HETATM   11  C8  UNL     1     -34.581  14.840  -6.958  1.00 20.00     0.016 C 
HETATM   12  C9  UNL     1     -36.765  16.045  -6.699  1.00 20.00     0.016 C 
ENDBRANCH   4   6
ENDBRANCH   2   4
TORSDOF 2
ENDMDL
MODEL 4
REMARK VINA RESULT:      -4.5      2.748      4.236
REMARK  2 active torsions:
REMARK  status: ('A' for Active; 'I' for Inactive)
REMARK    1  A    between atoms: C2_2  and  C3_3 
REMARK    2  A    between atoms: C2_2  and  C10_10 
ROOT
HETATM    1  C1  UNL     1     -34.239  17.408  -0.309  1.00 20.00     0.066 C 
HETATM    2  C10 UNL     1     -34.626  16.344  -1.242  1.00 20.00     0.202 C 
HETATM    3  N11 UNL     1     -33.934  18.248   0.433  1.00 20.00    -0.197 NA
ENDROOT
BRANCH   2   4
HETATM    4  C2  UNL     1     -34.465  16.763  -2.684  1.00 20.00     0.145 C 
HETATM    5  O12 UNL     1     -33.906  17.787  -3.059  1.00 20.00    -0.296 OA
BRANCH   4   6
HETATM    6  C3  UNL     1     -35.039  15.839  -3.672  1.00 20.00     0.073 A 
HETATM    7  C4  UNL     1     -34.288  14.594  -4.117  1.00 20.00    -0.029 A 
HETATM    8  C5  UNL     1     -34.498  15.766  -5.091  1.00 20.00    -0.029 A 
HETATM    9  C6  UNL     1     -35.092  13.325  -4.300  1.00 20.00     0.016 C 
HETATM   10  C7  UNL     1     -32.901  14.311  -3.581  1.00 20.00     0.016 C 
HETATM   11  C8  UNL     1     -33.317  16.620  -5.498  1.00 20.00     0.016 C 
HETATM   12  C9  UNL     1     -35.506  15.628  -6.213  1.00 20.00     0.016 C 
ENDBRANCH   4   6
ENDBRANCH   2   4
TORSDOF 2
ENDMDL
MODEL 5
REMARK VINA RESULT:      -4.4      2.480      4.213
REMARK  2 active torsions:
REMARK  status: ('A' for Active; 'I' for Inactive)
REMARK    1  A    between atoms: C2_2  and  C3_3 
REMARK    2  A    between atoms: C2_2  and  C10_10 
ROOT
HETATM    1  C1  UNL     1     -34.243  16.850  -1.554  1.00 20.00     0.066 C 
HETATM    2  C10 UNL     1     -33.755  17.132  -2.908  1.00 20.00     0.202 C 
HETATM    3  N11 UNL     1     -34.630  16.632  -0.481  1.00 20.00    -0.197 NA
ENDROOT
BRANCH   2   4
HETATM    4  C2  UNL     1     -33.653  15.881  -3.750  1.00 20.00     0.145 C 
HETATM    5  O12 UNL     1     -32.927  14.926  -3.502  1.00 20.00    -0.296 OA
BRANCH   4   6
HETATM    6  C3  UNL     1     -34.508  15.860  -4.945  1.00 20.00     0.073 A 
HETATM    7  C4  UNL     1     -35.969  15.447  -4.862  1.00 20.00    -0.029 A 
HETATM    8  C5  UNL     1     -34.946  14.548  -5.578  1.00 20.00    -0.029 A 
HETATM    9  C6  UNL     1     -36.963  16.240  -5.683  1.00 20.00     0.016 C 
HETATM   10  C7  UNL     1     -36.559  15.000  -3.541  1.00 20.00     0.016 C 
HETATM   11  C8  UNL     1     -34.543  13.231  -4.951  1.00 20.00     0.016 C 
HETATM   12  C9  UNL     1     -34.953  14.475  -7.090  1.00 20.00     0.016 C 
ENDBRANCH   4   6
ENDBRANCH   2   4
TORSDOF 2
ENDMDL
MODEL 6
REMARK VINA RESULT:      -4.4      1.114      2.023
REMARK  2 active torsions:
REMARK  status: ('A' for Active; 'I' for Inactive)
REMARK    1  A    between atoms: C2_2  and  C3_3 
REMARK    2  A    between atoms: C2_2  and  C10_10 
ROOT
HETATM    1  C1  UNL     1     -34.566  13.697  -4.987  1.00 20.00     0.066 C 
HETATM    2  C10 UNL     1     -34.208  15.080  -5.319  1.00 20.00     0.202 C 
HETATM    3  N11 UNL     1     -34.851  12.601  -4.728  1.00 20.00    -0.197 NA
ENDROOT
BRANCH   2   4
HETATM    4  C2  UNL     1     -33.411  15.743  -4.221  1.00 20.00     0.145 C 
HETATM    5  O12 UNL     1     -32.576  15.181  -3.523  1.00 20.00    -0.296 OA
BRANCH   4   6
HETATM    6  C3  UNL     1     -33.696  17.170  -4.015  1.00 20.00     0.073 A 
HETATM    7  C4  UNL     1     -33.994  17.723  -2.630  1.00 20.00    -0.029 A 
HETATM    8  C5  UNL     1     -35.102  17.655  -3.695  1.00 20.00    -0.029 A 
HETATM    9  C6  UNL     1     -33.390  19.064  -2.272  1.00 20.00     0.016 C 
HETATM   10  C7  UNL     1     -34.049  16.793  -1.437  1.00 20.00     0.016 C 
HETATM   11  C8  UNL     1     -36.230  16.659  -3.536  1.00 20.00     0.016 C 
HETATM   12  C9  UNL     1     -35.566  18.931  -4.366  1.00 20.00     0.016 C 
ENDBRANCH   4   6
ENDBRANCH   2   4
TORSDOF 2
ENDMDL
MODEL 7
REMARK VINA RESULT:      -4.3      3.261      4.200
REMARK  2 active torsions:
REMARK  status: ('A' for Active; 'I' for Inactive)
REMARK    1  A    between atoms: C2_2  and  C3_3 
REMARK    2  A    between atoms: C2_2  and  C10_10 
ROOT
HETATM    1  C1  UNL     1     -33.632  14.151  -3.853  1.00 20.00     0.066 C 
HETATM    2  C10 UNL     1     -34.858  13.404  -4.156  1.00 20.00     0.202 C 
HETATM    3  N11 UNL     1     -32.660  14.738  -3.613  1.00 20.00    -0.197 NA
ENDROOT
BRANCH   2   4
HETATM    4  C2  UNL     1     -36.062  14.309  -4.280  1.00 20.00     0.145 C 
HETATM    5  O12 UNL     1     -37.182  14.046  -3.861  1.00 20.00    -0.296 OA
BRANCH   4   6
HETATM    6  C3  UNL     1     -35.817  15.586  -4.965  1.00 20.00     0.073 A 
HETATM    7  C4  UNL     1     -36.836  16.172  -5.928  1.00 20.00    -0.029 A 
HETATM    8  C5  UNL     1     -35.492  15.635  -6.450  1.00 20.00    -0.029 A 
HETATM    9  C6  UNL     1     -37.066  17.668  -5.872  1.00 20.00     0.016 C 
HETATM   10  C7  UNL     1     -38.111  15.418  -6.238  1.00 20.00     0.016 C 
HETATM   11  C8  UNL     1     -35.463  14.359  -7.263  1.00 20.00     0.016 C 
HETATM   12  C9  UNL     1     -34.425  16.612  -6.896  1.00 20.00     0.016 C 
ENDBRANCH   4   6
ENDBRANCH   2   4
TORSDOF 2
ENDMDL
MODEL 8
REMARK VINA RESULT:      -4.3      2.293      3.968
REMARK  2 active torsions:
REMARK  status: ('A' for Active; 'I' for Inactive)
REMARK    1  A    between atoms: C2_2  and  C3_3 
REMARK    2  A    between atoms: C2_2  and  C10_10 
ROOT
HETATM    1  C1  UNL     1     -34.251  17.078  -1.651  1.00 20.00     0.066 C 
HETATM    2  C10 UNL     1     -33.869  17.667  -2.939  1.00 20.00     0.202 C 
HETATM    3  N11 UNL     1     -34.553  16.616  -0.629  1.00 20.00    -0.197 NA
ENDROOT
BRANCH   2   4
HETATM    4  C2  UNL     1     -33.644  16.618  -4.002  1.00 20.00     0.145 C 
HETATM    5  O12 UNL     1     -32.801  16.686  -4.887  1.00 20.00    -0.296 OA
BRANCH   4   6
HETATM    6  C3  UNL     1     -34.531  15.449  -3.925  1.00 20.00     0.073 A 
HETATM    7  C4  UNL     1     -34.867  14.630  -5.161  1.00 20.00    -0.029 A 
HETATM    8  C5  UNL     1     -35.945  15.493  -4.484  1.00 20.00    -0.029 A 
HETATM    9  C6  UNL     1     -34.916  13.125  -5.006  1.00 20.00     0.016 C 
HETATM   10  C7  UNL     1     -34.325  15.040  -6.514  1.00 20.00     0.016 C 
HETATM   11  C8  UNL     1     -36.448  16.740  -5.177  1.00 20.00     0.016 C 
HETATM   12  C9  UNL     1     -37.034  14.821  -3.674  1.00 20.00     0.016 C 
ENDBRANCH   4   6
ENDBRANCH   2   4
TORSDOF 2
ENDMDL
MODEL 9
REMARK VINA RESULT:      -4.3      2.665      4.295
REMARK  2 active torsions:
REMARK  status: ('A' for Active; 'I' for Inactive)
REMARK    1  A    between atoms: C2_2  and  C3_3 
REMARK    2  A    between atoms: C2_2  and  C10_10 
ROOT
HETATM    1  C1  UNL     1     -38.243  15.064  -4.588  1.00 20.00     0.066 C 
HETATM    2  C10 UNL     1     -37.688  16.041  -5.532  1.00 20.00     0.202 C 
HETATM    3  N11 UNL     1     -38.685  14.291  -3.844  1.00 20.00    -0.197 NA
ENDROOT
BRANCH   2   4
HETATM    4  C2  UNL     1     -36.348  16.572  -5.082  1.00 20.00     0.145 C 
HETATM    5  O12 UNL     1     -35.994  17.742  -5.164  1.00 20.00    -0.296 OA
BRANCH   4   6
HETATM    6  C3  UNL     1     -35.436  15.570  -4.512  1.00 20.00     0.073 A 
HETATM    7  C4  UNL     1     -33.929  15.698  -4.664  1.00 20.00    -0.029 A 
HETATM    8  C5  UNL     1     -34.694  14.584  -5.400  1.00 20.00    -0.029 A 
HETATM    9  C6  UNL     1     -33.077  15.344  -3.464  1.00 20.00     0.016 C 
HETATM   10  C7  UNL     1     -33.340  16.846  -5.455  1.00 20.00     0.016 C 
HETATM   11  C8  UNL     1     -34.847  14.652  -6.904  1.00 20.00     0.016 C 
HETATM   12  C9  UNL     1     -34.580  13.156  -4.909  1.00 20.00     0.016 C 
ENDBRANCH   4   6
ENDBRANCH   2   4
TORSDOF 2
ENDMDL
