MODEL 1
REMARK VINA RESULT:      -4.9      0.000      0.000
REMARK  4 active torsions:
REMARK  status: ('A' for Active; 'I' for Inactive)
REMARK    1  A    between atoms: C4_4  and  C9_9 
REMARK    2  A    between atoms: C7_7  and  C8_8 
REMARK    3  A    between atoms: C8_8  and  C9_9 
REMARK    4  A    between atoms: C9_9  and  O11_11 
ROOT
HETATM    1  C1  UNL     1     -36.967  14.718  -3.669  1.00 20.00     0.067 C 
HETATM    2  C8  UNL     1     -35.533  15.074  -3.811  1.00 20.00     0.126 C 
HETATM    3  N10 UNL     1     -38.089  14.445  -3.556  1.00 20.00    -0.197 NA
ENDROOT
BRANCH   2   4
HETATM    4  C7  UNL     1     -34.994  15.541  -2.438  1.00 20.00     0.018 C 
HETATM    5  C5  UNL     1     -34.405  16.950  -2.474  1.00 20.00     0.006 C 
ENDBRANCH   2   4
BRANCH   2   6
HETATM    6  C9  UNL     1     -34.720  13.881  -4.415  1.00 20.00     0.074 C 
HETATM    7  C6  UNL     1     -33.377  13.728  -3.726  1.00 20.00     0.047 C 
BRANCH   6   8
HETATM    8  C4  UNL     1     -34.475  14.061  -5.927  1.00 20.00     0.021 A 
HETATM    9  C2  UNL     1     -35.593  14.509  -6.826  1.00 20.00     0.008 A 
HETATM   10  C3  UNL     1     -34.449  15.437  -6.531  1.00 20.00     0.008 A 
ENDBRANCH   6   8
BRANCH   6  11
HETATM   11  O11 UNL     1     -35.461  12.672  -4.228  1.00 20.00    -0.388 OA
HETATM   12  H26 UNL     1     -34.838  12.027  -3.862  1.00 20.00     0.210 HD
ENDBRANCH   6  11
ENDBRANCH   2   6
TORSDOF 4
ENDMDL
MODEL 2
REMARK VINA RESULT:      -4.5      2.304      2.883
REMARK  4 active torsions:
REMARK  status: ('A' for Active; 'I' for Inactive)
REMARK    1  A    between atoms: C4_4  and  C9_9 
REMARK    2  A    between atoms: C7_7  and  C8_8 
REMARK    3  A    between atoms: C8_8  and  C9_9 
REMARK    4  A    between atoms: C9_9  and  O11_11 
ROOT
HETATM    1  C1  UNL     1     -34.158  14.377  -3.482  1.00 20.00     0.067 C 
HETATM    2  C8  UNL     1     -34.384  15.844  -3.482  1.00 20.00     0.126 C 
HETATM    3  N10 UNL     1     -33.985  13.230  -3.477  1.00 20.00    -0.197 NA
ENDROOT
BRANCH   2   4
HETATM    4  C7  UNL     1     -33.741  16.451  -2.212  1.00 20.00     0.018 C 
HETATM    5  C5  UNL     1     -34.706  16.523  -1.029  1.00 20.00     0.006 C 
ENDBRANCH   2   4
BRANCH   2   6
HETATM    6  C9  UNL     1     -33.853  16.489  -4.805  1.00 20.00     0.074 C 
HETATM    7  C6  UNL     1     -33.688  17.990  -4.656  1.00 20.00     0.047 C 
BRANCH   6   8
HETATM    8  C4  UNL     1     -34.796  16.218  -5.995  1.00 20.00     0.021 A 
HETATM    9  C2  UNL     1     -34.467  16.757  -7.359  1.00 20.00     0.008 A 
HETATM   10  C3  UNL     1     -34.378  15.280  -7.093  1.00 20.00     0.008 A 
ENDBRANCH   6   8
BRANCH   6  11
HETATM   11  O11 UNL     1     -32.574  15.926  -5.116  1.00 20.00    -0.388 OA
HETATM   12  H26 UNL     1     -32.190  16.491  -5.802  1.00 20.00     0.210 HD
ENDBRANCH   6  11
ENDBRANCH   2   6
TORSDOF 4
ENDMDL
MODEL 3
REMARK VINA RESULT:      -4.4      2.356      3.793
REMARK  4 active torsions:
REMARK  status: ('A' for Active; 'I' for Inactive)
REMARK    1  A    between atoms: C4_4  and  C9_9 
REMARK    2  A    between atoms: C7_7  and  C8_8 
REMARK    3  A    between atoms: C8_8  and  C9_9 
REMARK    4  A    between atoms: C9_9  and  O11_11 
ROOT
HETATM    1  C1  UNL     1     -34.722  16.064  -6.111  1.00 20.00     0.067 C 
HETATM    2  C8  UNL     1     -34.946  15.612  -4.716  1.00 20.00     0.126 C 
HETATM    3  N10 UNL     1     -34.553  16.420  -7.203  1.00 20.00    -0.197 NA
ENDROOT
BRANCH   2   4
HETATM    4  C7  UNL     1     -35.879  14.377  -4.733  1.00 20.00     0.018 C 
HETATM    5  C5  UNL     1     -37.210  14.624  -4.025  1.00 20.00     0.006 C 
ENDBRANCH   2   4
BRANCH   2   6
HETATM    6  C9  UNL     1     -33.584  15.341  -3.993  1.00 20.00     0.074 C 
HETATM    7  C6  UNL     1     -33.377  13.857  -3.751  1.00 20.00     0.047 C 
BRANCH   6   8
HETATM    8  C4  UNL     1     -33.499  16.073  -2.639  1.00 20.00     0.021 A 
HETATM    9  C2  UNL     1     -34.133  17.425  -2.468  1.00 20.00     0.008 A 
HETATM   10  C3  UNL     1     -34.724  16.225  -1.782  1.00 20.00     0.008 A 
ENDBRANCH   6   8
BRANCH   6  11
HETATM   11  O11 UNL     1     -32.517  15.815  -4.821  1.00 20.00    -0.388 OA
HETATM   12  H26 UNL     1     -31.825  16.124  -4.218  1.00 20.00     0.210 HD
ENDBRANCH   6  11
ENDBRANCH   2   6
TORSDOF 4
ENDMDL
MODEL 4
REMARK VINA RESULT:      -4.4      1.964      4.233
REMARK  4 active torsions:
REMARK  status: ('A' for Active; 'I' for Inactive)
REMARK    1  A    between atoms: C4_4  and  C9_9 
REMARK    2  A    between atoms: C7_7  and  C8_8 
REMARK    3  A    between atoms: C8_8  and  C9_9 
REMARK    4  A    between atoms: C9_9  and  O11_11 
ROOT
HETATM    1  C1  UNL     1     -34.463  13.972  -3.911  1.00 20.00     0.067 C 
HETATM    2  C8  UNL     1     -33.965  15.325  -3.559  1.00 20.00     0.126 C 
HETATM    3  N10 UNL     1     -34.847  12.913  -4.188  1.00 20.00    -0.197 NA
ENDROOT
BRANCH   2   4
HETATM    4  C7  UNL     1     -33.515  16.046  -4.852  1.00 20.00     0.018 C 
HETATM    5  C5  UNL     1     -34.182  15.491  -6.110  1.00 20.00     0.006 C 
ENDBRANCH   2   4
BRANCH   2   6
HETATM    6  C9  UNL     1     -35.045  16.125  -2.756  1.00 20.00     0.074 C 
HETATM    7  C6  UNL     1     -35.305  17.480  -3.386  1.00 20.00     0.047 C 
BRANCH   6   8
HETATM    8  C4  UNL     1     -34.624  16.342  -1.288  1.00 20.00     0.021 A 
HETATM    9  C2  UNL     1     -33.678  17.454  -0.929  1.00 20.00     0.008 A 
HETATM   10  C3  UNL     1     -35.124  17.536  -0.526  1.00 20.00     0.008 A 
ENDBRANCH   6   8
BRANCH   6  11
HETATM   11  O11 UNL     1     -36.270  15.385  -2.760  1.00 20.00    -0.388 OA
HETATM   12  H26 UNL     1     -36.949  15.985  -2.420  1.00 20.00     0.210 HD
ENDBRANCH   6  11
ENDBRANCH   2   6
TORSDOF 4
ENDMDL
MODEL 5
REMARK VINA RESULT:      -4.3      1.906      4.094
REMARK  4 active torsions:
REMARK  status: ('A' for Active; 'I' for Inactive)
REMARK    1  A    between atoms: C4_4  and  C9_9 
REMARK    2  A    between atoms: C7_7  and  C8_8 
REMARK    3  A    between atoms: C8_8  and  C9_9 
REMARK    4  A    between atoms: C9_9  and  O11_11 
ROOT
HETATM    1  C1  UNL     1     -37.058  14.650  -3.636  1.00 20.00     0.067 C 
HETATM    2  C8  UNL     1     -35.624  14.916  -3.361  1.00 20.00     0.126 C 
HETATM    3  N10 UNL     1     -38.178  14.436  -3.853  1.00 20.00    -0.197 NA
ENDROOT
BRANCH   2   4
HETATM    4  C7  UNL     1     -34.816  14.711  -4.665  1.00 20.00     0.018 C 
HETATM    5  C5  UNL     1     -34.530  13.242  -4.967  1.00 20.00     0.006 C 
ENDBRANCH   2   4
BRANCH   2   6
HETATM    6  C9  UNL     1     -35.431  16.338  -2.737  1.00 20.00     0.074 C 
HETATM    7  C6  UNL     1     -34.918  17.325  -3.769  1.00 20.00     0.047 C 
BRANCH   6   8
HETATM    8  C4  UNL     1     -34.447  16.315  -1.551  1.00 20.00     0.021 A 
HETATM    9  C2  UNL     1     -33.712  17.565  -1.153  1.00 20.00     0.008 A 
HETATM   10  C3  UNL     1     -34.793  17.014  -0.266  1.00 20.00     0.008 A 
ENDBRANCH   6   8
BRANCH   6  11
HETATM   11  O11 UNL     1     -36.694  16.809  -2.255  1.00 20.00    -0.388 OA
HETATM   12  H26 UNL     1     -36.775  16.484  -1.346  1.00 20.00     0.210 HD
ENDBRANCH   6  11
ENDBRANCH   2   6
TORSDOF 4
ENDMDL
MODEL 6
REMARK VINA RESULT:      -4.3      2.177      2.960
REMARK  4 active torsions:
REMARK  status: ('A' for Active; 'I' for Inactive)
REMARK    1  A    between atoms: C4_4  and  C9_9 
REMARK    2  A    between atoms: C7_7  and  C8_8 
REMARK    3  A    between atoms: C8_8  and  C9_9 
REMARK    4  A    between atoms: C9_9  and  O11_11 
ROOT
HETATM    1  C1  UNL     1     -34.914  13.682  -4.576  1.00 20.00     0.067 C 
HETATM    2  C8  UNL     1     -35.071  15.138  -4.333  1.00 20.00     0.126 C 
HETATM    3  N10 UNL     1     -34.797  12.544  -4.769  1.00 20.00    -0.197 NA
ENDROOT
BRANCH   2   4
HETATM    4  C7  UNL     1     -36.185  15.353  -3.280  1.00 20.00     0.018 C 
HETATM    5  C5  UNL     1     -37.563  14.909  -3.768  1.00 20.00     0.006 C 
ENDBRANCH   2   4
BRANCH   2   6
HETATM    6  C9  UNL     1     -33.706  15.784  -3.922  1.00 20.00     0.074 C 
HETATM    7  C6  UNL     1     -33.756  16.313  -2.501  1.00 20.00     0.047 C 
BRANCH   6   8
HETATM    8  C4  UNL     1     -33.314  16.942  -4.861  1.00 20.00     0.021 A 
HETATM    9  C2  UNL     1     -34.074  17.172  -6.137  1.00 20.00     0.008 A 
HETATM   10  C3  UNL     1     -34.210  18.142  -4.997  1.00 20.00     0.008 A 
ENDBRANCH   6   8
BRANCH   6  11
HETATM   11  O11 UNL     1     -32.681  14.789  -3.995  1.00 20.00    -0.388 OA
HETATM   12  H26 UNL     1     -32.017  15.129  -4.613  1.00 20.00     0.210 HD
ENDBRANCH   6  11
ENDBRANCH   2   6
TORSDOF 4
ENDMDL
MODEL 7
REMARK VINA RESULT:      -4.3      1.633      1.878
REMARK  4 active torsions:
REMARK  status: ('A' for Active; 'I' for Inactive)
REMARK    1  A    between atoms: C4_4  and  C9_9 
REMARK    2  A    between atoms: C7_7  and  C8_8 
REMARK    3  A    between atoms: C8_8  and  C9_9 
REMARK    4  A    between atoms: C9_9  and  O11_11 
ROOT
HETATM    1  C1  UNL     1     -36.252  14.936  -3.665  1.00 20.00     0.067 C 
HETATM    2  C8  UNL     1     -35.045  15.779  -3.481  1.00 20.00     0.126 C 
HETATM    3  N10 UNL     1     -37.199  14.281  -3.807  1.00 20.00    -0.197 NA
ENDROOT
BRANCH   2   4
HETATM    4  C7  UNL     1     -34.664  15.788  -1.981  1.00 20.00     0.018 C 
HETATM    5  C5  UNL     1     -34.477  17.196  -1.420  1.00 20.00     0.006 C 
ENDBRANCH   2   4
BRANCH   2   6
HETATM    6  C9  UNL     1     -33.879  15.293  -4.406  1.00 20.00     0.074 C 
HETATM    7  C6  UNL     1     -32.756  14.674  -3.594  1.00 20.00     0.047 C 
BRANCH   6   8
HETATM    8  C4  UNL     1     -33.295  16.445  -5.246  1.00 20.00     0.021 A 
HETATM    9  C2  UNL     1     -34.166  17.185  -6.224  1.00 20.00     0.008 A 
HETATM   10  C3  UNL     1     -33.700  17.866  -4.968  1.00 20.00     0.008 A 
ENDBRANCH   6   8
BRANCH   6  11
HETATM   11  O11 UNL     1     -34.383  14.300  -5.305  1.00 20.00    -0.388 OA
HETATM   12  H26 UNL     1     -33.712  13.602  -5.341  1.00 20.00     0.210 HD
ENDBRANCH   6  11
ENDBRANCH   2   6
TORSDOF 4
ENDMDL
MODEL 8
REMARK VINA RESULT:      -4.3      2.785      3.562
REMARK  4 active torsions:
REMARK  status: ('A' for Active; 'I' for Inactive)
REMARK    1  A    between atoms: C4_4  and  C9_9 
REMARK    2  A    between atoms: C7_7  and  C8_8 
REMARK    3  A    between atoms: C8_8  and  C9_9 
REMARK    4  A    between atoms: C9_9  and  O11_11 
ROOT
HETATM    1  C1  UNL     1     -33.721  18.116  -2.790  1.00 20.00     0.067 C 
HETATM    2  C8  UNL     1     -33.704  16.651  -2.555  1.00 20.00     0.126 C 
HETATM    3  N10 UNL     1     -33.732  19.263  -2.967  1.00 20.00    -0.197 NA
ENDROOT
BRANCH   2   4
HETATM    4  C7  UNL     1     -34.781  16.299  -1.501  1.00 20.00     0.018 C 
HETATM    5  C5  UNL     1     -34.639  17.101  -0.209  1.00 20.00     0.006 C 
ENDBRANCH   2   4
BRANCH   2   6
HETATM    6  C9  UNL     1     -33.883  15.870  -3.899  1.00 20.00     0.074 C 
HETATM    7  C6  UNL     1     -34.913  16.539  -4.790  1.00 20.00     0.047 C 
BRANCH   6   8
HETATM    8  C4  UNL     1     -34.320  14.410  -3.661  1.00 20.00     0.021 A 
HETATM    9  C2  UNL     1     -34.383  13.442  -4.809  1.00 20.00     0.008 A 
HETATM   10  C3  UNL     1     -33.317  13.295  -3.760  1.00 20.00     0.008 A 
ENDBRANCH   6   8
BRANCH   6  11
HETATM   11  O11 UNL     1     -32.633  15.850  -4.595  1.00 20.00    -0.388 OA
HETATM   12  H26 UNL     1     -32.803  15.415  -5.444  1.00 20.00     0.210 HD
ENDBRANCH   6  11
ENDBRANCH   2   6
TORSDOF 4
ENDMDL
MODEL 9
REMARK VINA RESULT:      -4.3      1.547      3.156
REMARK  4 active torsions:
REMARK  status: ('A' for Active; 'I' for Inactive)
REMARK    1  A    between atoms: C4_4  and  C9_9 
REMARK    2  A    between atoms: C7_7  and  C8_8 
REMARK    3  A    between atoms: C8_8  and  C9_9 
REMARK    4  A    between atoms: C9_9  and  O11_11 
ROOT
HETATM    1  C1  UNL     1     -37.549  14.563  -4.130  1.00 20.00     0.067 C 
HETATM    2  C8  UNL     1     -36.143  14.758  -4.562  1.00 20.00     0.126 C 
HETATM    3  N10 UNL     1     -38.650  14.406  -3.797  1.00 20.00    -0.197 NA
ENDROOT
BRANCH   2   4
HETATM    4  C7  UNL     1     -36.134  15.312  -6.007  1.00 20.00     0.018 C 
HETATM    5  C5  UNL     1     -35.273  14.484  -6.959  1.00 20.00     0.006 C 
ENDBRANCH   2   4
BRANCH   2   6
HETATM    6  C9  UNL     1     -35.372  15.672  -3.551  1.00 20.00     0.074 C 
HETATM    7  C6  UNL     1     -34.985  16.993  -4.191  1.00 20.00     0.047 C 
BRANCH   6   8
HETATM    8  C4  UNL     1     -34.093  14.992  -3.024  1.00 20.00     0.021 A 
HETATM    9  C2  UNL     1     -33.520  13.800  -3.740  1.00 20.00     0.008 A 
HETATM   10  C3  UNL     1     -32.800  15.119  -3.781  1.00 20.00     0.008 A 
ENDBRANCH   6   8
BRANCH   6  11
HETATM   11  O11 UNL     1     -36.221  15.946  -2.432  1.00 20.00    -0.388 OA
HETATM   12  H26 UNL     1     -36.852  15.212  -2.386  1.00 20.00     0.210 HD
ENDBRANCH   6  11
ENDBRANCH   2   6
TORSDOF 4
ENDMDL
