MODEL 1
REMARK VINA RESULT:      -4.5      0.000      0.000
REMARK  3 active torsions:
REMARK  status: ('A' for Active; 'I' for Inactive)
REMARK    1  A    between atoms: C6_6  and  C7_7 
REMARK    2  A    between atoms: C7_7  and  C8_8 
REMARK    3  A    between atoms: C8_8  and  O10_10 
ROOT
HETATM    1  C1  UNL     1     -34.590  13.660  -4.383  1.00 20.00     0.072 C 
HETATM    2  C3  UNL     1     -32.741  15.007  -3.524  1.00 20.00     0.034 C 
HETATM    3  C7  UNL     1     -34.202  15.056  -4.032  1.00 20.00     0.075 C 
HETATM    4  N9  UNL     1     -34.889  12.572  -4.656  1.00 20.00    -0.196 NA
ENDROOT
BRANCH   3   5
HETATM    5  C6  UNL     1     -35.147  15.560  -2.898  1.00 20.00     0.023 C 
HETATM    6  C2  UNL     1     -34.466  16.285  -1.738  1.00 20.00     0.007 C 
ENDBRANCH   3   5
BRANCH   3   7
HETATM    7  C8  UNL     1     -34.312  15.967  -5.326  1.00 20.00     0.071 C 
HETATM    8  C4  UNL     1     -33.422  17.220  -5.263  1.00 20.00     0.047 C 
HETATM    9  C5  UNL     1     -35.748  16.421  -5.645  1.00 20.00     0.047 C 
BRANCH   7  10
HETATM   10  O10 UNL     1     -33.838  15.231  -6.468  1.00 20.00    -0.389 OA
HETATM   11  H25 UNL     1     -33.734  15.881  -7.174  1.00 20.00     0.210 HD
ENDBRANCH   7  10
ENDBRANCH   3   7
TORSDOF 3
ENDMDL
MODEL 2
REMARK VINA RESULT:      -4.5      2.090      2.962
REMARK  3 active torsions:
REMARK  status: ('A' for Active; 'I' for Inactive)
REMARK    1  A    between atoms: C6_6  and  C7_7 
REMARK    2  A    between atoms: C7_7  and  C8_8 
REMARK    3  A    between atoms: C8_8  and  O10_10 
ROOT
HETATM    1  C1  UNL     1     -37.083  14.731  -3.755  1.00 20.00     0.072 C 
HETATM    2  C3  UNL     1     -35.155  15.565  -2.506  1.00 20.00     0.034 C 
HETATM    3  C7  UNL     1     -35.659  15.145  -3.908  1.00 20.00     0.075 C 
HETATM    4  N9  UNL     1     -38.192  14.410  -3.633  1.00 20.00    -0.196 NA
ENDROOT
BRANCH   3   5
HETATM    5  C6  UNL     1     -35.600  16.360  -4.884  1.00 20.00     0.023 C 
HETATM    6  C2  UNL     1     -34.522  17.401  -4.585  1.00 20.00     0.007 C 
ENDBRANCH   3   5
BRANCH   3   7
HETATM    7  C8  UNL     1     -34.817  13.918  -4.458  1.00 20.00     0.071 C 
HETATM    8  C4  UNL     1     -33.414  13.817  -3.836  1.00 20.00     0.047 C 
HETATM    9  C5  UNL     1     -34.660  13.911  -5.990  1.00 20.00     0.047 C 
BRANCH   7  10
HETATM   10  O10 UNL     1     -35.473  12.690  -4.094  1.00 20.00    -0.389 OA
HETATM   11  H25 UNL     1     -35.515  12.165  -4.903  1.00 20.00     0.210 HD
ENDBRANCH   7  10
ENDBRANCH   3   7
TORSDOF 3
ENDMDL
MODEL 3
REMARK VINA RESULT:      -4.5      1.469      3.089
REMARK  3 active torsions:
REMARK  status: ('A' for Active; 'I' for Inactive)
REMARK    1  A    between atoms: C6_6  and  C7_7 
REMARK    2  A    between atoms: C7_7  and  C8_8 
REMARK    3  A    between atoms: C8_8  and  O10_10 
ROOT
HETATM    1  C1  UNL     1     -34.721  13.824  -4.887  1.00 20.00     0.072 C 
HETATM    2  C3  UNL     1     -36.108  15.804  -5.243  1.00 20.00     0.034 C 
HETATM    3  C7  UNL     1     -34.672  15.238  -5.359  1.00 20.00     0.075 C 
HETATM    4  N9  UNL     1     -34.762  12.724  -4.520  1.00 20.00    -0.196 NA
ENDROOT
BRANCH   3   5
HETATM    5  C6  UNL     1     -34.211  15.246  -6.849  1.00 20.00     0.023 C 
HETATM    6  C2  UNL     1     -35.224  14.710  -7.860  1.00 20.00     0.007 C 
ENDBRANCH   3   5
BRANCH   3   7
HETATM    7  C8  UNL     1     -33.674  16.058  -4.439  1.00 20.00     0.071 C 
HETATM    8  C4  UNL     1     -33.965  15.902  -2.937  1.00 20.00     0.047 C 
HETATM    9  C5  UNL     1     -33.629  17.564  -4.760  1.00 20.00     0.047 C 
BRANCH   7  10
HETATM   10  O10 UNL     1     -32.339  15.550  -4.613  1.00 20.00    -0.389 OA
HETATM   11  H25 UNL     1     -32.440  14.683  -5.026  1.00 20.00     0.210 HD
ENDBRANCH   7  10
ENDBRANCH   3   7
TORSDOF 3
ENDMDL
MODEL 4
REMARK VINA RESULT:      -4.3      1.857      2.331
REMARK  3 active torsions:
REMARK  status: ('A' for Active; 'I' for Inactive)
REMARK    1  A    between atoms: C6_6  and  C7_7 
REMARK    2  A    between atoms: C7_7  and  C8_8 
REMARK    3  A    between atoms: C8_8  and  O10_10 
ROOT
HETATM    1  C1  UNL     1     -33.457  13.903  -3.641  1.00 20.00     0.072 C 
HETATM    2  C3  UNL     1     -33.873  16.026  -4.778  1.00 20.00     0.034 C 
HETATM    3  C7  UNL     1     -34.483  14.970  -3.824  1.00 20.00     0.075 C 
HETATM    4  N9  UNL     1     -32.657  13.074  -3.500  1.00 20.00    -0.196 NA
ENDROOT
BRANCH   3   5
HETATM    5  C6  UNL     1     -34.782  15.612  -2.435  1.00 20.00     0.023 C 
HETATM    6  C2  UNL     1     -33.797  16.685  -1.973  1.00 20.00     0.007 C 
ENDBRANCH   3   5
BRANCH   3   7
HETATM    7  C8  UNL     1     -35.788  14.332  -4.461  1.00 20.00     0.071 C 
HETATM    8  C4  UNL     1     -35.890  14.549  -5.980  1.00 20.00     0.047 C 
HETATM    9  C5  UNL     1     -37.097  14.830  -3.822  1.00 20.00     0.047 C 
BRANCH   7  10
HETATM   10  O10 UNL     1     -35.751  12.904  -4.292  1.00 20.00    -0.389 OA
HETATM   11  H25 UNL     1     -35.912  12.531  -5.167  1.00 20.00     0.210 HD
ENDBRANCH   7  10
ENDBRANCH   3   7
TORSDOF 3
ENDMDL
MODEL 5
REMARK VINA RESULT:      -4.3      1.798      3.322
REMARK  3 active torsions:
REMARK  status: ('A' for Active; 'I' for Inactive)
REMARK    1  A    between atoms: C6_6  and  C7_7 
REMARK    2  A    between atoms: C7_7  and  C8_8 
REMARK    3  A    between atoms: C8_8  and  O10_10 
ROOT
HETATM    1  C1  UNL     1     -36.225  14.659  -4.302  1.00 20.00     0.072 C 
HETATM    2  C3  UNL     1     -35.363  16.637  -5.450  1.00 20.00     0.034 C 
HETATM    3  C7  UNL     1     -35.031  15.186  -5.025  1.00 20.00     0.075 C 
HETATM    4  N9  UNL     1     -37.155  14.251  -3.739  1.00 20.00    -0.196 NA
ENDROOT
BRANCH   3   5
HETATM    5  C6  UNL     1     -34.787  14.300  -6.284  1.00 20.00     0.023 C 
HETATM    6  C2  UNL     1     -34.658  15.051  -7.610  1.00 20.00     0.007 C 
ENDBRANCH   3   5
BRANCH   3   7
HETATM    7  C8  UNL     1     -33.781  15.164  -4.049  1.00 20.00     0.071 C 
HETATM    8  C4  UNL     1     -33.300  13.742  -3.712  1.00 20.00     0.047 C 
HETATM    9  C5  UNL     1     -34.015  15.912  -2.723  1.00 20.00     0.047 C 
BRANCH   7  10
HETATM   10  O10 UNL     1     -32.660  15.792  -4.696  1.00 20.00    -0.389 OA
HETATM   11  H25 UNL     1     -32.806  15.678  -5.644  1.00 20.00     0.210 HD
ENDBRANCH   7  10
ENDBRANCH   3   7
TORSDOF 3
ENDMDL
MODEL 6
REMARK VINA RESULT:      -4.3      1.664      2.132
REMARK  3 active torsions:
REMARK  status: ('A' for Active; 'I' for Inactive)
REMARK    1  A    between atoms: C6_6  and  C7_7 
REMARK    2  A    between atoms: C7_7  and  C8_8 
REMARK    3  A    between atoms: C8_8  and  O10_10 
ROOT
HETATM    1  C1  UNL     1     -36.342  14.449  -4.024  1.00 20.00     0.072 C 
HETATM    2  C3  UNL     1     -34.368  13.174  -4.694  1.00 20.00     0.034 C 
HETATM    3  C7  UNL     1     -34.883  14.580  -4.305  1.00 20.00     0.075 C 
HETATM    4  N9  UNL     1     -37.477  14.344  -3.806  1.00 20.00    -0.196 NA
ENDROOT
BRANCH   3   5
HETATM    5  C6  UNL     1     -34.173  15.071  -3.006  1.00 20.00     0.023 C 
HETATM    6  C2  UNL     1     -34.976  16.034  -2.133  1.00 20.00     0.007 C 
ENDBRANCH   3   5
BRANCH   3   7
HETATM    7  C8  UNL     1     -34.675  15.601  -5.501  1.00 20.00     0.071 C 
HETATM    8  C4  UNL     1     -34.590  14.916  -6.875  1.00 20.00     0.047 C 
HETATM    9  C5  UNL     1     -33.434  16.499  -5.341  1.00 20.00     0.047 C 
BRANCH   7  10
HETATM   10  O10 UNL     1     -35.817  16.471  -5.590  1.00 20.00    -0.389 OA
HETATM   11  H25 UNL     1     -35.465  17.348  -5.784  1.00 20.00     0.210 HD
ENDBRANCH   7  10
ENDBRANCH   3   7
TORSDOF 3
ENDMDL
MODEL 7
REMARK VINA RESULT:      -4.2      1.317      1.792
REMARK  3 active torsions:
REMARK  status: ('A' for Active; 'I' for Inactive)
REMARK    1  A    between atoms: C6_6  and  C7_7 
REMARK    2  A    between atoms: C7_7  and  C8_8 
REMARK    3  A    between atoms: C8_8  and  O10_10 
ROOT
HETATM    1  C1  UNL     1     -34.752  13.954  -4.173  1.00 20.00     0.072 C 
HETATM    2  C3  UNL     1     -34.405  15.710  -2.509  1.00 20.00     0.034 C 
HETATM    3  C7  UNL     1     -34.790  15.432  -3.982  1.00 20.00     0.075 C 
HETATM    4  N9  UNL     1     -34.721  12.803  -4.319  1.00 20.00    -0.196 NA
ENDROOT
BRANCH   3   5
HETATM    5  C6  UNL     1     -36.242  15.928  -4.259  1.00 20.00     0.023 C 
HETATM    6  C2  UNL     1     -37.360  15.081  -3.654  1.00 20.00     0.007 C 
ENDBRANCH   3   5
BRANCH   3   7
HETATM    7  C8  UNL     1     -33.748  16.110  -4.967  1.00 20.00     0.071 C 
HETATM    8  C4  UNL     1     -33.656  17.636  -4.797  1.00 20.00     0.047 C 
HETATM    9  C5  UNL     1     -34.017  15.814  -6.455  1.00 20.00     0.047 C 
BRANCH   7  10
HETATM   10  O10 UNL     1     -32.426  15.623  -4.672  1.00 20.00    -0.389 OA
HETATM   11  H25 UNL     1     -32.309  15.743  -3.721  1.00 20.00     0.210 HD
ENDBRANCH   7  10
ENDBRANCH   3   7
TORSDOF 3
ENDMDL
MODEL 8
REMARK VINA RESULT:      -4.2      1.532      1.717
REMARK  3 active torsions:
REMARK  status: ('A' for Active; 'I' for Inactive)
REMARK    1  A    between atoms: C6_6  and  C7_7 
REMARK    2  A    between atoms: C7_7  and  C8_8 
REMARK    3  A    between atoms: C8_8  and  O10_10 
ROOT
HETATM    1  C1  UNL     1     -35.793  14.961  -3.542  1.00 20.00     0.072 C 
HETATM    2  C3  UNL     1     -33.686  13.729  -3.678  1.00 20.00     0.034 C 
HETATM    3  C7  UNL     1     -34.323  15.139  -3.722  1.00 20.00     0.075 C 
HETATM    4  N9  UNL     1     -36.936  14.819  -3.402  1.00 20.00    -0.196 NA
ENDROOT
BRANCH   3   5
HETATM    5  C6  UNL     1     -33.784  16.008  -2.545  1.00 20.00     0.023 C 
HETATM    6  C2  UNL     1     -34.791  16.330  -1.441  1.00 20.00     0.007 C 
ENDBRANCH   3   5
BRANCH   3   7
HETATM    7  C8  UNL     1     -34.051  15.829  -5.124  1.00 20.00     0.071 C 
HETATM    8  C4  UNL     1     -34.738  17.197  -5.270  1.00 20.00     0.047 C 
HETATM    9  C5  UNL     1     -34.458  14.962  -6.331  1.00 20.00     0.047 C 
BRANCH   7  10
HETATM   10  O10 UNL     1     -32.645  16.103  -5.256  1.00 20.00    -0.389 OA
HETATM   11  H25 UNL     1     -32.367  16.465  -4.405  1.00 20.00     0.210 HD
ENDBRANCH   7  10
ENDBRANCH   3   7
TORSDOF 3
ENDMDL
MODEL 9
REMARK VINA RESULT:      -4.2      1.818      2.780
REMARK  3 active torsions:
REMARK  status: ('A' for Active; 'I' for Inactive)
REMARK    1  A    between atoms: C6_6  and  C7_7 
REMARK    2  A    between atoms: C7_7  and  C8_8 
REMARK    3  A    between atoms: C8_8  and  O10_10 
ROOT
HETATM    1  C1  UNL     1     -34.529  14.864  -6.223  1.00 20.00     0.072 C 
HETATM    2  C3  UNL     1     -35.016  13.281  -4.426  1.00 20.00     0.034 C 
HETATM    3  C7  UNL     1     -34.753  14.771  -4.751  1.00 20.00     0.075 C 
HETATM    4  N9  UNL     1     -34.355  14.934  -7.368  1.00 20.00    -0.196 NA
ENDROOT
BRANCH   3   5
HETATM    5  C6  UNL     1     -36.003  15.629  -4.387  1.00 20.00     0.023 C 
HETATM    6  C2  UNL     1     -37.184  14.862  -3.791  1.00 20.00     0.007 C 
ENDBRANCH   3   5
BRANCH   3   7
HETATM    7  C8  UNL     1     -33.457  15.285  -3.995  1.00 20.00     0.071 C 
HETATM    8  C4  UNL     1     -32.576  14.145  -3.456  1.00 20.00     0.047 C 
HETATM    9  C5  UNL     1     -33.759  16.243  -2.828  1.00 20.00     0.047 C 
BRANCH   7  10
HETATM   10  O10 UNL     1     -32.617  15.998  -4.920  1.00 20.00    -0.389 OA
HETATM   11  H25 UNL     1     -32.960  16.900  -4.946  1.00 20.00     0.210 HD
ENDBRANCH   7  10
ENDBRANCH   3   7
TORSDOF 3
ENDMDL
