MODEL 1
REMARK VINA RESULT:      -4.5      0.000      0.000
REMARK  4 active torsions:
REMARK  status: ('A' for Active; 'I' for Inactive)
REMARK    1  A    between atoms: C4_4  and  C9_9 
REMARK    2  A    between atoms: C7_7  and  C9_9 
REMARK    3  A    between atoms: C8_8  and  C9_9 
REMARK    4  A    between atoms: C9_9  and  O11_11 
ROOT
HETATM    1  C1  UNL     1     -34.669  13.815  -4.224  1.00 20.00     0.066 C 
HETATM    2  C6  UNL     1     -32.609  14.996  -3.657  1.00 20.00     0.028 C 
HETATM    3  C8  UNL     1     -34.081  15.165  -4.063  1.00 20.00     0.123 C 
HETATM    4  N10 UNL     1     -35.127  12.756  -4.355  1.00 20.00    -0.197 NA
ENDROOT
BRANCH   3   5
HETATM    5  C9  UNL     1     -34.905  16.034  -3.060  1.00 20.00     0.077 C 
BRANCH   5   6
HETATM    6  C4  UNL     1     -34.140  16.238  -1.763  1.00 20.00     0.021 A 
HETATM    7  C2  UNL     1     -33.757  17.621  -1.319  1.00 20.00     0.008 A 
HETATM    8  C3  UNL     1     -34.818  16.860  -0.575  1.00 20.00     0.008 A 
ENDBRANCH   5   6
BRANCH   5   9
HETATM    9  C7  UNL     1     -35.334  17.411  -3.639  1.00 20.00     0.035 C 
HETATM   10  C5  UNL     1     -34.738  17.770  -4.992  1.00 20.00     0.008 C 
ENDBRANCH   5   9
BRANCH   5  11
HETATM   11  O11 UNL     1     -36.112  15.323  -2.741  1.00 20.00    -0.388 OA
HETATM   12  H26 UNL     1     -36.474  15.755  -1.956  1.00 20.00     0.210 HD
ENDBRANCH   5  11
ENDBRANCH   3   5
TORSDOF 4
ENDMDL
MODEL 2
REMARK VINA RESULT:      -4.5      1.494      3.107
REMARK  4 active torsions:
REMARK  status: ('A' for Active; 'I' for Inactive)
REMARK    1  A    between atoms: C4_4  and  C9_9 
REMARK    2  A    between atoms: C7_7  and  C9_9 
REMARK    3  A    between atoms: C8_8  and  C9_9 
REMARK    4  A    between atoms: C9_9  and  O11_11 
ROOT
HETATM    1  C1  UNL     1     -34.962  13.586  -4.162  1.00 20.00     0.066 C 
HETATM    2  C6  UNL     1     -36.635  15.346  -3.915  1.00 20.00     0.028 C 
HETATM    3  C8  UNL     1     -35.261  14.846  -3.444  1.00 20.00     0.123 C 
HETATM    4  N10 UNL     1     -34.731  12.596  -4.723  1.00 20.00    -0.197 NA
ENDROOT
BRANCH   3   5
HETATM    5  C9  UNL     1     -34.121  15.897  -3.631  1.00 20.00     0.077 C 
BRANCH   5   6
HETATM    6  C4  UNL     1     -34.539  16.983  -4.609  1.00 20.00     0.021 A 
HETATM    7  C2  UNL     1     -33.573  18.067  -4.996  1.00 20.00     0.008 A 
HETATM    8  C3  UNL     1     -33.962  17.014  -5.996  1.00 20.00     0.008 A 
ENDBRANCH   5   6
BRANCH   5   9
HETATM    9  C7  UNL     1     -33.648  16.544  -2.300  1.00 20.00     0.035 C 
HETATM   10  C5  UNL     1     -34.640  16.477  -1.147  1.00 20.00     0.008 C 
ENDBRANCH   5   9
BRANCH   5  11
HETATM   11  O11 UNL     1     -32.983  15.226  -4.195  1.00 20.00    -0.388 OA
HETATM   12  H26 UNL     1     -33.065  15.323  -5.153  1.00 20.00     0.210 HD
ENDBRANCH   5  11
ENDBRANCH   3   5
TORSDOF 4
ENDMDL
MODEL 3
REMARK VINA RESULT:      -4.4      1.457      1.582
REMARK  4 active torsions:
REMARK  status: ('A' for Active; 'I' for Inactive)
REMARK    1  A    between atoms: C4_4  and  C9_9 
REMARK    2  A    between atoms: C7_7  and  C9_9 
REMARK    3  A    between atoms: C8_8  and  C9_9 
REMARK    4  A    between atoms: C9_9  and  O11_11 
ROOT
HETATM    1  C1  UNL     1     -36.857  14.703  -3.802  1.00 20.00     0.066 C 
HETATM    2  C6  UNL     1     -34.521  14.093  -3.442  1.00 20.00     0.028 C 
HETATM    3  C8  UNL     1     -35.472  15.225  -3.859  1.00 20.00     0.123 C 
HETATM    4  N10 UNL     1     -37.942  14.291  -3.761  1.00 20.00    -0.197 NA
ENDROOT
BRANCH   3   5
HETATM    5  C9  UNL     1     -35.311  16.519  -3.000  1.00 20.00     0.077 C 
BRANCH   5   6
HETATM    6  C4  UNL     1     -34.365  16.282  -1.834  1.00 20.00     0.021 A 
HETATM    7  C2  UNL     1     -33.616  17.431  -1.221  1.00 20.00     0.008 A 
HETATM    8  C3  UNL     1     -34.727  16.765  -0.458  1.00 20.00     0.008 A 
ENDBRANCH   5   6
BRANCH   5   9
HETATM    9  C7  UNL     1     -34.836  17.752  -3.818  1.00 20.00     0.035 C 
HETATM   10  C5  UNL     1     -33.769  17.474  -4.868  1.00 20.00     0.008 C 
ENDBRANCH   5   9
BRANCH   5  11
HETATM   11  O11 UNL     1     -36.596  16.854  -2.451  1.00 20.00    -0.388 OA
HETATM   12  H26 UNL     1     -37.005  16.014  -2.203  1.00 20.00     0.210 HD
ENDBRANCH   5  11
ENDBRANCH   3   5
TORSDOF 4
ENDMDL
MODEL 4
REMARK VINA RESULT:      -4.2      1.288      1.841
REMARK  4 active torsions:
REMARK  status: ('A' for Active; 'I' for Inactive)
REMARK    1  A    between atoms: C4_4  and  C9_9 
REMARK    2  A    between atoms: C7_7  and  C9_9 
REMARK    3  A    between atoms: C8_8  and  C9_9 
REMARK    4  A    between atoms: C9_9  and  O11_11 
ROOT
HETATM    1  C1  UNL     1     -35.203  13.719  -4.161  1.00 20.00     0.066 C 
HETATM    2  C6  UNL     1     -37.028  15.333  -4.317  1.00 20.00     0.028 C 
HETATM    3  C8  UNL     1     -35.768  14.936  -3.533  1.00 20.00     0.123 C 
HETATM    4  N10 UNL     1     -34.765  12.762  -4.651  1.00 20.00    -0.197 NA
ENDROOT
BRANCH   3   5
HETATM    5  C9  UNL     1     -34.707  16.079  -3.443  1.00 20.00     0.077 C 
BRANCH   5   6
HETATM    6  C4  UNL     1     -34.040  16.095  -2.078  1.00 20.00     0.021 A 
HETATM    7  C2  UNL     1     -33.660  17.399  -1.436  1.00 20.00     0.008 A 
HETATM    8  C3  UNL     1     -34.793  16.586  -0.874  1.00 20.00     0.008 A 
ENDBRANCH   5   6
BRANCH   5   9
HETATM    9  C7  UNL     1     -33.624  16.011  -4.556  1.00 20.00     0.035 C 
HETATM   10  C5  UNL     1     -33.560  17.214  -5.486  1.00 20.00     0.008 C 
ENDBRANCH   5   9
BRANCH   5  11
HETATM   11  O11 UNL     1     -35.389  17.334  -3.604  1.00 20.00    -0.388 OA
HETATM   12  H26 UNL     1     -36.226  17.243  -3.130  1.00 20.00     0.210 HD
ENDBRANCH   5  11
ENDBRANCH   3   5
TORSDOF 4
ENDMDL
MODEL 5
REMARK VINA RESULT:      -4.2     12.078     13.669
REMARK  4 active torsions:
REMARK  status: ('A' for Active; 'I' for Inactive)
REMARK    1  A    between atoms: C4_4  and  C9_9 
REMARK    2  A    between atoms: C7_7  and  C9_9 
REMARK    3  A    between atoms: C8_8  and  C9_9 
REMARK    4  A    between atoms: C9_9  and  O11_11 
ROOT
HETATM    1  C1  UNL     1     -41.748   2.869  -2.985  1.00 20.00     0.066 C 
HETATM    2  C6  UNL     1     -43.263   4.772  -3.193  1.00 20.00     0.028 C 
HETATM    3  C8  UNL     1     -42.509   3.871  -2.204  1.00 20.00     0.123 C 
HETATM    4  N10 UNL     1     -41.156   2.082  -3.600  1.00 20.00    -0.197 NA
ENDROOT
BRANCH   3   5
HETATM    5  C9  UNL     1     -41.580   4.663  -1.229  1.00 20.00     0.077 C 
BRANCH   5   6
HETATM    6  C4  UNL     1     -41.495   6.126  -1.628  1.00 20.00     0.021 A 
HETATM    7  C2  UNL     1     -42.277   7.165  -0.874  1.00 20.00     0.008 A 
HETATM    8  C3  UNL     1     -40.780   7.111  -0.746  1.00 20.00     0.008 A 
ENDBRANCH   5   6
BRANCH   5   9
HETATM    9  C7  UNL     1     -42.005   4.550   0.262  1.00 20.00     0.035 C 
HETATM   10  C5  UNL     1     -43.372   3.928   0.511  1.00 20.00     0.008 C 
ENDBRANCH   5   9
BRANCH   5  11
HETATM   11  O11 UNL     1     -40.256   4.112  -1.326  1.00 20.00    -0.388 OA
HETATM   12  H26 UNL     1     -40.368   3.152  -1.326  1.00 20.00     0.210 HD
ENDBRANCH   5  11
ENDBRANCH   3   5
TORSDOF 4
ENDMDL
MODEL 6
REMARK VINA RESULT:      -4.2      1.849      3.099
REMARK  4 active torsions:
REMARK  status: ('A' for Active; 'I' for Inactive)
REMARK    1  A    between atoms: C4_4  and  C9_9 
REMARK    2  A    between atoms: C7_7  and  C9_9 
REMARK    3  A    between atoms: C8_8  and  C9_9 
REMARK    4  A    between atoms: C9_9  and  O11_11 
ROOT
HETATM    1  C1  UNL     1     -34.836  13.735  -4.955  1.00 20.00     0.066 C 
HETATM    2  C6  UNL     1     -34.330  15.066  -6.937  1.00 20.00     0.028 C 
HETATM    3  C8  UNL     1     -34.793  15.121  -5.474  1.00 20.00     0.123 C 
HETATM    4  N10 UNL     1     -34.873  12.647  -4.551  1.00 20.00    -0.197 NA
ENDROOT
BRANCH   3   5
HETATM    5  C9  UNL     1     -33.906  16.042  -4.577  1.00 20.00     0.077 C 
BRANCH   5   6
HETATM    6  C4  UNL     1     -34.411  17.475  -4.604  1.00 20.00     0.021 A 
HETATM    7  C2  UNL     1     -33.461  18.618  -4.375  1.00 20.00     0.008 A 
HETATM    8  C3  UNL     1     -34.042  18.386  -5.742  1.00 20.00     0.008 A 
ENDBRANCH   5   6
BRANCH   5   9
HETATM    9  C7  UNL     1     -33.792  15.554  -3.106  1.00 20.00     0.035 C 
HETATM   10  C5  UNL     1     -34.851  16.088  -2.152  1.00 20.00     0.008 C 
ENDBRANCH   5   9
BRANCH   5  11
HETATM   11  O11 UNL     1     -32.575  16.045  -5.119  1.00 20.00    -0.388 OA
HETATM   12  H26 UNL     1     -32.051  15.479  -4.536  1.00 20.00     0.210 HD
ENDBRANCH   5  11
ENDBRANCH   3   5
TORSDOF 4
ENDMDL
MODEL 7
REMARK VINA RESULT:      -4.0      1.942      3.682
REMARK  4 active torsions:
REMARK  status: ('A' for Active; 'I' for Inactive)
REMARK    1  A    between atoms: C4_4  and  C9_9 
REMARK    2  A    between atoms: C7_7  and  C9_9 
REMARK    3  A    between atoms: C8_8  and  C9_9 
REMARK    4  A    between atoms: C9_9  and  O11_11 
ROOT
HETATM    1  C1  UNL     1     -34.086  17.082  -4.989  1.00 20.00     0.066 C 
HETATM    2  C6  UNL     1     -36.522  16.936  -4.927  1.00 20.00     0.028 C 
HETATM    3  C8  UNL     1     -35.213  16.156  -4.734  1.00 20.00     0.123 C 
HETATM    4  N10 UNL     1     -33.205  17.809  -5.195  1.00 20.00    -0.197 NA
ENDROOT
BRANCH   3   5
HETATM    5  C9  UNL     1     -35.094  15.482  -3.330  1.00 20.00     0.077 C 
BRANCH   5   6
HETATM    6  C4  UNL     1     -34.724  14.014  -3.462  1.00 20.00     0.021 A 
HETATM    7  C2  UNL     1     -34.422  13.427  -4.812  1.00 20.00     0.008 A 
HETATM    8  C3  UNL     1     -33.318  13.616  -3.811  1.00 20.00     0.008 A 
ENDBRANCH   5   6
BRANCH   5   9
HETATM    9  C7  UNL     1     -34.088  16.193  -2.382  1.00 20.00     0.035 C 
HETATM   10  C5  UNL     1     -34.628  16.560  -1.007  1.00 20.00     0.008 C 
ENDBRANCH   5   9
BRANCH   5  11
HETATM   11  O11 UNL     1     -36.381  15.546  -2.694  1.00 20.00    -0.388 OA
HETATM   12  H26 UNL     1     -36.957  16.020  -3.307  1.00 20.00     0.210 HD
ENDBRANCH   5  11
ENDBRANCH   3   5
TORSDOF 4
ENDMDL
MODEL 8
REMARK VINA RESULT:      -4.0      1.768      2.884
REMARK  4 active torsions:
REMARK  status: ('A' for Active; 'I' for Inactive)
REMARK    1  A    between atoms: C4_4  and  C9_9 
REMARK    2  A    between atoms: C7_7  and  C9_9 
REMARK    3  A    between atoms: C8_8  and  C9_9 
REMARK    4  A    between atoms: C9_9  and  O11_11 
ROOT
HETATM    1  C1  UNL     1     -37.409  15.157  -3.551  1.00 20.00     0.066 C 
HETATM    2  C6  UNL     1     -36.727  17.415  -4.179  1.00 20.00     0.028 C 
HETATM    3  C8  UNL     1     -36.421  16.221  -3.262  1.00 20.00     0.123 C 
HETATM    4  N10 UNL     1     -38.188  14.326  -3.775  1.00 20.00    -0.197 NA
ENDROOT
BRANCH   3   5
HETATM    5  C9  UNL     1     -34.957  15.695  -3.396  1.00 20.00     0.077 C 
BRANCH   5   6
HETATM    6  C4  UNL     1     -34.154  15.995  -2.141  1.00 20.00     0.021 A 
HETATM    7  C2  UNL     1     -33.833  17.415  -1.768  1.00 20.00     0.008 A 
HETATM    8  C3  UNL     1     -34.820  16.628  -0.952  1.00 20.00     0.008 A 
ENDBRANCH   5   6
BRANCH   5   9
HETATM    9  C7  UNL     1     -34.869  14.179  -3.726  1.00 20.00     0.035 C 
HETATM   10  C5  UNL     1     -33.461  13.606  -3.815  1.00 20.00     0.008 C 
ENDBRANCH   5   9
BRANCH   5  11
HETATM   11  O11 UNL     1     -34.329  16.393  -4.484  1.00 20.00    -0.388 OA
HETATM   12  H26 UNL     1     -34.843  17.202  -4.612  1.00 20.00     0.210 HD
ENDBRANCH   5  11
ENDBRANCH   3   5
TORSDOF 4
ENDMDL
MODEL 9
REMARK VINA RESULT:      -4.0      2.370      3.660
REMARK  4 active torsions:
REMARK  status: ('A' for Active; 'I' for Inactive)
REMARK    1  A    between atoms: C4_4  and  C9_9 
REMARK    2  A    between atoms: C7_7  and  C9_9 
REMARK    3  A    between atoms: C8_8  and  C9_9 
REMARK    4  A    between atoms: C9_9  and  O11_11 
ROOT
HETATM    1  C1  UNL     1     -34.234  16.849  -1.795  1.00 20.00     0.066 C 
HETATM    2  C6  UNL     1     -34.607  18.416  -3.629  1.00 20.00     0.028 C 
HETATM    3  C8  UNL     1     -33.769  17.222  -3.150  1.00 20.00     0.123 C 
HETATM    4  N10 UNL     1     -34.598  16.562  -0.730  1.00 20.00    -0.197 NA
ENDROOT
BRANCH   3   5
HETATM    5  C9  UNL     1     -33.812  16.004  -4.127  1.00 20.00     0.077 C 
BRANCH   5   6
HETATM    6  C4  UNL     1     -34.064  14.710  -3.370  1.00 20.00     0.021 A 
HETATM    7  C2  UNL     1     -34.833  13.592  -4.016  1.00 20.00     0.008 A 
HETATM    8  C3  UNL     1     -33.357  13.447  -3.775  1.00 20.00     0.008 A 
ENDBRANCH   5   6
BRANCH   5   9
HETATM    9  C7  UNL     1     -34.857  16.157  -5.266  1.00 20.00     0.035 C 
HETATM   10  C5  UNL     1     -34.295  16.145  -6.681  1.00 20.00     0.008 C 
ENDBRANCH   5   9
BRANCH   5  11
HETATM   11  O11 UNL     1     -32.525  15.890  -4.756  1.00 20.00    -0.388 OA
HETATM   12  H26 UNL     1     -32.673  15.401  -5.577  1.00 20.00     0.210 HD
ENDBRANCH   5  11
ENDBRANCH   3   5
TORSDOF 4
ENDMDL
