MODEL 1
REMARK VINA RESULT:      -4.2      0.000      0.000
REMARK  4 active torsions:
REMARK  status: ('A' for Active; 'I' for Inactive)
REMARK    1  A    between atoms: C5_5  and  C7_7 
REMARK    2  A    between atoms: C6_6  and  C8_8 
REMARK    3  A    between atoms: C7_7  and  C8_8 
REMARK    4  A    between atoms: C8_8  and  O10_10 
ROOT
HETATM    1  C1  UNL     1     -33.732  17.758  -3.337  1.00 20.00     0.067 C 
HETATM    2  C7  UNL     1     -33.591  16.393  -2.769  1.00 20.00     0.126 C 
HETATM    3  N9  UNL     1     -33.839  18.825  -3.779  1.00 20.00    -0.197 NA
ENDROOT
BRANCH   2   4
HETATM    4  C5  UNL     1     -34.777  16.091  -1.828  1.00 20.00     0.018 C 
HETATM    5  C2  UNL     1     -34.683  16.831  -0.496  1.00 20.00     0.006 C 
ENDBRANCH   2   4
BRANCH   2   6
HETATM    6  C8  UNL     1     -33.402  15.334  -3.907  1.00 20.00     0.070 C 
HETATM    7  C4  UNL     1     -32.613  14.101  -3.446  1.00 20.00     0.047 C 
BRANCH   6   8
HETATM    8  C6  UNL     1     -34.770  14.920  -4.511  1.00 20.00     0.034 C 
HETATM    9  C3  UNL     1     -35.071  13.425  -4.451  1.00 20.00     0.008 C 
ENDBRANCH   6   8
BRANCH   6  10
HETATM   10  O10 UNL     1     -32.638  15.950  -4.958  1.00 20.00    -0.389 OA
HETATM   11  H25 UNL     1     -33.078  16.789  -5.147  1.00 20.00     0.210 HD
ENDBRANCH   6  10
ENDBRANCH   2   6
TORSDOF 4
ENDMDL
MODEL 2
REMARK VINA RESULT:      -4.2      2.022      2.599
REMARK  4 active torsions:
REMARK  status: ('A' for Active; 'I' for Inactive)
REMARK    1  A    between atoms: C5_5  and  C7_7 
REMARK    2  A    between atoms: C6_6  and  C8_8 
REMARK    3  A    between atoms: C7_7  and  C8_8 
REMARK    4  A    between atoms: C8_8  and  O10_10 
ROOT
HETATM    1  C1  UNL     1     -33.504  15.877  -4.322  1.00 20.00     0.067 C 
HETATM    2  C7  UNL     1     -34.262  14.915  -3.483  1.00 20.00     0.126 C 
HETATM    3  N9  UNL     1     -32.909  16.627  -4.977  1.00 20.00    -0.197 NA
ENDROOT
BRANCH   2   4
HETATM    4  C5  UNL     1     -34.953  15.663  -2.322  1.00 20.00     0.018 C 
HETATM    5  C2  UNL     1     -34.033  16.665  -1.629  1.00 20.00     0.006 C 
ENDBRANCH   2   4
BRANCH   2   6
HETATM    6  C8  UNL     1     -35.244  14.066  -4.360  1.00 20.00     0.070 C 
HETATM    7  C4  UNL     1     -36.716  14.435  -4.129  1.00 20.00     0.047 C 
BRANCH   6   8
HETATM    8  C6  UNL     1     -34.877  14.173  -5.863  1.00 20.00     0.034 C 
HETATM    9  C3  UNL     1     -35.979  14.743  -6.753  1.00 20.00     0.008 C 
ENDBRANCH   6   8
BRANCH   6  10
HETATM   10  O10 UNL     1     -35.093  12.688  -3.979  1.00 20.00    -0.389 OA
HETATM   11  H25 UNL     1     -34.230  12.626  -3.549  1.00 20.00     0.210 HD
ENDBRANCH   6  10
ENDBRANCH   2   6
TORSDOF 4
ENDMDL
MODEL 3
REMARK VINA RESULT:      -4.2      2.242      2.657
REMARK  4 active torsions:
REMARK  status: ('A' for Active; 'I' for Inactive)
REMARK    1  A    between atoms: C5_5  and  C7_7 
REMARK    2  A    between atoms: C6_6  and  C8_8 
REMARK    3  A    between atoms: C7_7  and  C8_8 
REMARK    4  A    between atoms: C8_8  and  O10_10 
ROOT
HETATM    1  C1  UNL     1     -36.440  14.866  -3.712  1.00 20.00     0.067 C 
HETATM    2  C7  UNL     1     -35.118  15.539  -3.661  1.00 20.00     0.126 C 
HETATM    3  N9  UNL     1     -37.475  14.343  -3.753  1.00 20.00    -0.197 NA
ENDROOT
BRANCH   2   4
HETATM    4  C5  UNL     1     -34.681  15.727  -2.192  1.00 20.00     0.018 C 
HETATM    5  C2  UNL     1     -33.999  17.070  -1.941  1.00 20.00     0.006 C 
ENDBRANCH   2   4
BRANCH   2   6
HETATM    6  C8  UNL     1     -34.071  14.773  -4.538  1.00 20.00     0.070 C 
HETATM    7  C4  UNL     1     -33.384  13.629  -3.779  1.00 20.00     0.047 C 
BRANCH   6   8
HETATM    8  C6  UNL     1     -34.719  14.254  -5.848  1.00 20.00     0.034 C 
HETATM    9  C3  UNL     1     -34.399  15.079  -7.092  1.00 20.00     0.008 C 
ENDBRANCH   6   8
BRANCH   6  10
HETATM   10  O10 UNL     1     -33.042  15.705  -4.909  1.00 20.00    -0.389 OA
HETATM   11  H25 UNL     1     -33.059  15.747  -5.874  1.00 20.00     0.210 HD
ENDBRANCH   6  10
ENDBRANCH   2   6
TORSDOF 4
ENDMDL
MODEL 4
REMARK VINA RESULT:      -4.2      2.414      4.112
REMARK  4 active torsions:
REMARK  status: ('A' for Active; 'I' for Inactive)
REMARK    1  A    between atoms: C5_5  and  C7_7 
REMARK    2  A    between atoms: C6_6  and  C8_8 
REMARK    3  A    between atoms: C7_7  and  C8_8 
REMARK    4  A    between atoms: C8_8  and  O10_10 
ROOT
HETATM    1  C1  UNL     1     -34.669  13.750  -4.968  1.00 20.00     0.067 C 
HETATM    2  C7  UNL     1     -34.440  15.149  -5.408  1.00 20.00     0.126 C 
HETATM    3  N9  UNL     1     -34.846  12.655  -4.627  1.00 20.00    -0.197 NA
ENDROOT
BRANCH   2   4
HETATM    4  C5  UNL     1     -35.789  15.823  -5.738  1.00 20.00     0.018 C 
HETATM    5  C2  UNL     1     -36.498  15.183  -6.930  1.00 20.00     0.006 C 
ENDBRANCH   2   4
BRANCH   2   6
HETATM    6  C8  UNL     1     -33.585  15.931  -4.353  1.00 20.00     0.070 C 
HETATM    7  C4  UNL     1     -33.605  17.449  -4.581  1.00 20.00     0.047 C 
BRANCH   6   8
HETATM    8  C6  UNL     1     -34.035  15.583  -2.910  1.00 20.00     0.034 C 
HETATM    9  C3  UNL     1     -34.040  16.761  -1.939  1.00 20.00     0.008 C 
ENDBRANCH   6   8
BRANCH   6  10
HETATM   10  O10 UNL     1     -32.220  15.505  -4.491  1.00 20.00    -0.389 OA
HETATM   11  H25 UNL     1     -31.787  15.728  -3.656  1.00 20.00     0.210 HD
ENDBRANCH   6  10
ENDBRANCH   2   6
TORSDOF 4
ENDMDL
MODEL 5
REMARK VINA RESULT:      -4.2      2.512      3.654
REMARK  4 active torsions:
REMARK  status: ('A' for Active; 'I' for Inactive)
REMARK    1  A    between atoms: C5_5  and  C7_7 
REMARK    2  A    between atoms: C6_6  and  C8_8 
REMARK    3  A    between atoms: C7_7  and  C8_8 
REMARK    4  A    between atoms: C8_8  and  O10_10 
ROOT
HETATM    1  C1  UNL     1     -34.923  13.795  -4.341  1.00 20.00     0.067 C 
HETATM    2  C7  UNL     1     -34.873  15.262  -4.119  1.00 20.00     0.126 C 
HETATM    3  N9  UNL     1     -34.965  12.648  -4.514  1.00 20.00    -0.197 NA
ENDROOT
BRANCH   2   4
HETATM    4  C5  UNL     1     -33.975  15.578  -2.903  1.00 20.00     0.018 C 
HETATM    5  C2  UNL     1     -34.734  16.251  -1.762  1.00 20.00     0.006 C 
ENDBRANCH   2   4
BRANCH   2   6
HETATM    6  C8  UNL     1     -34.448  16.008  -5.429  1.00 20.00     0.070 C 
HETATM    7  C4  UNL     1     -35.623  16.717  -6.116  1.00 20.00     0.047 C 
BRANCH   6   8
HETATM    8  C6  UNL     1     -33.291  17.002  -5.149  1.00 20.00     0.034 C 
HETATM    9  C3  UNL     1     -33.644  18.473  -5.357  1.00 20.00     0.008 C 
ENDBRANCH   6   8
BRANCH   6  10
HETATM   10  O10 UNL     1     -33.954  15.025  -6.354  1.00 20.00    -0.389 OA
HETATM   11  H25 UNL     1     -33.024  15.245  -6.501  1.00 20.00     0.210 HD
ENDBRANCH   6  10
ENDBRANCH   2   6
TORSDOF 4
ENDMDL
MODEL 6
REMARK VINA RESULT:      -4.0      2.760      3.479
REMARK  4 active torsions:
REMARK  status: ('A' for Active; 'I' for Inactive)
REMARK    1  A    between atoms: C5_5  and  C7_7 
REMARK    2  A    between atoms: C6_6  and  C8_8 
REMARK    3  A    between atoms: C7_7  and  C8_8 
REMARK    4  A    between atoms: C8_8  and  O10_10 
ROOT
HETATM    1  C1  UNL     1     -37.284  14.724  -3.791  1.00 20.00     0.067 C 
HETATM    2  C7  UNL     1     -35.873  15.187  -3.827  1.00 20.00     0.126 C 
HETATM    3  N9  UNL     1     -38.387  14.366  -3.766  1.00 20.00    -0.197 NA
ENDROOT
BRANCH   2   4
HETATM    4  C5  UNL     1     -35.475  15.761  -2.451  1.00 20.00     0.018 C 
HETATM    5  C2  UNL     1     -35.209  17.264  -2.488  1.00 20.00     0.006 C 
ENDBRANCH   2   4
BRANCH   2   6
HETATM    6  C8  UNL     1     -34.927  14.045  -4.333  1.00 20.00     0.070 C 
HETATM    7  C4  UNL     1     -34.536  14.208  -5.808  1.00 20.00     0.047 C 
BRANCH   6   8
HETATM    8  C6  UNL     1     -33.666  13.934  -3.437  1.00 20.00     0.034 C 
HETATM    9  C3  UNL     1     -32.521  14.867  -3.822  1.00 20.00     0.008 C 
ENDBRANCH   6   8
BRANCH   6  10
HETATM   10  O10 UNL     1     -35.641  12.802  -4.224  1.00 20.00    -0.389 OA
HETATM   11  H25 UNL     1     -36.319  12.826  -4.912  1.00 20.00     0.210 HD
ENDBRANCH   6  10
ENDBRANCH   2   6
TORSDOF 4
ENDMDL
MODEL 7
REMARK VINA RESULT:      -4.0      2.504      2.972
REMARK  4 active torsions:
REMARK  status: ('A' for Active; 'I' for Inactive)
REMARK    1  A    between atoms: C5_5  and  C7_7 
REMARK    2  A    between atoms: C6_6  and  C8_8 
REMARK    3  A    between atoms: C7_7  and  C8_8 
REMARK    4  A    between atoms: C8_8  and  O10_10 
ROOT
HETATM    1  C1  UNL     1     -33.871  14.124  -3.615  1.00 20.00     0.067 C 
HETATM    2  C7  UNL     1     -34.560  15.429  -3.453  1.00 20.00     0.126 C 
HETATM    3  N9  UNL     1     -33.335  13.102  -3.740  1.00 20.00    -0.197 NA
ENDROOT
BRANCH   2   4
HETATM    4  C5  UNL     1     -33.834  16.277  -2.388  1.00 20.00     0.018 C 
HETATM    5  C2  UNL     1     -34.670  16.495  -1.129  1.00 20.00     0.006 C 
ENDBRANCH   2   4
BRANCH   2   6
HETATM    6  C8  UNL     1     -34.717  16.149  -4.835  1.00 20.00     0.070 C 
HETATM    7  C4  UNL     1     -33.406  16.775  -5.330  1.00 20.00     0.047 C 
BRANCH   6   8
HETATM    8  C6  UNL     1     -35.304  15.185  -5.899  1.00 20.00     0.034 C 
HETATM    9  C3  UNL     1     -34.457  15.027  -7.158  1.00 20.00     0.008 C 
ENDBRANCH   6   8
BRANCH   6  10
HETATM   10  O10 UNL     1     -35.656  17.224  -4.667  1.00 20.00    -0.389 OA
HETATM   11  H25 UNL     1     -35.149  17.964  -4.306  1.00 20.00     0.210 HD
ENDBRANCH   6  10
ENDBRANCH   2   6
TORSDOF 4
ENDMDL
MODEL 8
REMARK VINA RESULT:      -4.0      2.313      4.115
REMARK  4 active torsions:
REMARK  status: ('A' for Active; 'I' for Inactive)
REMARK    1  A    between atoms: C5_5  and  C7_7 
REMARK    2  A    between atoms: C6_6  and  C8_8 
REMARK    3  A    between atoms: C7_7  and  C8_8 
REMARK    4  A    between atoms: C8_8  and  O10_10 
ROOT
HETATM    1  C1  UNL     1     -35.813  14.292  -4.441  1.00 20.00     0.067 C 
HETATM    2  C7  UNL     1     -34.460  14.543  -4.998  1.00 20.00     0.126 C 
HETATM    3  N9  UNL     1     -36.870  14.092  -4.006  1.00 20.00    -0.197 NA
ENDROOT
BRANCH   2   4
HETATM    4  C5  UNL     1     -34.579  15.133  -6.420  1.00 20.00     0.018 C 
HETATM    5  C2  UNL     1     -35.506  14.324  -7.324  1.00 20.00     0.006 C 
ENDBRANCH   2   4
BRANCH   2   6
HETATM    6  C8  UNL     1     -33.611  15.423  -4.019  1.00 20.00     0.070 C 
HETATM    7  C4  UNL     1     -33.353  16.835  -4.562  1.00 20.00     0.047 C 
BRANCH   6   8
HETATM    8  C6  UNL     1     -34.270  15.484  -2.616  1.00 20.00     0.034 C 
HETATM    9  C3  UNL     1     -33.941  16.735  -1.806  1.00 20.00     0.008 C 
ENDBRANCH   6   8
BRANCH   6  10
HETATM   10  O10 UNL     1     -32.328  14.794  -3.863  1.00 20.00    -0.389 OA
HETATM   11  H25 UNL     1     -31.838  14.989  -4.672  1.00 20.00     0.210 HD
ENDBRANCH   6  10
ENDBRANCH   2   6
TORSDOF 4
ENDMDL
MODEL 9
REMARK VINA RESULT:      -4.0      2.006      3.648
REMARK  4 active torsions:
REMARK  status: ('A' for Active; 'I' for Inactive)
REMARK    1  A    between atoms: C5_5  and  C7_7 
REMARK    2  A    between atoms: C6_6  and  C8_8 
REMARK    3  A    between atoms: C7_7  and  C8_8 
REMARK    4  A    between atoms: C8_8  and  O10_10 
ROOT
HETATM    1  C1  UNL     1     -34.607  15.279  -6.265  1.00 20.00     0.067 C 
HETATM    2  C7  UNL     1     -34.928  15.720  -4.884  1.00 20.00     0.126 C 
HETATM    3  N9  UNL     1     -34.359  14.936  -7.345  1.00 20.00    -0.197 NA
ENDROOT
BRANCH   2   4
HETATM    4  C5  UNL     1     -35.514  14.541  -4.079  1.00 20.00     0.018 C 
HETATM    5  C2  UNL     1     -34.927  13.191  -4.489  1.00 20.00     0.006 C 
ENDBRANCH   2   4
BRANCH   2   6
HETATM    6  C8  UNL     1     -33.681  16.387  -4.210  1.00 20.00     0.070 C 
HETATM    7  C4  UNL     1     -33.668  17.914  -4.364  1.00 20.00     0.047 C 
BRANCH   6   8
HETATM    8  C6  UNL     1     -33.576  15.982  -2.717  1.00 20.00     0.034 C 
HETATM    9  C3  UNL     1     -33.972  17.075  -1.727  1.00 20.00     0.008 C 
ENDBRANCH   6   8
BRANCH   6  10
HETATM   10  O10 UNL     1     -32.505  15.891  -4.872  1.00 20.00    -0.389 OA
HETATM   11  H25 UNL     1     -31.816  15.854  -4.196  1.00 20.00     0.210 HD
ENDBRANCH   6  10
ENDBRANCH   2   6
TORSDOF 4
ENDMDL
