MODEL 1
REMARK VINA RESULT:      -4.2      0.000      0.000
REMARK  3 active torsions:
REMARK  status: ('A' for Active; 'I' for Inactive)
REMARK    1  A    between atoms: C5_5  and  C7_7 
REMARK    2  A    between atoms: C6_6  and  C7_7 
REMARK    3  A    between atoms: C6_6  and  O9_9 
ROOT
HETATM    1  C1  UNL     1     -34.768  14.058  -3.889  1.00 20.00     0.071 C 
HETATM    2  C4  UNL     1     -35.846  16.202  -4.402  1.00 20.00     0.034 C 
HETATM    3  C7  UNL     1     -34.719  15.513  -3.599  1.00 20.00     0.070 C 
HETATM    4  N8  UNL     1     -34.806  12.920  -4.116  1.00 20.00    -0.196 NA
ENDROOT
BRANCH   3   5
HETATM    5  C5  UNL     1     -34.912  15.745  -2.073  1.00 20.00     0.022 C 
HETATM    6  C2  UNL     1     -34.042  16.836  -1.452  1.00 20.00     0.007 C 
ENDBRANCH   3   5
BRANCH   3   7
HETATM    7  C6  UNL     1     -33.343  16.101  -4.054  1.00 20.00     0.136 C 
HETATM    8  C3  UNL     1     -33.357  16.859  -5.381  1.00 20.00     0.041 C 
BRANCH   7   9
HETATM    9  O9  UNL     1     -32.376  15.051  -4.154  1.00 20.00    -0.394 OA
HETATM   10  H22 UNL     1     -32.877  14.225  -4.203  1.00 20.00     0.210 HD
ENDBRANCH   7   9
ENDBRANCH   3   7
TORSDOF 3
ENDMDL
MODEL 2
REMARK VINA RESULT:      -4.2      1.969      2.391
REMARK  3 active torsions:
REMARK  status: ('A' for Active; 'I' for Inactive)
REMARK    1  A    between atoms: C5_5  and  C7_7 
REMARK    2  A    between atoms: C6_6  and  C7_7 
REMARK    3  A    between atoms: C6_6  and  O9_9 
ROOT
HETATM    1  C1  UNL     1     -36.763  14.699  -3.684  1.00 20.00     0.071 C 
HETATM    2  C4  UNL     1     -34.860  15.800  -4.772  1.00 20.00     0.034 C 
HETATM    3  C7  UNL     1     -35.323  15.023  -3.520  1.00 20.00     0.070 C 
HETATM    4  N8  UNL     1     -37.889  14.446  -3.813  1.00 20.00    -0.196 NA
ENDROOT
BRANCH   3   5
HETATM    5  C5  UNL     1     -35.127  15.881  -2.238  1.00 20.00     0.022 C 
HETATM    6  C2  UNL     1     -33.998  16.908  -2.292  1.00 20.00     0.007 C 
ENDBRANCH   3   5
BRANCH   3   7
HETATM    7  C6  UNL     1     -34.491  13.704  -3.407  1.00 20.00     0.136 C 
HETATM    8  C3  UNL     1     -33.031  13.807  -3.847  1.00 20.00     0.041 C 
BRANCH   7   9
HETATM    9  O9  UNL     1     -35.113  12.669  -4.176  1.00 20.00    -0.394 OA
HETATM   10  H22 UNL     1     -35.104  11.877  -3.621  1.00 20.00     0.210 HD
ENDBRANCH   7   9
ENDBRANCH   3   7
TORSDOF 3
ENDMDL
MODEL 3
REMARK VINA RESULT:      -4.1      2.083      2.401
REMARK  3 active torsions:
REMARK  status: ('A' for Active; 'I' for Inactive)
REMARK    1  A    between atoms: C5_5  and  C7_7 
REMARK    2  A    between atoms: C6_6  and  C7_7 
REMARK    3  A    between atoms: C6_6  and  O9_9 
ROOT
HETATM    1  C1  UNL     1     -37.045  14.701  -3.797  1.00 20.00     0.071 C 
HETATM    2  C4  UNL     1     -35.623  16.416  -4.825  1.00 20.00     0.034 C 
HETATM    3  C7  UNL     1     -35.640  15.169  -3.914  1.00 20.00     0.070 C 
HETATM    4  N8  UNL     1     -38.143  14.337  -3.705  1.00 20.00    -0.196 NA
ENDROOT
BRANCH   3   5
HETATM    5  C5  UNL     1     -35.088  15.513  -2.501  1.00 20.00     0.022 C 
HETATM    6  C2  UNL     1     -33.777  16.296  -2.473  1.00 20.00     0.007 C 
ENDBRANCH   3   5
BRANCH   3   7
HETATM    7  C6  UNL     1     -34.762  14.053  -4.568  1.00 20.00     0.136 C 
HETATM    8  C3  UNL     1     -34.711  14.065  -6.096  1.00 20.00     0.041 C 
BRANCH   7   9
HETATM    9  O9  UNL     1     -35.222  12.764  -4.151  1.00 20.00    -0.394 OA
HETATM   10  H22 UNL     1     -34.480  12.156  -4.279  1.00 20.00     0.210 HD
ENDBRANCH   7   9
ENDBRANCH   3   7
TORSDOF 3
ENDMDL
MODEL 4
REMARK VINA RESULT:      -4.1      2.164      2.991
REMARK  3 active torsions:
REMARK  status: ('A' for Active; 'I' for Inactive)
REMARK    1  A    between atoms: C5_5  and  C7_7 
REMARK    2  A    between atoms: C6_6  and  C7_7 
REMARK    3  A    between atoms: C6_6  and  O9_9 
ROOT
HETATM    1  C1  UNL     1     -33.734  15.919  -4.739  1.00 20.00     0.071 C 
HETATM    2  C4  UNL     1     -33.012  13.911  -3.526  1.00 20.00     0.034 C 
HETATM    3  C7  UNL     1     -34.197  14.863  -3.803  1.00 20.00     0.070 C 
HETATM    4  N8  UNL     1     -33.370  16.744  -5.470  1.00 20.00    -0.196 NA
ENDROOT
BRANCH   3   5
HETATM    5  C5  UNL     1     -34.694  15.520  -2.484  1.00 20.00     0.022 C 
HETATM    6  C2  UNL     1     -33.840  16.668  -1.950  1.00 20.00     0.007 C 
ENDBRANCH   3   5
BRANCH   3   7
HETATM    7  C6  UNL     1     -35.359  14.046  -4.457  1.00 20.00     0.136 C 
HETATM    8  C3  UNL     1     -36.771  14.461  -4.042  1.00 20.00     0.041 C 
BRANCH   7   9
HETATM    9  O9  UNL     1     -35.202  12.655  -4.161  1.00 20.00    -0.394 OA
HETATM   10  H22 UNL     1     -34.960  12.227  -4.994  1.00 20.00     0.210 HD
ENDBRANCH   7   9
ENDBRANCH   3   7
TORSDOF 3
ENDMDL
MODEL 5
REMARK VINA RESULT:      -4.0      1.822      3.212
REMARK  3 active torsions:
REMARK  status: ('A' for Active; 'I' for Inactive)
REMARK    1  A    between atoms: C5_5  and  C7_7 
REMARK    2  A    between atoms: C6_6  and  C7_7 
REMARK    3  A    between atoms: C6_6  and  O9_9 
ROOT
HETATM    1  C1  UNL     1     -34.809  13.871  -4.282  1.00 20.00     0.071 C 
HETATM    2  C4  UNL     1     -32.983  15.428  -3.772  1.00 20.00     0.034 C 
HETATM    3  C7  UNL     1     -34.468  15.312  -4.179  1.00 20.00     0.070 C 
HETATM    4  N8  UNL     1     -35.074  12.743  -4.362  1.00 20.00    -0.196 NA
ENDROOT
BRANCH   3   5
HETATM    5  C5  UNL     1     -34.717  16.004  -5.550  1.00 20.00     0.022 C 
HETATM    6  C2  UNL     1     -34.278  15.215  -6.782  1.00 20.00     0.007 C 
ENDBRANCH   3   5
BRANCH   3   7
HETATM    7  C6  UNL     1     -35.348  15.989  -3.078  1.00 20.00     0.136 C 
HETATM    8  C3  UNL     1     -34.672  16.180  -1.720  1.00 20.00     0.041 C 
BRANCH   7   9
HETATM    9  O9  UNL     1     -36.543  15.229  -2.875  1.00 20.00    -0.394 OA
HETATM   10  H22 UNL     1     -36.298  14.488  -2.302  1.00 20.00     0.210 HD
ENDBRANCH   7   9
ENDBRANCH   3   7
TORSDOF 3
ENDMDL
MODEL 6
REMARK VINA RESULT:      -4.0      1.936      3.011
REMARK  3 active torsions:
REMARK  status: ('A' for Active; 'I' for Inactive)
REMARK    1  A    between atoms: C5_5  and  C7_7 
REMARK    2  A    between atoms: C6_6  and  C7_7 
REMARK    3  A    between atoms: C6_6  and  O9_9 
ROOT
HETATM    1  C1  UNL     1     -33.306  13.801  -3.688  1.00 20.00     0.071 C 
HETATM    2  C4  UNL     1     -34.686  15.606  -2.762  1.00 20.00     0.034 C 
HETATM    3  C7  UNL     1     -34.364  14.785  -4.030  1.00 20.00     0.070 C 
HETATM    4  N8  UNL     1     -32.478  13.032  -3.420  1.00 20.00    -0.196 NA
ENDROOT
BRANCH   3   5
HETATM    5  C5  UNL     1     -33.861  15.713  -5.173  1.00 20.00     0.022 C 
HETATM    6  C2  UNL     1     -33.527  17.146  -4.766  1.00 20.00     0.007 C 
ENDBRANCH   3   5
BRANCH   3   7
HETATM    7  C6  UNL     1     -35.658  14.036  -4.488  1.00 20.00     0.136 C 
HETATM    8  C3  UNL     1     -36.969  14.570  -3.910  1.00 20.00     0.041 C 
BRANCH   7   9
HETATM    9  O9  UNL     1     -35.561  12.648  -4.154  1.00 20.00    -0.394 OA
HETATM   10  H22 UNL     1     -35.736  12.160  -4.972  1.00 20.00     0.210 HD
ENDBRANCH   7   9
ENDBRANCH   3   7
TORSDOF 3
ENDMDL
MODEL 7
REMARK VINA RESULT:      -3.8      1.748      3.085
REMARK  3 active torsions:
REMARK  status: ('A' for Active; 'I' for Inactive)
REMARK    1  A    between atoms: C5_5  and  C7_7 
REMARK    2  A    between atoms: C6_6  and  C7_7 
REMARK    3  A    between atoms: C6_6  and  O9_9 
ROOT
HETATM    1  C1  UNL     1     -36.343  14.385  -4.082  1.00 20.00     0.071 C 
HETATM    2  C4  UNL     1     -34.601  13.036  -5.163  1.00 20.00     0.034 C 
HETATM    3  C7  UNL     1     -34.939  14.419  -4.562  1.00 20.00     0.070 C 
HETATM    4  N8  UNL     1     -37.441  14.357  -3.706  1.00 20.00    -0.196 NA
ENDROOT
BRANCH   3   5
HETATM    5  C5  UNL     1     -34.784  15.535  -5.634  1.00 20.00     0.022 C 
HETATM    6  C2  UNL     1     -34.381  15.065  -7.030  1.00 20.00     0.007 C 
ENDBRANCH   3   5
BRANCH   3   7
HETATM    7  C6  UNL     1     -33.973  14.699  -3.364  1.00 20.00     0.136 C 
HETATM    8  C3  UNL     1     -34.241  15.989  -2.590  1.00 20.00     0.041 C 
BRANCH   7   9
HETATM    9  O9  UNL     1     -32.620  14.734  -3.828  1.00 20.00    -0.394 OA
HETATM   10  H22 UNL     1     -32.119  14.146  -3.246  1.00 20.00     0.210 HD
ENDBRANCH   7   9
ENDBRANCH   3   7
TORSDOF 3
ENDMDL
MODEL 8
REMARK VINA RESULT:      -3.8      1.930      2.792
REMARK  3 active torsions:
REMARK  status: ('A' for Active; 'I' for Inactive)
REMARK    1  A    between atoms: C5_5  and  C7_7 
REMARK    2  A    between atoms: C6_6  and  C7_7 
REMARK    3  A    between atoms: C6_6  and  O9_9 
ROOT
HETATM    1  C1  UNL     1     -34.530  15.538  -2.638  1.00 20.00     0.071 C 
HETATM    2  C4  UNL     1     -33.253  13.729  -3.696  1.00 20.00     0.034 C 
HETATM    3  C7  UNL     1     -34.403  14.743  -3.885  1.00 20.00     0.070 C 
HETATM    4  N8  UNL     1     -34.628  16.158  -1.661  1.00 20.00    -0.196 NA
ENDROOT
BRANCH   3   5
HETATM    5  C5  UNL     1     -35.743  14.006  -4.170  1.00 20.00     0.022 C 
HETATM    6  C2  UNL     1     -37.014  14.798  -3.870  1.00 20.00     0.007 C 
ENDBRANCH   3   5
BRANCH   3   7
HETATM    7  C6  UNL     1     -34.054  15.686  -5.083  1.00 20.00     0.136 C 
HETATM    8  C3  UNL     1     -34.352  15.123  -6.473  1.00 20.00     0.041 C 
BRANCH   7   9
HETATM    9  O9  UNL     1     -32.668  16.038  -5.036  1.00 20.00    -0.394 OA
HETATM   10  H22 UNL     1     -32.175  15.226  -5.220  1.00 20.00     0.210 HD
ENDBRANCH   7   9
ENDBRANCH   3   7
TORSDOF 3
ENDMDL
MODEL 9
REMARK VINA RESULT:      -3.8      2.635      3.801
REMARK  3 active torsions:
REMARK  status: ('A' for Active; 'I' for Inactive)
REMARK    1  A    between atoms: C5_5  and  C7_7 
REMARK    2  A    between atoms: C6_6  and  C7_7 
REMARK    3  A    between atoms: C6_6  and  O9_9 
ROOT
HETATM    1  C1  UNL     1     -34.088  15.968  -5.182  1.00 20.00     0.071 C 
HETATM    2  C4  UNL     1     -36.474  15.459  -4.923  1.00 20.00     0.034 C 
HETATM    3  C7  UNL     1     -35.070  14.855  -5.142  1.00 20.00     0.070 C 
HETATM    4  N8  UNL     1     -33.322  16.840  -5.213  1.00 20.00    -0.196 NA
ENDROOT
BRANCH   3   5
HETATM    5  C5  UNL     1     -35.014  14.066  -6.482  1.00 20.00     0.022 C 
HETATM    6  C2  UNL     1     -34.927  14.914  -7.749  1.00 20.00     0.007 C 
ENDBRANCH   3   5
BRANCH   3   7
HETATM    7  C6  UNL     1     -34.739  13.898  -3.951  1.00 20.00     0.136 C 
HETATM    8  C3  UNL     1     -33.253  13.631  -3.712  1.00 20.00     0.041 C 
BRANCH   7   9
HETATM    9  O9  UNL     1     -35.389  12.637  -4.145  1.00 20.00    -0.394 OA
HETATM   10  H22 UNL     1     -35.334  12.171  -3.299  1.00 20.00     0.210 HD
ENDBRANCH   7   9
ENDBRANCH   3   7
TORSDOF 3
ENDMDL
