MODEL 1
REMARK VINA RESULT:      -5.1      0.000      0.000
REMARK  3 active torsions:
REMARK  status: ('A' for Active; 'I' for Inactive)
REMARK    1  A    between atoms: C3_3  and  C11_11 
REMARK    2  A    between atoms: C8_8  and  N12_12 
REMARK    3  A    between atoms: C11_11  and  N12_12 
ROOT
HETATM    1  C1  UNL     1     -34.615  13.464  -4.278  1.00 20.00     0.127 C 
HETATM    2  C4  UNL     1     -33.253  13.688  -3.658  1.00 20.00     0.080 C 
HETATM    3  C5  UNL     1     -35.743  14.329  -3.763  1.00 20.00     0.080 C 
HETATM    4  C6  UNL     1     -32.897  15.170  -3.663  1.00 20.00     0.040 C 
HETATM    5  C7  UNL     1     -35.339  15.799  -3.766  1.00 20.00     0.040 C 
HETATM    6  C8  UNL     1     -34.013  16.005  -3.035  1.00 20.00     0.189 C 
HETATM    7  O13 UNL     1     -34.814  12.555  -5.085  1.00 20.00    -0.298 OA
ENDROOT
BRANCH   6   8
HETATM    8  N12 UNL     1     -33.639  17.442  -3.117  1.00 20.00    -0.067 N 
HETATM    9  C10 UNL     1     -33.790  17.999  -4.510  1.00 20.00     0.270 C 
HETATM   10  H33 UNL     1     -32.636  17.518  -2.883  1.00 20.00     0.280 HD
BRANCH   8  11
HETATM   11  C11 UNL     1     -34.373  18.286  -2.107  1.00 20.00     0.268 C 
BRANCH  11  12
HETATM   12  C3  UNL     1     -33.944  18.036  -0.688  1.00 20.00    -0.068 C 
HETATM   13  C2  UNL     1     -32.774  18.493  -0.218  1.00 20.00     0.015 C 
HETATM   14  C9  UNL     1     -34.899  17.279   0.189  1.00 20.00     0.044 C 
ENDBRANCH  11  12
ENDBRANCH   8  11
ENDBRANCH   6   8
TORSDOF 3
ENDMDL
MODEL 2
REMARK VINA RESULT:      -5.0      0.995      1.578
REMARK  3 active torsions:
REMARK  status: ('A' for Active; 'I' for Inactive)
REMARK    1  A    between atoms: C3_3  and  C11_11 
REMARK    2  A    between atoms: C8_8  and  N12_12 
REMARK    3  A    between atoms: C11_11  and  N12_12 
ROOT
HETATM    1  C1  UNL     1     -34.439  13.549  -4.666  1.00 20.00     0.127 C 
HETATM    2  C4  UNL     1     -34.743  14.560  -5.750  1.00 20.00     0.080 C 
HETATM    3  C5  UNL     1     -33.216  13.816  -3.817  1.00 20.00     0.080 C 
HETATM    4  C6  UNL     1     -34.726  15.975  -5.185  1.00 20.00     0.040 C 
HETATM    5  C7  UNL     1     -33.228  15.246  -3.289  1.00 20.00     0.040 C 
HETATM    6  C8  UNL     1     -33.428  16.247  -4.425  1.00 20.00     0.189 C 
HETATM    7  O13 UNL     1     -35.092  12.512  -4.550  1.00 20.00    -0.298 OA
ENDROOT
BRANCH   6   8
HETATM    8  N12 UNL     1     -33.489  17.618  -3.850  1.00 20.00    -0.067 N 
HETATM    9  C10 UNL     1     -33.585  18.685  -4.911  1.00 20.00     0.270 C 
HETATM   10  H33 UNL     1     -32.602  17.787  -3.349  1.00 20.00     0.280 HD
BRANCH   8  11
HETATM   11  C11 UNL     1     -34.585  17.764  -2.825  1.00 20.00     0.268 C 
BRANCH  11  12
HETATM   12  C3  UNL     1     -34.076  17.932  -1.420  1.00 20.00    -0.068 C 
HETATM   13  C2  UNL     1     -33.167  18.867  -1.111  1.00 20.00     0.015 C 
HETATM   14  C9  UNL     1     -34.657  17.025  -0.373  1.00 20.00     0.044 C 
ENDBRANCH  11  12
ENDBRANCH   8  11
ENDBRANCH   6   8
TORSDOF 3
ENDMDL
MODEL 3
REMARK VINA RESULT:      -4.9      1.239      2.077
REMARK  3 active torsions:
REMARK  status: ('A' for Active; 'I' for Inactive)
REMARK    1  A    between atoms: C3_3  and  C11_11 
REMARK    2  A    between atoms: C8_8  and  N12_12 
REMARK    3  A    between atoms: C11_11  and  N12_12 
ROOT
HETATM    1  C1  UNL     1     -34.967  13.730  -4.332  1.00 20.00     0.127 C 
HETATM    2  C4  UNL     1     -36.224  14.563  -4.458  1.00 20.00     0.080 C 
HETATM    3  C5  UNL     1     -33.671  14.488  -4.145  1.00 20.00     0.080 C 
HETATM    4  C6  UNL     1     -36.307  15.586  -3.333  1.00 20.00     0.040 C 
HETATM    5  C7  UNL     1     -33.803  15.514  -3.026  1.00 20.00     0.040 C 
HETATM    6  C8  UNL     1     -35.022  16.409  -3.243  1.00 20.00     0.189 C 
HETATM    7  O13 UNL     1     -34.985  12.508  -4.476  1.00 20.00    -0.298 OA
ENDROOT
BRANCH   6   8
HETATM    8  N12 UNL     1     -35.135  17.351  -2.097  1.00 20.00    -0.067 N 
HETATM    9  C10 UNL     1     -36.500  17.983  -2.004  1.00 20.00     0.270 C 
HETATM   10  H33 UNL     1     -34.469  18.124  -2.260  1.00 20.00     0.280 HD
BRANCH   8  11
HETATM   11  C11 UNL     1     -34.733  16.718  -0.790  1.00 20.00     0.268 C 
BRANCH  11  12
HETATM   12  C3  UNL     1     -34.298  17.711   0.251  1.00 20.00    -0.068 C 
HETATM   13  C2  UNL     1     -33.222  18.490   0.070  1.00 20.00     0.015 C 
HETATM   14  C9  UNL     1     -35.141  17.814   1.490  1.00 20.00     0.044 C 
ENDBRANCH  11  12
ENDBRANCH   8  11
ENDBRANCH   6   8
TORSDOF 3
ENDMDL
MODEL 4
REMARK VINA RESULT:      -4.6      2.670      5.030
REMARK  3 active torsions:
REMARK  status: ('A' for Active; 'I' for Inactive)
REMARK    1  A    between atoms: C3_3  and  C11_11 
REMARK    2  A    between atoms: C8_8  and  N12_12 
REMARK    3  A    between atoms: C11_11  and  N12_12 
ROOT
HETATM    1  C1  UNL     1     -32.910  18.866  -0.855  1.00 20.00     0.127 C 
HETATM    2  C4  UNL     1     -33.369  19.263  -2.241  1.00 20.00     0.080 C 
HETATM    3  C5  UNL     1     -33.891  18.076  -0.019  1.00 20.00     0.080 C 
HETATM    4  C6  UNL     1     -33.930  18.058  -2.987  1.00 20.00     0.040 C 
HETATM    5  C7  UNL     1     -34.443  16.895  -0.807  1.00 20.00     0.040 C 
HETATM    6  C8  UNL     1     -34.998  17.347  -2.156  1.00 20.00     0.189 C 
HETATM    7  O13 UNL     1     -31.836  19.255  -0.396  1.00 20.00    -0.298 OA
ENDROOT
BRANCH   6   8
HETATM    8  N12 UNL     1     -35.469  16.151  -2.906  1.00 20.00    -0.067 N 
HETATM    9  C10 UNL     1     -36.887  16.299  -3.395  1.00 20.00     0.270 C 
HETATM   10  H33 UNL     1     -35.472  15.352  -2.250  1.00 20.00     0.280 HD
BRANCH   8  11
HETATM   11  C11 UNL     1     -34.539  15.771  -4.029  1.00 20.00     0.268 C 
BRANCH  11  12
HETATM   12  C3  UNL     1     -34.060  14.348  -3.959  1.00 20.00    -0.068 C 
HETATM   13  C2  UNL     1     -32.828  14.044  -3.524  1.00 20.00     0.015 C 
HETATM   14  C9  UNL     1     -35.033  13.280  -4.367  1.00 20.00     0.044 C 
ENDBRANCH  11  12
ENDBRANCH   8  11
ENDBRANCH   6   8
TORSDOF 3
ENDMDL
MODEL 5
REMARK VINA RESULT:      -4.5      2.586      5.037
REMARK  3 active torsions:
REMARK  status: ('A' for Active; 'I' for Inactive)
REMARK    1  A    between atoms: C3_3  and  C11_11 
REMARK    2  A    between atoms: C8_8  and  N12_12 
REMARK    3  A    between atoms: C11_11  and  N12_12 
ROOT
HETATM    1  C1  UNL     1     -33.991  18.009  -0.465  1.00 20.00     0.127 C 
HETATM    2  C4  UNL     1     -34.263  19.089  -1.488  1.00 20.00     0.080 C 
HETATM    3  C5  UNL     1     -34.610  16.655  -0.732  1.00 20.00     0.080 C 
HETATM    4  C6  UNL     1     -33.969  18.584  -2.896  1.00 20.00     0.040 C 
HETATM    5  C7  UNL     1     -34.310  16.196  -2.154  1.00 20.00     0.040 C 
HETATM    6  C8  UNL     1     -34.698  17.269  -3.170  1.00 20.00     0.189 C 
HETATM    7  O13 UNL     1     -33.386  18.247   0.579  1.00 20.00    -0.298 OA
ENDROOT
BRANCH   6   8
HETATM    8  N12 UNL     1     -34.333  16.794  -4.531  1.00 20.00    -0.067 N 
HETATM    9  C10 UNL     1     -33.505  17.800  -5.290  1.00 20.00     0.270 C 
HETATM   10  H33 UNL     1     -35.208  16.677  -5.068  1.00 20.00     0.280 HD
BRANCH   8  11
HETATM   11  C11 UNL     1     -33.668  15.441  -4.511  1.00 20.00     0.268 C 
BRANCH  11  12
HETATM   12  C3  UNL     1     -34.445  14.378  -5.235  1.00 20.00    -0.068 C 
HETATM   13  C2  UNL     1     -34.882  13.278  -4.605  1.00 20.00     0.015 C 
HETATM   14  C9  UNL     1     -34.737  14.617  -6.688  1.00 20.00     0.044 C 
ENDBRANCH  11  12
ENDBRANCH   8  11
ENDBRANCH   6   8
TORSDOF 3
ENDMDL
MODEL 6
REMARK VINA RESULT:      -4.4      2.752      5.113
REMARK  3 active torsions:
REMARK  status: ('A' for Active; 'I' for Inactive)
REMARK    1  A    between atoms: C3_3  and  C11_11 
REMARK    2  A    between atoms: C8_8  and  N12_12 
REMARK    3  A    between atoms: C11_11  and  N12_12 
ROOT
HETATM    1  C1  UNL     1     -34.332  18.444   0.271  1.00 20.00     0.127 C 
HETATM    2  C4  UNL     1     -34.744  17.020  -0.030  1.00 20.00     0.080 C 
HETATM    3  C5  UNL     1     -33.175  18.997  -0.531  1.00 20.00     0.080 C 
HETATM    4  C6  UNL     1     -34.928  16.819  -1.530  1.00 20.00     0.040 C 
HETATM    5  C7  UNL     1     -33.389  18.758  -2.021  1.00 20.00     0.040 C 
HETATM    6  C8  UNL     1     -33.695  17.288  -2.302  1.00 20.00     0.189 C 
HETATM    7  O13 UNL     1     -34.843  19.083   1.190  1.00 20.00    -0.298 OA
ENDROOT
BRANCH   6   8
HETATM    8  N12 UNL     1     -33.951  17.121  -3.758  1.00 20.00    -0.067 N 
HETATM    9  C10 UNL     1     -33.710  18.390  -4.534  1.00 20.00     0.270 C 
HETATM   10  H33 UNL     1     -34.952  16.896  -3.876  1.00 20.00     0.280 HD
BRANCH   8  11
HETATM   11  C11 UNL     1     -33.187  15.963  -4.348  1.00 20.00     0.268 C 
BRANCH  11  12
HETATM   12  C3  UNL     1     -34.057  14.797  -4.725  1.00 20.00    -0.068 C 
HETATM   13  C2  UNL     1     -34.550  14.662  -5.965  1.00 20.00     0.015 C 
HETATM   14  C9  UNL     1     -34.323  13.773  -3.659  1.00 20.00     0.044 C 
ENDBRANCH  11  12
ENDBRANCH   8  11
ENDBRANCH   6   8
TORSDOF 3
ENDMDL
MODEL 7
REMARK VINA RESULT:      -4.4      2.711      4.978
REMARK  3 active torsions:
REMARK  status: ('A' for Active; 'I' for Inactive)
REMARK    1  A    between atoms: C3_3  and  C11_11 
REMARK    2  A    between atoms: C8_8  and  N12_12 
REMARK    3  A    between atoms: C11_11  and  N12_12 
ROOT
HETATM    1  C1  UNL     1     -36.073  18.188   0.219  1.00 20.00     0.127 C 
HETATM    2  C4  UNL     1     -34.810  17.358   0.270  1.00 20.00     0.080 C 
HETATM    3  C5  UNL     1     -36.265  19.052  -1.008  1.00 20.00     0.080 C 
HETATM    4  C6  UNL     1     -34.629  16.575  -1.025  1.00 20.00     0.040 C 
HETATM    5  C7  UNL     1     -36.055  18.237  -2.278  1.00 20.00     0.040 C 
HETATM    6  C8  UNL     1     -34.719  17.496  -2.241  1.00 20.00     0.189 C 
HETATM    7  O13 UNL     1     -36.852  18.238   1.171  1.00 20.00    -0.298 OA
ENDROOT
BRANCH   6   8
HETATM    8  N12 UNL     1     -34.592  16.675  -3.474  1.00 20.00    -0.067 N 
HETATM    9  C10 UNL     1     -33.535  17.202  -4.411  1.00 20.00     0.270 C 
HETATM   10  H33 UNL     1     -35.487  16.737  -3.985  1.00 20.00     0.280 HD
BRANCH   8  11
HETATM   11  C11 UNL     1     -34.378  15.213  -3.174  1.00 20.00     0.268 C 
BRANCH  11  12
HETATM   12  C3  UNL     1     -35.354  14.307  -3.871  1.00 20.00    -0.068 C 
HETATM   13  C2  UNL     1     -34.952  13.184  -4.484  1.00 20.00     0.015 C 
HETATM   14  C9  UNL     1     -36.803  14.698  -3.822  1.00 20.00     0.044 C 
ENDBRANCH  11  12
ENDBRANCH   8  11
ENDBRANCH   6   8
TORSDOF 3
ENDMDL
MODEL 8
REMARK VINA RESULT:      -4.3      1.537      2.322
REMARK  3 active torsions:
REMARK  status: ('A' for Active; 'I' for Inactive)
REMARK    1  A    between atoms: C3_3  and  C11_11 
REMARK    2  A    between atoms: C8_8  and  N12_12 
REMARK    3  A    between atoms: C11_11  and  N12_12 
ROOT
HETATM    1  C1  UNL     1     -37.225  14.783  -4.088  1.00 20.00     0.127 C 
HETATM    2  C4  UNL     1     -37.388  16.145  -4.726  1.00 20.00     0.080 C 
HETATM    3  C5  UNL     1     -35.822  14.218  -4.052  1.00 20.00     0.080 C 
HETATM    4  C6  UNL     1     -36.379  17.132  -4.152  1.00 20.00     0.040 C 
HETATM    5  C7  UNL     1     -34.843  15.243  -3.492  1.00 20.00     0.040 C 
HETATM    6  C8  UNL     1     -34.959  16.574  -4.232  1.00 20.00     0.189 C 
HETATM    7  O13 UNL     1     -38.195  14.126  -3.712  1.00 20.00    -0.298 OA
ENDROOT
BRANCH   6   8
HETATM    8  N12 UNL     1     -34.025  17.551  -3.610  1.00 20.00    -0.067 N 
HETATM    9  C10 UNL     1     -33.428  18.500  -4.617  1.00 20.00     0.270 C 
HETATM   10  H33 UNL     1     -33.235  17.018  -3.211  1.00 20.00     0.280 HD
BRANCH   8  11
HETATM   11  C11 UNL     1     -34.653  18.296  -2.460  1.00 20.00     0.268 C 
BRANCH  11  12
HETATM   12  C3  UNL     1     -34.043  17.968  -1.125  1.00 20.00    -0.068 C 
HETATM   13  C2  UNL     1     -32.947  18.601  -0.681  1.00 20.00     0.015 C 
HETATM   14  C9  UNL     1     -34.735  16.924  -0.298  1.00 20.00     0.044 C 
ENDBRANCH  11  12
ENDBRANCH   8  11
ENDBRANCH   6   8
TORSDOF 3
ENDMDL
MODEL 9
REMARK VINA RESULT:      -4.3      2.792      5.223
REMARK  3 active torsions:
REMARK  status: ('A' for Active; 'I' for Inactive)
REMARK    1  A    between atoms: C3_3  and  C11_11 
REMARK    2  A    between atoms: C8_8  and  N12_12 
REMARK    3  A    between atoms: C11_11  and  N12_12 
ROOT
HETATM    1  C1  UNL     1     -34.644  18.222  -1.286  1.00 20.00     0.127 C 
HETATM    2  C4  UNL     1     -34.639  16.776  -0.842  1.00 20.00     0.080 C 
HETATM    3  C5  UNL     1     -33.662  18.599  -2.373  1.00 20.00     0.080 C 
HETATM    4  C6  UNL     1     -34.718  15.844  -2.044  1.00 20.00     0.040 C 
HETATM    5  C7  UNL     1     -33.758  17.631  -3.546  1.00 20.00     0.040 C 
HETATM    6  C8  UNL     1     -33.640  16.183  -3.073  1.00 20.00     0.189 C 
HETATM    7  O13 UNL     1     -35.338  19.068  -0.722  1.00 20.00    -0.298 OA
ENDROOT
BRANCH   6   8
HETATM    8  N12 UNL     1     -33.798  15.281  -4.246  1.00 20.00    -0.067 N 
HETATM    9  C10 UNL     1     -33.651  13.827  -3.879  1.00 20.00     0.270 C 
HETATM   10  H33 UNL     1     -33.032  15.491  -4.907  1.00 20.00     0.280 HD
BRANCH   8  11
HETATM   11  C11 UNL     1     -35.081  15.531  -4.996  1.00 20.00     0.268 C 
BRANCH  11  12
HETATM   12  C3  UNL     1     -34.906  15.584  -6.488  1.00 20.00    -0.068 C 
HETATM   13  C2  UNL     1     -35.145  14.513  -7.260  1.00 20.00     0.015 C 
HETATM   14  C9  UNL     1     -34.483  16.897  -7.079  1.00 20.00     0.044 C 
ENDBRANCH  11  12
ENDBRANCH   8  11
ENDBRANCH   6   8
TORSDOF 3
ENDMDL
