MODEL 1
REMARK VINA RESULT:      -4.6      0.000      0.000
REMARK  4 active torsions:
REMARK  status: ('A' for Active; 'I' for Inactive)
REMARK    1  A    between atoms: C5_5  and  C7_7 
REMARK    2  A    between atoms: C6_6  and  C8_8 
REMARK    3  A    between atoms: C7_7  and  C8_8 
REMARK    4  A    between atoms: C8_8  and  O10_10 
ROOT
HETATM    1  C1  UNL     1     -34.425  13.996  -3.672  1.00 20.00     0.067 C 
HETATM    2  C7  UNL     1     -34.060  15.377  -3.266  1.00 20.00     0.126 C 
HETATM    3  N9  UNL     1     -34.708  12.915  -3.987  1.00 20.00    -0.197 NA
ENDROOT
BRANCH   2   4
HETATM    4  C5  UNL     1     -35.152  15.958  -2.344  1.00 20.00     0.018 C 
HETATM    5  C2  UNL     1     -34.595  16.502  -1.030  1.00 20.00     0.006 C 
ENDBRANCH   2   4
BRANCH   2   6
HETATM    6  C8  UNL     1     -33.754  16.260  -4.524  1.00 20.00     0.070 C 
HETATM    7  C4  UNL     1     -33.660  17.755  -4.191  1.00 20.00     0.047 C 
BRANCH   6   8
HETATM    8  C6  UNL     1     -34.797  16.008  -5.644  1.00 20.00     0.034 C 
HETATM    9  C3  UNL     1     -34.213  15.504  -6.962  1.00 20.00     0.008 C 
ENDBRANCH   6   8
BRANCH   6  10
HETATM   10  O10 UNL     1     -32.471  15.863  -5.036  1.00 20.00    -0.389 OA
HETATM   11  H25 UNL     1     -31.925  16.662  -5.026  1.00 20.00     0.210 HD
ENDBRANCH   6  10
ENDBRANCH   2   6
TORSDOF 4
ENDMDL
MODEL 2
REMARK VINA RESULT:      -4.5      2.100      2.518
REMARK  4 active torsions:
REMARK  status: ('A' for Active; 'I' for Inactive)
REMARK    1  A    between atoms: C5_5  and  C7_7 
REMARK    2  A    between atoms: C6_6  and  C8_8 
REMARK    3  A    between atoms: C7_7  and  C8_8 
REMARK    4  A    between atoms: C8_8  and  O10_10 
ROOT
HETATM    1  C1  UNL     1     -36.802  14.565  -3.579  1.00 20.00     0.067 C 
HETATM    2  C7  UNL     1     -35.382  14.714  -3.172  1.00 20.00     0.126 C 
HETATM    3  N9  UNL     1     -37.913  14.447  -3.894  1.00 20.00    -0.197 NA
ENDROOT
BRANCH   2   4
HETATM    4  C5  UNL     1     -35.067  16.201  -2.904  1.00 20.00     0.018 C 
HETATM    5  C2  UNL     1     -34.574  16.458  -1.482  1.00 20.00     0.006 C 
ENDBRANCH   2   4
BRANCH   2   6
HETATM    6  C8  UNL     1     -34.432  14.043  -4.223  1.00 20.00     0.070 C 
HETATM    7  C4  UNL     1     -33.043  13.728  -3.651  1.00 20.00     0.047 C 
BRANCH   6   8
HETATM    8  C6  UNL     1     -34.319  14.915  -5.502  1.00 20.00     0.034 C 
HETATM    9  C3  UNL     1     -35.017  14.341  -6.732  1.00 20.00     0.008 C 
ENDBRANCH   6   8
BRANCH   6  10
HETATM   10  O10 UNL     1     -35.022  12.791  -4.609  1.00 20.00    -0.389 OA
HETATM   11  H25 UNL     1     -34.486  12.463  -5.345  1.00 20.00     0.210 HD
ENDBRANCH   6  10
ENDBRANCH   2   6
TORSDOF 4
ENDMDL
MODEL 3
REMARK VINA RESULT:      -4.5      2.567      3.869
REMARK  4 active torsions:
REMARK  status: ('A' for Active; 'I' for Inactive)
REMARK    1  A    between atoms: C5_5  and  C7_7 
REMARK    2  A    between atoms: C6_6  and  C8_8 
REMARK    3  A    between atoms: C7_7  and  C8_8 
REMARK    4  A    between atoms: C8_8  and  O10_10 
ROOT
HETATM    1  C1  UNL     1     -37.015  14.755  -3.779  1.00 20.00     0.067 C 
HETATM    2  C7  UNL     1     -35.634  15.300  -3.825  1.00 20.00     0.126 C 
HETATM    3  N9  UNL     1     -38.094  14.330  -3.747  1.00 20.00    -0.197 NA
ENDROOT
BRANCH   2   4
HETATM    4  C5  UNL     1     -34.616  14.167  -3.573  1.00 20.00     0.018 C 
HETATM    5  C2  UNL     1     -34.486  13.210  -4.754  1.00 20.00     0.006 C 
ENDBRANCH   2   4
BRANCH   2   6
HETATM    6  C8  UNL     1     -35.487  16.516  -2.848  1.00 20.00     0.070 C 
HETATM    7  C4  UNL     1     -35.096  17.813  -3.569  1.00 20.00     0.047 C 
BRANCH   6   8
HETATM    8  C6  UNL     1     -34.482  16.193  -1.710  1.00 20.00     0.034 C 
HETATM    9  C3  UNL     1     -34.734  16.940  -0.403  1.00 20.00     0.008 C 
ENDBRANCH   6   8
BRANCH   6  10
HETATM   10  O10 UNL     1     -36.767  16.745  -2.237  1.00 20.00    -0.389 OA
HETATM   11  H25 UNL     1     -36.619  16.684  -1.283  1.00 20.00     0.210 HD
ENDBRANCH   6  10
ENDBRANCH   2   6
TORSDOF 4
ENDMDL
MODEL 4
REMARK VINA RESULT:      -4.5      1.625      1.811
REMARK  4 active torsions:
REMARK  status: ('A' for Active; 'I' for Inactive)
REMARK    1  A    between atoms: C5_5  and  C7_7 
REMARK    2  A    between atoms: C6_6  and  C8_8 
REMARK    3  A    between atoms: C7_7  and  C8_8 
REMARK    4  A    between atoms: C8_8  and  O10_10 
ROOT
HETATM    1  C1  UNL     1     -35.847  15.565  -3.128  1.00 20.00     0.067 C 
HETATM    2  C7  UNL     1     -34.401  15.413  -2.822  1.00 20.00     0.126 C 
HETATM    3  N9  UNL     1     -36.977  15.681  -3.364  1.00 20.00    -0.197 NA
ENDROOT
BRANCH   2   4
HETATM    4  C5  UNL     1     -33.911  16.619  -1.994  1.00 20.00     0.018 C 
HETATM    5  C2  UNL     1     -34.618  16.743  -0.647  1.00 20.00     0.006 C 
ENDBRANCH   2   4
BRANCH   2   6
HETATM    6  C8  UNL     1     -33.582  15.168  -4.135  1.00 20.00     0.070 C 
HETATM    7  C4  UNL     1     -33.290  16.464  -4.903  1.00 20.00     0.047 C 
BRANCH   6   8
HETATM    8  C6  UNL     1     -34.293  14.134  -5.047  1.00 20.00     0.034 C 
HETATM    9  C3  UNL     1     -34.617  14.634  -6.452  1.00 20.00     0.008 C 
ENDBRANCH   6   8
BRANCH   6  10
HETATM   10  O10 UNL     1     -32.312  14.607  -3.761  1.00 20.00    -0.389 OA
HETATM   11  H25 UNL     1     -32.097  13.961  -4.448  1.00 20.00     0.210 HD
ENDBRANCH   6  10
ENDBRANCH   2   6
TORSDOF 4
ENDMDL
MODEL 5
REMARK VINA RESULT:      -4.3      2.160      3.024
REMARK  4 active torsions:
REMARK  status: ('A' for Active; 'I' for Inactive)
REMARK    1  A    between atoms: C5_5  and  C7_7 
REMARK    2  A    between atoms: C6_6  and  C8_8 
REMARK    3  A    between atoms: C7_7  and  C8_8 
REMARK    4  A    between atoms: C8_8  and  O10_10 
ROOT
HETATM    1  C1  UNL     1     -33.784  18.049  -4.102  1.00 20.00     0.067 C 
HETATM    2  C7  UNL     1     -34.202  16.721  -3.585  1.00 20.00     0.126 C 
HETATM    3  N9  UNL     1     -33.460  19.087  -4.507  1.00 20.00    -0.197 NA
ENDROOT
BRANCH   2   4
HETATM    4  C5  UNL     1     -33.695  16.539  -2.138  1.00 20.00     0.018 C 
HETATM    5  C2  UNL     1     -34.822  16.537  -1.108  1.00 20.00     0.006 C 
ENDBRANCH   2   4
BRANCH   2   6
HETATM    6  C8  UNL     1     -33.756  15.581  -4.562  1.00 20.00     0.070 C 
HETATM    7  C4  UNL     1     -34.623  15.510  -5.827  1.00 20.00     0.047 C 
BRANCH   6   8
HETATM    8  C6  UNL     1     -33.726  14.210  -3.836  1.00 20.00     0.034 C 
HETATM    9  C3  UNL     1     -34.895  13.285  -4.163  1.00 20.00     0.008 C 
ENDBRANCH   6   8
BRANCH   6  10
HETATM   10  O10 UNL     1     -32.415  15.869  -4.989  1.00 20.00    -0.389 OA
HETATM   11  H25 UNL     1     -32.414  16.802  -5.245  1.00 20.00     0.210 HD
ENDBRANCH   6  10
ENDBRANCH   2   6
TORSDOF 4
ENDMDL
MODEL 6
REMARK VINA RESULT:      -4.3      1.933      3.725
REMARK  4 active torsions:
REMARK  status: ('A' for Active; 'I' for Inactive)
REMARK    1  A    between atoms: C5_5  and  C7_7 
REMARK    2  A    between atoms: C6_6  and  C8_8 
REMARK    3  A    between atoms: C7_7  and  C8_8 
REMARK    4  A    between atoms: C8_8  and  O10_10 
ROOT
HETATM    1  C1  UNL     1     -35.149  13.738  -4.672  1.00 20.00     0.067 C 
HETATM    2  C7  UNL     1     -35.557  15.157  -4.833  1.00 20.00     0.126 C 
HETATM    3  N9  UNL     1     -34.834  12.628  -4.549  1.00 20.00    -0.197 NA
ENDROOT
BRANCH   2   4
HETATM    4  C5  UNL     1     -34.509  15.911  -5.678  1.00 20.00     0.018 C 
HETATM    5  C2  UNL     1     -34.294  15.288  -7.055  1.00 20.00     0.006 C 
ENDBRANCH   2   4
BRANCH   2   6
HETATM    6  C8  UNL     1     -35.839  15.813  -3.438  1.00 20.00     0.070 C 
HETATM    7  C4  UNL     1     -36.244  17.289  -3.547  1.00 20.00     0.047 C 
BRANCH   6   8
HETATM    8  C6  UNL     1     -34.623  15.641  -2.489  1.00 20.00     0.034 C 
HETATM    9  C3  UNL     1     -34.670  16.498  -1.227  1.00 20.00     0.008 C 
ENDBRANCH   6   8
BRANCH   6  10
HETATM   10  O10 UNL     1     -36.947  15.117  -2.843  1.00 20.00    -0.389 OA
HETATM   11  H25 UNL     1     -37.366  14.623  -3.562  1.00 20.00     0.210 HD
ENDBRANCH   6  10
ENDBRANCH   2   6
TORSDOF 4
ENDMDL
MODEL 7
REMARK VINA RESULT:      -4.3      1.075      3.209
REMARK  4 active torsions:
REMARK  status: ('A' for Active; 'I' for Inactive)
REMARK    1  A    between atoms: C5_5  and  C7_7 
REMARK    2  A    between atoms: C6_6  and  C8_8 
REMARK    3  A    between atoms: C7_7  and  C8_8 
REMARK    4  A    between atoms: C8_8  and  O10_10 
ROOT
HETATM    1  C1  UNL     1     -34.758  13.735  -4.911  1.00 20.00     0.067 C 
HETATM    2  C7  UNL     1     -34.716  15.146  -5.371  1.00 20.00     0.126 C 
HETATM    3  N9  UNL     1     -34.795  12.632  -4.551  1.00 20.00    -0.197 NA
ENDROOT
BRANCH   2   4
HETATM    4  C5  UNL     1     -34.427  15.196  -6.886  1.00 20.00     0.018 C 
HETATM    5  C2  UNL     1     -35.490  14.484  -7.719  1.00 20.00     0.006 C 
ENDBRANCH   2   4
BRANCH   2   6
HETATM    6  C8  UNL     1     -33.712  15.981  -4.505  1.00 20.00     0.070 C 
HETATM    7  C4  UNL     1     -34.237  16.258  -3.089  1.00 20.00     0.047 C 
BRANCH   6   8
HETATM    8  C6  UNL     1     -33.329  17.303  -5.221  1.00 20.00     0.034 C 
HETATM    9  C3  UNL     1     -33.729  18.574  -4.477  1.00 20.00     0.008 C 
ENDBRANCH   6   8
BRANCH   6  10
HETATM   10  O10 UNL     1     -32.509  15.207  -4.362  1.00 20.00    -0.389 OA
HETATM   11  H25 UNL     1     -31.855  15.628  -4.937  1.00 20.00     0.210 HD
ENDBRANCH   6  10
ENDBRANCH   2   6
TORSDOF 4
ENDMDL
MODEL 8
REMARK VINA RESULT:      -4.3      2.086      4.030
REMARK  4 active torsions:
REMARK  status: ('A' for Active; 'I' for Inactive)
REMARK    1  A    between atoms: C5_5  and  C7_7 
REMARK    2  A    between atoms: C6_6  and  C8_8 
REMARK    3  A    between atoms: C7_7  and  C8_8 
REMARK    4  A    between atoms: C8_8  and  O10_10 
ROOT
HETATM    1  C1  UNL     1     -33.485  17.368  -5.225  1.00 20.00     0.067 C 
HETATM    2  C7  UNL     1     -33.553  15.888  -5.328  1.00 20.00     0.126 C 
HETATM    3  N9  UNL     1     -33.430  18.525  -5.146  1.00 20.00    -0.197 NA
ENDROOT
BRANCH   2   4
HETATM    4  C5  UNL     1     -34.921  15.466  -5.905  1.00 20.00     0.018 C 
HETATM    5  C2  UNL     1     -34.813  14.829  -7.289  1.00 20.00     0.006 C 
ENDBRANCH   2   4
BRANCH   2   6
HETATM    6  C8  UNL     1     -33.211  15.221  -3.952  1.00 20.00     0.070 C 
HETATM    7  C4  UNL     1     -33.869  13.845  -3.779  1.00 20.00     0.047 C 
BRANCH   6   8
HETATM    8  C6  UNL     1     -33.579  16.162  -2.774  1.00 20.00     0.034 C 
HETATM    9  C3  UNL     1     -34.924  15.867  -2.116  1.00 20.00     0.008 C 
ENDBRANCH   6   8
BRANCH   6  10
HETATM   10  O10 UNL     1     -31.789  15.015  -3.907  1.00 20.00    -0.389 OA
HETATM   11  H25 UNL     1     -31.449  15.341  -4.751  1.00 20.00     0.210 HD
ENDBRANCH   6  10
ENDBRANCH   2   6
TORSDOF 4
ENDMDL
MODEL 9
REMARK VINA RESULT:      -4.3      1.468      3.577
REMARK  4 active torsions:
REMARK  status: ('A' for Active; 'I' for Inactive)
REMARK    1  A    between atoms: C5_5  and  C7_7 
REMARK    2  A    between atoms: C6_6  and  C8_8 
REMARK    3  A    between atoms: C7_7  and  C8_8 
REMARK    4  A    between atoms: C8_8  and  O10_10 
ROOT
HETATM    1  C1  UNL     1     -36.225  14.624  -4.291  1.00 20.00     0.067 C 
HETATM    2  C7  UNL     1     -34.995  15.109  -4.969  1.00 20.00     0.126 C 
HETATM    3  N9  UNL     1     -37.187  14.248  -3.762  1.00 20.00    -0.197 NA
ENDROOT
BRANCH   2   4
HETATM    4  C5  UNL     1     -34.767  14.313  -6.271  1.00 20.00     0.018 C 
HETATM    5  C2  UNL     1     -34.654  15.207  -7.504  1.00 20.00     0.006 C 
ENDBRANCH   2   4
BRANCH   2   6
HETATM    6  C8  UNL     1     -33.775  15.084  -3.986  1.00 20.00     0.070 C 
HETATM    7  C4  UNL     1     -33.263  13.664  -3.712  1.00 20.00     0.047 C 
BRANCH   6   8
HETATM    8  C6  UNL     1     -34.117  15.814  -2.660  1.00 20.00     0.034 C 
HETATM    9  C3  UNL     1     -33.867  17.320  -2.675  1.00 20.00     0.008 C 
ENDBRANCH   6   8
BRANCH   6  10
HETATM   10  O10 UNL     1     -32.698  15.806  -4.606  1.00 20.00    -0.389 OA
HETATM   11  H25 UNL     1     -32.769  16.715  -4.283  1.00 20.00     0.210 HD
ENDBRANCH   6  10
ENDBRANCH   2   6
TORSDOF 4
ENDMDL
