MODEL 1
REMARK VINA RESULT:      -4.6      0.000      0.000
REMARK  4 active torsions:
REMARK  status: ('A' for Active; 'I' for Inactive)
REMARK    1  A    between atoms: C6_6  and  C9_9 
REMARK    2  A    between atoms: C7_7  and  C8_8 
REMARK    3  A    between atoms: C8_8  and  C9_9 
REMARK    4  A    between atoms: C8_8  and  O11_11 
ROOT
HETATM    1  C1  UNL     1     -34.636  13.864  -4.241  1.00 20.00     0.071 C 
HETATM    2  C5  UNL     1     -32.580  15.023  -3.654  1.00 20.00     0.034 C 
HETATM    3  C9  UNL     1     -34.026  15.219  -4.177  1.00 20.00     0.071 C 
HETATM    4  N10 UNL     1     -35.100  12.801  -4.280  1.00 20.00    -0.196 NA
ENDROOT
BRANCH   3   5
HETATM    5  C6  UNL     1     -33.984  15.794  -5.620  1.00 20.00     0.022 C 
HETATM    6  C2  UNL     1     -33.629  17.271  -5.734  1.00 20.00     0.007 C 
ENDBRANCH   3   5
BRANCH   3   7
HETATM    7  C8  UNL     1     -34.802  16.138  -3.174  1.00 20.00     0.143 C 
BRANCH   7   8
HETATM    8  C7  UNL     1     -34.007  16.763  -1.993  1.00 20.00     0.008 C 
HETATM    9  C3  UNL     1     -34.688  16.636  -0.629  1.00 20.00     0.012 C 
HETATM   10  C4  UNL     1     -33.725  18.251  -2.259  1.00 20.00     0.012 C 
ENDBRANCH   7   8
BRANCH   7  11
HETATM   11  O11 UNL     1     -35.941  15.424  -2.680  1.00 20.00    -0.393 OA
HETATM   12  H28 UNL     1     -36.468  16.068  -2.185  1.00 20.00     0.210 HD
ENDBRANCH   7  11
ENDBRANCH   3   7
TORSDOF 4
ENDMDL
MODEL 2
REMARK VINA RESULT:      -4.5      1.690      3.758
REMARK  4 active torsions:
REMARK  status: ('A' for Active; 'I' for Inactive)
REMARK    1  A    between atoms: C6_6  and  C9_9 
REMARK    2  A    between atoms: C7_7  and  C8_8 
REMARK    3  A    between atoms: C8_8  and  C9_9 
REMARK    4  A    between atoms: C8_8  and  O11_11 
ROOT
HETATM    1  C1  UNL     1     -34.175  14.398  -3.478  1.00 20.00     0.071 C 
HETATM    2  C5  UNL     1     -35.876  16.134  -3.534  1.00 20.00     0.034 C 
HETATM    3  C9  UNL     1     -34.349  15.875  -3.490  1.00 20.00     0.071 C 
HETATM    4  N10 UNL     1     -34.055  13.243  -3.474  1.00 20.00    -0.196 NA
ENDROOT
BRANCH   3   5
HETATM    5  C6  UNL     1     -33.764  16.436  -2.164  1.00 20.00     0.022 C 
HETATM    6  C2  UNL     1     -34.741  16.535  -1.000  1.00 20.00     0.007 C 
ENDBRANCH   3   5
BRANCH   3   7
HETATM    7  C8  UNL     1     -33.695  16.508  -4.765  1.00 20.00     0.143 C 
BRANCH   7   8
HETATM    8  C7  UNL     1     -34.542  16.561  -6.068  1.00 20.00     0.008 C 
HETATM    9  C3  UNL     1     -34.314  15.389  -7.023  1.00 20.00     0.012 C 
HETATM   10  C4  UNL     1     -34.275  17.869  -6.831  1.00 20.00     0.012 C 
ENDBRANCH   7   8
BRANCH   7  11
HETATM   11  O11 UNL     1     -32.444  15.856  -5.014  1.00 20.00    -0.393 OA
HETATM   12  H28 UNL     1     -31.812  16.559  -5.220  1.00 20.00     0.210 HD
ENDBRANCH   7  11
ENDBRANCH   3   7
TORSDOF 4
ENDMDL
MODEL 3
REMARK VINA RESULT:      -4.3      1.759      2.353
REMARK  4 active torsions:
REMARK  status: ('A' for Active; 'I' for Inactive)
REMARK    1  A    between atoms: C6_6  and  C9_9 
REMARK    2  A    between atoms: C7_7  and  C8_8 
REMARK    3  A    between atoms: C8_8  and  C9_9 
REMARK    4  A    between atoms: C8_8  and  O11_11 
ROOT
HETATM    1  C1  UNL     1     -36.513  14.449  -4.093  1.00 20.00     0.071 C 
HETATM    2  C5  UNL     1     -34.619  13.174  -4.933  1.00 20.00     0.034 C 
HETATM    3  C9  UNL     1     -35.111  14.598  -4.570  1.00 20.00     0.071 C 
HETATM    4  N10 UNL     1     -37.603  14.315  -3.719  1.00 20.00    -0.196 NA
ENDROOT
BRANCH   3   5
HETATM    5  C6  UNL     1     -35.133  15.483  -5.847  1.00 20.00     0.022 C 
HETATM    6  C2  UNL     1     -34.505  14.865  -7.090  1.00 20.00     0.007 C 
ENDBRANCH   3   5
BRANCH   3   7
HETATM    7  C8  UNL     1     -34.192  15.175  -3.440  1.00 20.00     0.143 C 
BRANCH   7   8
HETATM    8  C7  UNL     1     -34.600  16.525  -2.786  1.00 20.00     0.008 C 
HETATM    9  C3  UNL     1     -33.723  17.714  -3.182  1.00 20.00     0.012 C 
HETATM   10  C4  UNL     1     -34.594  16.405  -1.254  1.00 20.00     0.012 C 
ENDBRANCH   7   8
BRANCH   7  11
HETATM   11  O11 UNL     1     -32.849  15.249  -3.932  1.00 20.00    -0.393 OA
HETATM   12  H28 UNL     1     -32.582  14.339  -4.124  1.00 20.00     0.210 HD
ENDBRANCH   7  11
ENDBRANCH   3   7
TORSDOF 4
ENDMDL
MODEL 4
REMARK VINA RESULT:      -4.2      1.961      2.377
REMARK  4 active torsions:
REMARK  status: ('A' for Active; 'I' for Inactive)
REMARK    1  A    between atoms: C6_6  and  C9_9 
REMARK    2  A    between atoms: C7_7  and  C8_8 
REMARK    3  A    between atoms: C8_8  and  C9_9 
REMARK    4  A    between atoms: C8_8  and  O11_11 
ROOT
HETATM    1  C1  UNL     1     -37.657  14.587  -4.120  1.00 20.00     0.071 C 
HETATM    2  C5  UNL     1     -35.418  13.643  -4.014  1.00 20.00     0.034 C 
HETATM    3  C9  UNL     1     -36.224  14.928  -4.332  1.00 20.00     0.071 C 
HETATM    4  N10 UNL     1     -38.770  14.307  -3.945  1.00 20.00    -0.196 NA
ENDROOT
BRANCH   3   5
HETATM    5  C6  UNL     1     -36.039  15.302  -5.829  1.00 20.00     0.022 C 
HETATM    6  C2  UNL     1     -34.687  14.948  -6.436  1.00 20.00     0.007 C 
ENDBRANCH   3   5
BRANCH   3   7
HETATM    7  C8  UNL     1     -35.766  16.063  -3.355  1.00 20.00     0.143 C 
BRANCH   7   8
HETATM    8  C7  UNL     1     -34.560  15.775  -2.418  1.00 20.00     0.008 C 
HETATM    9  C3  UNL     1     -34.619  16.489  -1.066  1.00 20.00     0.012 C 
HETATM   10  C4  UNL     1     -33.238  16.150  -3.108  1.00 20.00     0.012 C 
ENDBRANCH   7   8
BRANCH   7  11
HETATM   11  O11 UNL     1     -36.896  16.497  -2.589  1.00 20.00    -0.393 OA
HETATM   12  H28 UNL     1     -36.734  17.426  -2.374  1.00 20.00     0.210 HD
ENDBRANCH   7  11
ENDBRANCH   3   7
TORSDOF 4
ENDMDL
MODEL 5
REMARK VINA RESULT:      -4.2      1.398      1.484
REMARK  4 active torsions:
REMARK  status: ('A' for Active; 'I' for Inactive)
REMARK    1  A    between atoms: C6_6  and  C9_9 
REMARK    2  A    between atoms: C7_7  and  C8_8 
REMARK    3  A    between atoms: C8_8  and  C9_9 
REMARK    4  A    between atoms: C8_8  and  O11_11 
ROOT
HETATM    1  C1  UNL     1     -36.581  14.836  -3.794  1.00 20.00     0.071 C 
HETATM    2  C5  UNL     1     -34.237  14.573  -3.204  1.00 20.00     0.034 C 
HETATM    3  C9  UNL     1     -35.287  15.569  -3.756  1.00 20.00     0.071 C 
HETATM    4  N10 UNL     1     -37.584  14.252  -3.812  1.00 20.00    -0.196 NA
ENDROOT
BRANCH   3   5
HETATM    5  C6  UNL     1     -34.918  15.962  -5.213  1.00 20.00     0.022 C 
HETATM    6  C2  UNL     1     -33.575  16.660  -5.390  1.00 20.00     0.007 C 
ENDBRANCH   3   5
BRANCH   3   7
HETATM    7  C8  UNL     1     -35.366  16.800  -2.791  1.00 20.00     0.143 C 
BRANCH   7   8
HETATM    8  C7  UNL     1     -34.258  16.953  -1.711  1.00 20.00     0.008 C 
HETATM    9  C3  UNL     1     -34.765  16.901  -0.268  1.00 20.00     0.012 C 
HETATM   10  C4  UNL     1     -33.489  18.269  -1.909  1.00 20.00     0.012 C 
ENDBRANCH   7   8
BRANCH   7  11
HETATM   11  O11 UNL     1     -36.661  16.824  -2.179  1.00 20.00    -0.393 OA
HETATM   12  H28 UNL     1     -37.147  17.544  -2.606  1.00 20.00     0.210 HD
ENDBRANCH   7  11
ENDBRANCH   3   7
TORSDOF 4
ENDMDL
MODEL 6
REMARK VINA RESULT:      -4.1      1.831      2.673
REMARK  4 active torsions:
REMARK  status: ('A' for Active; 'I' for Inactive)
REMARK    1  A    between atoms: C6_6  and  C9_9 
REMARK    2  A    between atoms: C7_7  and  C8_8 
REMARK    3  A    between atoms: C8_8  and  C9_9 
REMARK    4  A    between atoms: C8_8  and  O11_11 
ROOT
HETATM    1  C1  UNL     1     -34.810  13.680  -4.880  1.00 20.00     0.071 C 
HETATM    2  C5  UNL     1     -34.406  15.397  -6.554  1.00 20.00     0.034 C 
HETATM    3  C9  UNL     1     -34.808  15.155  -5.077  1.00 20.00     0.071 C 
HETATM    4  N10 UNL     1     -34.802  12.528  -4.740  1.00 20.00    -0.196 NA
ENDROOT
BRANCH   3   5
HETATM    5  C6  UNL     1     -36.254  15.671  -4.840  1.00 20.00     0.022 C 
HETATM    6  C2  UNL     1     -37.071  14.899  -3.811  1.00 20.00     0.007 C 
ENDBRANCH   3   5
BRANCH   3   7
HETATM    7  C8  UNL     1     -33.751  15.844  -4.150  1.00 20.00     0.143 C 
BRANCH   7   8
HETATM    8  C7  UNL     1     -34.198  17.093  -3.338  1.00 20.00     0.008 C 
HETATM    9  C3  UNL     1     -33.638  18.420  -3.853  1.00 20.00     0.012 C 
HETATM   10  C4  UNL     1     -33.807  16.943  -1.859  1.00 20.00     0.012 C 
ENDBRANCH   7   8
BRANCH   7  11
HETATM   11  O11 UNL     1     -32.586  16.149  -4.925  1.00 20.00    -0.393 OA
HETATM   12  H28 UNL     1     -32.566  15.503  -5.645  1.00 20.00     0.210 HD
ENDBRANCH   7  11
ENDBRANCH   3   7
TORSDOF 4
ENDMDL
MODEL 7
REMARK VINA RESULT:      -4.1      2.027      3.696
REMARK  4 active torsions:
REMARK  status: ('A' for Active; 'I' for Inactive)
REMARK    1  A    between atoms: C6_6  and  C9_9 
REMARK    2  A    between atoms: C7_7  and  C8_8 
REMARK    3  A    between atoms: C8_8  and  C9_9 
REMARK    4  A    between atoms: C8_8  and  O11_11 
ROOT
HETATM    1  C1  UNL     1     -35.945  15.817  -3.569  1.00 20.00     0.071 C 
HETATM    2  C5  UNL     1     -34.092  16.287  -2.066  1.00 20.00     0.034 C 
HETATM    3  C9  UNL     1     -34.471  15.667  -3.435  1.00 20.00     0.071 C 
HETATM    4  N10 UNL     1     -37.095  15.947  -3.662  1.00 20.00    -0.196 NA
ENDROOT
BRANCH   3   5
HETATM    5  C6  UNL     1     -34.145  14.148  -3.426  1.00 20.00     0.022 C 
HETATM    6  C2  UNL     1     -35.030  13.276  -4.308  1.00 20.00     0.007 C 
ENDBRANCH   3   5
BRANCH   3   7
HETATM    7  C8  UNL     1     -33.721  16.449  -4.565  1.00 20.00     0.143 C 
BRANCH   7   8
HETATM    8  C7  UNL     1     -34.469  16.685  -5.908  1.00 20.00     0.008 C 
HETATM    9  C3  UNL     1     -34.221  15.614  -6.972  1.00 20.00     0.012 C 
HETATM   10  C4  UNL     1     -34.095  18.054  -6.500  1.00 20.00     0.012 C 
ENDBRANCH   7   8
BRANCH   7  11
HETATM   11  O11 UNL     1     -32.460  15.814  -4.807  1.00 20.00    -0.393 OA
HETATM   12  H28 UNL     1     -32.111  16.209  -5.618  1.00 20.00     0.210 HD
ENDBRANCH   7  11
ENDBRANCH   3   7
TORSDOF 4
ENDMDL
MODEL 8
REMARK VINA RESULT:      -4.1      2.396      3.691
REMARK  4 active torsions:
REMARK  status: ('A' for Active; 'I' for Inactive)
REMARK    1  A    between atoms: C6_6  and  C9_9 
REMARK    2  A    between atoms: C7_7  and  C8_8 
REMARK    3  A    between atoms: C8_8  and  C9_9 
REMARK    4  A    between atoms: C8_8  and  O11_11 
ROOT
HETATM    1  C1  UNL     1     -33.583  16.001  -4.610  1.00 20.00     0.071 C 
HETATM    2  C5  UNL     1     -33.204  13.807  -3.631  1.00 20.00     0.034 C 
HETATM    3  C9  UNL     1     -34.264  14.914  -3.855  1.00 20.00     0.071 C 
HETATM    4  N10 UNL     1     -33.039  16.837  -5.204  1.00 20.00    -0.196 NA
ENDROOT
BRANCH   3   5
HETATM    5  C6  UNL     1     -34.710  15.493  -2.483  1.00 20.00     0.022 C 
HETATM    6  C2  UNL     1     -33.862  16.636  -1.941  1.00 20.00     0.007 C 
ENDBRANCH   3   5
BRANCH   3   7
HETATM    7  C8  UNL     1     -35.451  14.314  -4.682  1.00 20.00     0.143 C 
BRANCH   7   8
HETATM    8  C7  UNL     1     -36.732  15.178  -4.851  1.00 20.00     0.008 C 
HETATM    9  C3  UNL     1     -37.946  14.678  -4.065  1.00 20.00     0.012 C 
HETATM   10  C4  UNL     1     -37.122  15.279  -6.335  1.00 20.00     0.012 C 
ENDBRANCH   7   8
BRANCH   7  11
HETATM   11  O11 UNL     1     -35.787  13.031  -4.141  1.00 20.00    -0.393 OA
HETATM   12  H28 UNL     1     -36.754  12.983  -4.144  1.00 20.00     0.210 HD
ENDBRANCH   7  11
ENDBRANCH   3   7
TORSDOF 4
ENDMDL
MODEL 9
REMARK VINA RESULT:      -4.0      2.124      4.052
REMARK  4 active torsions:
REMARK  status: ('A' for Active; 'I' for Inactive)
REMARK    1  A    between atoms: C6_6  and  C9_9 
REMARK    2  A    between atoms: C7_7  and  C8_8 
REMARK    3  A    between atoms: C8_8  and  C9_9 
REMARK    4  A    between atoms: C8_8  and  O11_11 
ROOT
HETATM    1  C1  UNL     1     -35.835  16.861  -3.633  1.00 20.00     0.071 C 
HETATM    2  C5  UNL     1     -33.904  18.339  -3.648  1.00 20.00     0.034 C 
HETATM    3  C9  UNL     1     -34.347  16.855  -3.643  1.00 20.00     0.071 C 
HETATM    4  N10 UNL     1     -36.995  16.883  -3.630  1.00 20.00    -0.196 NA
ENDROOT
BRANCH   3   5
HETATM    5  C6  UNL     1     -33.863  16.170  -2.335  1.00 20.00     0.022 C 
HETATM    6  C2  UNL     1     -34.563  16.616  -1.058  1.00 20.00     0.007 C 
ENDBRANCH   3   5
BRANCH   3   7
HETATM    7  C8  UNL     1     -33.797  16.163  -4.937  1.00 20.00     0.143 C 
BRANCH   7   8
HETATM    8  C7  UNL     1     -34.640  15.018  -5.565  1.00 20.00     0.008 C 
HETATM    9  C3  UNL     1     -34.376  13.633  -4.972  1.00 20.00     0.012 C 
HETATM   10  C4  UNL     1     -34.408  14.948  -7.084  1.00 20.00     0.012 C 
ENDBRANCH   7   8
BRANCH   7  11
HETATM   11  O11 UNL     1     -32.460  15.713  -4.687  1.00 20.00    -0.393 OA
HETATM   12  H28 UNL     1     -32.126  16.256  -3.959  1.00 20.00     0.210 HD
ENDBRANCH   7  11
ENDBRANCH   3   7
TORSDOF 4
ENDMDL
