MODEL 1
REMARK VINA RESULT:      -4.2      0.000      0.000
REMARK  3 active torsions:
REMARK  status: ('A' for Active; 'I' for Inactive)
REMARK    1  A    between atoms: C5_5  and  C6_6 
REMARK    2  A    between atoms: C6_6  and  C7_7 
REMARK    3  A    between atoms: C6_6  and  O9_9 
ROOT
HETATM    1  C1  UNL     1     -34.598  13.824  -4.248  1.00 20.00     0.071 C 
HETATM    2  C3  UNL     1     -33.915  15.786  -5.548  1.00 20.00     0.033 C 
HETATM    3  C4  UNL     1     -32.493  14.958  -3.673  1.00 20.00     0.033 C 
HETATM    4  C7  UNL     1     -33.947  15.153  -4.141  1.00 20.00     0.067 C 
HETATM    5  N8  UNL     1     -35.107  12.785  -4.333  1.00 20.00    -0.196 NA
ENDROOT
BRANCH   4   6
HETATM    6  C6  UNL     1     -34.730  16.073  -3.153  1.00 20.00     0.139 C 
BRANCH   6   7
HETATM    7  C5  UNL     1     -33.901  16.614  -1.974  1.00 20.00     0.029 C 
HETATM    8  C2  UNL     1     -34.714  16.694  -0.686  1.00 20.00     0.007 C 
ENDBRANCH   6   7
BRANCH   6   9
HETATM    9  O9  UNL     1     -35.855  15.375  -2.613  1.00 20.00    -0.394 OA
HETATM   10  H22 UNL     1     -35.525  14.513  -2.319  1.00 20.00     0.210 HD
ENDBRANCH   6   9
ENDBRANCH   4   6
TORSDOF 3
ENDMDL
MODEL 2
REMARK VINA RESULT:      -4.0      1.927      3.514
REMARK  3 active torsions:
REMARK  status: ('A' for Active; 'I' for Inactive)
REMARK    1  A    between atoms: C5_5  and  C6_6 
REMARK    2  A    between atoms: C6_6  and  C7_7 
REMARK    3  A    between atoms: C6_6  and  O9_9 
ROOT
HETATM    1  C1  UNL     1     -35.881  14.512  -3.868  1.00 20.00     0.071 C 
HETATM    2  C3  UNL     1     -33.583  13.673  -3.712  1.00 20.00     0.033 C 
HETATM    3  C4  UNL     1     -34.244  15.767  -2.530  1.00 20.00     0.033 C 
HETATM    4  C7  UNL     1     -34.461  14.938  -3.809  1.00 20.00     0.067 C 
HETATM    5  N8  UNL     1     -36.990  14.176  -3.914  1.00 20.00    -0.196 NA
ENDROOT
BRANCH   4   6
HETATM    6  C6  UNL     1     -34.079  15.764  -5.077  1.00 20.00     0.139 C 
BRANCH   6   7
HETATM    7  C5  UNL     1     -34.401  15.080  -6.418  1.00 20.00     0.029 C 
HETATM    8  C2  UNL     1     -34.826  16.081  -7.488  1.00 20.00     0.007 C 
ENDBRANCH   6   7
BRANCH   6   9
HETATM    9  O9  UNL     1     -32.683  16.071  -5.067  1.00 20.00    -0.394 OA
HETATM   10  H22 UNL     1     -32.475  16.359  -4.165  1.00 20.00     0.210 HD
ENDBRANCH   6   9
ENDBRANCH   4   6
TORSDOF 3
ENDMDL
MODEL 3
REMARK VINA RESULT:      -4.0      1.700      1.872
REMARK  3 active torsions:
REMARK  status: ('A' for Active; 'I' for Inactive)
REMARK    1  A    between atoms: C5_5  and  C6_6 
REMARK    2  A    between atoms: C6_6  and  C7_7 
REMARK    3  A    between atoms: C6_6  and  O9_9 
ROOT
HETATM    1  C1  UNL     1     -36.985  14.682  -3.834  1.00 20.00     0.071 C 
HETATM    2  C3  UNL     1     -35.336  15.636  -5.376  1.00 20.00     0.033 C 
HETATM    3  C4  UNL     1     -34.621  14.053  -3.586  1.00 20.00     0.033 C 
HETATM    4  C7  UNL     1     -35.596  15.197  -3.920  1.00 20.00     0.067 C 
HETATM    5  N8  UNL     1     -38.071  14.280  -3.769  1.00 20.00    -0.196 NA
ENDROOT
BRANCH   4   6
HETATM    6  C6  UNL     1     -35.393  16.401  -2.948  1.00 20.00     0.139 C 
BRANCH   6   7
HETATM    7  C5  UNL     1     -34.292  16.203  -1.891  1.00 20.00     0.029 C 
HETATM    8  C2  UNL     1     -34.660  16.833  -0.551  1.00 20.00     0.007 C 
ENDBRANCH   6   7
BRANCH   6   9
HETATM    9  O9  UNL     1     -36.612  16.694  -2.261  1.00 20.00    -0.394 OA
HETATM   10  H22 UNL     1     -36.937  15.850  -1.913  1.00 20.00     0.210 HD
ENDBRANCH   6   9
ENDBRANCH   4   6
TORSDOF 3
ENDMDL
MODEL 4
REMARK VINA RESULT:      -4.0      1.786      2.111
REMARK  3 active torsions:
REMARK  status: ('A' for Active; 'I' for Inactive)
REMARK    1  A    between atoms: C5_5  and  C6_6 
REMARK    2  A    between atoms: C6_6  and  C7_7 
REMARK    3  A    between atoms: C6_6  and  O9_9 
ROOT
HETATM    1  C1  UNL     1     -36.336  14.398  -4.038  1.00 20.00     0.071 C 
HETATM    2  C3  UNL     1     -34.836  15.454  -5.664  1.00 20.00     0.033 C 
HETATM    3  C4  UNL     1     -34.552  13.050  -5.061  1.00 20.00     0.033 C 
HETATM    4  C7  UNL     1     -34.929  14.437  -4.507  1.00 20.00     0.067 C 
HETATM    5  N8  UNL     1     -37.436  14.369  -3.672  1.00 20.00    -0.196 NA
ENDROOT
BRANCH   4   6
HETATM    6  C6  UNL     1     -33.971  14.851  -3.347  1.00 20.00     0.139 C 
BRANCH   6   7
HETATM    7  C5  UNL     1     -34.143  16.297  -2.848  1.00 20.00     0.029 C 
HETATM    8  C2  UNL     1     -34.596  16.354  -1.392  1.00 20.00     0.007 C 
ENDBRANCH   6   7
BRANCH   6   9
HETATM    9  O9  UNL     1     -32.608  14.685  -3.747  1.00 20.00    -0.394 OA
HETATM   10  H22 UNL     1     -32.418  15.404  -4.368  1.00 20.00     0.210 HD
ENDBRANCH   6   9
ENDBRANCH   4   6
TORSDOF 3
ENDMDL
MODEL 5
REMARK VINA RESULT:      -4.0      1.774      3.417
REMARK  3 active torsions:
REMARK  status: ('A' for Active; 'I' for Inactive)
REMARK    1  A    between atoms: C5_5  and  C6_6 
REMARK    2  A    between atoms: C6_6  and  C7_7 
REMARK    3  A    between atoms: C6_6  and  O9_9 
ROOT
HETATM    1  C1  UNL     1     -34.233  14.343  -3.502  1.00 20.00     0.071 C 
HETATM    2  C3  UNL     1     -34.092  16.311  -2.048  1.00 20.00     0.033 C 
HETATM    3  C4  UNL     1     -35.975  16.071  -3.667  1.00 20.00     0.033 C 
HETATM    4  C7  UNL     1     -34.472  15.807  -3.455  1.00 20.00     0.067 C 
HETATM    5  N8  UNL     1     -34.045  13.199  -3.536  1.00 20.00    -0.196 NA
ENDROOT
BRANCH   4   6
HETATM    6  C6  UNL     1     -33.622  16.540  -4.539  1.00 20.00     0.139 C 
BRANCH   6   7
HETATM    7  C5  UNL     1     -34.355  16.813  -5.865  1.00 20.00     0.029 C 
HETATM    8  C2  UNL     1     -34.167  15.681  -6.871  1.00 20.00     0.007 C 
ENDBRANCH   6   7
BRANCH   6   9
HETATM    9  O9  UNL     1     -32.443  15.786  -4.838  1.00 20.00    -0.394 OA
HETATM   10  H22 UNL     1     -32.258  15.250  -4.052  1.00 20.00     0.210 HD
ENDBRANCH   6   9
ENDBRANCH   4   6
TORSDOF 3
ENDMDL
MODEL 6
REMARK VINA RESULT:      -4.0      2.300      3.794
REMARK  3 active torsions:
REMARK  status: ('A' for Active; 'I' for Inactive)
REMARK    1  A    between atoms: C5_5  and  C6_6 
REMARK    2  A    between atoms: C6_6  and  C7_7 
REMARK    3  A    between atoms: C6_6  and  O9_9 
ROOT
HETATM    1  C1  UNL     1     -33.425  16.030  -4.699  1.00 20.00     0.071 C 
HETATM    2  C3  UNL     1     -34.757  15.162  -2.833  1.00 20.00     0.033 C 
HETATM    3  C4  UNL     1     -32.567  14.118  -3.413  1.00 20.00     0.033 C 
HETATM    4  C7  UNL     1     -33.825  14.782  -4.003  1.00 20.00     0.067 C 
HETATM    5  N8  UNL     1     -33.114  17.006  -5.242  1.00 20.00    -0.196 NA
ENDROOT
BRANCH   4   6
HETATM    6  C6  UNL     1     -34.557  13.813  -4.983  1.00 20.00     0.139 C 
BRANCH   6   7
HETATM    7  C5  UNL     1     -35.674  14.459  -5.822  1.00 20.00     0.029 C 
HETATM    8  C2  UNL     1     -35.378  14.402  -7.318  1.00 20.00     0.007 C 
ENDBRANCH   6   7
BRANCH   6   9
HETATM    9  O9  UNL     1     -35.128  12.717  -4.263  1.00 20.00    -0.394 OA
HETATM   10  H22 UNL     1     -34.396  12.290  -3.793  1.00 20.00     0.210 HD
ENDBRANCH   6   9
ENDBRANCH   4   6
TORSDOF 3
ENDMDL
MODEL 7
REMARK VINA RESULT:      -3.9      1.749      2.195
REMARK  3 active torsions:
REMARK  status: ('A' for Active; 'I' for Inactive)
REMARK    1  A    between atoms: C5_5  and  C6_6 
REMARK    2  A    between atoms: C6_6  and  C7_7 
REMARK    3  A    between atoms: C6_6  and  O9_9 
ROOT
HETATM    1  C1  UNL     1     -34.878  13.729  -4.777  1.00 20.00     0.071 C 
HETATM    2  C3  UNL     1     -35.979  15.919  -4.769  1.00 20.00     0.033 C 
HETATM    3  C4  UNL     1     -34.325  15.345  -6.545  1.00 20.00     0.033 C 
HETATM    4  C7  UNL     1     -34.660  15.171  -5.052  1.00 20.00     0.067 C 
HETATM    5  N8  UNL     1     -35.051  12.603  -4.560  1.00 20.00    -0.196 NA
ENDROOT
BRANCH   4   6
HETATM    6  C6  UNL     1     -33.515  15.737  -4.156  1.00 20.00     0.139 C 
BRANCH   6   7
HETATM    7  C5  UNL     1     -33.874  17.013  -3.373  1.00 20.00     0.029 C 
HETATM    8  C2  UNL     1     -33.864  16.785  -1.864  1.00 20.00     0.007 C 
ENDBRANCH   6   7
BRANCH   6   9
HETATM    9  O9  UNL     1     -32.360  16.022  -4.950  1.00 20.00    -0.394 OA
HETATM   10  H22 UNL     1     -31.609  15.613  -4.492  1.00 20.00     0.210 HD
ENDBRANCH   6   9
ENDBRANCH   4   6
TORSDOF 3
ENDMDL
MODEL 8
REMARK VINA RESULT:      -3.9      2.363      3.319
REMARK  3 active torsions:
REMARK  status: ('A' for Active; 'I' for Inactive)
REMARK    1  A    between atoms: C5_5  and  C6_6 
REMARK    2  A    between atoms: C6_6  and  C7_7 
REMARK    3  A    between atoms: C6_6  and  O9_9 
ROOT
HETATM    1  C1  UNL     1     -33.522  15.880  -4.681  1.00 20.00     0.071 C 
HETATM    2  C3  UNL     1     -34.519  15.491  -2.475  1.00 20.00     0.033 C 
HETATM    3  C4  UNL     1     -32.917  13.843  -3.444  1.00 20.00     0.033 C 
HETATM    4  C7  UNL     1     -34.055  14.823  -3.786  1.00 20.00     0.067 C 
HETATM    5  N8  UNL     1     -33.107  16.708  -5.378  1.00 20.00    -0.196 NA
ENDROOT
BRANCH   4   6
HETATM    6  C6  UNL     1     -35.246  14.076  -4.463  1.00 20.00     0.139 C 
BRANCH   6   7
HETATM    7  C5  UNL     1     -36.643  14.554  -4.028  1.00 20.00     0.029 C 
HETATM    8  C2  UNL     1     -37.390  15.257  -5.158  1.00 20.00     0.007 C 
ENDBRANCH   6   7
BRANCH   6   9
HETATM    9  O9  UNL     1     -35.163  12.672  -4.202  1.00 20.00    -0.394 OA
HETATM   10  H22 UNL     1     -34.742  12.582  -3.334  1.00 20.00     0.210 HD
ENDBRANCH   6   9
ENDBRANCH   4   6
TORSDOF 3
ENDMDL
MODEL 9
REMARK VINA RESULT:      -3.9      2.054      2.643
REMARK  3 active torsions:
REMARK  status: ('A' for Active; 'I' for Inactive)
REMARK    1  A    between atoms: C5_5  and  C6_6 
REMARK    2  A    between atoms: C6_6  and  C7_7 
REMARK    3  A    between atoms: C6_6  and  O9_9 
ROOT
HETATM    1  C1  UNL     1     -34.508  14.887  -6.126  1.00 20.00     0.071 C 
HETATM    2  C3  UNL     1     -34.870  13.389  -4.220  1.00 20.00     0.033 C 
HETATM    3  C4  UNL     1     -36.084  15.563  -4.364  1.00 20.00     0.033 C 
HETATM    4  C7  UNL     1     -34.745  14.862  -4.661  1.00 20.00     0.067 C 
HETATM    5  N8  UNL     1     -34.322  14.904  -7.271  1.00 20.00    -0.196 NA
ENDROOT
BRANCH   4   6
HETATM    6  C6  UNL     1     -33.573  15.556  -3.900  1.00 20.00     0.139 C 
BRANCH   6   7
HETATM    7  C5  UNL     1     -33.956  16.852  -3.163  1.00 20.00     0.029 C 
HETATM    8  C2  UNL     1     -33.994  16.663  -1.649  1.00 20.00     0.007 C 
ENDBRANCH   6   7
BRANCH   6   9
HETATM    9  O9  UNL     1     -32.509  15.866  -4.805  1.00 20.00    -0.394 OA
HETATM   10  H22 UNL     1     -31.745  16.097  -4.256  1.00 20.00     0.210 HD
ENDBRANCH   6   9
ENDBRANCH   4   6
TORSDOF 3
ENDMDL
