MODEL 1
REMARK VINA RESULT:      -5.7      0.000      0.000
REMARK  0 active torsions:
REMARK  status: ('A' for Active; 'I' for Inactive)
ROOT
HETATM    1  C1  UNL     1     -33.728   6.281   5.552  1.00 20.00    -0.058 C 
HETATM    2  C2  UNL     1     -34.669   5.260   5.088  1.00 20.00    -0.061 C 
HETATM    3  C3  UNL     1     -32.949   6.624   3.197  1.00 20.00    -0.085 C 
HETATM    4  C4  UNL     1     -33.916   6.985   6.679  1.00 20.00     0.020 C 
HETATM    5  C5  UNL     1     -35.134   4.281   5.880  1.00 20.00     0.019 C 
HETATM    6  C6  UNL     1     -32.575   7.640   2.405  1.00 20.00     0.014 C 
HETATM    7  C7  UNL     1     -32.540   6.527   4.647  1.00 20.00     0.071 C 
HETATM    8  C8  UNL     1     -35.056   5.360   3.629  1.00 20.00     0.042 C 
HETATM    9  C9  UNL     1     -33.833   5.501   2.716  1.00 20.00     0.038 C 
ENDROOT
TORSDOF 0
ENDMDL
MODEL 2
REMARK VINA RESULT:      -4.8      0.575      2.508
REMARK  0 active torsions:
REMARK  status: ('A' for Active; 'I' for Inactive)
ROOT
HETATM    1  C1  UNL     1     -34.748   5.268   5.347  1.00 20.00    -0.058 C 
HETATM    2  C2  UNL     1     -33.796   6.335   5.658  1.00 20.00    -0.061 C 
HETATM    3  C3  UNL     1     -34.271   5.563   2.907  1.00 20.00    -0.085 C 
HETATM    4  C4  UNL     1     -35.059   4.294   6.218  1.00 20.00     0.020 C 
HETATM    5  C5  UNL     1     -33.856   7.063   6.785  1.00 20.00     0.019 C 
HETATM    6  C6  UNL     1     -34.128   4.797   1.815  1.00 20.00     0.014 C 
HETATM    7  C7  UNL     1     -35.331   5.305   3.951  1.00 20.00     0.071 C 
HETATM    8  C8  UNL     1     -32.751   6.593   4.595  1.00 20.00     0.042 C 
HETATM    9  C9  UNL     1     -33.370   6.736   3.201  1.00 20.00     0.038 C 
ENDROOT
TORSDOF 0
ENDMDL
MODEL 3
REMARK VINA RESULT:      -4.4     11.261     12.428
REMARK  0 active torsions:
REMARK  status: ('A' for Active; 'I' for Inactive)
ROOT
HETATM    1  C1  UNL     1     -33.984  14.683  -3.634  1.00 20.00    -0.058 C 
HETATM    2  C2  UNL     1     -35.291  14.717  -4.291  1.00 20.00    -0.061 C 
HETATM    3  C3  UNL     1     -34.768  16.407  -1.996  1.00 20.00    -0.085 C 
HETATM    4  C4  UNL     1     -33.173  13.614  -3.684  1.00 20.00     0.020 C 
HETATM    5  C5  UNL     1     -35.474  14.366  -5.574  1.00 20.00     0.019 C 
HETATM    6  C6  UNL     1     -34.636  16.678  -0.689  1.00 20.00     0.014 C 
HETATM    7  C7  UNL     1     -33.619  15.924  -2.848  1.00 20.00     0.071 C 
HETATM    8  C8  UNL     1     -36.429  15.220  -3.429  1.00 20.00     0.042 C 
HETATM    9  C9  UNL     1     -36.082  16.535  -2.724  1.00 20.00     0.038 C 
ENDROOT
TORSDOF 0
ENDMDL
MODEL 4
REMARK VINA RESULT:      -4.4     11.820     13.459
REMARK  0 active torsions:
REMARK  status: ('A' for Active; 'I' for Inactive)
ROOT
HETATM    1  C1  UNL     1     -34.228  14.413  -4.774  1.00 20.00    -0.058 C 
HETATM    2  C2  UNL     1     -34.442  15.365  -5.865  1.00 20.00    -0.061 C 
HETATM    3  C3  UNL     1     -33.642  16.306  -3.244  1.00 20.00    -0.085 C 
HETATM    4  C4  UNL     1     -34.824  13.211  -4.732  1.00 20.00     0.020 C 
HETATM    5  C5  UNL     1     -34.341  15.028  -7.161  1.00 20.00     0.019 C 
HETATM    6  C6  UNL     1     -33.839  16.655  -1.963  1.00 20.00     0.014 C 
HETATM    7  C7  UNL     1     -33.319  14.892  -3.663  1.00 20.00     0.071 C 
HETATM    8  C8  UNL     1     -34.747  16.781  -5.429  1.00 20.00     0.042 C 
HETATM    9  C9  UNL     1     -33.752  17.290  -4.381  1.00 20.00     0.038 C 
ENDROOT
TORSDOF 0
ENDMDL
MODEL 5
REMARK VINA RESULT:      -4.3     11.532     12.387
REMARK  0 active torsions:
REMARK  status: ('A' for Active; 'I' for Inactive)
ROOT
HETATM    1  C1  UNL     1     -34.927  15.856  -2.637  1.00 20.00    -0.058 C 
HETATM    2  C2  UNL     1     -34.108  14.890  -3.372  1.00 20.00    -0.061 C 
HETATM    3  C3  UNL     1     -36.955  15.072  -3.879  1.00 20.00    -0.085 C 
HETATM    4  C4  UNL     1     -34.587  16.324  -1.426  1.00 20.00     0.020 C 
HETATM    5  C5  UNL     1     -32.788  15.046  -3.562  1.00 20.00     0.019 C 
HETATM    6  C6  UNL     1     -38.253  14.840  -3.631  1.00 20.00     0.014 C 
HETATM    7  C7  UNL     1     -36.217  16.263  -3.317  1.00 20.00     0.071 C 
HETATM    8  C8  UNL     1     -34.865  13.712  -3.944  1.00 20.00     0.042 C 
HETATM    9  C9  UNL     1     -36.111  14.149  -4.722  1.00 20.00     0.038 C 
ENDROOT
TORSDOF 0
ENDMDL
MODEL 6
REMARK VINA RESULT:      -4.3     11.986     13.400
REMARK  0 active torsions:
REMARK  status: ('A' for Active; 'I' for Inactive)
ROOT
HETATM    1  C1  UNL     1     -35.771  15.472  -4.858  1.00 20.00    -0.058 C 
HETATM    2  C2  UNL     1     -34.523  15.474  -5.623  1.00 20.00    -0.061 C 
HETATM    3  C3  UNL     1     -34.462  15.642  -2.731  1.00 20.00    -0.085 C 
HETATM    4  C4  UNL     1     -36.941  15.883  -5.375  1.00 20.00     0.020 C 
HETATM    5  C5  UNL     1     -34.418  14.940  -6.850  1.00 20.00     0.019 C 
HETATM    6  C6  UNL     1     -34.555  16.263  -1.546  1.00 20.00     0.014 C 
HETATM    7  C7  UNL     1     -35.651  15.017  -3.420  1.00 20.00     0.071 C 
HETATM    8  C8  UNL     1     -33.337  16.088  -4.912  1.00 20.00     0.042 C 
HETATM    9  C9  UNL     1     -33.165  15.536  -3.493  1.00 20.00     0.038 C 
ENDROOT
TORSDOF 0
ENDMDL
MODEL 7
REMARK VINA RESULT:      -4.2     11.457     12.993
REMARK  0 active torsions:
REMARK  status: ('A' for Active; 'I' for Inactive)
ROOT
HETATM    1  C1  UNL     1     -34.700  16.359  -2.426  1.00 20.00    -0.058 C 
HETATM    2  C2  UNL     1     -33.891  17.155  -3.350  1.00 20.00    -0.061 C 
HETATM    3  C3  UNL     1     -34.953  14.590  -4.180  1.00 20.00    -0.085 C 
HETATM    4  C4  UNL     1     -34.598  16.469  -1.091  1.00 20.00     0.020 C 
HETATM    5  C5  UNL     1     -33.767  18.488  -3.251  1.00 20.00     0.019 C 
HETATM    6  C6  UNL     1     -34.982  13.251  -4.253  1.00 20.00     0.014 C 
HETATM    7  C7  UNL     1     -35.635  15.361  -3.075  1.00 20.00     0.071 C 
HETATM    8  C8  UNL     1     -33.229  16.370  -4.461  1.00 20.00     0.042 C 
HETATM    9  C9  UNL     1     -34.215  15.443  -5.180  1.00 20.00     0.038 C 
ENDROOT
TORSDOF 0
ENDMDL
MODEL 8
REMARK VINA RESULT:      -4.2     11.790     12.933
REMARK  0 active torsions:
REMARK  status: ('A' for Active; 'I' for Inactive)
ROOT
HETATM    1  C1  UNL     1     -33.885  16.974  -3.402  1.00 20.00    -0.058 C 
HETATM    2  C2  UNL     1     -34.667  16.274  -2.383  1.00 20.00    -0.061 C 
HETATM    3  C3  UNL     1     -34.177  15.032  -4.955  1.00 20.00    -0.085 C 
HETATM    4  C4  UNL     1     -33.781  18.312  -3.447  1.00 20.00     0.020 C 
HETATM    5  C5  UNL     1     -34.550  16.526  -1.070  1.00 20.00     0.019 C 
HETATM    6  C6  UNL     1     -34.385  14.818  -6.263  1.00 20.00     0.014 C 
HETATM    7  C7  UNL     1     -33.230  16.089  -4.441  1.00 20.00     0.071 C 
HETATM    8  C8  UNL     1     -35.599  15.205  -2.912  1.00 20.00     0.042 C 
HETATM    9  C9  UNL     1     -34.892  14.251  -3.881  1.00 20.00     0.038 C 
ENDROOT
TORSDOF 0
ENDMDL
MODEL 9
REMARK VINA RESULT:      -4.2      9.158     10.703
REMARK  0 active torsions:
REMARK  status: ('A' for Active; 'I' for Inactive)
ROOT
HETATM    1  C1  UNL     1     -42.157   4.841  -2.098  1.00 20.00    -0.058 C 
HETATM    2  C2  UNL     1     -41.640   5.331  -0.820  1.00 20.00    -0.061 C 
HETATM    3  C3  UNL     1     -42.509   7.201  -2.856  1.00 20.00    -0.085 C 
HETATM    4  C4  UNL     1     -41.825   3.643  -2.605  1.00 20.00     0.020 C 
HETATM    5  C5  UNL     1     -41.667   4.603   0.308  1.00 20.00     0.019 C 
HETATM    6  C6  UNL     1     -42.383   7.920  -3.981  1.00 20.00     0.014 C 
HETATM    7  C7  UNL     1     -43.064   5.797  -2.842  1.00 20.00     0.071 C 
HETATM    8  C8  UNL     1     -41.103   6.745  -0.846  1.00 20.00     0.042 C 
HETATM    9  C9  UNL     1     -42.081   7.722  -1.507  1.00 20.00     0.038 C 
ENDROOT
TORSDOF 0
ENDMDL
