MODEL 1
REMARK VINA RESULT:      -4.8      0.000      0.000
REMARK  1 active torsions:
REMARK  status: ('A' for Active; 'I' for Inactive)
REMARK    1  A    between atoms: C6_6  and  C10_10 
ROOT
HETATM    1  C1  UNL     1     -34.254   6.028   6.240  1.00 20.00    -0.025 A 
HETATM    2  C2  UNL     1     -33.794   6.811   5.251  1.00 20.00    -0.020 A 
HETATM    3  C3  UNL     1     -35.551   6.217   3.469  1.00 20.00     0.020 A 
HETATM    4  C4  UNL     1     -34.990   4.839   5.654  1.00 20.00     0.009 A 
HETATM    5  C5  UNL     1     -34.901   5.036   4.145  1.00 20.00     0.006 A 
HETATM    6  C6  UNL     1     -34.105   6.309   3.894  1.00 20.00    -0.015 A 
HETATM    7  C7  UNL     1     -34.350   3.527   6.089  1.00 20.00     0.014 C 
ENDROOT
BRANCH   6   8
HETATM    8  C10 UNL     1     -33.026   6.313   2.860  1.00 20.00    -0.010 C 
HETATM    9  C8  UNL     1     -32.471   7.728   2.621  1.00 20.00     0.010 C 
HETATM   10  C9  UNL     1     -31.870   5.369   3.240  1.00 20.00     0.010 C 
ENDBRANCH   6   8
TORSDOF 1
ENDMDL
MODEL 2
REMARK VINA RESULT:      -4.7     11.405     12.995
REMARK  1 active torsions:
REMARK  status: ('A' for Active; 'I' for Inactive)
REMARK    1  A    between atoms: C6_6  and  C10_10 
ROOT
HETATM    1  C1  UNL     1     -33.067  14.157  -3.745  1.00 20.00    -0.025 A 
HETATM    2  C2  UNL     1     -32.777  15.463  -3.634  1.00 20.00    -0.020 A 
HETATM    3  C3  UNL     1     -34.542  16.079  -1.867  1.00 20.00     0.020 A 
HETATM    4  C4  UNL     1     -34.523  13.922  -3.395  1.00 20.00     0.009 A 
HETATM    5  C5  UNL     1     -35.065  15.305  -3.051  1.00 20.00     0.006 A 
HETATM    6  C6  UNL     1     -33.928  16.301  -3.229  1.00 20.00    -0.015 A 
HETATM    7  C7  UNL     1     -35.276  13.298  -4.563  1.00 20.00     0.014 C 
ENDROOT
BRANCH   6   8
HETATM    8  C10 UNL     1     -34.176  17.582  -3.956  1.00 20.00    -0.010 C 
HETATM    9  C8  UNL     1     -33.714  18.801  -3.138  1.00 20.00     0.010 C 
HETATM   10  C9  UNL     1     -33.484  17.600  -5.331  1.00 20.00     0.010 C 
ENDBRANCH   6   8
TORSDOF 1
ENDMDL
MODEL 3
REMARK VINA RESULT:      -4.7     11.304     12.879
REMARK  1 active torsions:
REMARK  status: ('A' for Active; 'I' for Inactive)
REMARK    1  A    between atoms: C6_6  and  C10_10 
ROOT
HETATM    1  C1  UNL     1     -35.417  14.822  -3.496  1.00 20.00    -0.025 A 
HETATM    2  C2  UNL     1     -35.485  15.921  -2.727  1.00 20.00    -0.020 A 
HETATM    3  C3  UNL     1     -33.746  17.347  -3.976  1.00 20.00     0.020 A 
HETATM    4  C4  UNL     1     -34.045  14.725  -4.134  1.00 20.00     0.009 A 
HETATM    5  C5  UNL     1     -33.296  15.952  -3.625  1.00 20.00     0.006 A 
HETATM    6  C6  UNL     1     -34.234  16.710  -2.696  1.00 20.00    -0.015 A 
HETATM    7  C7  UNL     1     -33.343  13.433  -3.737  1.00 20.00     0.014 C 
ENDROOT
BRANCH   6   8
HETATM    8  C10 UNL     1     -33.728  17.206  -1.380  1.00 20.00    -0.010 C 
HETATM    9  C8  UNL     1     -33.391  18.706  -1.428  1.00 20.00     0.010 C 
HETATM   10  C9  UNL     1     -34.739  16.947  -0.248  1.00 20.00     0.010 C 
ENDBRANCH   6   8
TORSDOF 1
ENDMDL
MODEL 4
REMARK VINA RESULT:      -4.6     11.891     13.299
REMARK  1 active torsions:
REMARK  status: ('A' for Active; 'I' for Inactive)
REMARK    1  A    between atoms: C6_6  and  C10_10 
ROOT
HETATM    1  C1  UNL     1     -35.989  15.546  -3.341  1.00 20.00    -0.025 A 
HETATM    2  C2  UNL     1     -36.096  15.251  -4.647  1.00 20.00    -0.020 A 
HETATM    3  C3  UNL     1     -34.396  13.321  -4.725  1.00 20.00     0.020 A 
HETATM    4  C4  UNL     1     -34.612  15.161  -2.839  1.00 20.00     0.009 A 
HETATM    5  C5  UNL     1     -33.904  14.581  -4.059  1.00 20.00     0.006 A 
HETATM    6  C6  UNL     1     -34.870  14.663  -5.232  1.00 20.00    -0.015 A 
HETATM    7  C7  UNL     1     -33.872  16.370  -2.281  1.00 20.00     0.014 C 
ENDROOT
BRANCH   6   8
HETATM    8  C10 UNL     1     -34.387  15.171  -6.551  1.00 20.00    -0.010 C 
HETATM    9  C8  UNL     1     -35.207  14.595  -7.719  1.00 20.00     0.010 C 
HETATM   10  C9  UNL     1     -34.420  16.709  -6.616  1.00 20.00     0.010 C 
ENDBRANCH   6   8
TORSDOF 1
ENDMDL
MODEL 5
REMARK VINA RESULT:      -4.5     11.659     13.386
REMARK  1 active torsions:
REMARK  status: ('A' for Active; 'I' for Inactive)
REMARK    1  A    between atoms: C6_6  and  C10_10 
ROOT
HETATM    1  C1  UNL     1     -33.887  16.022  -5.986  1.00 20.00    -0.025 A 
HETATM    2  C2  UNL     1     -33.843  16.350  -4.685  1.00 20.00    -0.020 A 
HETATM    3  C3  UNL     1     -33.580  13.979  -3.721  1.00 20.00     0.020 A 
HETATM    4  C4  UNL     1     -34.426  14.614  -6.144  1.00 20.00     0.009 A 
HETATM    5  C5  UNL     1     -34.698  14.143  -4.719  1.00 20.00     0.006 A 
HETATM    6  C6  UNL     1     -34.335  15.286  -3.781  1.00 20.00    -0.015 A 
HETATM    7  C7  UNL     1     -35.692  14.601  -6.991  1.00 20.00     0.014 C 
ENDROOT
BRANCH   6   8
HETATM    8  C10 UNL     1     -35.267  15.657  -2.674  1.00 20.00    -0.010 C 
HETATM    9  C8  UNL     1     -34.522  16.306  -1.495  1.00 20.00     0.010 C 
HETATM   10  C9  UNL     1     -36.379  16.605  -3.158  1.00 20.00     0.010 C 
ENDBRANCH   6   8
TORSDOF 1
ENDMDL
MODEL 6
REMARK VINA RESULT:      -4.5     11.443     12.693
REMARK  1 active torsions:
REMARK  status: ('A' for Active; 'I' for Inactive)
REMARK    1  A    between atoms: C6_6  and  C10_10 
ROOT
HETATM    1  C1  UNL     1     -33.752  17.529  -3.403  1.00 20.00    -0.025 A 
HETATM    2  C2  UNL     1     -33.907  16.418  -4.141  1.00 20.00    -0.020 A 
HETATM    3  C3  UNL     1     -36.200  15.691  -3.227  1.00 20.00     0.020 A 
HETATM    4  C4  UNL     1     -34.519  17.394  -2.102  1.00 20.00     0.009 A 
HETATM    5  C5  UNL     1     -35.166  16.016  -2.178  1.00 20.00     0.006 A 
HETATM    6  C6  UNL     1     -34.746  15.382  -3.496  1.00 20.00    -0.015 A 
HETATM    7  C7  UNL     1     -33.589  17.514  -0.901  1.00 20.00     0.014 C 
ENDROOT
BRANCH   6   8
HETATM    8  C10 UNL     1     -34.280  13.963  -3.518  1.00 20.00    -0.010 C 
HETATM    9  C8  UNL     1     -34.830  13.201  -4.737  1.00 20.00     0.010 C 
HETATM   10  C9  UNL     1     -32.743  13.868  -3.509  1.00 20.00     0.010 C 
ENDBRANCH   6   8
TORSDOF 1
ENDMDL
MODEL 7
REMARK VINA RESULT:      -4.4     11.688     13.123
REMARK  1 active torsions:
REMARK  status: ('A' for Active; 'I' for Inactive)
REMARK    1  A    between atoms: C6_6  and  C10_10 
ROOT
HETATM    1  C1  UNL     1     -34.469  16.993  -1.564  1.00 20.00    -0.025 A 
HETATM    2  C2  UNL     1     -34.833  15.756  -1.938  1.00 20.00    -0.020 A 
HETATM    3  C3  UNL     1     -32.941  15.315  -3.625  1.00 20.00     0.020 A 
HETATM    4  C4  UNL     1     -33.704  17.666  -2.687  1.00 20.00     0.009 A 
HETATM    5  C5  UNL     1     -33.663  16.626  -3.802  1.00 20.00     0.006 A 
HETATM    6  C6  UNL     1     -34.416  15.398  -3.313  1.00 20.00    -0.015 A 
HETATM    7  C7  UNL     1     -34.397  18.945  -3.136  1.00 20.00     0.014 C 
ENDROOT
BRANCH   6   8
HETATM    8  C10 UNL     1     -35.405  14.731  -4.213  1.00 20.00    -0.010 C 
HETATM    9  C8  UNL     1     -35.073  13.243  -4.422  1.00 20.00     0.010 C 
HETATM   10  C9  UNL     1     -36.842  14.862  -3.678  1.00 20.00     0.010 C 
ENDBRANCH   6   8
TORSDOF 1
ENDMDL
MODEL 8
REMARK VINA RESULT:      -4.3      1.167      4.060
REMARK  1 active torsions:
REMARK  status: ('A' for Active; 'I' for Inactive)
REMARK    1  A    between atoms: C6_6  and  C10_10 
ROOT
HETATM    1  C1  UNL     1     -31.291   7.926   3.468  1.00 20.00    -0.025 A 
HETATM    2  C2  UNL     1     -31.837   7.084   4.360  1.00 20.00    -0.020 A 
HETATM    3  C3  UNL     1     -32.999   5.499   2.700  1.00 20.00     0.020 A 
HETATM    4  C4  UNL     1     -32.122   7.943   2.201  1.00 20.00     0.009 A 
HETATM    5  C5  UNL     1     -33.262   6.967   2.474  1.00 20.00     0.006 A 
HETATM    6  C6  UNL     1     -33.077   6.430   3.887  1.00 20.00    -0.015 A 
HETATM    7  C7  UNL     1     -32.642   9.344   1.902  1.00 20.00     0.014 C 
ENDROOT
BRANCH   6   8
HETATM    8  C10 UNL     1     -34.251   6.361   4.809  1.00 20.00    -0.010 C 
HETATM    9  C8  UNL     1     -34.949   4.991   4.741  1.00 20.00     0.010 C 
HETATM   10  C9  UNL     1     -33.849   6.656   6.265  1.00 20.00     0.010 C 
ENDBRANCH   6   8
TORSDOF 1
ENDMDL
MODEL 9
REMARK VINA RESULT:      -4.2     11.647     13.538
REMARK  1 active torsions:
REMARK  status: ('A' for Active; 'I' for Inactive)
REMARK    1  A    between atoms: C6_6  and  C10_10 
ROOT
HETATM    1  C1  UNL     1     -33.865  14.350  -3.318  1.00 20.00    -0.025 A 
HETATM    2  C2  UNL     1     -34.189  14.242  -4.617  1.00 20.00    -0.020 A 
HETATM    3  C3  UNL     1     -33.234  16.493  -5.418  1.00 20.00     0.020 A 
HETATM    4  C4  UNL     1     -33.795  15.813  -2.925  1.00 20.00     0.009 A 
HETATM    5  C5  UNL     1     -34.128  16.572  -4.206  1.00 20.00     0.006 A 
HETATM    6  C6  UNL     1     -34.401  15.542  -5.292  1.00 20.00    -0.015 A 
HETATM    7  C7  UNL     1     -34.783  16.131  -1.810  1.00 20.00     0.014 C 
ENDROOT
BRANCH   6   8
HETATM    8  C10 UNL     1     -35.591  15.705  -6.181  1.00 20.00    -0.010 C 
HETATM    9  C8  UNL     1     -35.371  15.048  -7.555  1.00 20.00     0.010 C 
HETATM   10  C9  UNL     1     -36.865  15.126  -5.539  1.00 20.00     0.010 C 
ENDBRANCH   6   8
TORSDOF 1
ENDMDL
