MODEL 1
REMARK VINA RESULT:      -4.8      0.000      0.000
REMARK  1 active torsions:
REMARK  status: ('A' for Active; 'I' for Inactive)
REMARK    1  A    between atoms: C6_6  and  C10_10 
ROOT
HETATM    1  C1  UNL     1     -35.975  14.769  -3.565  1.00 20.00    -0.025 A 
HETATM    2  C2  UNL     1     -35.651  16.019  -3.193  1.00 20.00    -0.020 A 
HETATM    3  C3  UNL     1     -33.277  16.112  -4.177  1.00 20.00     0.020 A 
HETATM    4  C4  UNL     1     -34.721  13.929  -3.676  1.00 20.00     0.009 A 
HETATM    5  C5  UNL     1     -33.578  14.884  -3.352  1.00 20.00     0.006 A 
HETATM    6  C6  UNL     1     -34.200  16.227  -2.988  1.00 20.00    -0.015 A 
HETATM    7  C7  UNL     1     -34.563  13.286  -5.046  1.00 20.00     0.014 C 
ENDROOT
BRANCH   6   8
HETATM    8  C10 UNL     1     -33.743  16.945  -1.759  1.00 20.00    -0.010 C 
HETATM    9  C8  UNL     1     -33.580  18.454  -2.009  1.00 20.00     0.010 C 
HETATM   10  C9  UNL     1     -34.705  16.723  -0.580  1.00 20.00     0.010 C 
ENDBRANCH   6   8
TORSDOF 1
ENDMDL
MODEL 2
REMARK VINA RESULT:      -4.7     11.500     12.465
REMARK  1 active torsions:
REMARK  status: ('A' for Active; 'I' for Inactive)
REMARK    1  A    between atoms: C6_6  and  C10_10 
ROOT
HETATM    1  C1  UNL     1     -34.042   6.178   6.353  1.00 20.00    -0.025 A 
HETATM    2  C2  UNL     1     -33.682   7.083   5.428  1.00 20.00    -0.020 A 
HETATM    3  C3  UNL     1     -34.532   5.855   3.334  1.00 20.00     0.020 A 
HETATM    4  C4  UNL     1     -34.061   4.796   5.734  1.00 20.00     0.009 A 
HETATM    5  C5  UNL     1     -33.696   5.016   4.270  1.00 20.00     0.006 A 
HETATM    6  C6  UNL     1     -33.401   6.501   4.096  1.00 20.00    -0.015 A 
HETATM    7  C7  UNL     1     -35.404   4.099   5.894  1.00 20.00     0.014 C 
ENDROOT
BRANCH   6   8
HETATM    8  C10 UNL     1     -32.166   6.929   3.371  1.00 20.00    -0.010 C 
HETATM    9  C8  UNL     1     -32.498   7.793   2.141  1.00 20.00     0.010 C 
HETATM   10  C9  UNL     1     -31.205   7.700   4.291  1.00 20.00     0.010 C 
ENDBRANCH   6   8
TORSDOF 1
ENDMDL
MODEL 3
REMARK VINA RESULT:      -4.2      1.422      3.989
REMARK  1 active torsions:
REMARK  status: ('A' for Active; 'I' for Inactive)
REMARK    1  A    between atoms: C6_6  and  C10_10 
ROOT
HETATM    1  C1  UNL     1     -34.293  17.782  -3.010  1.00 20.00    -0.025 A 
HETATM    2  C2  UNL     1     -34.779  17.307  -4.169  1.00 20.00    -0.020 A 
HETATM    3  C3  UNL     1     -35.689  15.058  -3.315  1.00 20.00     0.020 A 
HETATM    4  C4  UNL     1     -33.904  16.628  -2.110  1.00 20.00     0.009 A 
HETATM    5  C5  UNL     1     -34.273  15.375  -2.895  1.00 20.00     0.006 A 
HETATM    6  C6  UNL     1     -34.793  15.829  -4.253  1.00 20.00    -0.015 A 
HETATM    7  C7  UNL     1     -34.591  16.682  -0.754  1.00 20.00     0.014 C 
ENDROOT
BRANCH   6   8
HETATM    8  C10 UNL     1     -34.282  15.176  -5.497  1.00 20.00    -0.010 C 
HETATM    9  C8  UNL     1     -35.235  14.074  -5.994  1.00 20.00     0.010 C 
HETATM   10  C9  UNL     1     -34.052  16.198  -6.623  1.00 20.00     0.010 C 
ENDBRANCH   6   8
TORSDOF 1
ENDMDL
MODEL 4
REMARK VINA RESULT:      -4.1     11.327     12.436
REMARK  1 active torsions:
REMARK  status: ('A' for Active; 'I' for Inactive)
REMARK    1  A    between atoms: C6_6  and  C10_10 
ROOT
HETATM    1  C1  UNL     1     -32.980   5.660   2.153  1.00 20.00    -0.025 A 
HETATM    2  C2  UNL     1     -33.982   5.220   2.932  1.00 20.00    -0.020 A 
HETATM    3  C3  UNL     1     -34.254   7.297   4.424  1.00 20.00     0.020 A 
HETATM    4  C4  UNL     1     -32.148   6.671   2.914  1.00 20.00     0.009 A 
HETATM    5  C5  UNL     1     -32.835   6.804   4.269  1.00 20.00     0.006 A 
HETATM    6  C6  UNL     1     -33.996   5.817   4.287  1.00 20.00    -0.015 A 
HETATM    7  C7  UNL     1     -32.037   8.004   2.191  1.00 20.00     0.014 C 
ENDROOT
BRANCH   6   8
HETATM    8  C10 UNL     1     -34.184   4.918   5.466  1.00 20.00    -0.010 C 
HETATM    9  C8  UNL     1     -34.662   5.696   6.705  1.00 20.00     0.010 C 
HETATM   10  C9  UNL     1     -35.175   3.782   5.163  1.00 20.00     0.010 C 
ENDBRANCH   6   8
TORSDOF 1
ENDMDL
MODEL 5
REMARK VINA RESULT:      -4.1      1.954      3.943
REMARK  1 active torsions:
REMARK  status: ('A' for Active; 'I' for Inactive)
REMARK    1  A    between atoms: C6_6  and  C10_10 
ROOT
HETATM    1  C1  UNL     1     -33.251  15.446  -3.341  1.00 20.00    -0.025 A 
HETATM    2  C2  UNL     1     -33.167  16.007  -4.560  1.00 20.00    -0.020 A 
HETATM    3  C3  UNL     1     -34.924  17.860  -4.254  1.00 20.00     0.020 A 
HETATM    4  C4  UNL     1     -34.639  15.661  -2.776  1.00 20.00     0.009 A 
HETATM    5  C5  UNL     1     -35.371  16.482  -3.832  1.00 20.00     0.006 A 
HETATM    6  C6  UNL     1     -34.419  16.655  -5.009  1.00 20.00    -0.015 A 
HETATM    7  C7  UNL     1     -34.621  16.351  -1.420  1.00 20.00     0.014 C 
ENDROOT
BRANCH   6   8
HETATM    8  C10 UNL     1     -34.906  16.392  -6.398  1.00 20.00    -0.010 C 
HETATM    9  C8  UNL     1     -34.561  17.549  -7.351  1.00 20.00     0.010 C 
HETATM   10  C9  UNL     1     -34.336  15.079  -6.961  1.00 20.00     0.010 C 
ENDBRANCH   6   8
TORSDOF 1
ENDMDL
MODEL 6
REMARK VINA RESULT:      -4.0      1.439      1.589
REMARK  1 active torsions:
REMARK  status: ('A' for Active; 'I' for Inactive)
REMARK    1  A    between atoms: C6_6  and  C10_10 
ROOT
HETATM    1  C1  UNL     1     -35.797  15.437  -5.031  1.00 20.00    -0.025 A 
HETATM    2  C2  UNL     1     -35.656  16.430  -4.137  1.00 20.00    -0.020 A 
HETATM    3  C3  UNL     1     -33.496  17.478  -5.059  1.00 20.00     0.020 A 
HETATM    4  C4  UNL     1     -34.438  15.037  -5.567  1.00 20.00     0.009 A 
HETATM    5  C5  UNL     1     -33.453  15.979  -4.883  1.00 20.00     0.006 A 
HETATM    6  C6  UNL     1     -34.252  16.844  -3.917  1.00 20.00    -0.015 A 
HETATM    7  C7  UNL     1     -34.356  15.120  -7.084  1.00 20.00     0.014 C 
ENDROOT
BRANCH   6   8
HETATM    8  C10 UNL     1     -33.768  17.026  -2.514  1.00 20.00    -0.010 C 
HETATM    9  C8  UNL     1     -33.663  18.514  -2.137  1.00 20.00     0.010 C 
HETATM   10  C9  UNL     1     -34.675  16.306  -1.502  1.00 20.00     0.010 C 
ENDBRANCH   6   8
TORSDOF 1
ENDMDL
MODEL 7
REMARK VINA RESULT:      -4.0      1.294      2.360
REMARK  1 active torsions:
REMARK  status: ('A' for Active; 'I' for Inactive)
REMARK    1  A    between atoms: C6_6  and  C10_10 
ROOT
HETATM    1  C1  UNL     1     -33.634  16.227  -5.751  1.00 20.00    -0.025 A 
HETATM    2  C2  UNL     1     -33.292  16.473  -4.475  1.00 20.00    -0.020 A 
HETATM    3  C3  UNL     1     -34.777  14.712  -3.330  1.00 20.00     0.020 A 
HETATM    4  C4  UNL     1     -35.041  15.670  -5.803  1.00 20.00     0.009 A 
HETATM    5  C5  UNL     1     -35.481  15.577  -4.346  1.00 20.00     0.006 A 
HETATM    6  C6  UNL     1     -34.355  16.152  -3.496  1.00 20.00    -0.015 A 
HETATM    7  C7  UNL     1     -35.116  14.327  -6.513  1.00 20.00     0.014 C 
ENDROOT
BRANCH   6   8
HETATM    8  C10 UNL     1     -34.670  17.146  -2.425  1.00 20.00    -0.010 C 
HETATM    9  C8  UNL     1     -34.573  16.522  -1.022  1.00 20.00     0.010 C 
HETATM   10  C9  UNL     1     -33.749  18.375  -2.501  1.00 20.00     0.010 C 
ENDBRANCH   6   8
TORSDOF 1
ENDMDL
MODEL 8
REMARK VINA RESULT:      -4.0      1.063      4.094
REMARK  1 active torsions:
REMARK  status: ('A' for Active; 'I' for Inactive)
REMARK    1  A    between atoms: C6_6  and  C10_10 
ROOT
HETATM    1  C1  UNL     1     -33.755  18.496  -1.423  1.00 20.00    -0.025 A 
HETATM    2  C2  UNL     1     -33.793  18.072  -2.697  1.00 20.00    -0.020 A 
HETATM    3  C3  UNL     1     -35.598  16.256  -2.446  1.00 20.00     0.020 A 
HETATM    4  C4  UNL     1     -34.158  17.368  -0.497  1.00 20.00     0.009 A 
HETATM    5  C5  UNL     1     -34.490  16.201  -1.421  1.00 20.00     0.006 A 
HETATM    6  C6  UNL     1     -34.199  16.656  -2.846  1.00 20.00    -0.015 A 
HETATM    7  C7  UNL     1     -35.324  17.737   0.406  1.00 20.00     0.014 C 
ENDROOT
BRANCH   6   8
HETATM    8  C10 UNL     1     -33.407  15.774  -3.757  1.00 20.00    -0.010 C 
HETATM    9  C8  UNL     1     -34.078  14.402  -3.947  1.00 20.00     0.010 C 
HETATM   10  C9  UNL     1     -33.184  16.428  -5.131  1.00 20.00     0.010 C 
ENDBRANCH   6   8
TORSDOF 1
ENDMDL
MODEL 9
REMARK VINA RESULT:      -4.0      1.276      3.938
REMARK  1 active torsions:
REMARK  status: ('A' for Active; 'I' for Inactive)
REMARK    1  A    between atoms: C6_6  and  C10_10 
ROOT
HETATM    1  C1  UNL     1     -34.050  16.400  -2.052  1.00 20.00    -0.025 A 
HETATM    2  C2  UNL     1     -33.892  15.399  -2.934  1.00 20.00    -0.020 A 
HETATM    3  C3  UNL     1     -33.377  16.805  -5.025  1.00 20.00     0.020 A 
HETATM    4  C4  UNL     1     -34.527  17.644  -2.772  1.00 20.00     0.009 A 
HETATM    5  C5  UNL     1     -34.590  17.246  -4.243  1.00 20.00     0.006 A 
HETATM    6  C6  UNL     1     -34.225  15.769  -4.328  1.00 20.00    -0.015 A 
HETATM    7  C7  UNL     1     -33.620  18.842  -2.538  1.00 20.00     0.014 C 
ENDROOT
BRANCH   6   8
HETATM    8  C10 UNL     1     -35.077  14.842  -5.133  1.00 20.00    -0.010 C 
HETATM    9  C8  UNL     1     -34.543  14.679  -6.567  1.00 20.00     0.010 C 
HETATM   10  C9  UNL     1     -35.194  13.458  -4.472  1.00 20.00     0.010 C 
ENDBRANCH   6   8
TORSDOF 1
ENDMDL
