MODEL 1
REMARK VINA RESULT:      -4.8      0.000      0.000
REMARK  2 active torsions:
REMARK  status: ('A' for Active; 'I' for Inactive)
REMARK    1  A    between atoms: C9_9  and  C10_10 
REMARK    2  A    between atoms: C9_9  and  N12_12 
ROOT
HETATM    1  C1  UNL     1     -34.054  14.017  -3.496  1.00 20.00     0.065 C 
HETATM    2  C8  UNL     1     -36.188  15.210  -3.833  1.00 20.00     0.027 C 
HETATM    3  C10 UNL     1     -34.860  15.179  -3.077  1.00 20.00     0.114 C 
HETATM    4  N11 UNL     1     -33.421  13.102  -3.825  1.00 20.00    -0.197 NA
ENDROOT
BRANCH   3   5
HETATM    5  C9  UNL     1     -34.072  16.487  -3.207  1.00 20.00     0.253 C 
BRANCH   5   6
HETATM    6  N12 UNL     1     -33.695  17.047  -1.875  1.00 20.00    -0.069 N 
HETATM    7  C2  UNL     1     -33.640  18.548  -1.829  1.00 20.00     0.239 C 
HETATM    8  C4  UNL     1     -33.571  18.848  -0.336  1.00 20.00     0.012 C 
HETATM    9  C5  UNL     1     -34.357  17.702   0.336  1.00 20.00     0.012 C 
HETATM   10  C6  UNL     1     -32.123  18.886   0.158  1.00 20.00     0.012 C 
HETATM   11  C3  UNL     1     -34.620  16.659  -0.753  1.00 20.00     0.239 C 
HETATM   12  C7  UNL     1     -35.662  18.189   0.958  1.00 20.00     0.012 C 
HETATM   13  H31 UNL     1     -32.766  16.702  -1.639  1.00 20.00     0.280 HD
ENDBRANCH   5   6
ENDBRANCH   3   5
TORSDOF 2
ENDMDL
MODEL 2
REMARK VINA RESULT:      -4.6      0.390      1.942
REMARK  2 active torsions:
REMARK  status: ('A' for Active; 'I' for Inactive)
REMARK    1  A    between atoms: C9_9  and  C10_10 
REMARK    2  A    between atoms: C9_9  and  N12_12 
ROOT
HETATM    1  C1  UNL     1     -34.103  14.058  -3.505  1.00 20.00     0.065 C 
HETATM    2  C8  UNL     1     -36.438  14.827  -3.728  1.00 20.00     0.027 C 
HETATM    3  C10 UNL     1     -35.080  15.076  -3.072  1.00 20.00     0.114 C 
HETATM    4  N11 UNL     1     -33.336  13.257  -3.845  1.00 20.00    -0.197 NA
ENDROOT
BRANCH   3   5
HETATM    5  C9  UNL     1     -34.556  16.496  -3.310  1.00 20.00     0.253 C 
BRANCH   5   6
HETATM    6  N12 UNL     1     -34.677  17.348  -2.090  1.00 20.00    -0.069 N 
HETATM    7  C2  UNL     1     -34.631  16.584  -0.796  1.00 20.00     0.239 C 
HETATM    8  C4  UNL     1     -34.437  17.678   0.247  1.00 20.00     0.012 C 
HETATM    9  C5  UNL     1     -33.624  18.775  -0.474  1.00 20.00     0.012 C 
HETATM   10  C6  UNL     1     -35.780  18.222   0.739  1.00 20.00     0.012 C 
HETATM   11  C3  UNL     1     -33.607  18.398  -1.958  1.00 20.00     0.239 C 
HETATM   12  C7  UNL     1     -32.207  18.897   0.079  1.00 20.00     0.012 C 
HETATM   13  H31 UNL     1     -35.574  17.828  -2.127  1.00 20.00     0.280 HD
ENDBRANCH   5   6
ENDBRANCH   3   5
TORSDOF 2
ENDMDL
MODEL 3
REMARK VINA RESULT:      -4.5      1.677      2.231
REMARK  2 active torsions:
REMARK  status: ('A' for Active; 'I' for Inactive)
REMARK    1  A    between atoms: C9_9  and  C10_10 
REMARK    2  A    between atoms: C9_9  and  N12_12 
ROOT
HETATM    1  C1  UNL     1     -35.012  13.760  -5.038  1.00 20.00     0.065 C 
HETATM    2  C8  UNL     1     -34.111  15.855  -5.981  1.00 20.00     0.027 C 
HETATM    3  C10 UNL     1     -35.354  15.129  -5.467  1.00 20.00     0.114 C 
HETATM    4  N11 UNL     1     -34.742  12.683  -4.701  1.00 20.00    -0.197 NA
ENDROOT
BRANCH   3   5
HETATM    5  C9  UNL     1     -36.077  15.903  -4.360  1.00 20.00     0.253 C 
BRANCH   5   6
HETATM    6  N12 UNL     1     -35.128  16.686  -3.515  1.00 20.00    -0.069 N 
HETATM    7  C2  UNL     1     -35.606  18.069  -3.167  1.00 20.00     0.239 C 
HETATM    8  C4  UNL     1     -34.646  18.501  -2.065  1.00 20.00     0.012 C 
HETATM    9  C5  UNL     1     -34.265  17.196  -1.334  1.00 20.00     0.012 C 
HETATM   10  C6  UNL     1     -33.409  19.190  -2.643  1.00 20.00     0.012 C 
HETATM   11  C3  UNL     1     -34.800  16.046  -2.192  1.00 20.00     0.239 C 
HETATM   12  C7  UNL     1     -34.837  17.140   0.079  1.00 20.00     0.012 C 
HETATM   13  H31 UNL     1     -34.255  16.787  -4.029  1.00 20.00     0.280 HD
ENDBRANCH   5   6
ENDBRANCH   3   5
TORSDOF 2
ENDMDL
MODEL 4
REMARK VINA RESULT:      -4.4      1.495      5.288
REMARK  2 active torsions:
REMARK  status: ('A' for Active; 'I' for Inactive)
REMARK    1  A    between atoms: C9_9  and  C10_10 
REMARK    2  A    between atoms: C9_9  and  N12_12 
ROOT
HETATM    1  C1  UNL     1     -33.002  18.629  -0.792  1.00 20.00     0.065 C 
HETATM    2  C8  UNL     1     -34.770  17.016  -0.189  1.00 20.00     0.027 C 
HETATM    3  C10 UNL     1     -34.121  17.823  -1.314  1.00 20.00     0.114 C 
HETATM    4  N11 UNL     1     -32.121  19.263  -0.380  1.00 20.00    -0.197 NA
ENDROOT
BRANCH   3   5
HETATM    5  C9  UNL     1     -33.685  16.950  -2.495  1.00 20.00     0.253 C 
BRANCH   5   6
HETATM    6  N12 UNL     1     -34.736  15.963  -2.878  1.00 20.00    -0.069 N 
HETATM    7  C2  UNL     1     -35.565  16.371  -4.065  1.00 20.00     0.239 C 
HETATM    8  C4  UNL     1     -36.299  15.088  -4.435  1.00 20.00     0.012 C 
HETATM    9  C5  UNL     1     -35.333  13.950  -4.040  1.00 20.00     0.012 C 
HETATM   10  C6  UNL     1     -37.626  14.969  -3.683  1.00 20.00     0.012 C 
HETATM   11  C3  UNL     1     -34.209  14.597  -3.227  1.00 20.00     0.239 C 
HETATM   12  C7  UNL     1     -34.780  13.217  -5.259  1.00 20.00     0.012 C 
HETATM   13  H31 UNL     1     -35.370  15.852  -2.089  1.00 20.00     0.280 HD
ENDBRANCH   5   6
ENDBRANCH   3   5
TORSDOF 2
ENDMDL
MODEL 5
REMARK VINA RESULT:      -4.3     13.143     15.251
REMARK  2 active torsions:
REMARK  status: ('A' for Active; 'I' for Inactive)
REMARK    1  A    between atoms: C9_9  and  C10_10 
REMARK    2  A    between atoms: C9_9  and  N12_12 
ROOT
HETATM    1  C1  UNL     1     -42.913   1.867  -4.741  1.00 20.00     0.065 C 
HETATM    2  C8  UNL     1     -43.417   1.516  -2.350  1.00 20.00     0.027 C 
HETATM    3  C10 UNL     1     -42.321   1.659  -3.406  1.00 20.00     0.114 C 
HETATM    4  N11 UNL     1     -43.379   2.030  -5.791  1.00 20.00    -0.197 NA
ENDROOT
BRANCH   3   5
HETATM    5  C9  UNL     1     -41.306   2.754  -3.063  1.00 20.00     0.253 C 
BRANCH   5   6
HETATM    6  N12 UNL     1     -41.857   3.740  -2.087  1.00 20.00    -0.069 N 
HETATM    7  C2  UNL     1     -40.847   4.272  -1.108  1.00 20.00     0.239 C 
HETATM    8  C4  UNL     1     -41.564   5.460  -0.479  1.00 20.00     0.012 C 
HETATM    9  C5  UNL     1     -42.487   6.002  -1.592  1.00 20.00     0.012 C 
HETATM   10  C6  UNL     1     -42.372   5.036   0.749  1.00 20.00     0.012 C 
HETATM   11  C3  UNL     1     -42.466   4.963  -2.717  1.00 20.00     0.239 C 
HETATM   12  C7  UNL     1     -42.037   7.369  -2.096  1.00 20.00     0.012 C 
HETATM   13  H31 UNL     1     -42.587   3.278  -1.548  1.00 20.00     0.280 HD
ENDBRANCH   5   6
ENDBRANCH   3   5
TORSDOF 2
ENDMDL
MODEL 6
REMARK VINA RESULT:      -4.3      2.157      2.666
REMARK  2 active torsions:
REMARK  status: ('A' for Active; 'I' for Inactive)
REMARK    1  A    between atoms: C9_9  and  C10_10 
REMARK    2  A    between atoms: C9_9  and  N12_12 
ROOT
HETATM    1  C1  UNL     1     -34.754  13.745  -5.121  1.00 20.00     0.065 C 
HETATM    2  C8  UNL     1     -34.319  15.093  -7.142  1.00 20.00     0.027 C 
HETATM    3  C10 UNL     1     -34.731  15.113  -5.670  1.00 20.00     0.114 C 
HETATM    4  N11 UNL     1     -34.774  12.667  -4.690  1.00 20.00    -0.197 NA
ENDROOT
BRANCH   3   5
HETATM    5  C9  UNL     1     -33.858  16.045  -4.823  1.00 20.00     0.253 C 
BRANCH   5   6
HETATM    6  N12 UNL     1     -34.501  16.379  -3.518  1.00 20.00    -0.069 N 
HETATM    7  C2  UNL     1     -33.782  17.437  -2.727  1.00 20.00     0.239 C 
HETATM    8  C4  UNL     1     -34.793  17.814  -1.651  1.00 20.00     0.012 C 
HETATM    9  C5  UNL     1     -36.173  17.606  -2.310  1.00 20.00     0.012 C 
HETATM   10  C6  UNL     1     -34.638  16.932  -0.409  1.00 20.00     0.012 C 
HETATM   11  C3  UNL     1     -35.917  16.877  -3.632  1.00 20.00     0.239 C 
HETATM   12  C7  UNL     1     -36.902  18.926  -2.542  1.00 20.00     0.012 C 
HETATM   13  H31 UNL     1     -34.519  15.535  -2.948  1.00 20.00     0.280 HD
ENDBRANCH   5   6
ENDBRANCH   3   5
TORSDOF 2
ENDMDL
MODEL 7
REMARK VINA RESULT:      -4.3      1.779      5.279
REMARK  2 active torsions:
REMARK  status: ('A' for Active; 'I' for Inactive)
REMARK    1  A    between atoms: C9_9  and  C10_10 
REMARK    2  A    between atoms: C9_9  and  N12_12 
ROOT
HETATM    1  C1  UNL     1     -35.029  17.626   0.706  1.00 20.00     0.065 C 
HETATM    2  C8  UNL     1     -32.932  18.491  -0.266  1.00 20.00     0.027 C 
HETATM    3  C10 UNL     1     -34.054  17.460  -0.388  1.00 20.00     0.114 C 
HETATM    4  N11 UNL     1     -35.796  17.757   1.568  1.00 20.00    -0.197 NA
ENDROOT
BRANCH   3   5
HETATM    5  C9  UNL     1     -34.736  17.485  -1.759  1.00 20.00     0.253 C 
BRANCH   5   6
HETATM    6  N12 UNL     1     -34.141  16.488  -2.698  1.00 20.00    -0.069 N 
HETATM    7  C2  UNL     1     -35.072  15.374  -3.089  1.00 20.00     0.239 C 
HETATM    8  C4  UNL     1     -34.357  14.721  -4.265  1.00 20.00     0.012 C 
HETATM    9  C5  UNL     1     -33.583  15.868  -4.948  1.00 20.00     0.012 C 
HETATM   10  C6  UNL     1     -33.406  13.617  -3.796  1.00 20.00     0.012 C 
HETATM   11  C3  UNL     1     -33.664  17.069  -4.002  1.00 20.00     0.239 C 
HETATM   12  C7  UNL     1     -34.154  16.209  -6.321  1.00 20.00     0.012 C 
HETATM   13  H31 UNL     1     -33.336  16.064  -2.240  1.00 20.00     0.280 HD
ENDBRANCH   5   6
ENDBRANCH   3   5
TORSDOF 2
ENDMDL
MODEL 8
REMARK VINA RESULT:      -4.3      1.604      1.907
REMARK  2 active torsions:
REMARK  status: ('A' for Active; 'I' for Inactive)
REMARK    1  A    between atoms: C9_9  and  C10_10 
REMARK    2  A    between atoms: C9_9  and  N12_12 
ROOT
HETATM    1  C1  UNL     1     -33.744  16.114  -5.660  1.00 20.00     0.065 C 
HETATM    2  C8  UNL     1     -32.848  14.967  -3.668  1.00 20.00     0.027 C 
HETATM    3  C10 UNL     1     -33.297  16.300  -4.267  1.00 20.00     0.114 C 
HETATM    4  N11 UNL     1     -34.095  15.968  -6.757  1.00 20.00    -0.197 NA
ENDROOT
BRANCH   3   5
HETATM    5  C9  UNL     1     -34.366  17.000  -3.421  1.00 20.00     0.253 C 
BRANCH   5   6
HETATM    6  N12 UNL     1     -33.870  17.322  -2.050  1.00 20.00    -0.069 N 
HETATM    7  C2  UNL     1     -33.823  18.792  -1.739  1.00 20.00     0.239 C 
HETATM    8  C4  UNL     1     -33.618  18.821  -0.229  1.00 20.00     0.012 C 
HETATM    9  C5  UNL     1     -34.329  17.555   0.294  1.00 20.00     0.012 C 
HETATM   10  C6  UNL     1     -32.130  18.806   0.131  1.00 20.00     0.012 C 
HETATM   11  C3  UNL     1     -34.684  16.717  -0.937  1.00 20.00     0.239 C 
HETATM   12  C7  UNL     1     -35.574  17.891   1.109  1.00 20.00     0.012 C 
HETATM   13  H31 UNL     1     -32.921  16.962  -1.964  1.00 20.00     0.280 HD
ENDBRANCH   5   6
ENDBRANCH   3   5
TORSDOF 2
ENDMDL
MODEL 9
REMARK VINA RESULT:      -4.3      2.779      4.012
REMARK  2 active torsions:
REMARK  status: ('A' for Active; 'I' for Inactive)
REMARK    1  A    between atoms: C9_9  and  C10_10 
REMARK    2  A    between atoms: C9_9  and  N12_12 
ROOT
HETATM    1  C1  UNL     1     -35.434  15.533  -7.191  1.00 20.00     0.065 C 
HETATM    2  C8  UNL     1     -34.604  17.740  -7.918  1.00 20.00     0.027 C 
HETATM    3  C10 UNL     1     -35.655  16.988  -7.102  1.00 20.00     0.114 C 
HETATM    4  N11 UNL     1     -35.261  14.387  -7.262  1.00 20.00    -0.197 NA
ENDROOT
BRANCH   3   5
HETATM    5  C9  UNL     1     -35.724  17.459  -5.645  1.00 20.00     0.253 C 
BRANCH   5   6
HETATM    6  N12 UNL     1     -35.128  16.462  -4.707  1.00 20.00    -0.069 N 
HETATM    7  C2  UNL     1     -33.662  16.661  -4.443  1.00 20.00     0.239 C 
HETATM    8  C4  UNL     1     -33.400  15.760  -3.242  1.00 20.00     0.012 C 
HETATM    9  C5  UNL     1     -34.724  15.758  -2.449  1.00 20.00     0.012 C 
HETATM   10  C6  UNL     1     -33.020  14.344  -3.682  1.00 20.00     0.012 C 
HETATM   11  C3  UNL     1     -35.767  16.433  -3.344  1.00 20.00     0.239 C 
HETATM   12  C7  UNL     1     -34.594  16.483  -1.113  1.00 20.00     0.012 C 
HETATM   13  H31 UNL     1     -35.240  15.537  -5.116  1.00 20.00     0.280 HD
ENDBRANCH   5   6
ENDBRANCH   3   5
TORSDOF 2
ENDMDL
