MODEL 1
REMARK VINA RESULT:      -5.2      0.000      0.000
REMARK  2 active torsions:
REMARK  status: ('A' for Active; 'I' for Inactive)
REMARK    1  A    between atoms: C3_3  and  C11_11 
REMARK    2  A    between atoms: C9_9  and  C11_11 
ROOT
HETATM    1  C1  UNL     1     -33.988   6.522   6.101  1.00 20.00     0.127 C 
HETATM    2  C4  UNL     1     -34.674   5.295   6.650  1.00 20.00     0.078 C 
HETATM    3  C5  UNL     1     -34.499   7.096   4.797  1.00 20.00     0.083 C 
HETATM    4  C6  UNL     1     -34.611   4.106   5.704  1.00 20.00     0.007 C 
HETATM    5  C7  UNL     1     -35.449   4.304   4.445  1.00 20.00     0.001 C 
HETATM    6  C8  UNL     1     -34.724   4.995   3.290  1.00 20.00     0.005 C 
HETATM    7  C9  UNL     1     -34.011   6.334   3.563  1.00 20.00    -0.004 C 
HETATM    8  O12 UNL     1     -33.058   7.055   6.708  1.00 20.00    -0.298 OA
ENDROOT
BRANCH   7   9
HETATM    9  C11 UNL     1     -32.487   6.166   3.555  1.00 20.00     0.037 C 
BRANCH   9  10
HETATM   10  C3  UNL     1     -31.770   7.457   3.274  1.00 20.00    -0.093 C 
HETATM   11  C2  UNL     1     -30.912   7.988   4.160  1.00 20.00     0.014 C 
HETATM   12  C10 UNL     1     -32.088   8.152   1.981  1.00 20.00     0.042 C 
ENDBRANCH   9  10
ENDBRANCH   7   9
TORSDOF 2
ENDMDL
MODEL 2
REMARK VINA RESULT:      -5.0     11.769     13.228
REMARK  2 active torsions:
REMARK  status: ('A' for Active; 'I' for Inactive)
REMARK    1  A    between atoms: C3_3  and  C11_11 
REMARK    2  A    between atoms: C9_9  and  C11_11 
ROOT
HETATM    1  C1  UNL     1     -33.512  16.327  -5.405  1.00 20.00     0.127 C 
HETATM    2  C4  UNL     1     -34.051  15.444  -6.504  1.00 20.00     0.078 C 
HETATM    3  C5  UNL     1     -32.906  15.657  -4.192  1.00 20.00     0.083 C 
HETATM    4  C6  UNL     1     -35.161  14.518  -6.032  1.00 20.00     0.007 C 
HETATM    5  C7  UNL     1     -34.666  13.436  -5.079  1.00 20.00     0.001 C 
HETATM    6  C8  UNL     1     -34.655  13.832  -3.603  1.00 20.00     0.005 C 
HETATM    7  C9  UNL     1     -33.946  15.140  -3.197  1.00 20.00    -0.004 C 
HETATM    8  O12 UNL     1     -33.543  17.554  -5.505  1.00 20.00    -0.298 OA
ENDROOT
BRANCH   7   9
HETATM    9  C11 UNL     1     -34.957  16.224  -2.805  1.00 20.00     0.037 C 
BRANCH   9  10
HETATM   10  C3  UNL     1     -34.455  17.099  -1.689  1.00 20.00    -0.093 C 
HETATM   11  C2  UNL     1     -34.679  16.788  -0.403  1.00 20.00     0.014 C 
HETATM   12  C10 UNL     1     -33.732  18.358  -2.075  1.00 20.00     0.042 C 
ENDBRANCH   9  10
ENDBRANCH   7   9
TORSDOF 2
ENDMDL
MODEL 3
REMARK VINA RESULT:      -4.9     11.737     13.016
REMARK  2 active torsions:
REMARK  status: ('A' for Active; 'I' for Inactive)
REMARK    1  A    between atoms: C3_3  and  C11_11 
REMARK    2  A    between atoms: C9_9  and  C11_11 
ROOT
HETATM    1  C1  UNL     1     -34.700  14.024  -4.181  1.00 20.00     0.127 C 
HETATM    2  C4  UNL     1     -34.447  14.348  -5.633  1.00 20.00     0.078 C 
HETATM    3  C5  UNL     1     -35.803  14.776  -3.469  1.00 20.00     0.083 C 
HETATM    4  C6  UNL     1     -34.072  15.804  -5.861  1.00 20.00     0.007 C 
HETATM    5  C7  UNL     1     -35.230  16.762  -5.601  1.00 20.00     0.001 C 
HETATM    6  C8  UNL     1     -35.361  17.239  -4.155  1.00 20.00     0.005 C 
HETATM    7  C9  UNL     1     -35.398  16.184  -3.031  1.00 20.00    -0.004 C 
HETATM    8  O12 UNL     1     -34.045  13.157  -3.601  1.00 20.00    -0.298 OA
ENDROOT
BRANCH   7   9
HETATM    9  C11 UNL     1     -34.093  16.183  -2.224  1.00 20.00     0.037 C 
BRANCH   9  10
HETATM   10  C3  UNL     1     -34.106  17.200  -1.117  1.00 20.00    -0.093 C 
HETATM   11  C2  UNL     1     -34.918  17.069  -0.056  1.00 20.00     0.014 C 
HETATM   12  C10 UNL     1     -33.203  18.392  -1.268  1.00 20.00     0.042 C 
ENDBRANCH   9  10
ENDBRANCH   7   9
TORSDOF 2
ENDMDL
MODEL 4
REMARK VINA RESULT:      -4.8     11.811     12.672
REMARK  2 active torsions:
REMARK  status: ('A' for Active; 'I' for Inactive)
REMARK    1  A    between atoms: C3_3  and  C11_11 
REMARK    2  A    between atoms: C9_9  and  C11_11 
ROOT
HETATM    1  C1  UNL     1     -36.349  15.965  -4.019  1.00 20.00     0.127 C 
HETATM    2  C4  UNL     1     -36.302  14.635  -4.730  1.00 20.00     0.078 C 
HETATM    3  C5  UNL     1     -35.080  16.787  -3.967  1.00 20.00     0.083 C 
HETATM    4  C6  UNL     1     -35.293  13.672  -4.123  1.00 20.00     0.007 C 
HETATM    5  C7  UNL     1     -33.849  14.111  -4.341  1.00 20.00     0.001 C 
HETATM    6  C8  UNL     1     -33.290  15.044  -3.267  1.00 20.00     0.005 C 
HETATM    7  C9  UNL     1     -34.088  16.312  -2.904  1.00 20.00    -0.004 C 
HETATM    8  O12 UNL     1     -37.396  16.379  -3.517  1.00 20.00    -0.298 OA
ENDROOT
BRANCH   7   9
HETATM    9  C11 UNL     1     -34.742  16.183  -1.523  1.00 20.00     0.037 C 
BRANCH   9  10
HETATM   10  C3  UNL     1     -34.308  17.271  -0.580  1.00 20.00    -0.093 C 
HETATM   11  C2  UNL     1     -33.232  18.031  -0.840  1.00 20.00     0.014 C 
HETATM   12  C10 UNL     1     -35.100  17.442   0.684  1.00 20.00     0.042 C 
ENDBRANCH   9  10
ENDBRANCH   7   9
TORSDOF 2
ENDMDL
MODEL 5
REMARK VINA RESULT:      -4.6     11.818     13.213
REMARK  2 active torsions:
REMARK  status: ('A' for Active; 'I' for Inactive)
REMARK    1  A    between atoms: C3_3  and  C11_11 
REMARK    2  A    between atoms: C9_9  and  C11_11 
ROOT
HETATM    1  C1  UNL     1     -35.076  15.490  -5.813  1.00 20.00     0.127 C 
HETATM    2  C4  UNL     1     -35.172  13.990  -5.685  1.00 20.00     0.078 C 
HETATM    3  C5  UNL     1     -33.740  16.142  -5.528  1.00 20.00     0.083 C 
HETATM    4  C6  UNL     1     -34.837  13.490  -4.288  1.00 20.00     0.007 C 
HETATM    5  C7  UNL     1     -33.365  13.666  -3.931  1.00 20.00     0.001 C 
HETATM    6  C8  UNL     1     -33.009  15.015  -3.308  1.00 20.00     0.005 C 
HETATM    7  C9  UNL     1     -33.445  16.302  -4.036  1.00 20.00    -0.004 C 
HETATM    8  O12 UNL     1     -36.048  16.161  -6.164  1.00 20.00    -0.298 OA
ENDROOT
BRANCH   7   9
HETATM    9  C11 UNL     1     -34.592  17.001  -3.294  1.00 20.00     0.037 C 
BRANCH   9  10
HETATM   10  C3  UNL     1     -34.180  17.488  -1.933  1.00 20.00    -0.093 C 
HETATM   11  C2  UNL     1     -33.394  18.566  -1.784  1.00 20.00     0.014 C 
HETATM   12  C10 UNL     1     -34.646  16.691  -0.747  1.00 20.00     0.042 C 
ENDBRANCH   9  10
ENDBRANCH   7   9
TORSDOF 2
ENDMDL
MODEL 6
REMARK VINA RESULT:      -4.5     11.603     13.645
REMARK  2 active torsions:
REMARK  status: ('A' for Active; 'I' for Inactive)
REMARK    1  A    between atoms: C3_3  and  C11_11 
REMARK    2  A    between atoms: C9_9  and  C11_11 
ROOT
HETATM    1  C1  UNL     1     -34.466  13.533  -4.646  1.00 20.00     0.127 C 
HETATM    2  C4  UNL     1     -33.267  13.986  -3.849  1.00 20.00     0.078 C 
HETATM    3  C5  UNL     1     -34.784  14.270  -5.929  1.00 20.00     0.083 C 
HETATM    4  C6  UNL     1     -33.368  15.435  -3.397  1.00 20.00     0.007 C 
HETATM    5  C7  UNL     1     -33.274  16.425  -4.552  1.00 20.00     0.001 C 
HETATM    6  C8  UNL     1     -34.605  16.761  -5.224  1.00 20.00     0.005 C 
HETATM    7  C9  UNL     1     -35.501  15.602  -5.705  1.00 20.00    -0.004 C 
HETATM    8  O12 UNL     1     -35.149  12.576  -4.277  1.00 20.00    -0.298 OA
ENDROOT
BRANCH   7   9
HETATM    9  C11 UNL     1     -36.739  15.448  -4.813  1.00 20.00     0.037 C 
BRANCH   9  10
HETATM   10  C3  UNL     1     -38.007  15.323  -5.611  1.00 20.00    -0.093 C 
HETATM   11  C2  UNL     1     -38.056  15.674  -6.905  1.00 20.00     0.014 C 
HETATM   12  C10 UNL     1     -39.229  14.831  -4.888  1.00 20.00     0.042 C 
ENDBRANCH   9  10
ENDBRANCH   7   9
TORSDOF 2
ENDMDL
MODEL 7
REMARK VINA RESULT:      -4.4      9.832     11.628
REMARK  2 active torsions:
REMARK  status: ('A' for Active; 'I' for Inactive)
REMARK    1  A    between atoms: C3_3  and  C11_11 
REMARK    2  A    between atoms: C9_9  and  C11_11 
ROOT
HETATM    1  C1  UNL     1     -42.853   6.402  -2.528  1.00 20.00     0.127 C 
HETATM    2  C4  UNL     1     -42.065   7.465  -1.803  1.00 20.00     0.078 C 
HETATM    3  C5  UNL     1     -43.412   5.255  -1.713  1.00 20.00     0.083 C 
HETATM    4  C6  UNL     1     -40.836   6.916  -1.095  1.00 20.00     0.007 C 
HETATM    5  C7  UNL     1     -41.184   6.025   0.093  1.00 20.00     0.001 C 
HETATM    6  C8  UNL     1     -41.392   4.549  -0.245  1.00 20.00     0.005 C 
HETATM    7  C9  UNL     1     -42.374   4.184  -1.376  1.00 20.00    -0.004 C 
HETATM    8  O12 UNL     1     -43.056   6.478  -3.740  1.00 20.00    -0.298 OA
ENDROOT
BRANCH   7   9
HETATM    9  C11 UNL     1     -41.630   3.689  -2.623  1.00 20.00     0.037 C 
BRANCH   9  10
HETATM   10  C3  UNL     1     -42.105   2.336  -3.074  1.00 20.00    -0.093 C 
HETATM   11  C2  UNL     1     -43.234   1.795  -2.590  1.00 20.00     0.014 C 
HETATM   12  C10 UNL     1     -41.240   1.595  -4.054  1.00 20.00     0.042 C 
ENDBRANCH   9  10
ENDBRANCH   7   9
TORSDOF 2
ENDMDL
MODEL 8
REMARK VINA RESULT:      -4.2     11.652     13.185
REMARK  2 active torsions:
REMARK  status: ('A' for Active; 'I' for Inactive)
REMARK    1  A    between atoms: C3_3  and  C11_11 
REMARK    2  A    between atoms: C9_9  and  C11_11 
ROOT
HETATM    1  C1  UNL     1     -35.435  16.285  -2.905  1.00 20.00     0.127 C 
HETATM    2  C4  UNL     1     -34.009  15.986  -2.513  1.00 20.00     0.078 C 
HETATM    3  C5  UNL     1     -36.342  15.117  -3.226  1.00 20.00     0.083 C 
HETATM    4  C6  UNL     1     -33.240  15.240  -3.593  1.00 20.00     0.007 C 
HETATM    5  C7  UNL     1     -33.736  13.812  -3.796  1.00 20.00     0.001 C 
HETATM    6  C8  UNL     1     -34.879  13.663  -4.800  1.00 20.00     0.005 C 
HETATM    7  C9  UNL     1     -36.130  14.547  -4.629  1.00 20.00    -0.004 C 
HETATM    8  O12 UNL     1     -35.855  17.443  -2.939  1.00 20.00    -0.298 OA
ENDROOT
BRANCH   7   9
HETATM    9  C11 UNL     1     -36.196  15.635  -5.709  1.00 20.00     0.037 C 
BRANCH   9  10
HETATM   10  C3  UNL     1     -35.285  15.345  -6.870  1.00 20.00    -0.093 C 
HETATM   11  C2  UNL     1     -34.089  15.942  -6.985  1.00 20.00     0.014 C 
HETATM   12  C10 UNL     1     -35.789  14.393  -7.917  1.00 20.00     0.042 C 
ENDBRANCH   9  10
ENDBRANCH   7   9
TORSDOF 2
ENDMDL
MODEL 9
REMARK VINA RESULT:      -4.1     11.947     13.985
REMARK  2 active torsions:
REMARK  status: ('A' for Active; 'I' for Inactive)
REMARK    1  A    between atoms: C3_3  and  C11_11 
REMARK    2  A    between atoms: C9_9  and  C11_11 
ROOT
HETATM    1  C1  UNL     1     -34.222  15.439  -2.912  1.00 20.00     0.127 C 
HETATM    2  C4  UNL     1     -34.469  16.243  -1.660  1.00 20.00     0.078 C 
HETATM    3  C5  UNL     1     -33.137  15.911  -3.855  1.00 20.00     0.083 C 
HETATM    4  C6  UNL     1     -34.867  17.683  -1.947  1.00 20.00     0.007 C 
HETATM    5  C7  UNL     1     -33.727  18.507  -2.539  1.00 20.00     0.001 C 
HETATM    6  C8  UNL     1     -33.616  18.453  -4.062  1.00 20.00     0.005 C 
HETATM    7  C9  UNL     1     -33.570  17.074  -4.750  1.00 20.00    -0.004 C 
HETATM    8  O12 UNL     1     -34.866  14.415  -3.147  1.00 20.00    -0.298 OA
ENDROOT
BRANCH   7   9
HETATM    9  C11 UNL     1     -34.880  16.776  -5.490  1.00 20.00     0.037 C 
BRANCH   9  10
HETATM   10  C3  UNL     1     -34.648  16.343  -6.911  1.00 20.00    -0.093 C 
HETATM   11  C2  UNL     1     -34.592  17.235  -7.912  1.00 20.00     0.014 C 
HETATM   12  C10 UNL     1     -34.527  14.868  -7.169  1.00 20.00     0.042 C 
ENDBRANCH   9  10
ENDBRANCH   7   9
TORSDOF 2
ENDMDL
