MODEL 1
REMARK VINA RESULT:      -4.5      0.000      0.000
REMARK  2 active torsions:
REMARK  status: ('A' for Active; 'I' for Inactive)
REMARK    1  A    between atoms: C2_2  and  C9_9 
REMARK    2  A    between atoms: C6_6  and  C9_9 
ROOT
HETATM    1  C3  UNL     1     -36.021  16.077  -3.228  1.00 20.00     0.006 C 
HETATM    2  C4  UNL     1     -36.626  14.776  -3.739  1.00 20.00     0.016 C 
HETATM    3  C5  UNL     1     -34.241  14.434  -3.326  1.00 20.00     0.020 C 
HETATM    4  C6  UNL     1     -34.776  15.603  -2.484  1.00 20.00    -0.010 C 
HETATM    5  C7  UNL     1     -35.420  13.955  -4.176  1.00 20.00     0.058 C 
HETATM    6 BR10 UNL     1     -35.052  14.278  -6.070  1.00 20.00    -0.091 Br
ENDROOT
BRANCH   4   7
HETATM    7  C9  UNL     1     -33.755  16.707  -2.270  1.00 20.00     0.037 C 
BRANCH   7   8
HETATM    8  C2  UNL     1     -33.893  17.382  -0.927  1.00 20.00    -0.093 C 
HETATM    9  C1  UNL     1     -34.841  17.013  -0.050  1.00 20.00     0.014 C 
HETATM   10  C8  UNL     1     -32.946  18.508  -0.627  1.00 20.00     0.042 C 
ENDBRANCH   7   8
ENDBRANCH   4   7
TORSDOF 2
ENDMDL
MODEL 2
REMARK VINA RESULT:      -4.4      0.801      1.435
REMARK  2 active torsions:
REMARK  status: ('A' for Active; 'I' for Inactive)
REMARK    1  A    between atoms: C2_2  and  C9_9 
REMARK    2  A    between atoms: C6_6  and  C9_9 
ROOT
HETATM    1  C3  UNL     1     -35.559  15.615  -3.114  1.00 20.00     0.006 C 
HETATM    2  C4  UNL     1     -35.433  14.257  -3.792  1.00 20.00     0.016 C 
HETATM    3  C5  UNL     1     -33.246  15.352  -3.793  1.00 20.00     0.020 C 
HETATM    4  C6  UNL     1     -34.130  15.903  -2.663  1.00 20.00    -0.010 C 
HETATM    5  C7  UNL     1     -34.115  14.345  -4.552  1.00 20.00     0.058 C 
HETATM    6 BR10 UNL     1     -34.443  14.985  -6.372  1.00 20.00    -0.091 Br
ENDROOT
BRANCH   4   7
HETATM    7  C9  UNL     1     -33.884  17.373  -2.371  1.00 20.00     0.037 C 
BRANCH   7   8
HETATM    8  C2  UNL     1     -33.785  17.670  -0.894  1.00 20.00    -0.093 C 
HETATM    9  C1  UNL     1     -32.792  18.424  -0.395  1.00 20.00     0.014 C 
HETATM   10  C8  UNL     1     -34.824  17.056  -0.002  1.00 20.00     0.042 C 
ENDBRANCH   7   8
ENDBRANCH   4   7
TORSDOF 2
ENDMDL
MODEL 3
REMARK VINA RESULT:      -4.4      2.834      4.872
REMARK  2 active torsions:
REMARK  status: ('A' for Active; 'I' for Inactive)
REMARK    1  A    between atoms: C2_2  and  C9_9 
REMARK    2  A    between atoms: C6_6  and  C9_9 
ROOT
HETATM    1  C3  UNL     1     -34.578  16.718  -0.548  1.00 20.00     0.006 C 
HETATM    2  C4  UNL     1     -34.796  18.078   0.100  1.00 20.00     0.016 C 
HETATM    3  C5  UNL     1     -33.623  18.389  -2.023  1.00 20.00     0.020 C 
HETATM    4  C6  UNL     1     -34.409  17.068  -2.024  1.00 20.00    -0.010 C 
HETATM    5  C7  UNL     1     -33.824  18.995  -0.632  1.00 20.00     0.058 C 
HETATM    6 BR10 UNL     1     -32.119  19.050   0.326  1.00 20.00    -0.091 Br
ENDROOT
BRANCH   4   7
HETATM    7  C9  UNL     1     -33.732  15.967  -2.822  1.00 20.00     0.037 C 
BRANCH   7   8
HETATM    8  C2  UNL     1     -34.696  14.903  -3.290  1.00 20.00    -0.093 C 
HETATM    9  C1  UNL     1     -34.275  13.674  -3.627  1.00 20.00     0.014 C 
HETATM   10  C8  UNL     1     -36.143  15.291  -3.397  1.00 20.00     0.042 C 
ENDBRANCH   7   8
ENDBRANCH   4   7
TORSDOF 2
ENDMDL
MODEL 4
REMARK VINA RESULT:      -4.2     10.872     11.618
REMARK  2 active torsions:
REMARK  status: ('A' for Active; 'I' for Inactive)
REMARK    1  A    between atoms: C2_2  and  C9_9 
REMARK    2  A    between atoms: C6_6  and  C9_9 
ROOT
HETATM    1  C3  UNL     1     -34.327   5.601   2.876  1.00 20.00     0.006 C 
HETATM    2  C4  UNL     1     -35.460   5.323   3.855  1.00 20.00     0.016 C 
HETATM    3  C5  UNL     1     -33.739   6.644   4.984  1.00 20.00     0.020 C 
HETATM    4  C6  UNL     1     -33.669   6.847   3.462  1.00 20.00    -0.010 C 
HETATM    5  C7  UNL     1     -34.846   5.614   5.219  1.00 20.00     0.058 C 
HETATM    6 BR10 UNL     1     -34.084   3.973   5.965  1.00 20.00    -0.091 Br
ENDROOT
BRANCH   4   7
HETATM    7  C9  UNL     1     -32.257   7.070   2.950  1.00 20.00     0.037 C 
BRANCH   7   8
HETATM    8  C2  UNL     1     -32.154   8.240   2.001  1.00 20.00    -0.093 C 
HETATM    9  C1  UNL     1     -31.512   8.136   0.826  1.00 20.00     0.014 C 
HETATM   10  C8  UNL     1     -32.772   9.535   2.443  1.00 20.00     0.042 C 
ENDBRANCH   7   8
ENDBRANCH   4   7
TORSDOF 2
ENDMDL
MODEL 5
REMARK VINA RESULT:      -4.2      2.730      4.902
REMARK  2 active torsions:
REMARK  status: ('A' for Active; 'I' for Inactive)
REMARK    1  A    between atoms: C2_2  and  C9_9 
REMARK    2  A    between atoms: C6_6  and  C9_9 
ROOT
HETATM    1  C3  UNL     1     -33.621  18.157  -2.139  1.00 20.00     0.006 C 
HETATM    2  C4  UNL     1     -33.311  18.727  -0.761  1.00 20.00     0.016 C 
HETATM    3  C5  UNL     1     -34.672  16.713  -0.500  1.00 20.00     0.020 C 
HETATM    4  C6  UNL     1     -33.920  16.691  -1.840  1.00 20.00    -0.010 C 
HETATM    5  C7  UNL     1     -34.326  18.053   0.154  1.00 20.00     0.058 C 
HETATM    6 BR10 UNL     1     -35.932  19.163   0.291  1.00 20.00    -0.091 Br
ENDROOT
BRANCH   4   7
HETATM    7  C9  UNL     1     -34.695  16.004  -2.951  1.00 20.00     0.037 C 
BRANCH   7   8
HETATM    8  C2  UNL     1     -33.988  14.783  -3.491  1.00 20.00    -0.093 C 
HETATM    9  C1  UNL     1     -32.651  14.742  -3.609  1.00 20.00     0.014 C 
HETATM   10  C8  UNL     1     -34.848  13.631  -3.923  1.00 20.00     0.042 C 
ENDBRANCH   7   8
ENDBRANCH   4   7
TORSDOF 2
ENDMDL
MODEL 6
REMARK VINA RESULT:      -4.1      1.273      2.038
REMARK  2 active torsions:
REMARK  status: ('A' for Active; 'I' for Inactive)
REMARK    1  A    between atoms: C2_2  and  C9_9 
REMARK    2  A    between atoms: C6_6  and  C9_9 
ROOT
HETATM    1  C3  UNL     1     -33.409  16.200  -3.340  1.00 20.00     0.006 C 
HETATM    2  C4  UNL     1     -33.871  16.029  -4.781  1.00 20.00     0.016 C 
HETATM    3  C5  UNL     1     -35.759  15.607  -3.286  1.00 20.00     0.020 C 
HETATM    4  C6  UNL     1     -34.709  16.495  -2.599  1.00 20.00    -0.010 C 
HETATM    5  C7  UNL     1     -35.181  15.260  -4.659  1.00 20.00     0.058 C 
HETATM    6 BR10 UNL     1     -34.830  13.338  -4.769  1.00 20.00    -0.091 Br
ENDROOT
BRANCH   4   7
HETATM    7  C9  UNL     1     -34.608  16.258  -1.102  1.00 20.00     0.037 C 
BRANCH   7   8
HETATM    8  C2  UNL     1     -34.369  17.528  -0.321  1.00 20.00    -0.093 C 
HETATM    9  C1  UNL     1     -33.254  18.256  -0.492  1.00 20.00     0.014 C 
HETATM   10  C8  UNL     1     -35.416  17.922   0.680  1.00 20.00     0.042 C 
ENDBRANCH   7   8
ENDBRANCH   4   7
TORSDOF 2
ENDMDL
MODEL 7
REMARK VINA RESULT:      -3.9     12.693     14.725
REMARK  2 active torsions:
REMARK  status: ('A' for Active; 'I' for Inactive)
REMARK    1  A    between atoms: C2_2  and  C9_9 
REMARK    2  A    between atoms: C6_6  and  C9_9 
ROOT
HETATM    1  C3  UNL     1     -40.965   4.403  -1.442  1.00 20.00     0.006 C 
HETATM    2  C4  UNL     1     -41.035   5.244  -0.175  1.00 20.00     0.016 C 
HETATM    3  C5  UNL     1     -43.269   5.102  -1.158  1.00 20.00     0.020 C 
HETATM    4  C6  UNL     1     -42.401   3.915  -1.605  1.00 20.00    -0.010 C 
HETATM    5  C7  UNL     1     -42.362   5.983  -0.295  1.00 20.00     0.058 C 
HETATM    6 BR10 UNL     1     -42.079   7.710  -1.170  1.00 20.00    -0.091 Br
ENDROOT
BRANCH   4   7
HETATM    7  C9  UNL     1     -42.712   3.442  -3.015  1.00 20.00     0.037 C 
BRANCH   7   8
HETATM    8  C2  UNL     1     -42.417   1.975  -3.220  1.00 20.00    -0.093 C 
HETATM    9  C1  UNL     1     -43.194   1.022  -2.680  1.00 20.00     0.014 C 
HETATM   10  C8  UNL     1     -41.199   1.629  -4.025  1.00 20.00     0.042 C 
ENDBRANCH   7   8
ENDBRANCH   4   7
TORSDOF 2
ENDMDL
MODEL 8
REMARK VINA RESULT:      -3.9      2.204      4.464
REMARK  2 active torsions:
REMARK  status: ('A' for Active; 'I' for Inactive)
REMARK    1  A    between atoms: C2_2  and  C9_9 
REMARK    2  A    between atoms: C6_6  and  C9_9 
ROOT
HETATM    1  C3  UNL     1     -33.921  15.207  -3.116  1.00 20.00     0.006 C 
HETATM    2  C4  UNL     1     -34.782  15.959  -2.109  1.00 20.00     0.016 C 
HETATM    3  C5  UNL     1     -36.223  15.046  -3.862  1.00 20.00     0.020 C 
HETATM    4  C6  UNL     1     -34.915  14.245  -3.761  1.00 20.00    -0.010 C 
HETATM    5  C7  UNL     1     -36.098  16.182  -2.844  1.00 20.00     0.058 C 
HETATM    6 BR10 UNL     1     -36.053  17.906  -3.771  1.00 20.00    -0.091 Br
ENDROOT
BRANCH   4   7
HETATM    7  C9  UNL     1     -34.437  13.705  -5.097  1.00 20.00     0.037 C 
BRANCH   7   8
HETATM    8  C2  UNL     1     -34.692  14.658  -6.241  1.00 20.00    -0.093 C 
HETATM    9  C1  UNL     1     -35.579  14.372  -7.208  1.00 20.00     0.014 C 
HETATM   10  C8  UNL     1     -33.885  15.923  -6.269  1.00 20.00     0.042 C 
ENDBRANCH   7   8
ENDBRANCH   4   7
TORSDOF 2
ENDMDL
MODEL 9
REMARK VINA RESULT:      -3.9      2.201      3.321
REMARK  2 active torsions:
REMARK  status: ('A' for Active; 'I' for Inactive)
REMARK    1  A    between atoms: C2_2  and  C9_9 
REMARK    2  A    between atoms: C6_6  and  C9_9 
ROOT
HETATM    1  C3  UNL     1     -34.941  14.132  -5.943  1.00 20.00     0.006 C 
HETATM    2  C4  UNL     1     -34.500  14.954  -7.147  1.00 20.00     0.016 C 
HETATM    3  C5  UNL     1     -33.678  16.026  -5.108  1.00 20.00     0.020 C 
HETATM    4  C6  UNL     1     -33.928  14.528  -4.872  1.00 20.00    -0.010 C 
HETATM    5  C7  UNL     1     -34.111  16.301  -6.550  1.00 20.00     0.058 C 
HETATM    6 BR10 UNL     1     -35.657  17.501  -6.565  1.00 20.00    -0.091 Br
ENDROOT
BRANCH   4   7
HETATM    7  C9  UNL     1     -34.399  14.212  -3.463  1.00 20.00     0.037 C 
BRANCH   7   8
HETATM    8  C2  UNL     1     -35.290  15.288  -2.887  1.00 20.00    -0.093 C 
HETATM    9  C1  UNL     1     -36.542  15.475  -3.335  1.00 20.00     0.014 C 
HETATM   10  C8  UNL     1     -34.703  16.161  -1.817  1.00 20.00     0.042 C 
ENDBRANCH   7   8
ENDBRANCH   4   7
TORSDOF 2
ENDMDL
