MODEL 1
REMARK VINA RESULT:      -4.4      0.000      0.000
REMARK  4 active torsions:
REMARK  status: ('A' for Active; 'I' for Inactive)
REMARK    1  A    between atoms: C2_2  and  C8_8 
REMARK    2  A    between atoms: C6_6  and  C9_9 
REMARK    3  A    between atoms: C8_8  and  C9_9 
REMARK    4  A    between atoms: C9_9  and  O11_11 
ROOT
HETATM    1  C9  UNL     1     -35.125  14.077  -4.326  1.00 20.00     0.151 C 
ENDROOT
BRANCH   1   2
HETATM    2  C6  UNL     1     -34.469  14.317  -5.678  1.00 20.00     0.150 C 
HETATM    3  C4  UNL     1     -35.473  14.393  -6.819  1.00 20.00     0.036 C 
HETATM    4  C3  UNL     1     -35.769  15.869  -6.904  1.00 20.00     0.029 C 
HETATM    5  C5  UNL     1     -34.426  16.476  -6.567  1.00 20.00     0.168 C 
HETATM    6  O10 UNL     1     -33.796  15.587  -5.635  1.00 20.00    -0.383 OA
ENDBRANCH   1   2
BRANCH   1   7
HETATM    7  C8  UNL     1     -34.322  14.747  -3.202  1.00 20.00     0.067 C 
BRANCH   7   8
HETATM    8  C2  UNL     1     -35.080  15.847  -2.491  1.00 20.00    -0.091 C 
HETATM    9  C1  UNL     1     -34.629  16.382  -1.345  1.00 20.00     0.014 C 
HETATM   10  C7  UNL     1     -36.338  16.343  -3.143  1.00 20.00     0.042 C 
ENDBRANCH   7   8
ENDBRANCH   1   7
BRANCH   1  11
HETATM   11  O11 UNL     1     -35.166  12.666  -4.119  1.00 20.00    -0.393 OA
HETATM   12  H27 UNL     1     -34.439  12.455  -3.513  1.00 20.00     0.210 HD
ENDBRANCH   1  11
TORSDOF 4
ENDMDL
MODEL 2
REMARK VINA RESULT:      -4.3      1.765      2.492
REMARK  4 active torsions:
REMARK  status: ('A' for Active; 'I' for Inactive)
REMARK    1  A    between atoms: C2_2  and  C8_8 
REMARK    2  A    between atoms: C6_6  and  C9_9 
REMARK    3  A    between atoms: C8_8  and  C9_9 
REMARK    4  A    between atoms: C9_9  and  O11_11 
ROOT
HETATM    1  C9  UNL     1     -33.311  15.046  -3.584  1.00 20.00     0.151 C 
ENDROOT
BRANCH   1   2
HETATM    2  C6  UNL     1     -34.090  14.412  -4.728  1.00 20.00     0.150 C 
HETATM    3  C4  UNL     1     -35.116  13.394  -4.254  1.00 20.00     0.036 C 
HETATM    4  C3  UNL     1     -36.366  14.225  -4.105  1.00 20.00     0.029 C 
HETATM    5  C5  UNL     1     -36.224  15.208  -5.245  1.00 20.00     0.168 C 
HETATM    6  O10 UNL     1     -34.820  15.449  -5.407  1.00 20.00    -0.383 OA
ENDBRANCH   1   2
BRANCH   1   7
HETATM    7  C8  UNL     1     -33.510  16.568  -3.564  1.00 20.00     0.067 C 
BRANCH   7   8
HETATM    8  C2  UNL     1     -33.943  17.104  -2.217  1.00 20.00    -0.091 C 
HETATM    9  C1  UNL     1     -34.648  16.352  -1.357  1.00 20.00     0.014 C 
HETATM   10  C7  UNL     1     -33.515  18.500  -1.866  1.00 20.00     0.042 C 
ENDBRANCH   7   8
ENDBRANCH   1   7
BRANCH   1  11
HETATM   11  O11 UNL     1     -31.934  14.737  -3.786  1.00 20.00    -0.393 OA
HETATM   12  H27 UNL     1     -31.811  14.641  -4.744  1.00 20.00     0.210 HD
ENDBRANCH   1  11
TORSDOF 4
ENDMDL
MODEL 3
REMARK VINA RESULT:      -4.2      1.798      3.882
REMARK  4 active torsions:
REMARK  status: ('A' for Active; 'I' for Inactive)
REMARK    1  A    between atoms: C2_2  and  C8_8 
REMARK    2  A    between atoms: C6_6  and  C9_9 
REMARK    3  A    between atoms: C8_8  and  C9_9 
REMARK    4  A    between atoms: C9_9  and  O11_11 
ROOT
HETATM    1  C9  UNL     1     -36.424  15.019  -3.512  1.00 20.00     0.151 C 
ENDROOT
BRANCH   1   2
HETATM    2  C6  UNL     1     -35.926  16.316  -2.890  1.00 20.00     0.150 C 
HETATM    3  C4  UNL     1     -34.830  16.096  -1.859  1.00 20.00     0.036 C 
HETATM    4  C3  UNL     1     -33.571  16.220  -2.679  1.00 20.00     0.029 C 
HETATM    5  C5  UNL     1     -33.955  17.287  -3.679  1.00 20.00     0.168 C 
HETATM    6  O10 UNL     1     -35.357  17.128  -3.932  1.00 20.00    -0.383 OA
ENDBRANCH   1   2
BRANCH   1   7
HETATM    7  C8  UNL     1     -36.370  15.091  -5.044  1.00 20.00     0.067 C 
BRANCH   7   8
HETATM    8  C2  UNL     1     -35.198  14.346  -5.644  1.00 20.00    -0.091 C 
HETATM    9  C1  UNL     1     -34.680  14.694  -6.833  1.00 20.00     0.014 C 
HETATM   10  C7  UNL     1     -34.612  13.226  -4.835  1.00 20.00     0.042 C 
ENDBRANCH   7   8
ENDBRANCH   1   7
BRANCH   1  11
HETATM   11  O11 UNL     1     -37.771  14.830  -3.081  1.00 20.00    -0.393 OA
HETATM   12  H27 UNL     1     -38.193  15.702  -3.109  1.00 20.00     0.210 HD
ENDBRANCH   1  11
TORSDOF 4
ENDMDL
MODEL 4
REMARK VINA RESULT:      -4.1      1.542      3.578
REMARK  4 active torsions:
REMARK  status: ('A' for Active; 'I' for Inactive)
REMARK    1  A    between atoms: C2_2  and  C8_8 
REMARK    2  A    between atoms: C6_6  and  C9_9 
REMARK    3  A    between atoms: C8_8  and  C9_9 
REMARK    4  A    between atoms: C9_9  and  O11_11 
ROOT
HETATM    1  C9  UNL     1     -34.931  13.772  -4.665  1.00 20.00     0.151 C 
ENDROOT
BRANCH   1   2
HETATM    2  C6  UNL     1     -34.439  14.598  -3.484  1.00 20.00     0.150 C 
HETATM    3  C4  UNL     1     -33.016  15.103  -3.666  1.00 20.00     0.036 C 
HETATM    4  C3  UNL     1     -33.222  16.459  -4.295  1.00 20.00     0.029 C 
HETATM    5  C5  UNL     1     -34.487  16.929  -3.614  1.00 20.00     0.168 C 
HETATM    6  O10 UNL     1     -35.279  15.760  -3.365  1.00 20.00    -0.383 OA
ENDBRANCH   1   2
BRANCH   1   7
HETATM    7  C8  UNL     1     -36.102  14.468  -5.370  1.00 20.00     0.067 C 
BRANCH   7   8
HETATM    8  C2  UNL     1     -35.825  14.800  -6.820  1.00 20.00    -0.091 C 
HETATM    9  C1  UNL     1     -34.571  14.873  -7.296  1.00 20.00     0.014 C 
HETATM   10  C7  UNL     1     -37.013  15.004  -7.715  1.00 20.00     0.042 C 
ENDBRANCH   7   8
ENDBRANCH   1   7
BRANCH   1  11
HETATM   11  O11 UNL     1     -35.352  12.509  -4.153  1.00 20.00    -0.393 OA
HETATM   12  H27 UNL     1     -34.545  12.023  -3.922  1.00 20.00     0.210 HD
ENDBRANCH   1  11
TORSDOF 4
ENDMDL
MODEL 5
REMARK VINA RESULT:      -4.1      1.758      2.950
REMARK  4 active torsions:
REMARK  status: ('A' for Active; 'I' for Inactive)
REMARK    1  A    between atoms: C2_2  and  C8_8 
REMARK    2  A    between atoms: C6_6  and  C9_9 
REMARK    3  A    between atoms: C8_8  and  C9_9 
REMARK    4  A    between atoms: C9_9  and  O11_11 
ROOT
HETATM    1  C9  UNL     1     -35.499  16.146  -2.961  1.00 20.00     0.151 C 
ENDROOT
BRANCH   1   2
HETATM    2  C6  UNL     1     -34.751  15.749  -4.226  1.00 20.00     0.150 C 
HETATM    3  C4  UNL     1     -33.363  15.193  -3.945  1.00 20.00     0.036 C 
HETATM    4  C3  UNL     1     -33.612  13.709  -3.845  1.00 20.00     0.029 C 
HETATM    5  C5  UNL     1     -34.701  13.507  -4.876  1.00 20.00     0.168 C 
HETATM    6  O10 UNL     1     -35.491  14.702  -4.879  1.00 20.00    -0.383 OA
ENDBRANCH   1   2
BRANCH   1   7
HETATM    7  C8  UNL     1     -34.618  15.947  -1.720  1.00 20.00     0.067 C 
BRANCH   7   8
HETATM    8  C2  UNL     1     -34.426  17.208  -0.906  1.00 20.00    -0.091 C 
HETATM    9  C1  UNL     1     -34.966  17.344   0.316  1.00 20.00     0.014 C 
HETATM   10  C7  UNL     1     -33.572  18.287  -1.507  1.00 20.00     0.042 C 
ENDBRANCH   7   8
ENDBRANCH   1   7
BRANCH   1  11
HETATM   11  O11 UNL     1     -36.656  15.316  -2.874  1.00 20.00    -0.393 OA
HETATM   12  H27 UNL     1     -37.280  15.645  -3.539  1.00 20.00     0.210 HD
ENDBRANCH   1  11
TORSDOF 4
ENDMDL
MODEL 6
REMARK VINA RESULT:      -4.1      1.391      3.787
REMARK  4 active torsions:
REMARK  status: ('A' for Active; 'I' for Inactive)
REMARK    1  A    between atoms: C2_2  and  C8_8 
REMARK    2  A    between atoms: C6_6  and  C9_9 
REMARK    3  A    between atoms: C8_8  and  C9_9 
REMARK    4  A    between atoms: C9_9  and  O11_11 
ROOT
HETATM    1  C9  UNL     1     -33.880  14.312  -4.311  1.00 20.00     0.151 C 
ENDROOT
BRANCH   1   2
HETATM    2  C6  UNL     1     -34.705  14.642  -3.075  1.00 20.00     0.150 C 
HETATM    3  C4  UNL     1     -34.288  15.948  -2.415  1.00 20.00     0.036 C 
HETATM    4  C3  UNL     1     -35.199  16.957  -3.069  1.00 20.00     0.029 C 
HETATM    5  C5  UNL     1     -36.472  16.159  -3.243  1.00 20.00     0.168 C 
HETATM    6  O10 UNL     1     -36.077  14.801  -3.476  1.00 20.00    -0.383 OA
ENDBRANCH   1   2
BRANCH   1   7
HETATM    7  C8  UNL     1     -34.786  13.892  -5.477  1.00 20.00     0.067 C 
BRANCH   7   8
HETATM    8  C2  UNL     1     -34.762  14.860  -6.640  1.00 20.00    -0.091 C 
HETATM    9  C1  UNL     1     -34.068  16.008  -6.584  1.00 20.00     0.014 C 
HETATM   10  C7  UNL     1     -35.516  14.463  -7.876  1.00 20.00     0.042 C 
ENDBRANCH   7   8
ENDBRANCH   1   7
BRANCH   1  11
HETATM   11  O11 UNL     1     -33.006  13.240  -3.964  1.00 20.00    -0.393 OA
HETATM   12  H27 UNL     1     -33.159  13.053  -3.025  1.00 20.00     0.210 HD
ENDBRANCH   1  11
TORSDOF 4
ENDMDL
MODEL 7
REMARK VINA RESULT:      -4.1      1.430      2.040
REMARK  4 active torsions:
REMARK  status: ('A' for Active; 'I' for Inactive)
REMARK    1  A    between atoms: C2_2  and  C8_8 
REMARK    2  A    between atoms: C6_6  and  C9_9 
REMARK    3  A    between atoms: C8_8  and  C9_9 
REMARK    4  A    between atoms: C9_9  and  O11_11 
ROOT
HETATM    1  C9  UNL     1     -36.322  14.820  -4.319  1.00 20.00     0.151 C 
ENDROOT
BRANCH   1   2
HETATM    2  C6  UNL     1     -36.384  14.852  -5.839  1.00 20.00     0.150 C 
HETATM    3  C4  UNL     1     -36.286  16.260  -6.407  1.00 20.00     0.036 C 
HETATM    4  C3  UNL     1     -34.805  16.420  -6.646  1.00 20.00     0.029 C 
HETATM    5  C5  UNL     1     -34.405  15.024  -7.067  1.00 20.00     0.168 C 
HETATM    6  O10 UNL     1     -35.258  14.119  -6.354  1.00 20.00    -0.383 OA
ENDBRANCH   1   2
BRANCH   1   7
HETATM    7  C8  UNL     1     -35.073  14.067  -3.838  1.00 20.00     0.067 C 
BRANCH   7   8
HETATM    8  C2  UNL     1     -34.016  14.970  -3.240  1.00 20.00    -0.091 C 
HETATM    9  C1  UNL     1     -32.730  14.891  -3.619  1.00 20.00     0.014 C 
HETATM   10  C7  UNL     1     -34.473  15.985  -2.233  1.00 20.00     0.042 C 
ENDBRANCH   7   8
ENDBRANCH   1   7
BRANCH   1  11
HETATM   11  O11 UNL     1     -37.497  14.155  -3.860  1.00 20.00    -0.393 OA
HETATM   12  H27 UNL     1     -37.547  13.318  -4.347  1.00 20.00     0.210 HD
ENDBRANCH   1  11
TORSDOF 4
ENDMDL
MODEL 8
REMARK VINA RESULT:      -4.0      1.806      1.975
REMARK  4 active torsions:
REMARK  status: ('A' for Active; 'I' for Inactive)
REMARK    1  A    between atoms: C2_2  and  C8_8 
REMARK    2  A    between atoms: C6_6  and  C9_9 
REMARK    3  A    between atoms: C8_8  and  C9_9 
REMARK    4  A    between atoms: C9_9  and  O11_11 
ROOT
HETATM    1  C9  UNL     1     -33.476  15.787  -4.457  1.00 20.00     0.151 C 
ENDROOT
BRANCH   1   2
HETATM    2  C6  UNL     1     -33.758  16.390  -5.826  1.00 20.00     0.150 C 
HETATM    3  C4  UNL     1     -34.254  15.366  -6.835  1.00 20.00     0.036 C 
HETATM    4  C3  UNL     1     -35.753  15.454  -6.690  1.00 20.00     0.029 C 
HETATM    5  C5  UNL     1     -35.952  16.928  -6.415  1.00 20.00     0.168 C 
HETATM    6  O10 UNL     1     -34.802  17.369  -5.682  1.00 20.00    -0.383 OA
ENDBRANCH   1   2
BRANCH   1   7
HETATM    7  C8  UNL     1     -33.800  16.788  -3.340  1.00 20.00     0.067 C 
BRANCH   7   8
HETATM    8  C2  UNL     1     -34.812  16.274  -2.340  1.00 20.00    -0.091 C 
HETATM    9  C1  UNL     1     -34.688  16.521  -1.026  1.00 20.00     0.014 C 
HETATM   10  C7  UNL     1     -35.983  15.508  -2.884  1.00 20.00     0.042 C 
ENDBRANCH   7   8
ENDBRANCH   1   7
BRANCH   1  11
HETATM   11  O11 UNL     1     -32.092  15.446  -4.420  1.00 20.00    -0.393 OA
HETATM   12  H27 UNL     1     -31.602  16.271  -4.565  1.00 20.00     0.210 HD
ENDBRANCH   1  11
TORSDOF 4
ENDMDL
MODEL 9
REMARK VINA RESULT:      -3.9      1.777      2.384
REMARK  4 active torsions:
REMARK  status: ('A' for Active; 'I' for Inactive)
REMARK    1  A    between atoms: C2_2  and  C8_8 
REMARK    2  A    between atoms: C6_6  and  C9_9 
REMARK    3  A    between atoms: C8_8  and  C9_9 
REMARK    4  A    between atoms: C9_9  and  O11_11 
ROOT
HETATM    1  C9  UNL     1     -35.827  16.044  -3.061  1.00 20.00     0.151 C 
ENDROOT
BRANCH   1   2
HETATM    2  C6  UNL     1     -35.308  15.670  -4.443  1.00 20.00     0.150 C 
HETATM    3  C4  UNL     1     -35.564  16.749  -5.484  1.00 20.00     0.036 C 
HETATM    4  C3  UNL     1     -34.300  17.570  -5.432  1.00 20.00     0.029 C 
HETATM    5  C5  UNL     1     -33.253  16.512  -5.165  1.00 20.00     0.168 C 
HETATM    6  O10 UNL     1     -33.881  15.505  -4.360  1.00 20.00    -0.383 OA
ENDBRANCH   1   2
BRANCH   1   7
HETATM    7  C8  UNL     1     -34.747  15.827  -1.994  1.00 20.00     0.067 C 
BRANCH   7   8
HETATM    8  C2  UNL     1     -34.462  17.058  -1.162  1.00 20.00    -0.091 C 
HETATM    9  C1  UNL     1     -34.894  17.165   0.105  1.00 20.00     0.014 C 
HETATM   10  C7  UNL     1     -33.639  18.140  -1.800  1.00 20.00     0.042 C 
ENDBRANCH   7   8
ENDBRANCH   1   7
BRANCH   1  11
HETATM   11  O11 UNL     1     -36.953  15.212  -2.791  1.00 20.00    -0.393 OA
HETATM   12  H27 UNL     1     -37.601  15.766  -2.329  1.00 20.00     0.210 HD
ENDBRANCH   1  11
TORSDOF 4
ENDMDL
