MODEL 1
REMARK VINA RESULT:      -4.9      0.000      0.000
REMARK  3 active torsions:
REMARK  status: ('A' for Active; 'I' for Inactive)
REMARK    1  A    between atoms: C2_2  and  C7_7 
REMARK    2  A    between atoms: C5_5  and  C7_7 
REMARK    3  A    between atoms: C7_7  and  O8_8 
ROOT
HETATM    1  C7  UNL     1     -34.160   6.191   4.073  1.00 20.00     0.150 C 
ENDROOT
BRANCH   1   2
HETATM    2  C2  UNL     1     -34.315   5.725   5.504  1.00 20.00    -0.064 C 
HETATM    3  C1  UNL     1     -34.000   6.529   6.531  1.00 20.00     0.016 C 
HETATM    4  C6  UNL     1     -34.842   4.337   5.742  1.00 20.00     0.045 C 
ENDBRANCH   1   2
BRANCH   1   5
HETATM    5  C5  UNL     1     -32.707   6.188   3.608  1.00 20.00     0.019 A 
HETATM    6  C3  UNL     1     -32.305   6.950   2.375  1.00 20.00     0.008 A 
HETATM    7  C4  UNL     1     -31.869   7.431   3.732  1.00 20.00     0.008 A 
ENDBRANCH   1   5
BRANCH   1   8
HETATM    8  O8  UNL     1     -34.928   5.344   3.222  1.00 20.00    -0.391 OA
HETATM    9  H20 UNL     1     -35.820   5.309   3.602  1.00 20.00     0.210 HD
ENDBRANCH   1   8
TORSDOF 3
ENDMDL
MODEL 2
REMARK VINA RESULT:      -4.9      0.078      1.241
REMARK  3 active torsions:
REMARK  status: ('A' for Active; 'I' for Inactive)
REMARK    1  A    between atoms: C2_2  and  C7_7 
REMARK    2  A    between atoms: C5_5  and  C7_7 
REMARK    3  A    between atoms: C7_7  and  O8_8 
ROOT
HETATM    1  C7  UNL     1     -34.161   6.196   4.050  1.00 20.00     0.150 C 
ENDROOT
BRANCH   1   2
HETATM    2  C2  UNL     1     -34.315   5.697   5.470  1.00 20.00    -0.064 C 
HETATM    3  C1  UNL     1     -34.754   4.454   5.723  1.00 20.00     0.016 C 
HETATM    4  C6  UNL     1     -33.953   6.632   6.591  1.00 20.00     0.045 C 
ENDBRANCH   1   2
BRANCH   1   5
HETATM    5  C5  UNL     1     -32.711   6.184   3.576  1.00 20.00     0.019 A 
HETATM    6  C3  UNL     1     -32.299   6.995   2.379  1.00 20.00     0.008 A 
HETATM    7  C4  UNL     1     -31.845   7.400   3.754  1.00 20.00     0.008 A 
ENDBRANCH   1   5
BRANCH   1   8
HETATM    8  O8  UNL     1     -34.946   5.380   3.183  1.00 20.00    -0.391 OA
HETATM    9  H20 UNL     1     -34.673   4.464   3.346  1.00 20.00     0.210 HD
ENDBRANCH   1   8
TORSDOF 3
ENDMDL
MODEL 3
REMARK VINA RESULT:      -4.6      1.542      2.017
REMARK  3 active torsions:
REMARK  status: ('A' for Active; 'I' for Inactive)
REMARK    1  A    between atoms: C2_2  and  C7_7 
REMARK    2  A    between atoms: C5_5  and  C7_7 
REMARK    3  A    between atoms: C7_7  and  O8_8 
ROOT
HETATM    1  C7  UNL     1     -33.546   5.928   5.128  1.00 20.00     0.150 C 
ENDROOT
BRANCH   1   2
HETATM    2  C2  UNL     1     -34.808   5.099   5.033  1.00 20.00    -0.064 C 
HETATM    3  C1  UNL     1     -35.105   4.183   5.969  1.00 20.00     0.016 C 
HETATM    4  C6  UNL     1     -35.725   5.338   3.867  1.00 20.00     0.045 C 
ENDBRANCH   1   2
BRANCH   1   5
HETATM    5  C5  UNL     1     -33.228   6.666   3.831  1.00 20.00     0.019 A 
HETATM    6  C3  UNL     1     -31.895   7.338   3.650  1.00 20.00     0.008 A 
HETATM    7  C4  UNL     1     -32.225   6.100   2.864  1.00 20.00     0.008 A 
ENDBRANCH   1   5
BRANCH   1   8
HETATM    8  O8  UNL     1     -33.689   6.874   6.185  1.00 20.00    -0.391 OA
HETATM    9  H20 UNL     1     -33.112   6.572   6.903  1.00 20.00     0.210 HD
ENDBRANCH   1   8
TORSDOF 3
ENDMDL
MODEL 4
REMARK VINA RESULT:      -4.0      1.596      3.846
REMARK  3 active torsions:
REMARK  status: ('A' for Active; 'I' for Inactive)
REMARK    1  A    between atoms: C2_2  and  C7_7 
REMARK    2  A    between atoms: C5_5  and  C7_7 
REMARK    3  A    between atoms: C7_7  and  O8_8 
ROOT
HETATM    1  C7  UNL     1     -33.671   6.479   4.752  1.00 20.00     0.150 C 
ENDROOT
BRANCH   1   2
HETATM    2  C2  UNL     1     -32.613   6.630   3.681  1.00 20.00    -0.064 C 
HETATM    3  C1  UNL     1     -32.604   5.833   2.601  1.00 20.00     0.016 C 
HETATM    4  C6  UNL     1     -31.578   7.706   3.857  1.00 20.00     0.045 C 
ENDBRANCH   1   2
BRANCH   1   5
HETATM    5  C5  UNL     1     -34.092   5.027   4.962  1.00 20.00     0.019 A 
HETATM    6  C3  UNL     1     -35.010   4.662   6.095  1.00 20.00     0.008 A 
HETATM    7  C4  UNL     1     -35.505   4.600   4.677  1.00 20.00     0.008 A 
ENDBRANCH   1   5
BRANCH   1   8
HETATM    8  O8  UNL     1     -33.171   7.006   5.978  1.00 20.00    -0.391 OA
HETATM    9  H20 UNL     1     -32.225   6.793   6.003  1.00 20.00     0.210 HD
ENDBRANCH   1   8
TORSDOF 3
ENDMDL
MODEL 5
REMARK VINA RESULT:      -4.0     12.119     13.000
REMARK  3 active torsions:
REMARK  status: ('A' for Active; 'I' for Inactive)
REMARK    1  A    between atoms: C2_2  and  C7_7 
REMARK    2  A    between atoms: C5_5  and  C7_7 
REMARK    3  A    between atoms: C7_7  and  O8_8 
ROOT
HETATM    1  C7  UNL     1     -33.901  15.674  -4.556  1.00 20.00     0.150 C 
ENDROOT
BRANCH   1   2
HETATM    2  C2  UNL     1     -34.392  14.499  -5.373  1.00 20.00    -0.064 C 
HETATM    3  C1  UNL     1     -34.583  13.296  -4.808  1.00 20.00     0.016 C 
HETATM    4  C6  UNL     1     -34.667  14.719  -6.834  1.00 20.00     0.045 C 
ENDBRANCH   1   2
BRANCH   1   5
HETATM    5  C5  UNL     1     -34.043  15.446  -3.054  1.00 20.00     0.019 A 
HETATM    6  C3  UNL     1     -33.781  16.570  -2.090  1.00 20.00     0.008 A 
HETATM    7  C4  UNL     1     -35.183  16.069  -2.297  1.00 20.00     0.008 A 
ENDBRANCH   1   5
BRANCH   1   8
HETATM    8  O8  UNL     1     -32.532  15.918  -4.868  1.00 20.00    -0.391 OA
HETATM    9  H20 UNL     1     -32.496  16.793  -5.283  1.00 20.00     0.210 HD
ENDBRANCH   1   8
TORSDOF 3
ENDMDL
MODEL 6
REMARK VINA RESULT:      -3.9      0.924      3.482
REMARK  3 active torsions:
REMARK  status: ('A' for Active; 'I' for Inactive)
REMARK    1  A    between atoms: C2_2  and  C7_7 
REMARK    2  A    between atoms: C5_5  and  C7_7 
REMARK    3  A    between atoms: C7_7  and  O8_8 
ROOT
HETATM    1  C7  UNL     1     -32.933   6.068   3.634  1.00 20.00     0.150 C 
ENDROOT
BRANCH   1   2
HETATM    2  C2  UNL     1     -32.094   7.295   3.355  1.00 20.00    -0.064 C 
HETATM    3  C1  UNL     1     -31.237   7.770   4.273  1.00 20.00     0.016 C 
HETATM    4  C6  UNL     1     -32.240   7.963   2.016  1.00 20.00     0.045 C 
ENDBRANCH   1   2
BRANCH   1   5
HETATM    5  C5  UNL     1     -34.111   6.359   4.559  1.00 20.00     0.019 A 
HETATM    6  C3  UNL     1     -34.942   5.230   5.105  1.00 20.00     0.008 A 
HETATM    7  C4  UNL     1     -34.034   6.005   6.019  1.00 20.00     0.008 A 
ENDBRANCH   1   5
BRANCH   1   8
HETATM    8  O8  UNL     1     -33.421   5.548   2.400  1.00 20.00    -0.391 OA
HETATM    9  H20 UNL     1     -33.573   4.601   2.542  1.00 20.00     0.210 HD
ENDBRANCH   1   8
TORSDOF 3
ENDMDL
MODEL 7
REMARK VINA RESULT:      -3.9     11.377     12.480
REMARK  3 active torsions:
REMARK  status: ('A' for Active; 'I' for Inactive)
REMARK    1  A    between atoms: C2_2  and  C7_7 
REMARK    2  A    between atoms: C5_5  and  C7_7 
REMARK    3  A    between atoms: C7_7  and  O8_8 
ROOT
HETATM    1  C7  UNL     1     -35.170  14.003  -4.516  1.00 20.00     0.150 C 
ENDROOT
BRANCH   1   2
HETATM    2  C2  UNL     1     -34.238  14.615  -3.493  1.00 20.00    -0.064 C 
HETATM    3  C1  UNL     1     -34.687  15.503  -2.593  1.00 20.00     0.016 C 
HETATM    4  C6  UNL     1     -32.796  14.192  -3.508  1.00 20.00     0.045 C 
ENDBRANCH   1   2
BRANCH   1   5
HETATM    5  C5  UNL     1     -34.621  14.086  -5.937  1.00 20.00     0.019 A 
HETATM    6  C3  UNL     1     -35.541  14.379  -7.089  1.00 20.00     0.008 A 
HETATM    7  C4  UNL     1     -34.543  15.411  -6.643  1.00 20.00     0.008 A 
ENDBRANCH   1   5
BRANCH   1   8
HETATM    8  O8  UNL     1     -35.398  12.637  -4.179  1.00 20.00    -0.391 OA
HETATM    9  H20 UNL     1     -36.353  12.490  -4.259  1.00 20.00     0.210 HD
ENDBRANCH   1   8
TORSDOF 3
ENDMDL
MODEL 8
REMARK VINA RESULT:      -3.8      9.790     10.716
REMARK  3 active torsions:
REMARK  status: ('A' for Active; 'I' for Inactive)
REMARK    1  A    between atoms: C2_2  and  C7_7 
REMARK    2  A    between atoms: C5_5  and  C7_7 
REMARK    3  A    between atoms: C7_7  and  O8_8 
ROOT
HETATM    1  C7  UNL     1     -41.485   4.414  -1.424  1.00 20.00     0.150 C 
ENDROOT
BRANCH   1   2
HETATM    2  C2  UNL     1     -41.475   5.927  -1.446  1.00 20.00    -0.064 C 
HETATM    3  C1  UNL     1     -40.884   6.629  -0.466  1.00 20.00     0.016 C 
HETATM    4  C6  UNL     1     -42.140   6.622  -2.601  1.00 20.00     0.045 C 
ENDBRANCH   1   2
BRANCH   1   5
HETATM    5  C5  UNL     1     -42.079   3.811  -2.693  1.00 20.00     0.019 A 
HETATM    6  C3  UNL     1     -41.627   2.460  -3.173  1.00 20.00     0.008 A 
HETATM    7  C4  UNL     1     -43.010   2.633  -2.608  1.00 20.00     0.008 A 
ENDBRANCH   1   5
BRANCH   1   8
HETATM    8  O8  UNL     1     -40.148   3.944  -1.261  1.00 20.00    -0.391 OA
HETATM    9  H20 UNL     1     -39.579   4.728  -1.258  1.00 20.00     0.210 HD
ENDBRANCH   1   8
TORSDOF 3
ENDMDL
MODEL 9
REMARK VINA RESULT:      -3.7     11.781     12.746
REMARK  3 active torsions:
REMARK  status: ('A' for Active; 'I' for Inactive)
REMARK    1  A    between atoms: C2_2  and  C7_7 
REMARK    2  A    between atoms: C5_5  and  C7_7 
REMARK    3  A    between atoms: C7_7  and  O8_8 
ROOT
HETATM    1  C7  UNL     1     -33.577  15.415  -3.570  1.00 20.00     0.150 C 
ENDROOT
BRANCH   1   2
HETATM    2  C2  UNL     1     -33.954  16.578  -2.681  1.00 20.00    -0.064 C 
HETATM    3  C1  UNL     1     -34.460  16.375  -1.453  1.00 20.00     0.016 C 
HETATM    4  C6  UNL     1     -33.739  17.970  -3.206  1.00 20.00     0.045 C 
ENDBRANCH   1   2
BRANCH   1   5
HETATM    5  C5  UNL     1     -34.783  14.795  -4.271  1.00 20.00     0.019 A 
HETATM    6  C3  UNL     1     -34.601  14.019  -5.546  1.00 20.00     0.008 A 
HETATM    7  C4  UNL     1     -34.971  13.303  -4.277  1.00 20.00     0.008 A 
ENDBRANCH   1   5
BRANCH   1   8
HETATM    8  O8  UNL     1     -32.642  15.862  -4.549  1.00 20.00    -0.391 OA
HETATM    9  H20 UNL     1     -33.137  15.958  -5.377  1.00 20.00     0.210 HD
ENDBRANCH   1   8
TORSDOF 3
ENDMDL
