MODEL 1
REMARK VINA RESULT:      -5.4      0.000      0.000
REMARK  0 active torsions:
REMARK  status: ('A' for Active; 'I' for Inactive)
ROOT
HETATM    1  C1  UNL     1     -34.533  14.307  -3.325  1.00 20.00     0.063 A 
HETATM    2  C2  UNL     1     -34.377  14.599  -5.741  1.00 20.00     0.098 A 
HETATM    3  C3  UNL     1     -34.034  16.446  -4.292  1.00 20.00     0.055 A 
HETATM    4  C4  UNL     1     -34.249  15.654  -3.172  1.00 20.00    -0.037 A 
HETATM    5  C5  UNL     1     -34.596  13.780  -4.620  1.00 20.00     0.175 A 
HETATM    6  C6  UNL     1     -34.091  15.955  -5.585  1.00 20.00     0.134 A 
HETATM    7  C7  UNL     1     -33.759  17.802  -3.845  1.00 20.00     0.163 A 
HETATM    8  C8  UNL     1     -34.134  16.417  -1.892  1.00 20.00     0.047 A 
HETATM    9  C9  UNL     1     -33.808  17.854  -2.338  1.00 20.00     0.088 A 
HETATM   10  O10 UNL     1     -34.857  12.537  -4.786  1.00 20.00    -0.288 OA
HETATM   11  O11 UNL     1     -33.528  18.737  -4.591  1.00 20.00    -0.292 OA
HETATM   12  F12 UNL     1     -33.879  16.740  -6.646  1.00 20.00    -0.205 F 
ENDROOT
TORSDOF 0
ENDMDL
MODEL 2
REMARK VINA RESULT:      -5.3      1.607      2.674
REMARK  0 active torsions:
REMARK  status: ('A' for Active; 'I' for Inactive)
ROOT
HETATM    1  C1  UNL     1     -34.607  14.494  -5.913  1.00 20.00     0.063 A 
HETATM    2  C2  UNL     1     -34.087  14.292  -3.540  1.00 20.00     0.098 A 
HETATM    3  C3  UNL     1     -33.912  16.394  -4.624  1.00 20.00     0.055 A 
HETATM    4  C4  UNL     1     -34.311  15.845  -5.835  1.00 20.00    -0.037 A 
HETATM    5  C5  UNL     1     -34.493  13.716  -4.756  1.00 20.00     0.175 A 
HETATM    6  C6  UNL     1     -33.789  15.652  -3.463  1.00 20.00     0.134 A 
HETATM    7  C7  UNL     1     -33.668  17.813  -4.826  1.00 20.00     0.163 A 
HETATM    8  C8  UNL     1     -34.365  16.851  -6.939  1.00 20.00     0.047 A 
HETATM    9  C9  UNL     1     -33.935  18.168  -6.269  1.00 20.00     0.088 A 
HETATM   10  O10 UNL     1     -34.762  12.464  -4.804  1.00 20.00    -0.288 OA
HETATM   11  O11 UNL     1     -33.305  18.580  -3.952  1.00 20.00    -0.292 OA
HETATM   12  F12 UNL     1     -33.404  16.207  -2.309  1.00 20.00    -0.205 F 
ENDROOT
TORSDOF 0
ENDMDL
MODEL 3
REMARK VINA RESULT:      -5.2      1.866      3.904
REMARK  0 active torsions:
REMARK  status: ('A' for Active; 'I' for Inactive)
ROOT
HETATM    1  C1  UNL     1     -33.699  17.075  -5.648  1.00 20.00     0.063 A 
HETATM    2  C2  UNL     1     -34.901  16.121  -7.542  1.00 20.00     0.098 A 
HETATM    3  C3  UNL     1     -34.384  14.775  -5.659  1.00 20.00     0.055 A 
HETATM    4  C4  UNL     1     -33.759  15.841  -5.023  1.00 20.00    -0.037 A 
HETATM    5  C5  UNL     1     -34.275  17.212  -6.916  1.00 20.00     0.175 A 
HETATM    6  C6  UNL     1     -34.961  14.878  -6.912  1.00 20.00     0.134 A 
HETATM    7  C7  UNL     1     -34.303  13.615  -4.787  1.00 20.00     0.163 A 
HETATM    8  C8  UNL     1     -33.215  15.475  -3.680  1.00 20.00     0.047 A 
HETATM    9  C9  UNL     1     -33.575  13.988  -3.520  1.00 20.00     0.088 A 
HETATM   10  O10 UNL     1     -34.231  18.345  -7.513  1.00 20.00    -0.288 OA
HETATM   11  O11 UNL     1     -34.760  12.518  -5.059  1.00 20.00    -0.292 OA
HETATM   12  F12 UNL     1     -35.557  13.837  -7.501  1.00 20.00    -0.205 F 
ENDROOT
TORSDOF 0
ENDMDL
MODEL 4
REMARK VINA RESULT:      -5.0     11.782     13.429
REMARK  0 active torsions:
REMARK  status: ('A' for Active; 'I' for Inactive)
ROOT
HETATM    1  C1  UNL     1     -32.611   7.455   4.432  1.00 20.00     0.063 A 
HETATM    2  C2  UNL     1     -32.858   6.305   2.297  1.00 20.00     0.098 A 
HETATM    3  C3  UNL     1     -34.009   5.517   4.214  1.00 20.00     0.055 A 
HETATM    4  C4  UNL     1     -33.472   6.530   4.999  1.00 20.00    -0.037 A 
HETATM    5  C5  UNL     1     -32.304   7.339   3.072  1.00 20.00     0.175 A 
HETATM    6  C6  UNL     1     -33.725   5.375   2.868  1.00 20.00     0.134 A 
HETATM    7  C7  UNL     1     -34.869   4.700   5.054  1.00 20.00     0.163 A 
HETATM    8  C8  UNL     1     -33.931   6.468   6.420  1.00 20.00     0.047 A 
HETATM    9  C9  UNL     1     -34.863   5.245   6.461  1.00 20.00     0.088 A 
HETATM   10  O10 UNL     1     -31.510   8.183   2.527  1.00 20.00    -0.288 OA
HETATM   11  O11 UNL     1     -35.489   3.727   4.661  1.00 20.00    -0.292 OA
HETATM   12  F12 UNL     1     -34.257   4.391   2.136  1.00 20.00    -0.205 F 
ENDROOT
TORSDOF 0
ENDMDL
MODEL 5
REMARK VINA RESULT:      -5.0      2.395      2.608
REMARK  0 active torsions:
REMARK  status: ('A' for Active; 'I' for Inactive)
ROOT
HETATM    1  C1  UNL     1     -34.057  14.489  -3.385  1.00 20.00     0.063 A 
HETATM    2  C2  UNL     1     -36.331  14.131  -4.188  1.00 20.00     0.098 A 
HETATM    3  C3  UNL     1     -35.820  16.031  -2.864  1.00 20.00     0.055 A 
HETATM    4  C4  UNL     1     -34.488  15.650  -2.765  1.00 20.00    -0.037 A 
HETATM    5  C5  UNL     1     -34.987  13.728  -4.101  1.00 20.00     0.175 A 
HETATM    6  C6  UNL     1     -36.763  15.300  -3.563  1.00 20.00     0.134 A 
HETATM    7  C7  UNL     1     -35.994  17.273  -2.128  1.00 20.00     0.163 A 
HETATM    8  C8  UNL     1     -33.670  16.605  -1.957  1.00 20.00     0.047 A 
HETATM    9  C9  UNL     1     -34.674  17.690  -1.528  1.00 20.00     0.088 A 
HETATM   10  O10 UNL     1     -34.611  12.650  -4.683  1.00 20.00    -0.288 OA
HETATM   11  O11 UNL     1     -37.052  17.867  -2.024  1.00 20.00    -0.292 OA
HETATM   12  F12 UNL     1     -38.039  15.690  -3.644  1.00 20.00    -0.205 F 
ENDROOT
TORSDOF 0
ENDMDL
MODEL 6
REMARK VINA RESULT:      -4.9      2.482      4.263
REMARK  0 active torsions:
REMARK  status: ('A' for Active; 'I' for Inactive)
ROOT
HETATM    1  C1  UNL     1     -34.987  17.047  -2.900  1.00 20.00     0.063 A 
HETATM    2  C2  UNL     1     -37.294  16.362  -3.290  1.00 20.00     0.098 A 
HETATM    3  C3  UNL     1     -35.520  14.828  -3.639  1.00 20.00     0.055 A 
HETATM    4  C4  UNL     1     -34.576  15.777  -3.269  1.00 20.00    -0.037 A 
HETATM    5  C5  UNL     1     -36.355  17.338  -2.911  1.00 20.00     0.175 A 
HETATM    6  C6  UNL     1     -36.879  15.084  -3.661  1.00 20.00     0.134 A 
HETATM    7  C7  UNL     1     -34.820  13.598  -3.974  1.00 20.00     0.163 A 
HETATM    8  C8  UNL     1     -33.176  15.257  -3.328  1.00 20.00     0.047 A 
HETATM    9  C9  UNL     1     -33.335  13.801  -3.800  1.00 20.00     0.088 A 
HETATM   10  O10 UNL     1     -36.759  18.506  -2.573  1.00 20.00    -0.288 OA
HETATM   11  O11 UNL     1     -35.369  12.572  -4.337  1.00 20.00    -0.292 OA
HETATM   12  F12 UNL     1     -37.766  14.150  -4.020  1.00 20.00    -0.205 F 
ENDROOT
TORSDOF 0
ENDMDL
MODEL 7
REMARK VINA RESULT:      -4.8      1.683      4.451
REMARK  0 active torsions:
REMARK  status: ('A' for Active; 'I' for Inactive)
ROOT
HETATM    1  C1  UNL     1     -33.927  17.539  -5.094  1.00 20.00     0.063 A 
HETATM    2  C2  UNL     1     -33.859  16.447  -2.915  1.00 20.00     0.098 A 
HETATM    3  C3  UNL     1     -34.369  15.192  -4.862  1.00 20.00     0.055 A 
HETATM    4  C4  UNL     1     -34.248  16.319  -5.665  1.00 20.00    -0.037 A 
HETATM    5  C5  UNL     1     -33.731  17.600  -3.710  1.00 20.00     0.175 A 
HETATM    6  C6  UNL     1     -34.183  15.219  -3.491  1.00 20.00     0.134 A 
HETATM    7  C7  UNL     1     -34.709  14.062  -5.711  1.00 20.00     0.163 A 
HETATM    8  C8  UNL     1     -34.498  16.030  -7.110  1.00 20.00     0.047 A 
HETATM    9  C9  UNL     1     -34.807  14.523  -7.145  1.00 20.00     0.088 A 
HETATM   10  O10 UNL     1     -33.433  18.718  -3.160  1.00 20.00    -0.288 OA
HETATM   11  O11 UNL     1     -34.884  12.926  -5.306  1.00 20.00    -0.292 OA
HETATM   12  F12 UNL     1     -34.304  14.119  -2.741  1.00 20.00    -0.205 F 
ENDROOT
TORSDOF 0
ENDMDL
MODEL 8
REMARK VINA RESULT:      -4.8      1.379      3.619
REMARK  0 active torsions:
REMARK  status: ('A' for Active; 'I' for Inactive)
ROOT
HETATM    1  C1  UNL     1     -34.067  16.032  -2.589  1.00 20.00     0.063 A 
HETATM    2  C2  UNL     1     -33.709  17.866  -4.155  1.00 20.00     0.098 A 
HETATM    3  C3  UNL     1     -34.196  15.689  -4.961  1.00 20.00     0.055 A 
HETATM    4  C4  UNL     1     -34.273  15.187  -3.668  1.00 20.00    -0.037 A 
HETATM    5  C5  UNL     1     -33.784  17.379  -2.838  1.00 20.00     0.175 A 
HETATM    6  C6  UNL     1     -33.917  17.015  -5.240  1.00 20.00     0.134 A 
HETATM    7  C7  UNL     1     -34.452  14.599  -5.888  1.00 20.00     0.163 A 
HETATM    8  C8  UNL     1     -34.586  13.726  -3.631  1.00 20.00     0.047 A 
HETATM    9  C9  UNL     1     -34.705  13.329  -5.113  1.00 20.00     0.088 A 
HETATM   10  O10 UNL     1     -33.590  18.178  -1.856  1.00 20.00    -0.288 OA
HETATM   11  O11 UNL     1     -34.456  14.715  -7.101  1.00 20.00    -0.292 OA
HETATM   12  F12 UNL     1     -33.850  17.472  -6.494  1.00 20.00    -0.205 F 
ENDROOT
TORSDOF 0
ENDMDL
MODEL 9
REMARK VINA RESULT:      -4.8      2.563      2.924
REMARK  0 active torsions:
REMARK  status: ('A' for Active; 'I' for Inactive)
ROOT
HETATM    1  C1  UNL     1     -36.359  14.208  -4.209  1.00 20.00     0.063 A 
HETATM    2  C2  UNL     1     -34.063  14.361  -3.406  1.00 20.00     0.098 A 
HETATM    3  C3  UNL     1     -35.616  16.082  -2.908  1.00 20.00     0.055 A 
HETATM    4  C4  UNL     1     -36.624  15.423  -3.600  1.00 20.00    -0.037 A 
HETATM    5  C5  UNL     1     -35.069  13.677  -4.109  1.00 20.00     0.175 A 
HETATM    6  C6  UNL     1     -34.331  15.584  -2.792  1.00 20.00     0.134 A 
HETATM    7  C7  UNL     1     -36.164  17.319  -2.374  1.00 20.00     0.163 A 
HETATM    8  C8  UNL     1     -37.921  16.166  -3.581  1.00 20.00     0.047 A 
HETATM    9  C9  UNL     1     -37.617  17.434  -2.764  1.00 20.00     0.088 A 
HETATM   10  O10 UNL     1     -34.801  12.554  -4.665  1.00 20.00    -0.288 OA
HETATM   11  O11 UNL     1     -35.528  18.124  -1.716  1.00 20.00    -0.292 OA
HETATM   12  F12 UNL     1     -33.379  16.239  -2.120  1.00 20.00    -0.205 F 
ENDROOT
TORSDOF 0
ENDMDL
