MODEL 1
REMARK VINA RESULT:      -4.2      0.000      0.000
REMARK  2 active torsions:
REMARK  status: ('A' for Active; 'I' for Inactive)
REMARK    1  A    between atoms: C7_7  and  C8_8 
REMARK    2  A    between atoms: C7_7  and  N9_9 
ROOT
HETATM    1  C1  UNL     1     -33.216   6.455   5.117  1.00 20.00     0.277 C 
HETATM    2  C2  UNL     1     -33.585   5.765   2.894  1.00 20.00     0.277 C 
HETATM    3  C3  UNL     1     -34.071   5.178   5.138  1.00 20.00     0.015 C 
HETATM    4  C4  UNL     1     -34.669   5.081   3.726  1.00 20.00     0.015 C 
HETATM    5  C5  UNL     1     -35.057   5.133   6.296  1.00 20.00     0.012 C 
HETATM    6  C6  UNL     1     -36.031   5.760   3.558  1.00 20.00     0.012 C 
HETATM    7  N9  UNL     1     -33.232   6.917   3.724  1.00 20.00     0.090 N 
ENDROOT
BRANCH   7   8
HETATM    8  C7  UNL     1     -31.987   7.548   3.319  1.00 20.00     0.287 C 
BRANCH   8   9
HETATM    9  C8  UNL     1     -32.004   7.992   1.865  1.00 20.00     0.144 C 
HETATM   10 CL10 UNL     1     -32.522   9.689   1.713  1.00 20.00    -0.129 Cl
ENDBRANCH   8   9
ENDBRANCH   7   8
TORSDOF 2
ENDMDL
MODEL 2
REMARK VINA RESULT:      -3.9     11.176     12.296
REMARK  2 active torsions:
REMARK  status: ('A' for Active; 'I' for Inactive)
REMARK    1  A    between atoms: C7_7  and  C8_8 
REMARK    2  A    between atoms: C7_7  and  N9_9 
ROOT
HETATM    1  C1  UNL     1     -33.773  16.500  -4.479  1.00 20.00     0.277 C 
HETATM    2  C2  UNL     1     -35.204  15.176  -3.154  1.00 20.00     0.277 C 
HETATM    3  C3  UNL     1     -34.772  15.785  -5.403  1.00 20.00     0.015 C 
HETATM    4  C4  UNL     1     -35.309  14.611  -4.569  1.00 20.00     0.015 C 
HETATM    5  C5  UNL     1     -34.189  15.438  -6.765  1.00 20.00     0.012 C 
HETATM    6  C6  UNL     1     -34.526  13.305  -4.722  1.00 20.00     0.012 C 
HETATM    7  N9  UNL     1     -33.898  15.837  -3.176  1.00 20.00     0.090 N 
ENDROOT
BRANCH   7   8
HETATM    8  C7  UNL     1     -33.703  16.742  -2.055  1.00 20.00     0.287 C 
BRANCH   8   9
HETATM    9  C8  UNL     1     -34.745  16.555  -0.965  1.00 20.00     0.144 C 
HETATM   10 CL10 UNL     1     -34.445  17.645   0.412  1.00 20.00    -0.129 Cl
ENDBRANCH   8   9
ENDBRANCH   7   8
TORSDOF 2
ENDMDL
MODEL 3
REMARK VINA RESULT:      -3.9     11.455     13.099
REMARK  2 active torsions:
REMARK  status: ('A' for Active; 'I' for Inactive)
REMARK    1  A    between atoms: C7_7  and  C8_8 
REMARK    2  A    between atoms: C7_7  and  N9_9 
ROOT
HETATM    1  C1  UNL     1     -35.255  14.525  -5.086  1.00 20.00     0.277 C 
HETATM    2  C2  UNL     1     -33.543  16.140  -4.964  1.00 20.00     0.277 C 
HETATM    3  C3  UNL     1     -34.604  14.651  -6.473  1.00 20.00     0.015 C 
HETATM    4  C4  UNL     1     -33.884  16.009  -6.448  1.00 20.00     0.015 C 
HETATM    5  C5  UNL     1     -35.578  14.422  -7.618  1.00 20.00     0.012 C 
HETATM    6  C6  UNL     1     -34.723  17.189  -6.946  1.00 20.00     0.012 C 
HETATM    7  N9  UNL     1     -34.771  15.677  -4.317  1.00 20.00     0.090 N 
ENDROOT
BRANCH   7   8
HETATM    8  C7  UNL     1     -34.591  15.384  -2.905  1.00 20.00     0.287 C 
BRANCH   8   9
HETATM    9  C8  UNL     1     -33.919  16.522  -2.154  1.00 20.00     0.144 C 
HETATM   10 CL10 UNL     1     -34.596  16.706  -0.516  1.00 20.00    -0.129 Cl
ENDBRANCH   8   9
ENDBRANCH   7   8
TORSDOF 2
ENDMDL
MODEL 4
REMARK VINA RESULT:      -3.9     11.356     12.353
REMARK  2 active torsions:
REMARK  status: ('A' for Active; 'I' for Inactive)
REMARK    1  A    between atoms: C7_7  and  C8_8 
REMARK    2  A    between atoms: C7_7  and  N9_9 
ROOT
HETATM    1  C1  UNL     1     -36.035  16.449  -3.804  1.00 20.00     0.277 C 
HETATM    2  C2  UNL     1     -34.213  15.235  -2.933  1.00 20.00     0.277 C 
HETATM    3  C3  UNL     1     -35.004  17.446  -3.251  1.00 20.00     0.015 C 
HETATM    4  C4  UNL     1     -34.132  16.619  -2.293  1.00 20.00     0.015 C 
HETATM    5  C5  UNL     1     -35.634  18.706  -2.677  1.00 20.00     0.012 C 
HETATM    6  C6  UNL     1     -34.614  16.604  -0.839  1.00 20.00     0.012 C 
HETATM    7  N9  UNL     1     -35.628  15.136  -3.292  1.00 20.00     0.090 N 
ENDROOT
BRANCH   7   8
HETATM    8  C7  UNL     1     -35.903  14.052  -4.220  1.00 20.00     0.287 C 
BRANCH   8   9
HETATM    9  C8  UNL     1     -34.677  13.641  -5.018  1.00 20.00     0.144 C 
HETATM   10 CL10 UNL     1     -34.529  14.595  -6.515  1.00 20.00    -0.129 Cl
ENDBRANCH   8   9
ENDBRANCH   7   8
TORSDOF 2
ENDMDL
MODEL 5
REMARK VINA RESULT:      -3.9     11.323     12.203
REMARK  2 active torsions:
REMARK  status: ('A' for Active; 'I' for Inactive)
REMARK    1  A    between atoms: C7_7  and  C8_8 
REMARK    2  A    between atoms: C7_7  and  N9_9 
ROOT
HETATM    1  C1  UNL     1     -34.718  16.556  -1.231  1.00 20.00     0.277 C 
HETATM    2  C2  UNL     1     -33.649  18.407  -2.223  1.00 20.00     0.277 C 
HETATM    3  C3  UNL     1     -34.962  17.791  -0.349  1.00 20.00     0.015 C 
HETATM    4  C4  UNL     1     -33.870  18.791  -0.761  1.00 20.00     0.015 C 
HETATM    5  C5  UNL     1     -35.055  17.463   1.134  1.00 20.00     0.012 C 
HETATM    6  C6  UNL     1     -32.577  18.701   0.054  1.00 20.00     0.012 C 
HETATM    7  N9  UNL     1     -33.660  16.945  -2.170  1.00 20.00     0.090 N 
ENDROOT
BRANCH   7   8
HETATM    8  C7  UNL     1     -33.805  16.331  -3.479  1.00 20.00     0.287 C 
BRANCH   8   9
HETATM    9  C8  UNL     1     -32.982  15.061  -3.622  1.00 20.00     0.144 C 
HETATM   10 CL10 UNL     1     -34.021  13.614  -3.626  1.00 20.00    -0.129 Cl
ENDBRANCH   8   9
ENDBRANCH   7   8
TORSDOF 2
ENDMDL
MODEL 6
REMARK VINA RESULT:      -3.8     11.289     12.223
REMARK  2 active torsions:
REMARK  status: ('A' for Active; 'I' for Inactive)
REMARK    1  A    between atoms: C7_7  and  C8_8 
REMARK    2  A    between atoms: C7_7  and  N9_9 
ROOT
HETATM    1  C1  UNL     1     -34.973  15.084  -2.973  1.00 20.00     0.277 C 
HETATM    2  C2  UNL     1     -33.675  16.956  -3.577  1.00 20.00     0.277 C 
HETATM    3  C3  UNL     1     -33.822  14.610  -3.875  1.00 20.00     0.015 C 
HETATM    4  C4  UNL     1     -33.348  15.875  -4.606  1.00 20.00     0.015 C 
HETATM    5  C5  UNL     1     -34.194  13.421  -4.750  1.00 20.00     0.012 C 
HETATM    6  C6  UNL     1     -34.037  16.138  -5.947  1.00 20.00     0.012 C 
HETATM    7  N9  UNL     1     -34.996  16.545  -3.100  1.00 20.00     0.090 N 
ENDROOT
BRANCH   7   8
HETATM    8  C7  UNL     1     -35.389  17.217  -1.872  1.00 20.00     0.287 C 
BRANCH   8   9
HETATM    9  C8  UNL     1     -34.540  16.804  -0.682  1.00 20.00     0.144 C 
HETATM   10 CL10 UNL     1     -35.229  17.405   0.846  1.00 20.00    -0.129 Cl
ENDBRANCH   8   9
ENDBRANCH   7   8
TORSDOF 2
ENDMDL
MODEL 7
REMARK VINA RESULT:      -3.8      9.645     11.021
REMARK  2 active torsions:
REMARK  status: ('A' for Active; 'I' for Inactive)
REMARK    1  A    between atoms: C7_7  and  C8_8 
REMARK    2  A    between atoms: C7_7  and  N9_9 
ROOT
HETATM    1  C1  UNL     1     -42.668   5.792  -2.683  1.00 20.00     0.277 C 
HETATM    2  C2  UNL     1     -41.240   4.167  -1.748  1.00 20.00     0.277 C 
HETATM    3  C3  UNL     1     -41.560   6.510  -1.896  1.00 20.00     0.015 C 
HETATM    4  C4  UNL     1     -40.999   5.443  -0.943  1.00 20.00     0.015 C 
HETATM    5  C5  UNL     1     -42.023   7.811  -1.257  1.00 20.00     0.012 C 
HETATM    6  C6  UNL     1     -41.675   5.388   0.429  1.00 20.00     0.012 C 
HETATM    7  N9  UNL     1     -42.584   4.383  -2.284  1.00 20.00     0.090 N 
ENDROOT
BRANCH   7   8
HETATM    8  C7  UNL     1     -42.920   3.464  -3.359  1.00 20.00     0.287 C 
BRANCH   8   9
HETATM    9  C8  UNL     1     -42.503   2.034  -3.058  1.00 20.00     0.144 C 
HETATM   10 CL10 UNL     1     -41.197   1.498  -4.144  1.00 20.00    -0.129 Cl
ENDBRANCH   8   9
ENDBRANCH   7   8
TORSDOF 2
ENDMDL
MODEL 8
REMARK VINA RESULT:      -3.7     11.596     12.360
REMARK  2 active torsions:
REMARK  status: ('A' for Active; 'I' for Inactive)
REMARK    1  A    between atoms: C7_7  and  C8_8 
REMARK    2  A    between atoms: C7_7  and  N9_9 
ROOT
HETATM    1  C1  UNL     1     -33.720  16.190  -2.714  1.00 20.00     0.277 C 
HETATM    2  C2  UNL     1     -35.687  16.462  -3.983  1.00 20.00     0.277 C 
HETATM    3  C3  UNL     1     -34.911  16.305  -1.750  1.00 20.00     0.015 C 
HETATM    4  C4  UNL     1     -36.028  16.958  -2.579  1.00 20.00     0.015 C 
HETATM    5  C5  UNL     1     -34.558  16.986  -0.435  1.00 20.00     0.012 C 
HETATM    6  C6  UNL     1     -36.069  18.487  -2.509  1.00 20.00     0.012 C 
HETATM    7  N9  UNL     1     -34.231  16.609  -4.024  1.00 20.00     0.090 N 
ENDROOT
BRANCH   7   8
HETATM    8  C7  UNL     1     -33.620  15.892  -5.130  1.00 20.00     0.287 C 
BRANCH   8   9
HETATM    9  C8  UNL     1     -34.509  14.784  -5.671  1.00 20.00     0.144 C 
HETATM   10 CL10 UNL     1     -34.262  13.262  -4.779  1.00 20.00    -0.129 Cl
ENDBRANCH   8   9
ENDBRANCH   7   8
TORSDOF 2
ENDMDL
MODEL 9
REMARK VINA RESULT:      -3.6     11.442     13.099
REMARK  2 active torsions:
REMARK  status: ('A' for Active; 'I' for Inactive)
REMARK    1  A    between atoms: C7_7  and  C8_8 
REMARK    2  A    between atoms: C7_7  and  N9_9 
ROOT
HETATM    1  C1  UNL     1     -34.987  17.168  -3.970  1.00 20.00     0.277 C 
HETATM    2  C2  UNL     1     -33.174  16.147  -5.076  1.00 20.00     0.277 C 
HETATM    3  C3  UNL     1     -34.006  16.638  -2.912  1.00 20.00     0.015 C 
HETATM    4  C4  UNL     1     -33.156  15.593  -3.653  1.00 20.00     0.015 C 
HETATM    5  C5  UNL     1     -34.691  16.172  -1.636  1.00 20.00     0.012 C 
HETATM    6  C6  UNL     1     -33.699  14.163  -3.590  1.00 20.00     0.012 C 
HETATM    7  N9  UNL     1     -34.570  16.556  -5.236  1.00 20.00     0.090 N 
ENDROOT
BRANCH   7   8
HETATM    8  C7  UNL     1     -34.778  17.424  -6.384  1.00 20.00     0.287 C 
BRANCH   8   9
HETATM    9  C8  UNL     1     -35.108  16.649  -7.649  1.00 20.00     0.144 C 
HETATM   10 CL10 UNL     1     -35.670  15.001  -7.272  1.00 20.00    -0.129 Cl
ENDBRANCH   8   9
ENDBRANCH   7   8
TORSDOF 2
ENDMDL
