MODEL 1
REMARK VINA RESULT:      -4.5      0.000      0.000
REMARK  2 active torsions:
REMARK  status: ('A' for Active; 'I' for Inactive)
REMARK    1  A    between atoms: C2_2  and  C10_10 
REMARK    2  A    between atoms: C7_7  and  C10_10 
ROOT
HETATM    1  C3  UNL     1     -34.193  13.705  -3.990  1.00 20.00     0.002 C 
HETATM    2  C4  UNL     1     -33.456  14.913  -3.420  1.00 20.00     0.005 C 
HETATM    3  C5  UNL     1     -34.991  14.067  -5.242  1.00 20.00     0.016 C 
HETATM    4  C6  UNL     1     -35.213  16.457  -4.384  1.00 20.00     0.020 C 
HETATM    5  C7  UNL     1     -34.415  16.073  -3.127  1.00 20.00    -0.010 C 
HETATM    6  C8  UNL     1     -35.908  15.272  -5.050  1.00 20.00     0.058 C 
HETATM    7 BR11 UNL     1     -37.493  14.752  -4.018  1.00 20.00    -0.091 Br
ENDROOT
BRANCH   5   8
HETATM    8  C10 UNL     1     -33.647  17.281  -2.590  1.00 20.00     0.037 C 
BRANCH   8   9
HETATM    9  C2  UNL     1     -33.814  17.457  -1.103  1.00 20.00    -0.093 C 
HETATM   10  C1  UNL     1     -34.768  16.802  -0.424  1.00 20.00     0.014 C 
HETATM   11  C9  UNL     1     -32.893  18.427  -0.419  1.00 20.00     0.042 C 
ENDBRANCH   8   9
ENDBRANCH   5   8
TORSDOF 2
ENDMDL
MODEL 2
REMARK VINA RESULT:      -4.4      1.323      1.594
REMARK  2 active torsions:
REMARK  status: ('A' for Active; 'I' for Inactive)
REMARK    1  A    between atoms: C2_2  and  C10_10 
REMARK    2  A    between atoms: C7_7  and  C10_10 
ROOT
HETATM    1  C3  UNL     1     -35.099  13.348  -4.509  1.00 20.00     0.002 C 
HETATM    2  C4  UNL     1     -34.400  14.095  -3.377  1.00 20.00     0.005 C 
HETATM    3  C5  UNL     1     -34.789  13.967  -5.872  1.00 20.00     0.016 C 
HETATM    4  C6  UNL     1     -34.432  16.224  -4.743  1.00 20.00     0.020 C 
HETATM    5  C7  UNL     1     -34.754  15.586  -3.381  1.00 20.00    -0.010 C 
HETATM    6  C8  UNL     1     -35.037  15.471  -5.926  1.00 20.00     0.058 C 
HETATM    7 BR11 UNL     1     -36.961  15.832  -6.042  1.00 20.00    -0.091 Br
ENDROOT
BRANCH   5   8
HETATM    8  C10 UNL     1     -34.015  16.316  -2.259  1.00 20.00     0.037 C 
BRANCH   8   9
HETATM    9  C2  UNL     1     -34.950  17.048  -1.332  1.00 20.00    -0.093 C 
HETATM   10  C1  UNL     1     -34.742  17.077  -0.008  1.00 20.00     0.014 C 
HETATM   11  C9  UNL     1     -36.148  17.711  -1.950  1.00 20.00     0.042 C 
ENDBRANCH   8   9
ENDBRANCH   5   8
TORSDOF 2
ENDMDL
MODEL 3
REMARK VINA RESULT:      -4.3      2.686      5.011
REMARK  2 active torsions:
REMARK  status: ('A' for Active; 'I' for Inactive)
REMARK    1  A    between atoms: C2_2  and  C10_10 
REMARK    2  A    between atoms: C7_7  and  C10_10 
ROOT
HETATM    1  C3  UNL     1     -34.851  17.057   0.123  1.00 20.00     0.002 C 
HETATM    2  C4  UNL     1     -34.851  16.560  -1.319  1.00 20.00     0.005 C 
HETATM    3  C5  UNL     1     -34.835  18.583   0.197  1.00 20.00     0.016 C 
HETATM    4  C6  UNL     1     -33.646  18.657  -2.057  1.00 20.00     0.020 C 
HETATM    5  C7  UNL     1     -33.664  17.121  -2.111  1.00 20.00    -0.010 C 
HETATM    6  C8  UNL     1     -33.728  19.219  -0.639  1.00 20.00     0.058 C 
HETATM    7 BR11 UNL     1     -32.001  19.017   0.267  1.00 20.00    -0.091 Br
ENDROOT
BRANCH   5   8
HETATM    8  C10 UNL     1     -33.708  16.635  -3.559  1.00 20.00     0.037 C 
BRANCH   8   9
HETATM    9  C2  UNL     1     -33.606  15.136  -3.669  1.00 20.00    -0.093 C 
HETATM   10  C1  UNL     1     -32.442  14.498  -3.476  1.00 20.00     0.014 C 
HETATM   11  C9  UNL     1     -34.854  14.389  -4.044  1.00 20.00     0.042 C 
ENDBRANCH   8   9
ENDBRANCH   5   8
TORSDOF 2
ENDMDL
MODEL 4
REMARK VINA RESULT:      -4.2      1.634      2.163
REMARK  2 active torsions:
REMARK  status: ('A' for Active; 'I' for Inactive)
REMARK    1  A    between atoms: C2_2  and  C10_10 
REMARK    2  A    between atoms: C7_7  and  C10_10 
ROOT
HETATM    1  C3  UNL     1     -36.405  14.682  -3.857  1.00 20.00     0.002 C 
HETATM    2  C4  UNL     1     -35.690  15.378  -2.703  1.00 20.00     0.005 C 
HETATM    3  C5  UNL     1     -35.503  13.661  -4.549  1.00 20.00     0.016 C 
HETATM    4  C6  UNL     1     -33.464  15.019  -3.848  1.00 20.00     0.020 C 
HETATM    5  C7  UNL     1     -34.386  16.041  -3.164  1.00 20.00    -0.010 C 
HETATM    6  C8  UNL     1     -34.148  14.229  -4.961  1.00 20.00     0.058 C 
HETATM    7 BR11 UNL     1     -34.347  15.348  -6.559  1.00 20.00    -0.091 Br
ENDROOT
BRANCH   5   8
HETATM    8  C10 UNL     1     -33.674  16.701  -1.983  1.00 20.00     0.037 C 
BRANCH   8   9
HETATM    9  C2  UNL     1     -34.573  17.635  -1.215  1.00 20.00    -0.093 C 
HETATM   10  C1  UNL     1     -35.059  18.754  -1.772  1.00 20.00     0.014 C 
HETATM   11  C9  UNL     1     -34.869  17.281   0.214  1.00 20.00     0.042 C 
ENDBRANCH   8   9
ENDBRANCH   5   8
TORSDOF 2
ENDMDL
MODEL 5
REMARK VINA RESULT:      -4.1     12.014     13.995
REMARK  2 active torsions:
REMARK  status: ('A' for Active; 'I' for Inactive)
REMARK    1  A    between atoms: C2_2  and  C10_10 
REMARK    2  A    between atoms: C7_7  and  C10_10 
ROOT
HETATM    1  C3  UNL     1     -40.881   6.768  -1.038  1.00 20.00     0.002 C 
HETATM    2  C4  UNL     1     -41.150   5.267  -1.009  1.00 20.00     0.005 C 
HETATM    3  C5  UNL     1     -42.178   7.577  -0.997  1.00 20.00     0.016 C 
HETATM    4  C6  UNL     1     -43.399   5.635  -2.107  1.00 20.00     0.020 C 
HETATM    5  C7  UNL     1     -42.084   4.838  -2.147  1.00 20.00    -0.010 C 
HETATM    6  C8  UNL     1     -43.194   7.147  -2.050  1.00 20.00     0.058 C 
HETATM    7 BR11 UNL     1     -42.663   7.822  -3.813  1.00 20.00    -0.091 Br
ENDROOT
BRANCH   5   8
HETATM    8  C10 UNL     1     -42.364   3.337  -2.074  1.00 20.00     0.037 C 
BRANCH   8   9
HETATM    9  C2  UNL     1     -42.339   2.679  -3.429  1.00 20.00    -0.093 C 
HETATM   10  C1  UNL     1     -43.415   2.684  -4.229  1.00 20.00     0.014 C 
HETATM   11  C9  UNL     1     -41.070   1.981  -3.829  1.00 20.00     0.042 C 
ENDBRANCH   8   9
ENDBRANCH   5   8
TORSDOF 2
ENDMDL
MODEL 6
REMARK VINA RESULT:      -4.1      1.947      2.780
REMARK  2 active torsions:
REMARK  status: ('A' for Active; 'I' for Inactive)
REMARK    1  A    between atoms: C2_2  and  C10_10 
REMARK    2  A    between atoms: C7_7  and  C10_10 
ROOT
HETATM    1  C3  UNL     1     -36.383  17.640  -3.851  1.00 20.00     0.002 C 
HETATM    2  C4  UNL     1     -36.186  17.487  -2.347  1.00 20.00     0.005 C 
HETATM    3  C5  UNL     1     -36.176  16.317  -4.588  1.00 20.00     0.016 C 
HETATM    4  C6  UNL     1     -34.596  15.559  -2.737  1.00 20.00     0.020 C 
HETATM    5  C7  UNL     1     -34.809  16.899  -2.014  1.00 20.00    -0.010 C 
HETATM    6  C8  UNL     1     -34.860  15.629  -4.240  1.00 20.00     0.058 C 
HETATM    7 BR11 UNL     1     -33.371  16.528  -5.146  1.00 20.00    -0.091 Br
ENDROOT
BRANCH   5   8
HETATM    8  C10 UNL     1     -34.651  16.725  -0.504  1.00 20.00     0.037 C 
BRANCH   8   9
HETATM    9  C2  UNL     1     -34.007  17.919   0.151  1.00 20.00    -0.093 C 
HETATM   10  C1  UNL     1     -34.361  18.318   1.381  1.00 20.00     0.014 C 
HETATM   11  C9  UNL     1     -32.979  18.667  -0.648  1.00 20.00     0.042 C 
ENDBRANCH   8   9
ENDBRANCH   5   8
TORSDOF 2
ENDMDL
MODEL 7
REMARK VINA RESULT:      -4.0      1.868      4.576
REMARK  2 active torsions:
REMARK  status: ('A' for Active; 'I' for Inactive)
REMARK    1  A    between atoms: C2_2  and  C10_10 
REMARK    2  A    between atoms: C7_7  and  C10_10 
ROOT
HETATM    1  C3  UNL     1     -33.998  18.637  -3.213  1.00 20.00     0.002 C 
HETATM    2  C4  UNL     1     -33.700  17.171  -3.516  1.00 20.00     0.005 C 
HETATM    3  C5  UNL     1     -33.885  18.941  -1.720  1.00 20.00     0.016 C 
HETATM    4  C6  UNL     1     -34.488  16.519  -1.203  1.00 20.00     0.020 C 
HETATM    5  C7  UNL     1     -34.604  16.233  -2.709  1.00 20.00    -0.010 C 
HETATM    6  C8  UNL     1     -34.694  17.989  -0.844  1.00 20.00     0.058 C 
HETATM    7 BR11 UNL     1     -36.599  18.445  -0.937  1.00 20.00    -0.091 Br
ENDROOT
BRANCH   5   8
HETATM    8  C10 UNL     1     -34.262  14.772  -3.005  1.00 20.00     0.037 C 
BRANCH   8   9
HETATM    9  C2  UNL     1     -35.235  14.135  -3.964  1.00 20.00    -0.093 C 
HETATM   10  C1  UNL     1     -34.841  13.198  -4.838  1.00 20.00     0.014 C 
HETATM   11  C9  UNL     1     -36.655  14.623  -3.926  1.00 20.00     0.042 C 
ENDBRANCH   8   9
ENDBRANCH   5   8
TORSDOF 2
ENDMDL
MODEL 8
REMARK VINA RESULT:      -4.0      1.610      1.931
REMARK  2 active torsions:
REMARK  status: ('A' for Active; 'I' for Inactive)
REMARK    1  A    between atoms: C2_2  and  C10_10 
REMARK    2  A    between atoms: C7_7  and  C10_10 
ROOT
HETATM    1  C3  UNL     1     -33.363  16.570  -5.567  1.00 20.00     0.002 C 
HETATM    2  C4  UNL     1     -33.650  17.666  -4.547  1.00 20.00     0.005 C 
HETATM    3  C5  UNL     1     -34.588  15.690  -5.814  1.00 20.00     0.016 C 
HETATM    4  C6  UNL     1     -35.411  16.212  -3.459  1.00 20.00     0.020 C 
HETATM    5  C7  UNL     1     -34.168  17.087  -3.225  1.00 20.00    -0.010 C 
HETATM    6  C8  UNL     1     -35.212  15.145  -4.533  1.00 20.00     0.058 C 
HETATM    7 BR11 UNL     1     -34.122  13.674  -3.828  1.00 20.00    -0.091 Br
ENDROOT
BRANCH   5   8
HETATM    8  C10 UNL     1     -34.480  18.208  -2.233  1.00 20.00     0.037 C 
BRANCH   8   9
HETATM    9  C2  UNL     1     -34.046  17.875  -0.830  1.00 20.00    -0.093 C 
HETATM   10  C1  UNL     1     -34.793  17.096  -0.033  1.00 20.00     0.014 C 
HETATM   11  C9  UNL     1     -32.761  18.485  -0.346  1.00 20.00     0.042 C 
ENDBRANCH   8   9
ENDBRANCH   5   8
TORSDOF 2
ENDMDL
MODEL 9
REMARK VINA RESULT:      -3.9      2.417      4.568
REMARK  2 active torsions:
REMARK  status: ('A' for Active; 'I' for Inactive)
REMARK    1  A    between atoms: C2_2  and  C10_10 
REMARK    2  A    between atoms: C7_7  and  C10_10 
ROOT
HETATM    1  C3  UNL     1     -33.974  13.551  -4.521  1.00 20.00     0.002 C 
HETATM    2  C4  UNL     1     -35.448  13.481  -4.135  1.00 20.00     0.005 C 
HETATM    3  C5  UNL     1     -33.191  14.485  -3.600  1.00 20.00     0.016 C 
HETATM    4  C6  UNL     1     -35.322  15.818  -3.176  1.00 20.00     0.020 C 
HETATM    5  C7  UNL     1     -36.093  14.872  -4.111  1.00 20.00    -0.010 C 
HETATM    6  C8  UNL     1     -33.822  15.867  -3.459  1.00 20.00     0.058 C 
HETATM    7 BR11 UNL     1     -33.475  16.932  -5.069  1.00 20.00    -0.091 Br
ENDROOT
BRANCH   5   8
HETATM    8  C10 UNL     1     -37.559  14.777  -3.689  1.00 20.00     0.037 C 
BRANCH   8   9
HETATM    9  C2  UNL     1     -38.506  14.968  -4.845  1.00 20.00    -0.093 C 
HETATM   10  C1  UNL     1     -39.802  14.637  -4.748  1.00 20.00     0.014 C 
HETATM   11  C9  UNL     1     -37.929  15.505  -6.123  1.00 20.00     0.042 C 
ENDBRANCH   8   9
ENDBRANCH   5   8
TORSDOF 2
ENDMDL
