MODEL 1
REMARK VINA RESULT:      -4.7      0.000      0.000
REMARK  2 active torsions:
REMARK  status: ('A' for Active; 'I' for Inactive)
REMARK    1  A    between atoms: C2_2  and  C9_9 
REMARK    2  A    between atoms: C6_6  and  C9_9 
ROOT
HETATM    1  C3  UNL     1     -34.055   5.753   2.706  1.00 20.00     0.006 C 
HETATM    2  C4  UNL     1     -34.670   4.904   3.824  1.00 20.00     0.020 C 
HETATM    3  C5  UNL     1     -33.348   6.589   4.874  1.00 20.00     0.025 C 
HETATM    4  C6  UNL     1     -33.410   6.966   3.393  1.00 20.00    -0.009 C 
HETATM    5  C7  UNL     1     -34.633   5.796   5.058  1.00 20.00     0.082 C 
HETATM    6 CL10 UNL     1     -34.642   4.867   6.562  1.00 20.00    -0.125 Cl
ENDROOT
BRANCH   4   7
HETATM    7  C9  UNL     1     -32.053   7.332   2.815  1.00 20.00     0.037 C 
BRANCH   7   8
HETATM    8  C2  UNL     1     -32.130   8.447   1.803  1.00 20.00    -0.093 C 
HETATM    9  C1  UNL     1     -31.577   8.329   0.586  1.00 20.00     0.014 C 
HETATM   10  C8  UNL     1     -32.822   9.711   2.229  1.00 20.00     0.042 C 
ENDBRANCH   7   8
ENDBRANCH   4   7
TORSDOF 2
ENDMDL
MODEL 2
REMARK VINA RESULT:      -4.5      0.944      1.493
REMARK  2 active torsions:
REMARK  status: ('A' for Active; 'I' for Inactive)
REMARK    1  A    between atoms: C2_2  and  C9_9 
REMARK    2  A    between atoms: C6_6  and  C9_9 
ROOT
HETATM    1  C3  UNL     1     -34.803   5.383   3.077  1.00 20.00     0.006 C 
HETATM    2  C4  UNL     1     -35.515   4.663   4.225  1.00 20.00     0.020 C 
HETATM    3  C5  UNL     1     -33.618   5.763   5.163  1.00 20.00     0.025 C 
HETATM    4  C6  UNL     1     -33.734   6.275   3.726  1.00 20.00    -0.009 C 
HETATM    5  C7  UNL     1     -35.056   5.384   5.486  1.00 20.00     0.082 C 
HETATM    6 CL10 UNL     1     -35.176   4.367   6.927  1.00 20.00    -0.125 Cl
ENDROOT
BRANCH   4   7
HETATM    7  C9  UNL     1     -32.409   6.264   2.982  1.00 20.00     0.037 C 
BRANCH   7   8
HETATM    8  C2  UNL     1     -31.757   7.623   2.928  1.00 20.00    -0.093 C 
HETATM    9  C1  UNL     1     -31.052   8.104   3.963  1.00 20.00     0.014 C 
HETATM   10  C8  UNL     1     -31.963   8.430   1.679  1.00 20.00     0.042 C 
ENDBRANCH   7   8
ENDBRANCH   4   7
TORSDOF 2
ENDMDL
MODEL 3
REMARK VINA RESULT:      -4.4      2.576      4.788
REMARK  2 active torsions:
REMARK  status: ('A' for Active; 'I' for Inactive)
REMARK    1  A    between atoms: C2_2  and  C9_9 
REMARK    2  A    between atoms: C6_6  and  C9_9 
ROOT
HETATM    1  C3  UNL     1     -32.138   6.006   2.973  1.00 20.00     0.006 C 
HETATM    2  C4  UNL     1     -31.681   7.136   2.045  1.00 20.00     0.020 C 
HETATM    3  C5  UNL     1     -33.664   7.888   3.135  1.00 20.00     0.025 C 
HETATM    4  C6  UNL     1     -33.265   6.590   3.838  1.00 20.00    -0.009 C 
HETATM    5  C7  UNL     1     -32.329   8.393   2.610  1.00 20.00     0.082 C 
HETATM    6 CL10 UNL     1     -32.521   9.660   1.391  1.00 20.00    -0.125 Cl
ENDROOT
BRANCH   4   7
HETATM    7  C9  UNL     1     -34.430   5.634   4.030  1.00 20.00     0.037 C 
BRANCH   7   8
HETATM    8  C2  UNL     1     -34.619   5.224   5.469  1.00 20.00    -0.093 C 
HETATM    9  C1  UNL     1     -35.150   4.036   5.796  1.00 20.00     0.014 C 
HETATM   10  C8  UNL     1     -34.222   6.220   6.521  1.00 20.00     0.042 C 
ENDBRANCH   7   8
ENDBRANCH   4   7
TORSDOF 2
ENDMDL
MODEL 4
REMARK VINA RESULT:      -4.4     10.608     11.757
REMARK  2 active torsions:
REMARK  status: ('A' for Active; 'I' for Inactive)
REMARK    1  A    between atoms: C2_2  and  C9_9 
REMARK    2  A    between atoms: C6_6  and  C9_9 
ROOT
HETATM    1  C3  UNL     1     -34.254  13.734  -3.551  1.00 20.00     0.006 C 
HETATM    2  C4  UNL     1     -34.513  13.253  -4.983  1.00 20.00     0.020 C 
HETATM    3  C5  UNL     1     -35.199  15.536  -4.879  1.00 20.00     0.025 C 
HETATM    4  C6  UNL     1     -34.471  15.255  -3.563  1.00 20.00    -0.009 C 
HETATM    5  C7  UNL     1     -34.561  14.525  -5.820  1.00 20.00     0.082 C 
HETATM    6 CL10 UNL     1     -35.489  14.315  -7.311  1.00 20.00    -0.125 Cl
ENDROOT
BRANCH   4   7
HETATM    7  C9  UNL     1     -35.227  15.762  -2.346  1.00 20.00     0.037 C 
BRANCH   7   8
HETATM    8  C2  UNL     1     -34.498  16.870  -1.626  1.00 20.00    -0.093 C 
HETATM    9  C1  UNL     1     -33.626  17.665  -2.263  1.00 20.00     0.014 C 
HETATM   10  C8  UNL     1     -34.764  17.019  -0.155  1.00 20.00     0.042 C 
ENDBRANCH   7   8
ENDBRANCH   4   7
TORSDOF 2
ENDMDL
MODEL 5
REMARK VINA RESULT:      -4.4     10.456     11.571
REMARK  2 active torsions:
REMARK  status: ('A' for Active; 'I' for Inactive)
REMARK    1  A    between atoms: C2_2  and  C9_9 
REMARK    2  A    between atoms: C6_6  and  C9_9 
ROOT
HETATM    1  C3  UNL     1     -33.770  17.608  -2.897  1.00 20.00     0.006 C 
HETATM    2  C4  UNL     1     -33.710  18.640  -1.766  1.00 20.00     0.020 C 
HETATM    3  C5  UNL     1     -34.570  16.624  -0.826  1.00 20.00     0.025 C 
HETATM    4  C6  UNL     1     -34.092  16.261  -2.233  1.00 20.00    -0.009 C 
HETATM    5  C7  UNL     1     -33.689  17.817  -0.485  1.00 20.00     0.082 C 
HETATM    6 CL10 UNL     1     -34.292  18.722   0.909  1.00 20.00    -0.125 Cl
ENDROOT
BRANCH   4   7
HETATM    7  C9  UNL     1     -35.105  15.436  -3.011  1.00 20.00     0.037 C 
BRANCH   7   8
HETATM    8  C2  UNL     1     -34.489  14.228  -3.672  1.00 20.00    -0.093 C 
HETATM    9  C1  UNL     1     -35.244  13.310  -4.295  1.00 20.00     0.014 C 
HETATM   10  C8  UNL     1     -32.998  14.079  -3.571  1.00 20.00     0.042 C 
ENDBRANCH   7   8
ENDBRANCH   4   7
TORSDOF 2
ENDMDL
MODEL 6
REMARK VINA RESULT:      -4.3     10.602     11.403
REMARK  2 active torsions:
REMARK  status: ('A' for Active; 'I' for Inactive)
REMARK    1  A    between atoms: C2_2  and  C9_9 
REMARK    2  A    between atoms: C6_6  and  C9_9 
ROOT
HETATM    1  C3  UNL     1     -36.020  16.122  -2.986  1.00 20.00     0.006 C 
HETATM    2  C4  UNL     1     -36.170  15.014  -4.033  1.00 20.00     0.020 C 
HETATM    3  C5  UNL     1     -33.921  14.928  -3.244  1.00 20.00     0.025 C 
HETATM    4  C6  UNL     1     -34.654  15.901  -2.319  1.00 20.00    -0.009 C 
HETATM    5  C7  UNL     1     -35.051  14.029  -3.724  1.00 20.00     0.082 C 
HETATM    6 CL10 UNL     1     -34.591  13.066  -5.134  1.00 20.00    -0.125 Cl
ENDROOT
BRANCH   4   7
HETATM    7  C9  UNL     1     -33.885  17.190  -2.084  1.00 20.00     0.037 C 
BRANCH   7   8
HETATM    8  C2  UNL     1     -33.890  17.618  -0.637  1.00 20.00    -0.093 C 
HETATM    9  C1  UNL     1     -34.835  17.194   0.216  1.00 20.00     0.014 C 
HETATM   10  C8  UNL     1     -32.812  18.569  -0.202  1.00 20.00     0.042 C 
ENDBRANCH   7   8
ENDBRANCH   4   7
TORSDOF 2
ENDMDL
MODEL 7
REMARK VINA RESULT:      -4.1     10.768     11.868
REMARK  2 active torsions:
REMARK  status: ('A' for Active; 'I' for Inactive)
REMARK    1  A    between atoms: C2_2  and  C9_9 
REMARK    2  A    between atoms: C6_6  and  C9_9 
ROOT
HETATM    1  C3  UNL     1     -33.748  17.440  -3.492  1.00 20.00     0.006 C 
HETATM    2  C4  UNL     1     -33.820  17.980  -2.060  1.00 20.00     0.020 C 
HETATM    3  C5  UNL     1     -35.046  15.934  -2.096  1.00 20.00     0.025 C 
HETATM    4  C6  UNL     1     -34.329  16.019  -3.445  1.00 20.00    -0.009 C 
HETATM    5  C7  UNL     1     -34.141  16.766  -1.199  1.00 20.00     0.082 C 
HETATM    6 CL10 UNL     1     -34.925  17.206   0.324  1.00 20.00    -0.125 Cl
ENDROOT
BRANCH   4   7
HETATM    7  C9  UNL     1     -35.237  15.702  -4.621  1.00 20.00     0.037 C 
BRANCH   7   8
HETATM    8  C2  UNL     1     -34.740  14.541  -5.446  1.00 20.00    -0.093 C 
HETATM    9  C1  UNL     1     -34.489  13.345  -4.893  1.00 20.00     0.014 C 
HETATM   10  C8  UNL     1     -34.504  14.792  -6.908  1.00 20.00     0.042 C 
ENDBRANCH   7   8
ENDBRANCH   4   7
TORSDOF 2
ENDMDL
MODEL 8
REMARK VINA RESULT:      -3.9     10.108     11.521
REMARK  2 active torsions:
REMARK  status: ('A' for Active; 'I' for Inactive)
REMARK    1  A    between atoms: C2_2  and  C9_9 
REMARK    2  A    between atoms: C6_6  and  C9_9 
ROOT
HETATM    1  C3  UNL     1     -40.787   4.731  -1.025  1.00 20.00     0.006 C 
HETATM    2  C4  UNL     1     -41.106   6.229  -1.022  1.00 20.00     0.020 C 
HETATM    3  C5  UNL     1     -42.458   5.231  -2.715  1.00 20.00     0.025 C 
HETATM    4  C6  UNL     1     -41.828   4.071  -1.942  1.00 20.00    -0.009 C 
HETATM    5  C7  UNL     1     -42.480   6.338  -1.672  1.00 20.00     0.082 C 
HETATM    6 CL10 UNL     1     -42.764   7.931  -2.386  1.00 20.00    -0.125 Cl
ENDROOT
BRANCH   4   7
HETATM    7  C9  UNL     1     -41.238   3.004  -2.849  1.00 20.00     0.037 C 
BRANCH   7   8
HETATM    8  C2  UNL     1     -42.249   1.963  -3.260  1.00 20.00    -0.093 C 
HETATM    9  C1  UNL     1     -42.132   1.291  -4.415  1.00 20.00     0.014 C 
HETATM   10  C8  UNL     1     -43.412   1.738  -2.338  1.00 20.00     0.042 C 
ENDBRANCH   7   8
ENDBRANCH   4   7
TORSDOF 2
ENDMDL
MODEL 9
REMARK VINA RESULT:      -3.9     10.639     12.130
REMARK  2 active torsions:
REMARK  status: ('A' for Active; 'I' for Inactive)
REMARK    1  A    between atoms: C2_2  and  C9_9 
REMARK    2  A    between atoms: C6_6  and  C9_9 
ROOT
HETATM    1  C3  UNL     1     -33.650  15.991  -5.049  1.00 20.00     0.006 C 
HETATM    2  C4  UNL     1     -33.751  16.885  -3.810  1.00 20.00     0.020 C 
HETATM    3  C5  UNL     1     -34.541  14.725  -3.178  1.00 20.00     0.025 C 
HETATM    4  C6  UNL     1     -33.930  14.559  -4.570  1.00 20.00    -0.009 C 
HETATM    5  C7  UNL     1     -33.774  15.920  -2.632  1.00 20.00     0.082 C 
HETATM    6 CL10 UNL     1     -34.546  16.619  -1.202  1.00 20.00    -0.125 Cl
ENDROOT
BRANCH   4   7
HETATM    7  C9  UNL     1     -34.819  13.772  -5.519  1.00 20.00     0.037 C 
BRANCH   7   8
HETATM    8  C2  UNL     1     -35.602  14.657  -6.456  1.00 20.00    -0.093 C 
HETATM    9  C1  UNL     1     -36.745  15.246  -6.072  1.00 20.00     0.014 C 
HETATM   10  C8  UNL     1     -35.066  14.821  -7.849  1.00 20.00     0.042 C 
ENDBRANCH   7   8
ENDBRANCH   4   7
TORSDOF 2
ENDMDL
