MODEL 1
REMARK VINA RESULT:      -3.5      0.000      0.000
REMARK  4 active torsions:
REMARK  status: ('A' for Active; 'I' for Inactive)
REMARK    1  A    between atoms: C2_2  and  C7_7 
REMARK    2  A    between atoms: C6_6  and  C7_7 
REMARK    3  A    between atoms: C6_6  and  S9_9 
REMARK    4  A    between atoms: C7_7  and  N8_8 
ROOT
HETATM    1  C7  UNL     1     -34.038   6.324   4.204  1.00 20.00     0.257 C 
ENDROOT
BRANCH   1   2
HETATM    2  C2  UNL     1     -34.182   5.946   5.672  1.00 20.00    -0.060 C 
HETATM    3  C1  UNL     1     -33.823   6.802   6.643  1.00 20.00     0.016 C 
HETATM    4  C3  UNL     1     -34.734   4.588   6.016  1.00 20.00     0.044 C 
ENDBRANCH   1   2
BRANCH   1   5
HETATM    5  C6  UNL     1     -32.618   6.132   3.640  1.00 20.00     0.113 C 
BRANCH   5   6
HETATM    6  S9  UNL     1     -31.660   7.681   3.608  1.00 20.00    -0.171 SA
HETATM    7  C5  UNL     1     -32.111   8.229   1.948  1.00 20.00     0.089 C 
ENDBRANCH   5   6
ENDBRANCH   1   5
BRANCH   1   8
HETATM    8  N8  UNL     1     -34.988   5.564   3.377  1.00 20.00     0.088 N 
HETATM    9  C4  UNL     1     -34.315   5.001   2.221  1.00 20.00     0.307 C 
HETATM   10  H24 UNL     1     -35.383   4.820   3.943  1.00 20.00     0.316 HD
ENDBRANCH   1   8
TORSDOF 4
ENDMDL
MODEL 2
REMARK VINA RESULT:      -3.3     11.813     12.506
REMARK  4 active torsions:
REMARK  status: ('A' for Active; 'I' for Inactive)
REMARK    1  A    between atoms: C2_2  and  C7_7 
REMARK    2  A    between atoms: C6_6  and  C7_7 
REMARK    3  A    between atoms: C6_6  and  S9_9 
REMARK    4  A    between atoms: C7_7  and  N8_8 
ROOT
HETATM    1  C7  UNL     1     -34.527  15.086  -2.953  1.00 20.00     0.257 C 
ENDROOT
BRANCH   1   2
HETATM    2  C2  UNL     1     -35.374  14.272  -3.921  1.00 20.00    -0.060 C 
HETATM    3  C1  UNL     1     -36.698  14.478  -4.021  1.00 20.00     0.016 C 
HETATM    4  C3  UNL     1     -34.699  13.225  -4.766  1.00 20.00     0.044 C 
ENDBRANCH   1   2
BRANCH   1   5
HETATM    5  C6  UNL     1     -33.393  15.883  -3.624  1.00 20.00     0.113 C 
BRANCH   5   6
HETATM    6  S9  UNL     1     -33.989  16.951  -4.974  1.00 20.00    -0.171 SA
HETATM    7  C5  UNL     1     -33.672  18.550  -4.197  1.00 20.00     0.089 C 
ENDBRANCH   5   6
ENDBRANCH   1   5
BRANCH   1   8
HETATM    8  N8  UNL     1     -35.369  16.012  -2.179  1.00 20.00     0.088 N 
HETATM    9  C4  UNL     1     -34.624  16.559  -1.060  1.00 20.00     0.307 C 
HETATM   10  H24 UNL     1     -35.670  16.761  -2.793  1.00 20.00     0.316 HD
ENDBRANCH   1   8
TORSDOF 4
ENDMDL
MODEL 3
REMARK VINA RESULT:      -3.3     11.931     12.505
REMARK  4 active torsions:
REMARK  status: ('A' for Active; 'I' for Inactive)
REMARK    1  A    between atoms: C2_2  and  C7_7 
REMARK    2  A    between atoms: C6_6  and  C7_7 
REMARK    3  A    between atoms: C6_6  and  S9_9 
REMARK    4  A    between atoms: C7_7  and  N8_8 
ROOT
HETATM    1  C7  UNL     1     -35.683  15.370  -3.762  1.00 20.00     0.257 C 
ENDROOT
BRANCH   1   2
HETATM    2  C2  UNL     1     -34.475  15.661  -2.883  1.00 20.00    -0.060 C 
HETATM    3  C1  UNL     1     -33.231  15.371  -3.301  1.00 20.00     0.016 C 
HETATM    4  C3  UNL     1     -34.700  16.280  -1.530  1.00 20.00     0.044 C 
ENDBRANCH   1   2
BRANCH   1   5
HETATM    5  C6  UNL     1     -35.577  14.061  -4.567  1.00 20.00     0.113 C 
BRANCH   5   6
HETATM    6  S9  UNL     1     -35.213  14.348  -6.329  1.00 20.00    -0.171 SA
HETATM    7  C5  UNL     1     -35.608  16.109  -6.390  1.00 20.00     0.089 C 
ENDBRANCH   5   6
ENDBRANCH   1   5
BRANCH   1   8
HETATM    8  N8  UNL     1     -36.914  15.337  -2.958  1.00 20.00     0.088 N 
HETATM    9  C4  UNL     1     -38.035  14.889  -3.764  1.00 20.00     0.307 C 
HETATM   10  H24 UNL     1     -36.772  14.702  -2.179  1.00 20.00     0.316 HD
ENDBRANCH   1   8
TORSDOF 4
ENDMDL
MODEL 4
REMARK VINA RESULT:      -3.3     11.660     12.735
REMARK  4 active torsions:
REMARK  status: ('A' for Active; 'I' for Inactive)
REMARK    1  A    between atoms: C2_2  and  C7_7 
REMARK    2  A    between atoms: C6_6  and  C7_7 
REMARK    3  A    between atoms: C6_6  and  S9_9 
REMARK    4  A    between atoms: C7_7  and  N8_8 
ROOT
HETATM    1  C7  UNL     1     -34.488  15.560  -4.847  1.00 20.00     0.257 C 
ENDROOT
BRANCH   1   2
HETATM    2  C2  UNL     1     -34.293  14.188  -4.216  1.00 20.00    -0.060 C 
HETATM    3  C1  UNL     1     -35.280  13.276  -4.228  1.00 20.00     0.016 C 
HETATM    4  C3  UNL     1     -32.969  13.872  -3.574  1.00 20.00     0.044 C 
ENDBRANCH   1   2
BRANCH   1   5
HETATM    5  C6  UNL     1     -34.225  16.737  -3.889  1.00 20.00     0.113 C 
BRANCH   5   6
HETATM    6  S9  UNL     1     -35.539  16.936  -2.643  1.00 20.00    -0.171 SA
HETATM    7  C5  UNL     1     -34.571  16.511  -1.178  1.00 20.00     0.089 C 
ENDBRANCH   5   6
ENDBRANCH   1   5
BRANCH   1   8
HETATM    8  N8  UNL     1     -33.635  15.711  -6.036  1.00 20.00     0.088 N 
HETATM    9  C4  UNL     1     -34.325  15.229  -7.218  1.00 20.00     0.307 C 
HETATM   10  H24 UNL     1     -33.407  16.693  -6.145  1.00 20.00     0.316 HD
ENDBRANCH   1   8
TORSDOF 4
ENDMDL
MODEL 5
REMARK VINA RESULT:      -3.3     11.345     12.366
REMARK  4 active torsions:
REMARK  status: ('A' for Active; 'I' for Inactive)
REMARK    1  A    between atoms: C2_2  and  C7_7 
REMARK    2  A    between atoms: C6_6  and  C7_7 
REMARK    3  A    between atoms: C6_6  and  S9_9 
REMARK    4  A    between atoms: C7_7  and  N8_8 
ROOT
HETATM    1  C7  UNL     1     -35.158  15.579  -3.336  1.00 20.00     0.257 C 
ENDROOT
BRANCH   1   2
HETATM    2  C2  UNL     1     -34.497  16.639  -2.465  1.00 20.00    -0.060 C 
HETATM    3  C1  UNL     1     -33.801  17.648  -3.014  1.00 20.00     0.016 C 
HETATM    4  C3  UNL     1     -34.637  16.533  -0.970  1.00 20.00     0.044 C 
ENDBRANCH   1   2
BRANCH   1   5
HETATM    5  C6  UNL     1     -34.420  14.227  -3.352  1.00 20.00     0.113 C 
BRANCH   5   6
HETATM    6  S9  UNL     1     -34.660  13.315  -4.911  1.00 20.00    -0.171 SA
HETATM    7  C5  UNL     1     -34.606  14.721  -6.043  1.00 20.00     0.089 C 
ENDBRANCH   5   6
ENDBRANCH   1   5
BRANCH   1   8
HETATM    8  N8  UNL     1     -36.551  15.358  -2.918  1.00 20.00     0.088 N 
HETATM    9  C4  UNL     1     -37.464  16.036  -3.820  1.00 20.00     0.307 C 
HETATM   10  H24 UNL     1     -36.734  14.360  -2.926  1.00 20.00     0.316 HD
ENDBRANCH   1   8
TORSDOF 4
ENDMDL
MODEL 6
REMARK VINA RESULT:      -3.3     11.566     12.240
REMARK  4 active torsions:
REMARK  status: ('A' for Active; 'I' for Inactive)
REMARK    1  A    between atoms: C2_2  and  C7_7 
REMARK    2  A    between atoms: C6_6  and  C7_7 
REMARK    3  A    between atoms: C6_6  and  S9_9 
REMARK    4  A    between atoms: C7_7  and  N8_8 
ROOT
HETATM    1  C7  UNL     1     -35.204  14.633  -3.206  1.00 20.00     0.257 C 
ENDROOT
BRANCH   1   2
HETATM    2  C2  UNL     1     -34.372  15.813  -2.724  1.00 20.00    -0.060 C 
HETATM    3  C1  UNL     1     -33.423  16.354  -3.507  1.00 20.00     0.016 C 
HETATM    4  C3  UNL     1     -34.631  16.364  -1.347  1.00 20.00     0.044 C 
ENDBRANCH   1   2
BRANCH   1   5
HETATM    5  C6  UNL     1     -36.146  14.964  -4.379  1.00 20.00     0.113 C 
BRANCH   5   6
HETATM    6  S9  UNL     1     -37.901  14.975  -3.887  1.00 20.00    -0.171 SA
HETATM    7  C5  UNL     1     -38.015  16.703  -3.377  1.00 20.00     0.089 C 
ENDBRANCH   5   6
ENDBRANCH   1   5
BRANCH   1   8
HETATM    8  N8  UNL     1     -34.336  13.510  -3.592  1.00 20.00     0.088 N 
HETATM    9  C4  UNL     1     -34.592  13.121  -4.967  1.00 20.00     0.307 C 
HETATM   10  H24 UNL     1     -33.370  13.801  -3.489  1.00 20.00     0.316 HD
ENDBRANCH   1   8
TORSDOF 4
ENDMDL
MODEL 7
REMARK VINA RESULT:      -3.3     11.837     12.670
REMARK  4 active torsions:
REMARK  status: ('A' for Active; 'I' for Inactive)
REMARK    1  A    between atoms: C2_2  and  C7_7 
REMARK    2  A    between atoms: C6_6  and  C7_7 
REMARK    3  A    between atoms: C6_6  and  S9_9 
REMARK    4  A    between atoms: C7_7  and  N8_8 
ROOT
HETATM    1  C7  UNL     1     -33.651  16.403  -2.794  1.00 20.00     0.257 C 
ENDROOT
BRANCH   1   2
HETATM    2  C2  UNL     1     -33.919  17.204  -1.528  1.00 20.00    -0.060 C 
HETATM    3  C1  UNL     1     -34.709  16.716  -0.556  1.00 20.00     0.016 C 
HETATM    4  C3  UNL     1     -33.282  18.561  -1.384  1.00 20.00     0.044 C 
ENDBRANCH   1   2
BRANCH   1   5
HETATM    5  C6  UNL     1     -34.622  15.228  -3.014  1.00 20.00     0.113 C 
BRANCH   5   6
HETATM    6  S9  UNL     1     -33.830  13.807  -3.835  1.00 20.00    -0.171 SA
HETATM    7  C5  UNL     1     -34.857  13.764  -5.321  1.00 20.00     0.089 C 
ENDBRANCH   5   6
ENDBRANCH   1   5
BRANCH   1   8
HETATM    8  N8  UNL     1     -33.684  17.277  -3.977  1.00 20.00     0.088 N 
HETATM    9  C4  UNL     1     -35.045  17.433  -4.455  1.00 20.00     0.307 C 
HETATM   10  H24 UNL     1     -33.302  18.181  -3.719  1.00 20.00     0.316 HD
ENDBRANCH   1   8
TORSDOF 4
ENDMDL
MODEL 8
REMARK VINA RESULT:      -3.3     11.873     13.141
REMARK  4 active torsions:
REMARK  status: ('A' for Active; 'I' for Inactive)
REMARK    1  A    between atoms: C2_2  and  C7_7 
REMARK    2  A    between atoms: C6_6  and  C7_7 
REMARK    3  A    between atoms: C6_6  and  S9_9 
REMARK    4  A    between atoms: C7_7  and  N8_8 
ROOT
HETATM    1  C7  UNL     1     -34.192  15.669  -4.597  1.00 20.00     0.257 C 
ENDROOT
BRANCH   1   2
HETATM    2  C2  UNL     1     -34.597  14.393  -5.322  1.00 20.00    -0.060 C 
HETATM    3  C1  UNL     1     -34.635  13.215  -4.677  1.00 20.00     0.016 C 
HETATM    4  C3  UNL     1     -34.953  14.476  -6.783  1.00 20.00     0.044 C 
ENDBRANCH   1   2
BRANCH   1   5
HETATM    5  C6  UNL     1     -33.682  15.443  -3.161  1.00 20.00     0.113 C 
BRANCH   5   6
HETATM    6  S9  UNL     1     -34.775  16.182  -1.904  1.00 20.00    -0.171 SA
HETATM    7  C5  UNL     1     -33.662  17.483  -1.329  1.00 20.00     0.089 C 
ENDBRANCH   5   6
ENDBRANCH   1   5
BRANCH   1   8
HETATM    8  N8  UNL     1     -33.165  16.395  -5.360  1.00 20.00     0.088 N 
HETATM    9  C4  UNL     1     -33.481  17.811  -5.415  1.00 20.00     0.307 C 
HETATM   10  H24 UNL     1     -32.269  16.259  -4.903  1.00 20.00     0.316 HD
ENDBRANCH   1   8
TORSDOF 4
ENDMDL
MODEL 9
REMARK VINA RESULT:      -3.2     11.699     13.125
REMARK  4 active torsions:
REMARK  status: ('A' for Active; 'I' for Inactive)
REMARK    1  A    between atoms: C2_2  and  C7_7 
REMARK    2  A    between atoms: C6_6  and  C7_7 
REMARK    3  A    between atoms: C6_6  and  S9_9 
REMARK    4  A    between atoms: C7_7  and  N8_8 
ROOT
HETATM    1  C7  UNL     1     -33.788  15.987  -3.978  1.00 20.00     0.257 C 
ENDROOT
BRANCH   1   2
HETATM    2  C2  UNL     1     -34.018  16.822  -2.726  1.00 20.00    -0.060 C 
HETATM    3  C1  UNL     1     -34.502  16.264  -1.603  1.00 20.00     0.016 C 
HETATM    4  C3  UNL     1     -33.694  18.292  -2.769  1.00 20.00     0.044 C 
ENDBRANCH   1   2
BRANCH   1   5
HETATM    5  C6  UNL     1     -33.357  16.804  -5.210  1.00 20.00     0.113 C 
BRANCH   5   6
HETATM    6  S9  UNL     1     -34.617  16.807  -6.526  1.00 20.00    -0.171 SA
HETATM    7  C5  UNL     1     -34.384  15.113  -7.109  1.00 20.00     0.089 C 
ENDBRANCH   5   6
ENDBRANCH   1   5
BRANCH   1   8
HETATM    8  N8  UNL     1     -32.787  14.939  -3.725  1.00 20.00     0.088 N 
HETATM    9  C4  UNL     1     -33.391  13.624  -3.833  1.00 20.00     0.307 C 
HETATM   10  H24 UNL     1     -32.043  15.035  -4.409  1.00 20.00     0.316 HD
ENDBRANCH   1   8
TORSDOF 4
ENDMDL
