MODEL 1
REMARK VINA RESULT:      -5.0      0.000      0.000
REMARK  4 active torsions:
REMARK  status: ('A' for Active; 'I' for Inactive)
REMARK    1  A    between atoms: C2_2  and  C5_5 
REMARK    2  A    between atoms: C5_5  and  C6_6 
REMARK    3  A    between atoms: C6_6  and  C7_7 
REMARK    4  A    between atoms: C7_7  and  C8_8 
ROOT
HETATM    1  C6  UNL     1     -33.917   5.408   2.881  1.00 20.00     0.006 C 
ENDROOT
BRANCH   1   2
HETATM    2  C5  UNL     1     -34.819   5.986   3.979  1.00 20.00     0.033 C 
BRANCH   2   3
HETATM    3  C2  UNL     1     -34.559   5.441   5.364  1.00 20.00    -0.093 C 
HETATM    4  C1  UNL     1     -34.828   4.163   5.676  1.00 20.00     0.014 C 
HETATM    5  C3  UNL     1     -34.024   6.399   6.388  1.00 20.00     0.042 C 
ENDBRANCH   2   3
ENDBRANCH   1   2
BRANCH   1   6
HETATM    6  C7  UNL     1     -32.467   5.904   2.972  1.00 20.00     0.020 C 
BRANCH   6   7
HETATM    7  C8  UNL     1     -32.357   7.427   3.125  1.00 20.00     0.078 C 
HETATM    8  C4  UNL     1     -31.274   7.801   4.132  1.00 20.00     0.026 C 
HETATM    9 CL9  UNL     1     -31.978   8.207   1.559  1.00 20.00    -0.125 Cl
ENDBRANCH   6   7
ENDBRANCH   1   6
TORSDOF 4
ENDMDL
MODEL 2
REMARK VINA RESULT:      -4.8      2.337      4.180
REMARK  4 active torsions:
REMARK  status: ('A' for Active; 'I' for Inactive)
REMARK    1  A    between atoms: C2_2  and  C5_5 
REMARK    2  A    between atoms: C5_5  and  C6_6 
REMARK    3  A    between atoms: C6_6  and  C7_7 
REMARK    4  A    between atoms: C7_7  and  C8_8 
ROOT
HETATM    1  C6  UNL     1     -33.758   5.684   2.804  1.00 20.00     0.006 C 
ENDROOT
BRANCH   1   2
HETATM    2  C5  UNL     1     -32.273   5.915   3.115  1.00 20.00     0.033 C 
BRANCH   2   3
HETATM    3  C2  UNL     1     -31.850   7.364   3.145  1.00 20.00    -0.093 C 
HETATM    4  C1  UNL     1     -31.258   7.900   4.225  1.00 20.00     0.014 C 
HETATM    5  C3  UNL     1     -32.154   8.192   1.930  1.00 20.00     0.042 C 
ENDBRANCH   2   3
ENDBRANCH   1   2
BRANCH   1   6
HETATM    6  C7  UNL     1     -34.672   5.950   4.008  1.00 20.00     0.020 C 
BRANCH   6   7
HETATM    7  C8  UNL     1     -34.102   5.417   5.330  1.00 20.00     0.078 C 
HETATM    8  C4  UNL     1     -34.044   6.516   6.385  1.00 20.00     0.026 C 
HETATM    9 CL9  UNL     1     -35.093   4.067   5.962  1.00 20.00    -0.125 Cl
ENDBRANCH   6   7
ENDBRANCH   1   6
TORSDOF 4
ENDMDL
MODEL 3
REMARK VINA RESULT:      -4.7      1.258      1.421
REMARK  4 active torsions:
REMARK  status: ('A' for Active; 'I' for Inactive)
REMARK    1  A    between atoms: C2_2  and  C5_5 
REMARK    2  A    between atoms: C5_5  and  C6_6 
REMARK    3  A    between atoms: C6_6  and  C7_7 
REMARK    4  A    between atoms: C7_7  and  C8_8 
ROOT
HETATM    1  C6  UNL     1     -33.976   6.574   3.521  1.00 20.00     0.006 C 
ENDROOT
BRANCH   1   2
HETATM    2  C5  UNL     1     -34.761   5.403   4.127  1.00 20.00     0.033 C 
BRANCH   2   3
HETATM    3  C2  UNL     1     -34.642   5.270   5.627  1.00 20.00    -0.093 C 
HETATM    4  C1  UNL     1     -35.073   4.173   6.270  1.00 20.00     0.014 C 
HETATM    5  C3  UNL     1     -34.058   6.435   6.373  1.00 20.00     0.042 C 
ENDBRANCH   2   3
ENDBRANCH   1   2
BRANCH   1   6
HETATM    6  C7  UNL     1     -32.627   6.148   2.924  1.00 20.00     0.020 C 
BRANCH   6   7
HETATM    7  C8  UNL     1     -31.635   7.310   2.778  1.00 20.00     0.078 C 
HETATM    8  C4  UNL     1     -32.227   8.435   1.937  1.00 20.00     0.026 C 
HETATM    9 CL9  UNL     1     -31.173   7.969   4.377  1.00 20.00    -0.125 Cl
ENDBRANCH   6   7
ENDBRANCH   1   6
TORSDOF 4
ENDMDL
MODEL 4
REMARK VINA RESULT:      -4.7      2.539      4.651
REMARK  4 active torsions:
REMARK  status: ('A' for Active; 'I' for Inactive)
REMARK    1  A    between atoms: C2_2  and  C5_5 
REMARK    2  A    between atoms: C5_5  and  C6_6 
REMARK    3  A    between atoms: C6_6  and  C7_7 
REMARK    4  A    between atoms: C7_7  and  C8_8 
ROOT
HETATM    1  C6  UNL     1     -32.742   6.406   2.948  1.00 20.00     0.006 C 
ENDROOT
BRANCH   1   2
HETATM    2  C5  UNL     1     -31.927   7.705   3.012  1.00 20.00     0.033 C 
BRANCH   2   3
HETATM    3  C2  UNL     1     -32.100   8.620   1.823  1.00 20.00    -0.093 C 
HETATM    4  C1  UNL     1     -31.629   8.289   0.609  1.00 20.00     0.014 C 
HETATM    5  C3  UNL     1     -32.786   9.933   2.063  1.00 20.00     0.042 C 
ENDBRANCH   2   3
ENDBRANCH   1   2
BRANCH   1   6
HETATM    6  C7  UNL     1     -34.011   6.451   3.811  1.00 20.00     0.020 C 
BRANCH   6   7
HETATM    7  C8  UNL     1     -33.928   5.558   5.057  1.00 20.00     0.078 C 
HETATM    8  C4  UNL     1     -34.119   6.374   6.330  1.00 20.00     0.026 C 
HETATM    9 CL9  UNL     1     -35.168   4.268   5.010  1.00 20.00    -0.125 Cl
ENDBRANCH   6   7
ENDBRANCH   1   6
TORSDOF 4
ENDMDL
MODEL 5
REMARK VINA RESULT:      -4.6      1.248      1.613
REMARK  4 active torsions:
REMARK  status: ('A' for Active; 'I' for Inactive)
REMARK    1  A    between atoms: C2_2  and  C5_5 
REMARK    2  A    between atoms: C5_5  and  C6_6 
REMARK    3  A    between atoms: C6_6  and  C7_7 
REMARK    4  A    between atoms: C7_7  and  C8_8 
ROOT
HETATM    1  C6  UNL     1     -32.471   6.343   3.363  1.00 20.00     0.006 C 
ENDROOT
BRANCH   1   2
HETATM    2  C5  UNL     1     -33.943   6.485   3.774  1.00 20.00     0.033 C 
BRANCH   2   3
HETATM    3  C2  UNL     1     -34.316   5.766   5.049  1.00 20.00    -0.093 C 
HETATM    4  C1  UNL     1     -34.944   4.579   5.028  1.00 20.00     0.014 C 
HETATM    5  C3  UNL     1     -33.989   6.453   6.344  1.00 20.00     0.042 C 
ENDBRANCH   2   3
ENDBRANCH   1   2
BRANCH   1   6
HETATM    6  C7  UNL     1     -31.805   7.690   3.048  1.00 20.00     0.020 C 
BRANCH   6   7
HETATM    7  C8  UNL     1     -32.420   8.401   1.834  1.00 20.00     0.078 C 
HETATM    8  C4  UNL     1     -32.732   9.859   2.152  1.00 20.00     0.026 C 
HETATM    9 CL9  UNL     1     -31.317   8.343   0.425  1.00 20.00    -0.125 Cl
ENDBRANCH   6   7
ENDBRANCH   1   6
TORSDOF 4
ENDMDL
MODEL 6
REMARK VINA RESULT:      -4.6      2.526      4.739
REMARK  4 active torsions:
REMARK  status: ('A' for Active; 'I' for Inactive)
REMARK    1  A    between atoms: C2_2  and  C5_5 
REMARK    2  A    between atoms: C5_5  and  C6_6 
REMARK    3  A    between atoms: C6_6  and  C7_7 
REMARK    4  A    between atoms: C7_7  and  C8_8 
ROOT
HETATM    1  C6  UNL     1     -32.572   6.458   3.005  1.00 20.00     0.006 C 
ENDROOT
BRANCH   1   2
HETATM    2  C5  UNL     1     -31.819   7.795   3.027  1.00 20.00     0.033 C 
BRANCH   2   3
HETATM    3  C2  UNL     1     -32.116   8.708   1.861  1.00 20.00    -0.093 C 
HETATM    4  C1  UNL     1     -32.783   9.862   2.026  1.00 20.00     0.014 C 
HETATM    5  C3  UNL     1     -31.668   8.252   0.503  1.00 20.00     0.042 C 
ENDBRANCH   2   3
ENDBRANCH   1   2
BRANCH   1   6
HETATM    6  C7  UNL     1     -33.897   6.503   3.781  1.00 20.00     0.020 C 
BRANCH   6   7
HETATM    7  C8  UNL     1     -33.913   5.577   5.005  1.00 20.00     0.078 C 
HETATM    8  C4  UNL     1     -34.114   6.371   6.291  1.00 20.00     0.026 C 
HETATM    9 CL9  UNL     1     -35.217   4.357   4.874  1.00 20.00    -0.125 Cl
ENDBRANCH   6   7
ENDBRANCH   1   6
TORSDOF 4
ENDMDL
MODEL 7
REMARK VINA RESULT:      -3.8     11.306     12.280
REMARK  4 active torsions:
REMARK  status: ('A' for Active; 'I' for Inactive)
REMARK    1  A    between atoms: C2_2  and  C5_5 
REMARK    2  A    between atoms: C5_5  and  C6_6 
REMARK    3  A    between atoms: C6_6  and  C7_7 
REMARK    4  A    between atoms: C7_7  and  C8_8 
ROOT
HETATM    1  C6  UNL     1     -34.669  16.336  -1.380  1.00 20.00     0.006 C 
ENDROOT
BRANCH   1   2
HETATM    2  C5  UNL     1     -33.612  17.448  -1.355  1.00 20.00     0.033 C 
BRANCH   2   3
HETATM    3  C2  UNL     1     -33.457  18.144  -0.023  1.00 20.00    -0.093 C 
HETATM    4  C1  UNL     1     -34.428  18.107   0.905  1.00 20.00     0.014 C 
HETATM    5  C3  UNL     1     -32.187  18.911   0.206  1.00 20.00     0.042 C 
ENDBRANCH   2   3
ENDBRANCH   1   2
BRANCH   1   6
HETATM    6  C7  UNL     1     -34.806  15.669  -2.756  1.00 20.00     0.020 C 
BRANCH   6   7
HETATM    7  C8  UNL     1     -33.456  15.300  -3.387  1.00 20.00     0.078 C 
HETATM    8  C4  UNL     1     -33.423  13.831  -3.792  1.00 20.00     0.026 C 
HETATM    9 CL9  UNL     1     -33.124  16.302  -4.833  1.00 20.00    -0.125 Cl
ENDBRANCH   6   7
ENDBRANCH   1   6
TORSDOF 4
ENDMDL
MODEL 8
REMARK VINA RESULT:      -3.8     11.084     12.642
REMARK  4 active torsions:
REMARK  status: ('A' for Active; 'I' for Inactive)
REMARK    1  A    between atoms: C2_2  and  C5_5 
REMARK    2  A    between atoms: C5_5  and  C6_6 
REMARK    3  A    between atoms: C6_6  and  C7_7 
REMARK    4  A    between atoms: C7_7  and  C8_8 
ROOT
HETATM    1  C6  UNL     1     -34.337  13.727  -3.700  1.00 20.00     0.006 C 
ENDROOT
BRANCH   1   2
HETATM    2  C5  UNL     1     -34.727  13.301  -5.122  1.00 20.00     0.033 C 
BRANCH   2   3
HETATM    3  C2  UNL     1     -35.264  14.414  -5.991  1.00 20.00    -0.093 C 
HETATM    4  C1  UNL     1     -34.628  14.801  -7.108  1.00 20.00     0.014 C 
HETATM    5  C3  UNL     1     -36.521  15.096  -5.532  1.00 20.00     0.042 C 
ENDBRANCH   2   3
ENDBRANCH   1   2
BRANCH   1   6
HETATM    6  C7  UNL     1     -33.146  14.695  -3.669  1.00 20.00     0.020 C 
BRANCH   6   7
HETATM    7  C8  UNL     1     -33.486  16.055  -3.045  1.00 20.00     0.078 C 
HETATM    8  C4  UNL     1     -33.657  17.124  -4.118  1.00 20.00     0.026 C 
HETATM    9 CL9  UNL     1     -34.990  15.964  -2.079  1.00 20.00    -0.125 Cl
ENDBRANCH   6   7
ENDBRANCH   1   6
TORSDOF 4
ENDMDL
MODEL 9
REMARK VINA RESULT:      -3.7     11.342     12.598
REMARK  4 active torsions:
REMARK  status: ('A' for Active; 'I' for Inactive)
REMARK    1  A    between atoms: C2_2  and  C5_5 
REMARK    2  A    between atoms: C5_5  and  C6_6 
REMARK    3  A    between atoms: C6_6  and  C7_7 
REMARK    4  A    between atoms: C7_7  and  C8_8 
ROOT
HETATM    1  C6  UNL     1     -34.370  13.938  -3.559  1.00 20.00     0.006 C 
ENDROOT
BRANCH   1   2
HETATM    2  C5  UNL     1     -33.253  14.978  -3.400  1.00 20.00     0.033 C 
BRANCH   2   3
HETATM    3  C2  UNL     1     -33.722  16.351  -2.979  1.00 20.00    -0.093 C 
HETATM    4  C1  UNL     1     -34.127  16.600  -1.723  1.00 20.00     0.014 C 
HETATM    5  C3  UNL     1     -33.754  17.417  -4.036  1.00 20.00     0.042 C 
ENDBRANCH   2   3
ENDBRANCH   1   2
BRANCH   1   6
HETATM    6  C7  UNL     1     -34.400  13.298  -4.954  1.00 20.00     0.020 C 
BRANCH   6   7
HETATM    7  C8  UNL     1     -35.241  14.091  -5.966  1.00 20.00     0.078 C 
HETATM    8  C4  UNL     1     -36.317  14.910  -5.263  1.00 20.00     0.026 C 
HETATM    9 CL9  UNL     1     -34.216  15.197  -6.931  1.00 20.00    -0.125 Cl
ENDBRANCH   6   7
ENDBRANCH   1   6
TORSDOF 4
ENDMDL
