MODEL 1
REMARK VINA RESULT:      -4.9      0.000      0.000
REMARK  3 active torsions:
REMARK  status: ('A' for Active; 'I' for Inactive)
REMARK    1  A    between atoms: C2_2  and  C10_10 
REMARK    2  A    between atoms: C5_5  and  C10_10 
REMARK    3  A    between atoms: C7_7  and  O11_11 
ROOT
HETATM    1  C3  UNL     1     -36.348  15.377  -3.155  1.00 20.00     0.008 C 
HETATM    2  C4  UNL     1     -36.393  14.365  -4.303  1.00 20.00     0.032 C 
HETATM    3  C5  UNL     1     -34.869  15.724  -2.971  1.00 20.00    -0.004 C 
HETATM    4  C6  UNL     1     -34.170  14.409  -3.328  1.00 20.00     0.015 C 
HETATM    5  C7  UNL     1     -34.942  13.962  -4.571  1.00 20.00     0.122 C 
HETATM    6  C9  UNL     1     -32.676  14.561  -3.588  1.00 20.00     0.013 C 
ENDROOT
BRANCH   3   7
HETATM    7  C10 UNL     1     -34.560  16.231  -1.570  1.00 20.00     0.038 C 
BRANCH   7   8
HETATM    8  C2  UNL     1     -33.843  17.559  -1.574  1.00 20.00    -0.093 C 
HETATM    9  C1  UNL     1     -33.303  18.067  -0.455  1.00 20.00     0.014 C 
HETATM   10  C8  UNL     1     -33.791  18.305  -2.876  1.00 20.00     0.042 C 
ENDBRANCH   7   8
ENDBRANCH   3   7
BRANCH   5  11
HETATM   11  O11 UNL     1     -34.851  12.561  -4.770  1.00 20.00    -0.395 OA
HETATM   12  H29 UNL     1     -34.177  12.414  -5.455  1.00 20.00     0.210 HD
ENDBRANCH   5  11
TORSDOF 3
ENDMDL
MODEL 2
REMARK VINA RESULT:      -4.7     11.502     12.288
REMARK  3 active torsions:
REMARK  status: ('A' for Active; 'I' for Inactive)
REMARK    1  A    between atoms: C2_2  and  C10_10 
REMARK    2  A    between atoms: C5_5  and  C10_10 
REMARK    3  A    between atoms: C7_7  and  O11_11 
ROOT
HETATM    1  C3  UNL     1     -34.532   5.010   3.399  1.00 20.00     0.008 C 
HETATM    2  C4  UNL     1     -34.991   4.051   4.501  1.00 20.00     0.032 C 
HETATM    3  C5  UNL     1     -33.664   6.057   4.101  1.00 20.00    -0.004 C 
HETATM    4  C6  UNL     1     -34.327   6.173   5.477  1.00 20.00     0.015 C 
HETATM    5  C7  UNL     1     -34.601   4.708   5.826  1.00 20.00     0.122 C 
HETATM    6  C9  UNL     1     -33.460   6.872   6.517  1.00 20.00     0.013 C 
ENDROOT
BRANCH   3   7
HETATM    7  C10 UNL     1     -33.598   7.368   3.332  1.00 20.00     0.038 C 
BRANCH   7   8
HETATM    8  C2  UNL     1     -32.194   7.729   2.911  1.00 20.00    -0.093 C 
HETATM    9  C1  UNL     1     -31.139   7.480   3.701  1.00 20.00     0.014 C 
HETATM   10  C8  UNL     1     -32.033   8.410   1.582  1.00 20.00     0.042 C 
ENDBRANCH   7   8
ENDBRANCH   3   7
BRANCH   5  11
HETATM   11  O11 UNL     1     -35.654   4.581   6.766  1.00 20.00    -0.395 OA
HETATM   12  H29 UNL     1     -35.569   5.319   7.392  1.00 20.00     0.210 HD
ENDBRANCH   5  11
TORSDOF 3
ENDMDL
MODEL 3
REMARK VINA RESULT:      -4.6      0.939      2.243
REMARK  3 active torsions:
REMARK  status: ('A' for Active; 'I' for Inactive)
REMARK    1  A    between atoms: C2_2  and  C10_10 
REMARK    2  A    between atoms: C5_5  and  C10_10 
REMARK    3  A    between atoms: C7_7  and  O11_11 
ROOT
HETATM    1  C3  UNL     1     -32.856  14.955  -3.361  1.00 20.00     0.008 C 
HETATM    2  C4  UNL     1     -33.192  13.550  -3.868  1.00 20.00     0.032 C 
HETATM    3  C5  UNL     1     -34.187  15.557  -2.905  1.00 20.00    -0.004 C 
HETATM    4  C6  UNL     1     -35.188  14.932  -3.882  1.00 20.00     0.015 C 
HETATM    5  C7  UNL     1     -34.719  13.476  -3.937  1.00 20.00     0.122 C 
HETATM    6  C9  UNL     1     -36.640  15.064  -3.439  1.00 20.00     0.013 C 
ENDROOT
BRANCH   3   7
HETATM    7  C10 UNL     1     -34.173  17.078  -2.920  1.00 20.00     0.038 C 
BRANCH   7   8
HETATM    8  C2  UNL     1     -34.011  17.674  -1.543  1.00 20.00    -0.093 C 
HETATM    9  C1  UNL     1     -33.294  18.790  -1.342  1.00 20.00     0.014 C 
HETATM   10  C8  UNL     1     -34.661  16.946  -0.402  1.00 20.00     0.042 C 
ENDBRANCH   7   8
ENDBRANCH   3   7
BRANCH   5  11
HETATM   11  O11 UNL     1     -35.126  12.838  -5.135  1.00 20.00    -0.395 OA
HETATM   12  H29 UNL     1     -35.885  13.337  -5.480  1.00 20.00     0.210 HD
ENDBRANCH   5  11
TORSDOF 3
ENDMDL
MODEL 4
REMARK VINA RESULT:      -4.5     10.751     11.623
REMARK  3 active torsions:
REMARK  status: ('A' for Active; 'I' for Inactive)
REMARK    1  A    between atoms: C2_2  and  C10_10 
REMARK    2  A    between atoms: C5_5  and  C10_10 
REMARK    3  A    between atoms: C7_7  and  O11_11 
ROOT
HETATM    1  C3  UNL     1     -33.346   6.752   5.449  1.00 20.00     0.008 C 
HETATM    2  C4  UNL     1     -34.488   5.845   5.917  1.00 20.00     0.032 C 
HETATM    3  C5  UNL     1     -33.439   6.774   3.921  1.00 20.00    -0.004 C 
HETATM    4  C6  UNL     1     -33.953   5.368   3.597  1.00 20.00     0.015 C 
HETATM    5  C7  UNL     1     -35.037   5.169   4.659  1.00 20.00     0.122 C 
HETATM    6  C9  UNL     1     -34.488   5.225   2.178  1.00 20.00     0.013 C 
ENDROOT
BRANCH   3   7
HETATM    7  C10 UNL     1     -32.111   7.117   3.263  1.00 20.00     0.038 C 
BRANCH   7   8
HETATM    8  C2  UNL     1     -32.240   8.189   2.208  1.00 20.00    -0.093 C 
HETATM    9  C1  UNL     1     -31.765   8.012   0.966  1.00 20.00     0.014 C 
HETATM   10  C8  UNL     1     -32.895   9.476   2.619  1.00 20.00     0.042 C 
ENDBRANCH   7   8
ENDBRANCH   3   7
BRANCH   5  11
HETATM   11  O11 UNL     1     -35.282   3.795   4.908  1.00 20.00    -0.395 OA
HETATM   12  H29 UNL     1     -34.815   3.293   4.219  1.00 20.00     0.210 HD
ENDBRANCH   5  11
TORSDOF 3
ENDMDL
MODEL 5
REMARK VINA RESULT:      -4.5      1.936      2.370
REMARK  3 active torsions:
REMARK  status: ('A' for Active; 'I' for Inactive)
REMARK    1  A    between atoms: C2_2  and  C10_10 
REMARK    2  A    between atoms: C5_5  and  C10_10 
REMARK    3  A    between atoms: C7_7  and  O11_11 
ROOT
HETATM    1  C3  UNL     1     -34.725  17.709  -3.688  1.00 20.00     0.008 C 
HETATM    2  C4  UNL     1     -34.270  17.573  -5.143  1.00 20.00     0.032 C 
HETATM    3  C5  UNL     1     -33.857  16.731  -2.893  1.00 20.00    -0.004 C 
HETATM    4  C6  UNL     1     -33.638  15.590  -3.892  1.00 20.00     0.015 C 
HETATM    5  C7  UNL     1     -33.351  16.350  -5.189  1.00 20.00     0.122 C 
HETATM    6  C9  UNL     1     -32.508  14.645  -3.503  1.00 20.00     0.013 C 
ENDROOT
BRANCH   3   7
HETATM    7  C10 UNL     1     -34.514  16.297  -1.590  1.00 20.00     0.038 C 
BRANCH   7   8
HETATM    8  C2  UNL     1     -34.288  17.279  -0.466  1.00 20.00    -0.093 C 
HETATM    9  C1  UNL     1     -35.148  17.382   0.559  1.00 20.00     0.014 C 
HETATM   10  C8  UNL     1     -33.075  18.161  -0.562  1.00 20.00     0.042 C 
ENDBRANCH   7   8
ENDBRANCH   3   7
BRANCH   5  11
HETATM   11  O11 UNL     1     -33.638  15.563  -6.332  1.00 20.00    -0.395 OA
HETATM   12  H29 UNL     1     -34.416  15.957  -6.762  1.00 20.00     0.210 HD
ENDBRANCH   5  11
TORSDOF 3
ENDMDL
MODEL 6
REMARK VINA RESULT:      -4.4      1.800      2.192
REMARK  3 active torsions:
REMARK  status: ('A' for Active; 'I' for Inactive)
REMARK    1  A    between atoms: C2_2  and  C10_10 
REMARK    2  A    between atoms: C5_5  and  C10_10 
REMARK    3  A    between atoms: C7_7  and  O11_11 
ROOT
HETATM    1  C3  UNL     1     -34.479  14.066  -3.846  1.00 20.00     0.008 C 
HETATM    2  C4  UNL     1     -34.892  13.770  -5.290  1.00 20.00     0.032 C 
HETATM    3  C5  UNL     1     -34.265  15.580  -3.781  1.00 20.00    -0.004 C 
HETATM    4  C6  UNL     1     -33.736  15.902  -5.182  1.00 20.00     0.015 C 
HETATM    5  C7  UNL     1     -34.652  15.062  -6.074  1.00 20.00     0.122 C 
HETATM    6  C9  UNL     1     -33.781  17.386  -5.527  1.00 20.00     0.013 C 
ENDROOT
BRANCH   3   7
HETATM    7  C10 UNL     1     -33.328  15.987  -2.655  1.00 20.00     0.038 C 
BRANCH   7   8
HETATM    8  C2  UNL     1     -33.940  17.005  -1.723  1.00 20.00    -0.093 C 
HETATM    9  C1  UNL     1     -34.752  16.639  -0.719  1.00 20.00     0.014 C 
HETATM   10  C8  UNL     1     -33.629  18.450  -1.990  1.00 20.00     0.042 C 
ENDBRANCH   7   8
ENDBRANCH   3   7
BRANCH   5  11
HETATM   11  O11 UNL     1     -34.049  14.773  -7.323  1.00 20.00    -0.395 OA
HETATM   12  H29 UNL     1     -33.870  15.624  -7.757  1.00 20.00     0.210 HD
ENDBRANCH   5  11
TORSDOF 3
ENDMDL
MODEL 7
REMARK VINA RESULT:      -4.2      1.855      3.192
REMARK  3 active torsions:
REMARK  status: ('A' for Active; 'I' for Inactive)
REMARK    1  A    between atoms: C2_2  and  C10_10 
REMARK    2  A    between atoms: C5_5  and  C10_10 
REMARK    3  A    between atoms: C7_7  and  O11_11 
ROOT
HETATM    1  C3  UNL     1     -32.697  15.017  -3.878  1.00 20.00     0.008 C 
HETATM    2  C4  UNL     1     -33.384  13.757  -3.348  1.00 20.00     0.032 C 
HETATM    3  C5  UNL     1     -33.825  15.914  -4.395  1.00 20.00    -0.004 C 
HETATM    4  C6  UNL     1     -34.848  14.898  -4.912  1.00 20.00     0.015 C 
HETATM    5  C7  UNL     1     -34.841  13.842  -3.805  1.00 20.00     0.122 C 
HETATM    6  C9  UNL     1     -36.232  15.491  -5.150  1.00 20.00     0.013 C 
ENDROOT
BRANCH   3   7
HETATM    7  C10 UNL     1     -33.346  16.903  -5.447  1.00 20.00     0.038 C 
BRANCH   7   8
HETATM    8  C2  UNL     1     -33.729  18.328  -5.127  1.00 20.00    -0.093 C 
HETATM    9  C1  UNL     1     -33.816  19.263  -6.085  1.00 20.00     0.014 C 
HETATM   10  C8  UNL     1     -33.975  18.661  -3.684  1.00 20.00     0.042 C 
ENDBRANCH   7   8
ENDBRANCH   3   7
BRANCH   5  11
HETATM   11  O11 UNL     1     -35.282  12.581  -4.279  1.00 20.00    -0.395 OA
HETATM   12  H29 UNL     1     -35.067  12.542  -5.226  1.00 20.00     0.210 HD
ENDBRANCH   5  11
TORSDOF 3
ENDMDL
MODEL 8
REMARK VINA RESULT:      -4.1      1.358      1.904
REMARK  3 active torsions:
REMARK  status: ('A' for Active; 'I' for Inactive)
REMARK    1  A    between atoms: C2_2  and  C10_10 
REMARK    2  A    between atoms: C5_5  and  C10_10 
REMARK    3  A    between atoms: C7_7  and  O11_11 
ROOT
HETATM    1  C3  UNL     1     -35.285  15.937  -5.359  1.00 20.00     0.008 C 
HETATM    2  C4  UNL     1     -35.694  14.491  -5.652  1.00 20.00     0.032 C 
HETATM    3  C5  UNL     1     -33.917  15.848  -4.679  1.00 20.00    -0.004 C 
HETATM    4  C6  UNL     1     -34.019  14.536  -3.894  1.00 20.00     0.015 C 
HETATM    5  C7  UNL     1     -34.691  13.607  -4.907  1.00 20.00     0.122 C 
HETATM    6  C9  UNL     1     -32.675  14.006  -3.412  1.00 20.00     0.013 C 
ENDROOT
BRANCH   3   7
HETATM    7  C10 UNL     1     -33.617  17.065  -3.817  1.00 20.00     0.038 C 
BRANCH   7   8
HETATM    8  C2  UNL     1     -34.634  17.270  -2.720  1.00 20.00    -0.093 C 
HETATM    9  C1  UNL     1     -35.725  18.028  -2.909  1.00 20.00     0.014 C 
HETATM   10  C8  UNL     1     -34.354  16.617  -1.397  1.00 20.00     0.042 C 
ENDBRANCH   7   8
ENDBRANCH   3   7
BRANCH   5  11
HETATM   11  O11 UNL     1     -35.362  12.533  -4.271  1.00 20.00    -0.395 OA
HETATM   12  H29 UNL     1     -36.315  12.678  -4.394  1.00 20.00     0.210 HD
ENDBRANCH   5  11
TORSDOF 3
ENDMDL
MODEL 9
REMARK VINA RESULT:      -4.0      1.589      2.044
REMARK  3 active torsions:
REMARK  status: ('A' for Active; 'I' for Inactive)
REMARK    1  A    between atoms: C2_2  and  C10_10 
REMARK    2  A    between atoms: C5_5  and  C10_10 
REMARK    3  A    between atoms: C7_7  and  O11_11 
ROOT
HETATM    1  C3  UNL     1     -35.953  17.083  -3.804  1.00 20.00     0.008 C 
HETATM    2  C4  UNL     1     -37.274  16.427  -4.213  1.00 20.00     0.032 C 
HETATM    3  C5  UNL     1     -34.888  15.995  -3.964  1.00 20.00    -0.004 C 
HETATM    4  C6  UNL     1     -35.657  14.719  -3.610  1.00 20.00     0.015 C 
HETATM    5  C7  UNL     1     -36.984  14.930  -4.342  1.00 20.00     0.122 C 
HETATM    6  C9  UNL     1     -34.948  13.439  -4.037  1.00 20.00     0.013 C 
ENDROOT
BRANCH   3   7
HETATM    7  C10 UNL     1     -33.666  16.246  -3.093  1.00 20.00     0.038 C 
BRANCH   7   8
HETATM    8  C2  UNL     1     -33.975  17.095  -1.883  1.00 20.00    -0.093 C 
HETATM    9  C1  UNL     1     -34.616  16.591  -0.818  1.00 20.00     0.014 C 
HETATM   10  C8  UNL     1     -33.563  18.538  -1.938  1.00 20.00     0.042 C 
ENDBRANCH   7   8
ENDBRANCH   3   7
BRANCH   5  11
HETATM   11  O11 UNL     1     -38.032  14.175  -3.759  1.00 20.00    -0.395 OA
HETATM   12  H29 UNL     1     -38.559  14.787  -3.219  1.00 20.00     0.210 HD
ENDBRANCH   5  11
TORSDOF 3
ENDMDL
