MODEL 1
REMARK VINA RESULT:      -4.3      0.000      0.000
REMARK  3 active torsions:
REMARK  status: ('A' for Active; 'I' for Inactive)
REMARK    1  A    between atoms: C7_7  and  C8_8 
REMARK    2  A    between atoms: C7_7  and  C9_9 
REMARK    3  A    between atoms: C8_8  and  N10_10 
ROOT
HETATM    1  C1  UNL     1     -33.608   6.486   5.279  1.00 20.00     0.239 C 
HETATM    2  C2  UNL     1     -33.776   5.731   2.957  1.00 20.00     0.239 C 
HETATM    3  C3  UNL     1     -34.177   5.072   5.194  1.00 20.00     0.012 C 
HETATM    4  C4  UNL     1     -34.816   5.002   3.802  1.00 20.00     0.012 C 
HETATM    5  C5  UNL     1     -35.093   4.735   6.361  1.00 20.00     0.012 C 
HETATM    6  C6  UNL     1     -36.195   5.658   3.692  1.00 20.00     0.012 C 
HETATM    7  N10 UNL     1     -33.329   6.878   3.838  1.00 20.00    -0.070 N 
HETATM    8  H30 UNL     1     -33.941   7.677   3.623  1.00 20.00     0.279 HD
ENDROOT
BRANCH   7   9
HETATM    9  C8  UNL     1     -31.925   7.323   3.582  1.00 20.00     0.236 C 
BRANCH   9  10
HETATM   10  C7  UNL     1     -31.744   7.720   2.121  1.00 20.00     0.043 C 
BRANCH  10  11
HETATM   11  C9  UNL     1     -32.289   9.094   1.734  1.00 20.00     0.116 C 
HETATM   12 CL11 UNL     1     -32.678   9.196   0.002  1.00 20.00    -0.130 Cl
ENDBRANCH  10  11
ENDBRANCH   9  10
ENDBRANCH   7   9
TORSDOF 3
ENDMDL
MODEL 2
REMARK VINA RESULT:      -4.3     11.187     12.224
REMARK  3 active torsions:
REMARK  status: ('A' for Active; 'I' for Inactive)
REMARK    1  A    between atoms: C7_7  and  C8_8 
REMARK    2  A    between atoms: C7_7  and  C9_9 
REMARK    3  A    between atoms: C8_8  and  N10_10 
ROOT
HETATM    1  C1  UNL     1     -33.387  16.152  -4.506  1.00 20.00     0.239 C 
HETATM    2  C2  UNL     1     -35.149  15.067  -3.199  1.00 20.00     0.239 C 
HETATM    3  C3  UNL     1     -34.580  15.777  -5.382  1.00 20.00     0.012 C 
HETATM    4  C4  UNL     1     -35.238  14.602  -4.648  1.00 20.00     0.012 C 
HETATM    5  C5  UNL     1     -34.189  15.519  -6.830  1.00 20.00     0.012 C 
HETATM    6  C6  UNL     1     -34.551  13.250  -4.853  1.00 20.00     0.012 C 
HETATM    7  N10 UNL     1     -33.785  15.717  -3.106  1.00 20.00    -0.070 N 
HETATM    8  H30 UNL     1     -33.121  14.981  -2.823  1.00 20.00     0.279 HD
ENDROOT
BRANCH   7   9
HETATM    9  C8  UNL     1     -33.700  16.799  -2.078  1.00 20.00     0.236 C 
BRANCH   9  10
HETATM   10  C7  UNL     1     -34.719  16.567  -0.967  1.00 20.00     0.043 C 
BRANCH  10  11
HETATM   11  C9  UNL     1     -34.627  17.514   0.227  1.00 20.00     0.116 C 
HETATM   12 CL11 UNL     1     -33.115  18.450   0.224  1.00 20.00    -0.130 Cl
ENDBRANCH  10  11
ENDBRANCH   9  10
ENDBRANCH   7   9
TORSDOF 3
ENDMDL
MODEL 3
REMARK VINA RESULT:      -4.2     11.179     12.171
REMARK  3 active torsions:
REMARK  status: ('A' for Active; 'I' for Inactive)
REMARK    1  A    between atoms: C7_7  and  C8_8 
REMARK    2  A    between atoms: C7_7  and  C9_9 
REMARK    3  A    between atoms: C8_8  and  N10_10 
ROOT
HETATM    1  C1  UNL     1     -35.578  15.387  -3.174  1.00 20.00     0.239 C 
HETATM    2  C2  UNL     1     -33.714  16.972  -3.223  1.00 20.00     0.239 C 
HETATM    3  C3  UNL     1     -34.270  14.696  -3.551  1.00 20.00     0.012 C 
HETATM    4  C4  UNL     1     -33.414  15.810  -4.165  1.00 20.00     0.012 C 
HETATM    5  C5  UNL     1     -34.484  13.468  -4.423  1.00 20.00     0.012 C 
HETATM    6  C6  UNL     1     -33.752  16.156  -5.616  1.00 20.00     0.012 C 
HETATM    7  N10 UNL     1     -35.195  16.837  -2.938  1.00 20.00    -0.070 N 
HETATM    8  H30 UNL     1     -35.689  17.395  -3.648  1.00 20.00     0.279 HD
ENDROOT
BRANCH   7   9
HETATM    9  C8  UNL     1     -35.603  17.373  -1.603  1.00 20.00     0.236 C 
BRANCH   9  10
HETATM   10  C7  UNL     1     -34.633  16.913  -0.519  1.00 20.00     0.043 C 
BRANCH  10  11
HETATM   11  C9  UNL     1     -34.138  18.000   0.433  1.00 20.00     0.116 C 
HETATM   12 CL11 UNL     1     -32.548  18.636  -0.046  1.00 20.00    -0.130 Cl
ENDBRANCH  10  11
ENDBRANCH   9  10
ENDBRANCH   7   9
TORSDOF 3
ENDMDL
MODEL 4
REMARK VINA RESULT:      -4.1     11.331     13.190
REMARK  3 active torsions:
REMARK  status: ('A' for Active; 'I' for Inactive)
REMARK    1  A    between atoms: C7_7  and  C8_8 
REMARK    2  A    between atoms: C7_7  and  C9_9 
REMARK    3  A    between atoms: C8_8  and  N10_10 
ROOT
HETATM    1  C1  UNL     1     -33.427  16.487  -5.570  1.00 20.00     0.239 C 
HETATM    2  C2  UNL     1     -34.986  14.615  -5.328  1.00 20.00     0.239 C 
HETATM    3  C3  UNL     1     -34.789  16.815  -6.177  1.00 20.00     0.012 C 
HETATM    4  C4  UNL     1     -35.382  15.448  -6.542  1.00 20.00     0.012 C 
HETATM    5  C5  UNL     1     -34.700  17.823  -7.313  1.00 20.00     0.012 C 
HETATM    6  C6  UNL     1     -34.851  14.843  -7.843  1.00 20.00     0.012 C 
HETATM    7  N10 UNL     1     -33.584  15.086  -5.005  1.00 20.00    -0.070 N 
HETATM    8  H30 UNL     1     -32.936  14.479  -5.528  1.00 20.00     0.279 HD
ENDROOT
BRANCH   7   9
HETATM    9  C8  UNL     1     -33.225  14.962  -3.559  1.00 20.00     0.236 C 
BRANCH   9  10
HETATM   10  C7  UNL     1     -34.312  15.571  -2.680  1.00 20.00     0.043 C 
BRANCH  10  11
HETATM   11  C9  UNL     1     -33.895  16.789  -1.857  1.00 20.00     0.116 C 
HETATM   12 CL11 UNL     1     -34.718  16.847  -0.283  1.00 20.00    -0.130 Cl
ENDBRANCH  10  11
ENDBRANCH   9  10
ENDBRANCH   7   9
TORSDOF 3
ENDMDL
MODEL 5
REMARK VINA RESULT:      -4.1     11.116     12.317
REMARK  3 active torsions:
REMARK  status: ('A' for Active; 'I' for Inactive)
REMARK    1  A    between atoms: C7_7  and  C8_8 
REMARK    2  A    between atoms: C7_7  and  C9_9 
REMARK    3  A    between atoms: C8_8  and  N10_10 
ROOT
HETATM    1  C1  UNL     1     -36.316  16.822  -3.300  1.00 20.00     0.239 C 
HETATM    2  C2  UNL     1     -34.617  15.199  -2.616  1.00 20.00     0.239 C 
HETATM    3  C3  UNL     1     -34.952  17.485  -3.125  1.00 20.00     0.012 C 
HETATM    4  C4  UNL     1     -34.218  16.586  -2.123  1.00 20.00     0.012 C 
HETATM    5  C5  UNL     1     -35.057  18.954  -2.744  1.00 20.00     0.012 C 
HETATM    6  C6  UNL     1     -34.609  16.800  -0.659  1.00 20.00     0.012 C 
HETATM    7  N10 UNL     1     -36.073  15.353  -3.000  1.00 20.00    -0.070 N 
HETATM    8  H30 UNL     1     -36.629  15.123  -2.164  1.00 20.00     0.279 HD
ENDROOT
BRANCH   7   9
HETATM    9  C8  UNL     1     -36.512  14.422  -4.084  1.00 20.00     0.236 C 
BRANCH   9  10
HETATM   10  C7  UNL     1     -35.306  13.804  -4.785  1.00 20.00     0.043 C 
BRANCH  10  11
HETATM   11  C9  UNL     1     -35.044  14.291  -6.208  1.00 20.00     0.116 C 
HETATM   12 CL11 UNL     1     -34.048  15.763  -6.239  1.00 20.00    -0.130 Cl
ENDBRANCH  10  11
ENDBRANCH   9  10
ENDBRANCH   7   9
TORSDOF 3
ENDMDL
MODEL 6
REMARK VINA RESULT:      -4.1     10.739     12.010
REMARK  3 active torsions:
REMARK  status: ('A' for Active; 'I' for Inactive)
REMARK    1  A    between atoms: C7_7  and  C8_8 
REMARK    2  A    between atoms: C7_7  and  C9_9 
REMARK    3  A    between atoms: C8_8  and  N10_10 
ROOT
HETATM    1  C1  UNL     1     -34.578  16.457  -1.012  1.00 20.00     0.239 C 
HETATM    2  C2  UNL     1     -33.696  18.396  -2.217  1.00 20.00     0.239 C 
HETATM    3  C3  UNL     1     -34.978  17.765  -0.332  1.00 20.00     0.012 C 
HETATM    4  C4  UNL     1     -33.887  18.759  -0.748  1.00 20.00     0.012 C 
HETATM    5  C5  UNL     1     -35.193  17.607   1.166  1.00 20.00     0.012 C 
HETATM    6  C6  UNL     1     -32.580  18.647   0.038  1.00 20.00     0.012 C 
HETATM    7  N10 UNL     1     -33.785  16.885  -2.234  1.00 20.00    -0.070 N 
HETATM    8  H30 UNL     1     -32.827  16.527  -2.107  1.00 20.00     0.279 HD
ENDROOT
BRANCH   7   9
HETATM    9  C8  UNL     1     -34.291  16.325  -3.524  1.00 20.00     0.236 C 
BRANCH   9  10
HETATM   10  C7  UNL     1     -33.285  15.345  -4.118  1.00 20.00     0.043 C 
BRANCH  10  11
HETATM   11  C9  UNL     1     -33.492  13.877  -3.751  1.00 20.00     0.116 C 
HETATM   12 CL11 UNL     1     -35.093  13.282  -4.244  1.00 20.00    -0.130 Cl
ENDBRANCH  10  11
ENDBRANCH   9  10
ENDBRANCH   7   9
TORSDOF 3
ENDMDL
MODEL 7
REMARK VINA RESULT:      -4.0     11.490     13.031
REMARK  3 active torsions:
REMARK  status: ('A' for Active; 'I' for Inactive)
REMARK    1  A    between atoms: C7_7  and  C8_8 
REMARK    2  A    between atoms: C7_7  and  C9_9 
REMARK    3  A    between atoms: C8_8  and  N10_10 
ROOT
HETATM    1  C1  UNL     1     -35.176  15.055  -4.855  1.00 20.00     0.239 C 
HETATM    2  C2  UNL     1     -33.319  16.612  -5.201  1.00 20.00     0.239 C 
HETATM    3  C3  UNL     1     -34.539  14.866  -6.230  1.00 20.00     0.012 C 
HETATM    4  C4  UNL     1     -33.915  16.229  -6.551  1.00 20.00     0.012 C 
HETATM    5  C5  UNL     1     -35.518  14.326  -7.262  1.00 20.00     0.012 C 
HETATM    6  C6  UNL     1     -34.900  17.286  -7.055  1.00 20.00     0.012 C 
HETATM    7  N10 UNL     1     -34.360  16.156  -4.200  1.00 20.00    -0.070 N 
HETATM    8  H30 UNL     1     -34.999  16.950  -4.049  1.00 20.00     0.279 HD
ENDROOT
BRANCH   7   9
HETATM    9  C8  UNL     1     -33.795  15.793  -2.865  1.00 20.00     0.236 C 
BRANCH   9  10
HETATM   10  C7  UNL     1     -34.734  16.228  -1.745  1.00 20.00     0.043 C 
BRANCH  10  11
HETATM   11  C9  UNL     1     -34.161  17.237  -0.752  1.00 20.00     0.116 C 
HETATM   12 CL11 UNL     1     -35.119  17.324   0.742  1.00 20.00    -0.130 Cl
ENDBRANCH  10  11
ENDBRANCH   9  10
ENDBRANCH   7   9
TORSDOF 3
ENDMDL
MODEL 8
REMARK VINA RESULT:      -4.0     11.228     12.349
REMARK  3 active torsions:
REMARK  status: ('A' for Active; 'I' for Inactive)
REMARK    1  A    between atoms: C7_7  and  C8_8 
REMARK    2  A    between atoms: C7_7  and  C9_9 
REMARK    3  A    between atoms: C8_8  and  N10_10 
ROOT
HETATM    1  C1  UNL     1     -33.415  16.212  -4.503  1.00 20.00     0.239 C 
HETATM    2  C2  UNL     1     -35.175  15.173  -3.157  1.00 20.00     0.239 C 
HETATM    3  C3  UNL     1     -34.602  15.791  -5.367  1.00 20.00     0.012 C 
HETATM    4  C4  UNL     1     -35.255  14.645  -4.585  1.00 20.00     0.012 C 
HETATM    5  C5  UNL     1     -34.203  15.473  -6.800  1.00 20.00     0.012 C 
HETATM    6  C6  UNL     1     -34.559  13.290  -4.727  1.00 20.00     0.012 C 
HETATM    7  N10 UNL     1     -33.816  15.835  -3.087  1.00 20.00    -0.070 N 
HETATM    8  H30 UNL     1     -33.149  15.117  -2.770  1.00 20.00     0.279 HD
ENDROOT
BRANCH   7   9
HETATM    9  C8  UNL     1     -33.742  16.961  -2.107  1.00 20.00     0.236 C 
BRANCH   9  10
HETATM   10  C7  UNL     1     -34.576  16.652  -0.868  1.00 20.00     0.043 C 
BRANCH  10  11
HETATM   11  C9  UNL     1     -35.536  17.754  -0.422  1.00 20.00     0.116 C 
HETATM   12 CL11 UNL     1     -36.390  18.494  -1.793  1.00 20.00    -0.130 Cl
ENDBRANCH  10  11
ENDBRANCH   9  10
ENDBRANCH   7   9
TORSDOF 3
ENDMDL
MODEL 9
REMARK VINA RESULT:      -3.9     11.376     12.482
REMARK  3 active torsions:
REMARK  status: ('A' for Active; 'I' for Inactive)
REMARK    1  A    between atoms: C7_7  and  C8_8 
REMARK    2  A    between atoms: C7_7  and  C9_9 
REMARK    3  A    between atoms: C8_8  and  N10_10 
ROOT
HETATM    1  C1  UNL     1     -33.675  16.659  -2.891  1.00 20.00     0.239 C 
HETATM    2  C2  UNL     1     -35.742  17.006  -4.155  1.00 20.00     0.239 C 
HETATM    3  C3  UNL     1     -34.907  16.448  -2.013  1.00 20.00     0.012 C 
HETATM    4  C4  UNL     1     -35.998  17.294  -2.679  1.00 20.00     0.012 C 
HETATM    5  C5  UNL     1     -34.641  16.746  -0.545  1.00 20.00     0.012 C 
HETATM    6  C6  UNL     1     -35.929  18.791  -2.373  1.00 20.00     0.012 C 
HETATM    7  N10 UNL     1     -34.232  16.985  -4.265  1.00 20.00    -0.070 N 
HETATM    8  H30 UNL     1     -33.935  17.946  -4.487  1.00 20.00     0.279 HD
ENDROOT
BRANCH   7   9
HETATM    9  C8  UNL     1     -33.720  16.107  -5.362  1.00 20.00     0.236 C 
BRANCH   9  10
HETATM   10  C7  UNL     1     -34.853  15.287  -5.968  1.00 20.00     0.043 C 
BRANCH  10  11
HETATM   11  C9  UNL     1     -34.799  13.783  -5.706  1.00 20.00     0.116 C 
HETATM   12 CL11 UNL     1     -35.025  13.395  -3.986  1.00 20.00    -0.130 Cl
ENDBRANCH  10  11
ENDBRANCH   9  10
ENDBRANCH   7   9
TORSDOF 3
ENDMDL
