MODEL 1
REMARK VINA RESULT:      -4.4      0.000      0.000
REMARK  2 active torsions:
REMARK  status: ('A' for Active; 'I' for Inactive)
REMARK    1  A    between atoms: C2_2  and  C7_7 
REMARK    2  A    between atoms: C7_7  and  O11_11 
ROOT
HETATM    1  C3  UNL     1     -34.195  15.521  -3.058  1.00 20.00     0.073 C 
HETATM    2  C4  UNL     1     -34.147  17.082  -5.027  1.00 20.00     0.073 C 
HETATM    3  C5  UNL     1     -33.746  16.691  -2.175  1.00 20.00     0.275 C 
HETATM    4  C6  UNL     1     -33.700  18.197  -4.076  1.00 20.00     0.275 C 
HETATM    5  C7  UNL     1     -33.741  15.702  -4.506  1.00 20.00     0.083 C 
HETATM    6  C9  UNL     1     -33.829  19.075  -1.836  1.00 20.00     0.309 C 
HETATM    7  N10 UNL     1     -34.216  17.973  -2.718  1.00 20.00     0.084 N 
ENDROOT
BRANCH   5   8
HETATM    8  C2  UNL     1     -34.325  14.630  -5.380  1.00 20.00    -0.059 C 
HETATM    9  C1  UNL     1     -34.546  14.823  -6.688  1.00 20.00     0.017 C 
HETATM   10  C8  UNL     1     -34.646  13.330  -4.705  1.00 20.00     0.046 C 
ENDBRANCH   5   8
BRANCH   5  11
HETATM   11  O11 UNL     1     -32.329  15.542  -4.570  1.00 20.00    -0.385 OA
HETATM   12  H28 UNL     1     -32.145  14.645  -4.258  1.00 20.00     0.211 HD
ENDBRANCH   5  11
TORSDOF 2
ENDMDL
MODEL 2
REMARK VINA RESULT:      -4.2      1.219      2.029
REMARK  2 active torsions:
REMARK  status: ('A' for Active; 'I' for Inactive)
REMARK    1  A    between atoms: C2_2  and  C7_7 
REMARK    2  A    between atoms: C7_7  and  O11_11 
ROOT
HETATM    1  C3  UNL     1     -34.682  15.167  -4.294  1.00 20.00     0.073 C 
HETATM    2  C4  UNL     1     -34.104  17.607  -4.475  1.00 20.00     0.073 C 
HETATM    3  C5  UNL     1     -34.450  15.270  -2.783  1.00 20.00     0.275 C 
HETATM    4  C6  UNL     1     -33.892  17.623  -2.958  1.00 20.00     0.275 C 
HETATM    5  C7  UNL     1     -33.871  16.212  -5.061  1.00 20.00     0.083 C 
HETATM    6  C9  UNL     1     -34.569  16.692  -0.842  1.00 20.00     0.309 C 
HETATM    7  N10 UNL     1     -34.741  16.624  -2.293  1.00 20.00     0.084 N 
ENDROOT
BRANCH   5   8
HETATM    8  C2  UNL     1     -34.235  16.198  -6.517  1.00 20.00    -0.059 C 
HETATM    9  C1  UNL     1     -34.392  15.052  -7.197  1.00 20.00     0.017 C 
HETATM   10  C8  UNL     1     -34.412  17.537  -7.168  1.00 20.00     0.046 C 
ENDBRANCH   5   8
BRANCH   5  11
HETATM   11  O11 UNL     1     -32.493  15.868  -4.991  1.00 20.00    -0.385 OA
HETATM   12  H28 UNL     1     -32.425  15.157  -4.337  1.00 20.00     0.211 HD
ENDBRANCH   5  11
TORSDOF 2
ENDMDL
MODEL 3
REMARK VINA RESULT:      -4.2      2.715      4.455
REMARK  2 active torsions:
REMARK  status: ('A' for Active; 'I' for Inactive)
REMARK    1  A    between atoms: C2_2  and  C7_7 
REMARK    2  A    between atoms: C7_7  and  O11_11 
ROOT
HETATM    1  C3  UNL     1     -34.546  14.520  -5.865  1.00 20.00     0.073 C 
HETATM    2  C4  UNL     1     -36.291  15.074  -4.143  1.00 20.00     0.073 C 
HETATM    3  C5  UNL     1     -35.672  14.366  -6.893  1.00 20.00     0.275 C 
HETATM    4  C6  UNL     1     -37.356  14.901  -5.232  1.00 20.00     0.275 C 
HETATM    5  C7  UNL     1     -35.040  14.246  -4.444  1.00 20.00     0.083 C 
HETATM    6  C9  UNL     1     -37.858  15.113  -7.578  1.00 20.00     0.309 C 
HETATM    7  N10 UNL     1     -36.815  15.227  -6.559  1.00 20.00     0.084 N 
ENDROOT
BRANCH   5   8
HETATM    8  C2  UNL     1     -33.965  14.557  -3.444  1.00 20.00    -0.059 C 
HETATM    9  C1  UNL     1     -32.798  13.895  -3.428  1.00 20.00     0.017 C 
HETATM   10  C8  UNL     1     -34.269  15.650  -2.463  1.00 20.00     0.046 C 
ENDBRANCH   5   8
BRANCH   5  11
HETATM   11  O11 UNL     1     -35.318  12.858  -4.312  1.00 20.00    -0.385 OA
HETATM   12  H28 UNL     1     -36.056  12.789  -3.689  1.00 20.00     0.211 HD
ENDBRANCH   5  11
TORSDOF 2
ENDMDL
MODEL 4
REMARK VINA RESULT:      -4.2      1.842      3.253
REMARK  2 active torsions:
REMARK  status: ('A' for Active; 'I' for Inactive)
REMARK    1  A    between atoms: C2_2  and  C7_7 
REMARK    2  A    between atoms: C7_7  and  O11_11 
ROOT
HETATM    1  C3  UNL     1     -33.858  17.568  -4.344  1.00 20.00     0.073 C 
HETATM    2  C4  UNL     1     -34.582  15.641  -5.787  1.00 20.00     0.073 C 
HETATM    3  C5  UNL     1     -33.597  18.370  -5.624  1.00 20.00     0.275 C 
HETATM    4  C6  UNL     1     -34.295  16.511  -7.015  1.00 20.00     0.275 C 
HETATM    5  C7  UNL     1     -33.732  16.064  -4.587  1.00 20.00     0.083 C 
HETATM    6  C9  UNL     1     -34.263  18.748  -7.908  1.00 20.00     0.309 C 
HETATM    7  N10 UNL     1     -34.485  17.936  -6.711  1.00 20.00     0.084 N 
ENDROOT
BRANCH   5   8
HETATM    8  C2  UNL     1     -34.147  15.296  -3.366  1.00 20.00    -0.059 C 
HETATM    9  C1  UNL     1     -34.430  15.908  -2.206  1.00 20.00     0.017 C 
HETATM   10  C8  UNL     1     -34.225  13.806  -3.516  1.00 20.00     0.046 C 
ENDBRANCH   5   8
BRANCH   5  11
HETATM   11  O11 UNL     1     -32.364  15.747  -4.811  1.00 20.00    -0.385 OA
HETATM   12  H28 UNL     1     -32.295  15.492  -5.743  1.00 20.00     0.211 HD
ENDBRANCH   5  11
TORSDOF 2
ENDMDL
MODEL 5
REMARK VINA RESULT:      -4.1      1.417      2.000
REMARK  2 active torsions:
REMARK  status: ('A' for Active; 'I' for Inactive)
REMARK    1  A    between atoms: C2_2  and  C7_7 
REMARK    2  A    between atoms: C7_7  and  O11_11 
ROOT
HETATM    1  C3  UNL     1     -33.657  16.750  -4.493  1.00 20.00     0.073 C 
HETATM    2  C4  UNL     1     -34.735  15.062  -2.975  1.00 20.00     0.073 C 
HETATM    3  C5  UNL     1     -33.715  17.758  -3.340  1.00 20.00     0.275 C 
HETATM    4  C6  UNL     1     -34.756  16.130  -1.876  1.00 20.00     0.275 C 
HETATM    5  C7  UNL     1     -34.752  15.691  -4.370  1.00 20.00     0.083 C 
HETATM    6  C9  UNL     1     -33.646  18.057  -0.950  1.00 20.00     0.309 C 
HETATM    7  N10 UNL     1     -33.646  17.079  -2.039  1.00 20.00     0.084 N 
ENDROOT
BRANCH   5   8
HETATM    8  C2  UNL     1     -34.577  14.628  -5.415  1.00 20.00    -0.059 C 
HETATM    9  C1  UNL     1     -34.454  14.927  -6.717  1.00 20.00     0.017 C 
HETATM   10  C8  UNL     1     -34.548  13.212  -4.921  1.00 20.00     0.046 C 
ENDBRANCH   5   8
BRANCH   5  11
HETATM   11  O11 UNL     1     -36.012  16.298  -4.626  1.00 20.00    -0.385 OA
HETATM   12  H28 UNL     1     -36.572  16.090  -3.865  1.00 20.00     0.211 HD
ENDBRANCH   5  11
TORSDOF 2
ENDMDL
MODEL 6
REMARK VINA RESULT:      -4.0      1.646      2.187
REMARK  2 active torsions:
REMARK  status: ('A' for Active; 'I' for Inactive)
REMARK    1  A    between atoms: C2_2  and  C7_7 
REMARK    2  A    between atoms: C7_7  and  O11_11 
ROOT
HETATM    1  C3  UNL     1     -33.401  15.515  -3.486  1.00 20.00     0.073 C 
HETATM    2  C4  UNL     1     -35.910  15.375  -3.514  1.00 20.00     0.073 C 
HETATM    3  C5  UNL     1     -33.514  16.505  -2.321  1.00 20.00     0.275 C 
HETATM    4  C6  UNL     1     -35.934  16.369  -2.348  1.00 20.00     0.275 C 
HETATM    5  C7  UNL     1     -34.651  15.538  -4.366  1.00 20.00     0.083 C 
HETATM    6  C9  UNL     1     -34.788  17.166  -0.386  1.00 20.00     0.309 C 
HETATM    7  N10 UNL     1     -34.723  16.251  -1.525  1.00 20.00     0.084 N 
ENDROOT
BRANCH   5   8
HETATM    8  C2  UNL     1     -34.585  14.453  -5.402  1.00 20.00    -0.059 C 
HETATM    9  C1  UNL     1     -34.620  13.154  -5.070  1.00 20.00     0.017 C 
HETATM   10  C8  UNL     1     -34.479  14.905  -6.828  1.00 20.00     0.046 C 
ENDBRANCH   5   8
BRANCH   5  11
HETATM   11  O11 UNL     1     -34.689  16.768  -5.080  1.00 20.00    -0.385 OA
HETATM   12  H28 UNL     1     -33.977  17.313  -4.716  1.00 20.00     0.211 HD
ENDBRANCH   5  11
TORSDOF 2
ENDMDL
MODEL 7
REMARK VINA RESULT:      -4.0      1.963      4.230
REMARK  2 active torsions:
REMARK  status: ('A' for Active; 'I' for Inactive)
REMARK    1  A    between atoms: C2_2  and  C7_7 
REMARK    2  A    between atoms: C7_7  and  O11_11 
ROOT
HETATM    1  C3  UNL     1     -33.631  15.540  -3.112  1.00 20.00     0.073 C 
HETATM    2  C4  UNL     1     -35.012  17.487  -3.898  1.00 20.00     0.073 C 
HETATM    3  C5  UNL     1     -33.927  14.848  -4.447  1.00 20.00     0.275 C 
HETATM    4  C6  UNL     1     -35.259  16.727  -5.205  1.00 20.00     0.275 C 
HETATM    5  C7  UNL     1     -34.732  16.532  -2.736  1.00 20.00     0.083 C 
HETATM    6  C9  UNL     1     -34.362  15.157  -6.796  1.00 20.00     0.309 C 
HETATM    7  N10 UNL     1     -34.136  15.832  -5.518  1.00 20.00     0.084 N 
ENDROOT
BRANCH   5   8
HETATM    8  C2  UNL     1     -34.345  17.310  -1.512  1.00 20.00    -0.059 C 
HETATM    9  C1  UNL     1     -34.725  16.931  -0.282  1.00 20.00     0.017 C 
HETATM   10  C8  UNL     1     -33.509  18.533  -1.743  1.00 20.00     0.046 C 
ENDBRANCH   5   8
BRANCH   5  11
HETATM   11  O11 UNL     1     -35.907  15.808  -2.393  1.00 20.00    -0.385 OA
HETATM   12  H28 UNL     1     -35.716  14.878  -2.582  1.00 20.00     0.211 HD
ENDBRANCH   5  11
TORSDOF 2
ENDMDL
MODEL 8
REMARK VINA RESULT:      -4.0     12.955     14.825
REMARK  2 active torsions:
REMARK  status: ('A' for Active; 'I' for Inactive)
REMARK    1  A    between atoms: C2_2  and  C7_7 
REMARK    2  A    between atoms: C7_7  and  O11_11 
ROOT
HETATM    1  C3  UNL     1     -43.006   4.517  -2.976  1.00 20.00     0.073 C 
HETATM    2  C4  UNL     1     -40.880   3.938  -1.767  1.00 20.00     0.073 C 
HETATM    3  C5  UNL     1     -43.022   5.850  -2.218  1.00 20.00     0.275 C 
HETATM    4  C6  UNL     1     -40.971   5.290  -1.052  1.00 20.00     0.275 C 
HETATM    5  C7  UNL     1     -42.260   3.435  -2.195  1.00 20.00     0.083 C 
HETATM    6  C9  UNL     1     -41.686   7.585  -1.214  1.00 20.00     0.309 C 
HETATM    7  N10 UNL     1     -41.659   6.286  -1.886  1.00 20.00     0.084 N 
ENDROOT
BRANCH   5   8
HETATM    8  C2  UNL     1     -42.120   2.190  -3.023  1.00 20.00    -0.059 C 
HETATM    9  C1  UNL     1     -41.133   2.042  -3.919  1.00 20.00     0.017 C 
HETATM   10  C8  UNL     1     -43.148   1.123  -2.791  1.00 20.00     0.046 C 
ENDBRANCH   5   8
BRANCH   5  11
HETATM   11  O11 UNL     1     -43.032   3.072  -1.057  1.00 20.00    -0.385 OA
HETATM   12  H28 UNL     1     -42.438   3.139  -0.296  1.00 20.00     0.211 HD
ENDBRANCH   5  11
TORSDOF 2
ENDMDL
MODEL 9
REMARK VINA RESULT:      -4.0      1.783      4.347
REMARK  2 active torsions:
REMARK  status: ('A' for Active; 'I' for Inactive)
REMARK    1  A    between atoms: C2_2  and  C7_7 
REMARK    2  A    between atoms: C7_7  and  O11_11 
ROOT
HETATM    1  C3  UNL     1     -34.440  17.055  -5.452  1.00 20.00     0.073 C 
HETATM    2  C4  UNL     1     -34.721  14.869  -4.243  1.00 20.00     0.073 C 
HETATM    3  C5  UNL     1     -34.541  16.286  -6.774  1.00 20.00     0.275 C 
HETATM    4  C6  UNL     1     -34.811  14.177  -5.607  1.00 20.00     0.275 C 
HETATM    5  C7  UNL     1     -33.915  16.167  -4.323  1.00 20.00     0.083 C 
HETATM    6  C9  UNL     1     -35.501  14.388  -7.905  1.00 20.00     0.309 C 
HETATM    7  N10 UNL     1     -35.368  15.081  -6.624  1.00 20.00     0.084 N 
ENDROOT
BRANCH   5   8
HETATM    8  C2  UNL     1     -33.976  16.893  -3.010  1.00 20.00    -0.059 C 
HETATM    9  C1  UNL     1     -34.291  16.266  -1.867  1.00 20.00     0.017 C 
HETATM   10  C8  UNL     1     -33.666  18.360  -3.050  1.00 20.00     0.046 C 
ENDBRANCH   5   8
BRANCH   5  11
HETATM   11  O11 UNL     1     -32.541  15.886  -4.559  1.00 20.00    -0.385 OA
HETATM   12  H28 UNL     1     -32.521  15.158  -5.197  1.00 20.00     0.211 HD
ENDBRANCH   5  11
TORSDOF 2
ENDMDL
