MODEL 1
REMARK VINA RESULT:      -4.3      0.000      0.000
REMARK  3 active torsions:
REMARK  status: ('A' for Active; 'I' for Inactive)
REMARK    1  A    between atoms: C2_2  and  C9_9 
REMARK    2  A    between atoms: C6_6  and  C9_9 
REMARK    3  A    between atoms: C9_9  and  N10_10 
ROOT
HETATM    1  C9  UNL     1     -34.983  15.633  -3.365  1.00 20.00     0.254 C 
ENDROOT
BRANCH   1   2
HETATM    2  C2  UNL     1     -34.416  14.282  -3.765  1.00 20.00    -0.060 C 
HETATM    3  C1  UNL     1     -35.210  13.320  -4.266  1.00 20.00     0.016 C 
HETATM    4  C7  UNL     1     -32.942  14.036  -3.581  1.00 20.00     0.044 C 
ENDBRANCH   1   2
BRANCH   1   5
HETATM    5  C6  UNL     1     -34.065  16.375  -2.414  1.00 20.00     0.049 C 
HETATM    6  C3  UNL     1     -34.629  16.556  -1.021  1.00 20.00     0.035 C 
HETATM    7  C4  UNL     1     -33.780  17.693  -0.491  1.00 20.00     0.168 C 
HETATM    8  O11 UNL     1     -33.439  18.515  -1.618  1.00 20.00    -0.391 OA
HETATM    9  C5  UNL     1     -33.799  17.815  -2.818  1.00 20.00     0.174 C 
ENDBRANCH   1   5
BRANCH   1  10
HETATM   10  N10 UNL     1     -36.319  15.523  -2.774  1.00 20.00     0.088 N 
HETATM   11  C8  UNL     1     -37.288  16.273  -3.557  1.00 20.00     0.307 C 
HETATM   12  H28 UNL     1     -36.288  15.890  -1.827  1.00 20.00     0.316 HD
ENDBRANCH   1  10
TORSDOF 3
ENDMDL
MODEL 2
REMARK VINA RESULT:      -4.1      2.281      4.124
REMARK  3 active torsions:
REMARK  status: ('A' for Active; 'I' for Inactive)
REMARK    1  A    between atoms: C2_2  and  C9_9 
REMARK    2  A    between atoms: C6_6  and  C9_9 
REMARK    3  A    between atoms: C9_9  and  N10_10 
ROOT
HETATM    1  C9  UNL     1     -34.525  17.082  -2.529  1.00 20.00     0.254 C 
ENDROOT
BRANCH   1   2
HETATM    2  C2  UNL     1     -34.173  17.549  -1.128  1.00 20.00    -0.060 C 
HETATM    3  C1  UNL     1     -34.814  17.057  -0.054  1.00 20.00     0.016 C 
HETATM    4  C7  UNL     1     -33.091  18.583  -0.965  1.00 20.00     0.044 C 
ENDBRANCH   1   2
BRANCH   1   5
HETATM    5  C6  UNL     1     -34.398  15.579  -2.678  1.00 20.00     0.049 C 
HETATM    6  C3  UNL     1     -33.233  15.136  -3.536  1.00 20.00     0.035 C 
HETATM    7  C4  UNL     1     -33.639  13.722  -3.898  1.00 20.00     0.168 C 
HETATM    8  O11 UNL     1     -35.074  13.705  -3.958  1.00 20.00    -0.391 OA
HETATM    9  C5  UNL     1     -35.567  14.934  -3.403  1.00 20.00     0.174 C 
ENDBRANCH   1   5
BRANCH   1  10
HETATM   10  N10 UNL     1     -33.719  17.748  -3.557  1.00 20.00     0.088 N 
HETATM   11  C8  UNL     1     -34.571  18.475  -4.483  1.00 20.00     0.307 C 
HETATM   12  H28 UNL     1     -33.189  17.043  -4.062  1.00 20.00     0.316 HD
ENDBRANCH   1  10
TORSDOF 3
ENDMDL
MODEL 3
REMARK VINA RESULT:      -4.0      2.298      4.050
REMARK  3 active torsions:
REMARK  status: ('A' for Active; 'I' for Inactive)
REMARK    1  A    between atoms: C2_2  and  C9_9 
REMARK    2  A    between atoms: C6_6  and  C9_9 
REMARK    3  A    between atoms: C9_9  and  N10_10 
ROOT
HETATM    1  C9  UNL     1     -35.282  16.396  -3.078  1.00 20.00     0.254 C 
ENDROOT
BRANCH   1   2
HETATM    2  C2  UNL     1     -34.522  17.179  -2.022  1.00 20.00    -0.060 C 
HETATM    3  C1  UNL     1     -33.733  18.211  -2.362  1.00 20.00     0.016 C 
HETATM    4  C7  UNL     1     -34.664  16.767  -0.581  1.00 20.00     0.044 C 
ENDBRANCH   1   2
BRANCH   1   5
HETATM    5  C6  UNL     1     -34.871  14.937  -3.112  1.00 20.00     0.049 C 
HETATM    6  C3  UNL     1     -33.519  14.687  -3.744  1.00 20.00     0.035 C 
HETATM    7  C4  UNL     1     -33.605  13.212  -4.079  1.00 20.00     0.168 C 
HETATM    8  O11 UNL     1     -34.984  12.932  -4.365  1.00 20.00    -0.391 OA
HETATM    9  C5  UNL     1     -35.770  14.067  -3.973  1.00 20.00     0.174 C 
ENDBRANCH   1   5
BRANCH   1  10
HETATM   10  N10 UNL     1     -35.136  16.978  -4.416  1.00 20.00     0.088 N 
HETATM   11  C8  UNL     1     -36.384  17.586  -4.848  1.00 20.00     0.307 C 
HETATM   12  H28 UNL     1     -34.873  16.243  -5.065  1.00 20.00     0.316 HD
ENDBRANCH   1  10
TORSDOF 3
ENDMDL
MODEL 4
REMARK VINA RESULT:      -4.0      2.152      4.101
REMARK  3 active torsions:
REMARK  status: ('A' for Active; 'I' for Inactive)
REMARK    1  A    between atoms: C2_2  and  C9_9 
REMARK    2  A    between atoms: C6_6  and  C9_9 
REMARK    3  A    between atoms: C9_9  and  N10_10 
ROOT
HETATM    1  C9  UNL     1     -33.925  16.613  -2.985  1.00 20.00     0.254 C 
ENDROOT
BRANCH   1   2
HETATM    2  C2  UNL     1     -33.714  17.889  -3.781  1.00 20.00    -0.060 C 
HETATM    3  C1  UNL     1     -33.576  17.855  -5.117  1.00 20.00     0.016 C 
HETATM    4  C7  UNL     1     -33.655  19.197  -3.039  1.00 20.00     0.044 C 
ENDBRANCH   1   2
BRANCH   1   5
HETATM    5  C6  UNL     1     -34.093  15.403  -3.884  1.00 20.00     0.049 C 
HETATM    6  C3  UNL     1     -35.393  14.656  -3.684  1.00 20.00     0.035 C 
HETATM    7  C4  UNL     1     -35.072  13.310  -4.299  1.00 20.00     0.168 C 
HETATM    8  O11 UNL     1     -33.670  13.082  -4.089  1.00 20.00    -0.391 OA
HETATM    9  C5  UNL     1     -33.074  14.305  -3.628  1.00 20.00     0.174 C 
ENDBRANCH   1   5
BRANCH   1  10
HETATM   10  N10 UNL     1     -35.067  16.708  -2.072  1.00 20.00     0.088 N 
HETATM   11  C8  UNL     1     -34.620  16.672  -0.689  1.00 20.00     0.307 C 
HETATM   12  H28 UNL     1     -35.692  15.927  -2.248  1.00 20.00     0.316 HD
ENDBRANCH   1  10
TORSDOF 3
ENDMDL
MODEL 5
REMARK VINA RESULT:      -3.9      1.190      1.573
REMARK  3 active torsions:
REMARK  status: ('A' for Active; 'I' for Inactive)
REMARK    1  A    between atoms: C2_2  and  C9_9 
REMARK    2  A    between atoms: C6_6  and  C9_9 
REMARK    3  A    between atoms: C9_9  and  N10_10 
ROOT
HETATM    1  C9  UNL     1     -34.205  15.999  -3.869  1.00 20.00     0.254 C 
ENDROOT
BRANCH   1   2
HETATM    2  C2  UNL     1     -34.224  14.480  -3.883  1.00 20.00    -0.060 C 
HETATM    3  C1  UNL     1     -33.105  13.773  -3.655  1.00 20.00     0.016 C 
HETATM    4  C7  UNL     1     -35.526  13.780  -4.167  1.00 20.00     0.044 C 
ENDBRANCH   1   2
BRANCH   1   5
HETATM    5  C6  UNL     1     -33.796  16.550  -2.517  1.00 20.00     0.049 C 
HETATM    6  C3  UNL     1     -34.783  16.268  -1.407  1.00 20.00     0.035 C 
HETATM    7  C4  UNL     1     -34.389  17.305  -0.375  1.00 20.00     0.168 C 
HETATM    8  O11 UNL     1     -33.896  18.443  -1.098  1.00 20.00    -0.391 OA
HETATM    9  C5  UNL     1     -33.720  18.067  -2.473  1.00 20.00     0.174 C 
ENDBRANCH   1   5
BRANCH   1  10
HETATM   10  N10 UNL     1     -35.493  16.575  -4.266  1.00 20.00     0.088 N 
HETATM   11  C8  UNL     1     -35.410  17.137  -5.604  1.00 20.00     0.307 C 
HETATM   12  H28 UNL     1     -35.741  17.305  -3.604  1.00 20.00     0.316 HD
ENDBRANCH   1  10
TORSDOF 3
ENDMDL
MODEL 6
REMARK VINA RESULT:      -3.8      3.313      4.799
REMARK  3 active torsions:
REMARK  status: ('A' for Active; 'I' for Inactive)
REMARK    1  A    between atoms: C2_2  and  C9_9 
REMARK    2  A    between atoms: C6_6  and  C9_9 
REMARK    3  A    between atoms: C9_9  and  N10_10 
ROOT
HETATM    1  C9  UNL     1     -34.597  15.996  -4.670  1.00 20.00     0.254 C 
ENDROOT
BRANCH   1   2
HETATM    2  C2  UNL     1     -34.155  15.259  -3.418  1.00 20.00    -0.060 C 
HETATM    3  C1  UNL     1     -33.574  14.050  -3.497  1.00 20.00     0.016 C 
HETATM    4  C7  UNL     1     -34.390  15.908  -2.080  1.00 20.00     0.044 C 
ENDBRANCH   1   2
BRANCH   1   5
HETATM    5  C6  UNL     1     -35.238  15.067  -5.682  1.00 20.00     0.049 C 
HETATM    6  C3  UNL     1     -34.530  15.020  -7.018  1.00 20.00     0.035 C 
HETATM    7  C4  UNL     1     -35.610  14.455  -7.918  1.00 20.00     0.168 C 
HETATM    8  O11 UNL     1     -36.867  14.910  -7.393  1.00 20.00    -0.391 OA
HETATM    9  C5  UNL     1     -36.637  15.487  -6.098  1.00 20.00     0.174 C 
ENDBRANCH   1   5
BRANCH   1  10
HETATM   10  N10 UNL     1     -33.495  16.727  -5.303  1.00 20.00     0.088 N 
HETATM   11  C8  UNL     1     -33.592  18.149  -5.013  1.00 20.00     0.307 C 
HETATM   12  H28 UNL     1     -33.542  16.580  -6.308  1.00 20.00     0.316 HD
ENDBRANCH   1  10
TORSDOF 3
ENDMDL
MODEL 7
REMARK VINA RESULT:      -3.7      2.770      4.121
REMARK  3 active torsions:
REMARK  status: ('A' for Active; 'I' for Inactive)
REMARK    1  A    between atoms: C2_2  and  C9_9 
REMARK    2  A    between atoms: C6_6  and  C9_9 
REMARK    3  A    between atoms: C9_9  and  N10_10 
ROOT
HETATM    1  C9  UNL     1     -34.402  15.773  -4.986  1.00 20.00     0.254 C 
ENDROOT
BRANCH   1   2
HETATM    2  C2  UNL     1     -33.699  15.390  -3.695  1.00 20.00    -0.060 C 
HETATM    3  C1  UNL     1     -32.920  14.298  -3.630  1.00 20.00     0.016 C 
HETATM    4  C7  UNL     1     -33.901  16.258  -2.482  1.00 20.00     0.044 C 
ENDBRANCH   1   2
BRANCH   1   5
HETATM    5  C6  UNL     1     -35.832  15.272  -5.026  1.00 20.00     0.049 C 
HETATM    6  C3  UNL     1     -36.856  16.277  -4.549  1.00 20.00     0.035 C 
HETATM    7  C4  UNL     1     -38.040  15.385  -4.236  1.00 20.00     0.168 C 
HETATM    8  O11 UNL     1     -37.506  14.123  -3.807  1.00 20.00    -0.391 OA
HETATM    9  C5  UNL     1     -36.098  14.105  -4.090  1.00 20.00     0.174 C 
ENDBRANCH   1   5
BRANCH   1  10
HETATM   10  N10 UNL     1     -33.682  15.300  -6.173  1.00 20.00     0.088 N 
HETATM   11  C8  UNL     1     -34.608  15.048  -7.265  1.00 20.00     0.307 C 
HETATM   12  H28 UNL     1     -33.192  14.442  -5.936  1.00 20.00     0.316 HD
ENDBRANCH   1  10
TORSDOF 3
ENDMDL
MODEL 8
REMARK VINA RESULT:      -3.7      2.113      3.173
REMARK  3 active torsions:
REMARK  status: ('A' for Active; 'I' for Inactive)
REMARK    1  A    between atoms: C2_2  and  C9_9 
REMARK    2  A    between atoms: C6_6  and  C9_9 
REMARK    3  A    between atoms: C9_9  and  N10_10 
ROOT
HETATM    1  C9  UNL     1     -34.653  15.621  -3.436  1.00 20.00     0.254 C 
ENDROOT
BRANCH   1   2
HETATM    2  C2  UNL     1     -34.213  14.202  -3.749  1.00 20.00    -0.060 C 
HETATM    3  C1  UNL     1     -32.957  13.796  -3.498  1.00 20.00     0.016 C 
HETATM    4  C7  UNL     1     -35.214  13.256  -4.358  1.00 20.00     0.044 C 
ENDBRANCH   1   2
BRANCH   1   5
HETATM    5  C6  UNL     1     -34.715  16.485  -4.680  1.00 20.00     0.049 C 
HETATM    6  C3  UNL     1     -33.407  17.159  -5.034  1.00 20.00     0.035 C 
HETATM    7  C4  UNL     1     -33.874  18.275  -5.946  1.00 20.00     0.168 C 
HETATM    8  O11 UNL     1     -35.183  18.658  -5.496  1.00 20.00    -0.391 OA
HETATM    9  C5  UNL     1     -35.642  17.681  -4.550  1.00 20.00     0.174 C 
ENDBRANCH   1   5
BRANCH   1  10
HETATM   10  N10 UNL     1     -33.795  16.262  -2.435  1.00 20.00     0.088 N 
HETATM   11  C8  UNL     1     -34.533  16.499  -1.205  1.00 20.00     0.307 C 
HETATM   12  H28 UNL     1     -33.462  17.147  -2.809  1.00 20.00     0.316 HD
ENDBRANCH   1  10
TORSDOF 3
ENDMDL
MODEL 9
REMARK VINA RESULT:      -3.6      2.506      3.909
REMARK  3 active torsions:
REMARK  status: ('A' for Active; 'I' for Inactive)
REMARK    1  A    between atoms: C2_2  and  C9_9 
REMARK    2  A    between atoms: C6_6  and  C9_9 
REMARK    3  A    between atoms: C9_9  and  N10_10 
ROOT
HETATM    1  C9  UNL     1     -35.718  14.606  -3.880  1.00 20.00     0.254 C 
ENDROOT
BRANCH   1   2
HETATM    2  C2  UNL     1     -34.419  14.953  -3.175  1.00 20.00    -0.060 C 
HETATM    3  C1  UNL     1     -34.377  15.914  -2.237  1.00 20.00     0.016 C 
HETATM    4  C7  UNL     1     -33.171  14.201  -3.554  1.00 20.00     0.044 C 
ENDBRANCH   1   2
BRANCH   1   5
HETATM    5  C6  UNL     1     -35.720  15.062  -5.326  1.00 20.00     0.049 C 
HETATM    6  C3  UNL     1     -35.094  14.078  -6.289  1.00 20.00     0.035 C 
HETATM    7  C4  UNL     1     -34.795  14.963  -7.482  1.00 20.00     0.168 C 
HETATM    8  O11 UNL     1     -34.515  16.273  -6.966  1.00 20.00    -0.391 OA
HETATM    9  C5  UNL     1     -34.879  16.302  -5.577  1.00 20.00     0.174 C 
ENDBRANCH   1   5
BRANCH   1  10
HETATM   10  N10 UNL     1     -36.890  15.154  -3.191  1.00 20.00     0.088 N 
HETATM   11  C8  UNL     1     -38.110  14.808  -3.902  1.00 20.00     0.307 C 
HETATM   12  H28 UNL     1     -36.797  16.165  -3.144  1.00 20.00     0.316 HD
ENDBRANCH   1  10
TORSDOF 3
ENDMDL
