MODEL 1
REMARK VINA RESULT:      -5.1      0.000      0.000
REMARK  5 active torsions:
REMARK  status: ('A' for Active; 'I' for Inactive)
REMARK    1  A    between atoms: C2_2  and  C5_5 
REMARK    2  A    between atoms: C5_5  and  C7_7 
REMARK    3  A    between atoms: C6_6  and  C9_9 
REMARK    4  A    between atoms: C7_7  and  C8_8 
REMARK    5  A    between atoms: C8_8  and  C9_9 
ROOT
HETATM    1  C7  UNL     1     -34.025   6.586   3.487  1.00 20.00     0.006 C 
ENDROOT
BRANCH   1   2
HETATM    2  C5  UNL     1     -34.810   5.412   4.085  1.00 20.00     0.033 C 
BRANCH   2   3
HETATM    3  C2  UNL     1     -34.667   5.256   5.581  1.00 20.00    -0.093 C 
HETATM    4  C1  UNL     1     -35.077   4.145   6.212  1.00 20.00     0.014 C 
HETATM    5  C3  UNL     1     -34.078   6.412   6.337  1.00 20.00     0.042 C 
ENDBRANCH   2   3
ENDBRANCH   1   2
BRANCH   1   6
HETATM    6  C8  UNL     1     -32.624   6.187   3.003  1.00 20.00     0.020 C 
BRANCH   6   7
HETATM    7  C9  UNL     1     -31.688   7.388   2.792  1.00 20.00     0.082 C 
HETATM    8 CL10 UNL     1     -31.001   7.920   4.360  1.00 20.00    -0.125 Cl
BRANCH   7   9
HETATM    9  C6  UNL     1     -32.435   8.546   2.115  1.00 20.00     0.016 C 
HETATM   10  C4  UNL     1     -31.906   8.887   0.727  1.00 20.00     0.006 C 
ENDBRANCH   7   9
ENDBRANCH   6   7
ENDBRANCH   1   6
TORSDOF 5
ENDMDL
MODEL 2
REMARK VINA RESULT:      -5.0      1.998      5.082
REMARK  5 active torsions:
REMARK  status: ('A' for Active; 'I' for Inactive)
REMARK    1  A    between atoms: C2_2  and  C5_5 
REMARK    2  A    between atoms: C5_5  and  C7_7 
REMARK    3  A    between atoms: C6_6  and  C9_9 
REMARK    4  A    between atoms: C7_7  and  C8_8 
REMARK    5  A    between atoms: C8_8  and  C9_9 
ROOT
HETATM    1  C7  UNL     1     -32.782   6.415   3.002  1.00 20.00     0.006 C 
ENDROOT
BRANCH   1   2
HETATM    2  C5  UNL     1     -31.915   7.680   3.034  1.00 20.00     0.033 C 
BRANCH   2   3
HETATM    3  C2  UNL     1     -32.104   8.604   1.853  1.00 20.00    -0.093 C 
HETATM    4  C1  UNL     1     -31.647   8.282   0.633  1.00 20.00     0.014 C 
HETATM    5  C3  UNL     1     -32.795   9.912   2.110  1.00 20.00     0.042 C 
ENDBRANCH   2   3
ENDBRANCH   1   2
BRANCH   1   6
HETATM    6  C8  UNL     1     -34.007   6.503   3.924  1.00 20.00     0.020 C 
BRANCH   6   7
HETATM    7  C9  UNL     1     -34.036   5.408   5.002  1.00 20.00     0.082 C 
HETATM    8 CL10 UNL     1     -35.264   4.168   4.592  1.00 20.00    -0.125 Cl
BRANCH   7   9
HETATM    9  C6  UNL     1     -34.329   6.014   6.383  1.00 20.00     0.016 C 
HETATM   10  C4  UNL     1     -33.511   7.264   6.688  1.00 20.00     0.006 C 
ENDBRANCH   7   9
ENDBRANCH   6   7
ENDBRANCH   1   6
TORSDOF 5
ENDMDL
MODEL 3
REMARK VINA RESULT:      -5.0      1.526      5.193
REMARK  5 active torsions:
REMARK  status: ('A' for Active; 'I' for Inactive)
REMARK    1  A    between atoms: C2_2  and  C5_5 
REMARK    2  A    between atoms: C5_5  and  C7_7 
REMARK    3  A    between atoms: C6_6  and  C9_9 
REMARK    4  A    between atoms: C7_7  and  C8_8 
REMARK    5  A    between atoms: C8_8  and  C9_9 
ROOT
HETATM    1  C7  UNL     1     -32.809   6.648   2.693  1.00 20.00     0.006 C 
ENDROOT
BRANCH   1   2
HETATM    2  C5  UNL     1     -31.819   7.818   2.622  1.00 20.00     0.033 C 
BRANCH   2   3
HETATM    3  C2  UNL     1     -32.081   8.797   1.501  1.00 20.00    -0.093 C 
HETATM    4  C1  UNL     1     -31.706   8.532   0.239  1.00 20.00     0.014 C 
HETATM    5  C3  UNL     1     -32.746  10.093   1.864  1.00 20.00     0.042 C 
ENDBRANCH   2   3
ENDBRANCH   1   2
BRANCH   1   6
HETATM    6  C8  UNL     1     -32.896   6.019   4.091  1.00 20.00     0.020 C 
BRANCH   6   7
HETATM    7  C9  UNL     1     -34.254   6.243   4.775  1.00 20.00     0.082 C 
HETATM    8 CL10 UNL     1     -34.017   6.635   6.508  1.00 20.00    -0.125 Cl
BRANCH   7   9
HETATM    9  C6  UNL     1     -35.148   5.004   4.624  1.00 20.00     0.016 C 
HETATM   10  C4  UNL     1     -34.964   3.978   5.736  1.00 20.00     0.006 C 
ENDBRANCH   7   9
ENDBRANCH   6   7
ENDBRANCH   1   6
TORSDOF 5
ENDMDL
MODEL 4
REMARK VINA RESULT:      -5.0      0.120      1.113
REMARK  5 active torsions:
REMARK  status: ('A' for Active; 'I' for Inactive)
REMARK    1  A    between atoms: C2_2  and  C5_5 
REMARK    2  A    between atoms: C5_5  and  C7_7 
REMARK    3  A    between atoms: C6_6  and  C9_9 
REMARK    4  A    between atoms: C7_7  and  C8_8 
REMARK    5  A    between atoms: C8_8  and  C9_9 
ROOT
HETATM    1  C7  UNL     1     -33.980   6.560   3.487  1.00 20.00     0.006 C 
ENDROOT
BRANCH   1   2
HETATM    2  C5  UNL     1     -34.674   5.382   4.183  1.00 20.00     0.033 C 
BRANCH   2   3
HETATM    3  C2  UNL     1     -34.598   5.409   5.692  1.00 20.00    -0.093 C 
HETATM    4  C1  UNL     1     -34.036   6.437   6.347  1.00 20.00     0.014 C 
HETATM    5  C3  UNL     1     -35.146   4.219   6.427  1.00 20.00     0.042 C 
ENDBRANCH   2   3
ENDBRANCH   1   2
BRANCH   1   6
HETATM    6  C8  UNL     1     -32.591   6.201   2.941  1.00 20.00     0.020 C 
BRANCH   6   7
HETATM    7  C9  UNL     1     -31.668   7.420   2.779  1.00 20.00     0.082 C 
HETATM    8 CL10 UNL     1     -31.043   7.940   4.377  1.00 20.00    -0.125 Cl
BRANCH   7   9
HETATM    9  C6  UNL     1     -32.410   8.575   2.093  1.00 20.00     0.016 C 
HETATM   10  C4  UNL     1     -31.890   8.893   0.696  1.00 20.00     0.006 C 
ENDBRANCH   7   9
ENDBRANCH   6   7
ENDBRANCH   1   6
TORSDOF 5
ENDMDL
MODEL 5
REMARK VINA RESULT:      -4.3     11.044     11.935
REMARK  5 active torsions:
REMARK  status: ('A' for Active; 'I' for Inactive)
REMARK    1  A    between atoms: C2_2  and  C5_5 
REMARK    2  A    between atoms: C5_5  and  C7_7 
REMARK    3  A    between atoms: C6_6  and  C9_9 
REMARK    4  A    between atoms: C7_7  and  C8_8 
REMARK    5  A    between atoms: C8_8  and  C9_9 
ROOT
HETATM    1  C7  UNL     1     -34.675  16.348  -1.341  1.00 20.00     0.006 C 
ENDROOT
BRANCH   1   2
HETATM    2  C5  UNL     1     -33.603  17.446  -1.329  1.00 20.00     0.033 C 
BRANCH   2   3
HETATM    3  C2  UNL     1     -33.444  18.156  -0.005  1.00 20.00    -0.093 C 
HETATM    4  C1  UNL     1     -34.403  18.113   0.933  1.00 20.00     0.014 C 
HETATM    5  C3  UNL     1     -32.181  18.940   0.204  1.00 20.00     0.042 C 
ENDBRANCH   2   3
ENDBRANCH   1   2
BRANCH   1   6
HETATM    6  C8  UNL     1     -34.838  15.682  -2.714  1.00 20.00     0.020 C 
BRANCH   6   7
HETATM    7  C9  UNL     1     -33.500  15.304  -3.369  1.00 20.00     0.082 C 
HETATM    8 CL10 UNL     1     -33.177  16.367  -4.776  1.00 20.00    -0.125 Cl
BRANCH   7   9
HETATM    9  C6  UNL     1     -33.505  13.831  -3.802  1.00 20.00     0.016 C 
HETATM   10  C4  UNL     1     -34.864  13.342  -4.291  1.00 20.00     0.006 C 
ENDBRANCH   7   9
ENDBRANCH   6   7
ENDBRANCH   1   6
TORSDOF 5
ENDMDL
MODEL 6
REMARK VINA RESULT:      -4.1     10.922     12.553
REMARK  5 active torsions:
REMARK  status: ('A' for Active; 'I' for Inactive)
REMARK    1  A    between atoms: C2_2  and  C5_5 
REMARK    2  A    between atoms: C5_5  and  C7_7 
REMARK    3  A    between atoms: C6_6  and  C9_9 
REMARK    4  A    between atoms: C7_7  and  C8_8 
REMARK    5  A    between atoms: C8_8  and  C9_9 
ROOT
HETATM    1  C7  UNL     1     -34.299  14.122  -3.568  1.00 20.00     0.006 C 
ENDROOT
BRANCH   1   2
HETATM    2  C5  UNL     1     -34.566  13.505  -4.948  1.00 20.00     0.033 C 
BRANCH   2   3
HETATM    3  C2  UNL     1     -35.218  14.440  -5.940  1.00 20.00    -0.093 C 
HETATM    4  C1  UNL     1     -34.633  14.736  -7.111  1.00 20.00     0.014 C 
HETATM    5  C3  UNL     1     -36.531  15.052  -5.545  1.00 20.00     0.042 C 
ENDBRANCH   2   3
ENDBRANCH   1   2
BRANCH   1   6
HETATM    6  C8  UNL     1     -33.210  15.203  -3.594  1.00 20.00     0.020 C 
BRANCH   6   7
HETATM    7  C9  UNL     1     -33.620  16.498  -2.875  1.00 20.00     0.082 C 
HETATM    8 CL10 UNL     1     -34.724  16.126  -1.513  1.00 20.00    -0.125 Cl
BRANCH   7   9
HETATM    9  C6  UNL     1     -34.289  17.473  -3.855  1.00 20.00     0.016 C 
HETATM   10  C4  UNL     1     -33.501  17.682  -5.143  1.00 20.00     0.006 C 
ENDBRANCH   7   9
ENDBRANCH   6   7
ENDBRANCH   1   6
TORSDOF 5
ENDMDL
MODEL 7
REMARK VINA RESULT:      -4.0     11.391     12.291
REMARK  5 active torsions:
REMARK  status: ('A' for Active; 'I' for Inactive)
REMARK    1  A    between atoms: C2_2  and  C5_5 
REMARK    2  A    between atoms: C5_5  and  C7_7 
REMARK    3  A    between atoms: C6_6  and  C9_9 
REMARK    4  A    between atoms: C7_7  and  C8_8 
REMARK    5  A    between atoms: C8_8  and  C9_9 
ROOT
HETATM    1  C7  UNL     1     -36.220  14.854  -3.697  1.00 20.00     0.006 C 
ENDROOT
BRANCH   1   2
HETATM    2  C5  UNL     1     -35.956  16.167  -2.950  1.00 20.00     0.033 C 
BRANCH   2   3
HETATM    3  C2  UNL     1     -34.625  16.230  -2.237  1.00 20.00    -0.093 C 
HETATM    4  C1  UNL     1     -33.480  15.926  -2.867  1.00 20.00     0.014 C 
HETATM    5  C3  UNL     1     -34.642  16.613  -0.786  1.00 20.00     0.042 C 
ENDBRANCH   2   3
ENDBRANCH   1   2
BRANCH   1   6
HETATM    6  C8  UNL     1     -36.286  15.032  -5.220  1.00 20.00     0.020 C 
BRANCH   6   7
HETATM    7  C9  UNL     1     -35.300  14.133  -5.982  1.00 20.00     0.082 C 
HETATM    8 CL10 UNL     1     -34.345  13.147  -4.830  1.00 20.00    -0.125 Cl
BRANCH   7   9
HETATM    9  C6  UNL     1     -34.369  14.975  -6.866  1.00 20.00     0.016 C 
HETATM   10  C4  UNL     1     -34.351  16.454  -6.499  1.00 20.00     0.006 C 
ENDBRANCH   7   9
ENDBRANCH   6   7
ENDBRANCH   1   6
TORSDOF 5
ENDMDL
MODEL 8
REMARK VINA RESULT:      -4.0     11.295     11.961
REMARK  5 active torsions:
REMARK  status: ('A' for Active; 'I' for Inactive)
REMARK    1  A    between atoms: C2_2  and  C5_5 
REMARK    2  A    between atoms: C5_5  and  C7_7 
REMARK    3  A    between atoms: C6_6  and  C9_9 
REMARK    4  A    between atoms: C7_7  and  C8_8 
REMARK    5  A    between atoms: C8_8  and  C9_9 
ROOT
HETATM    1  C7  UNL     1     -33.783  16.233  -2.693  1.00 20.00     0.006 C 
ENDROOT
BRANCH   1   2
HETATM    2  C5  UNL     1     -34.685  16.276  -1.453  1.00 20.00     0.033 C 
BRANCH   2   3
HETATM    3  C2  UNL     1     -34.312  17.333  -0.440  1.00 20.00    -0.093 C 
HETATM    4  C1  UNL     1     -33.238  18.119  -0.612  1.00 20.00     0.014 C 
HETATM    5  C3  UNL     1     -35.175  17.444   0.784  1.00 20.00     0.042 C 
ENDBRANCH   2   3
ENDBRANCH   1   2
BRANCH   1   6
HETATM    6  C8  UNL     1     -34.561  15.984  -3.993  1.00 20.00     0.020 C 
BRANCH   6   7
HETATM    7  C9  UNL     1     -34.654  14.497  -4.371  1.00 20.00     0.082 C 
HETATM    8 CL10 UNL     1     -33.221  13.611  -3.756  1.00 20.00    -0.125 Cl
BRANCH   7   9
HETATM    9  C6  UNL     1     -34.773  14.331  -5.893  1.00 20.00     0.016 C 
HETATM   10  C4  UNL     1     -34.206  15.505  -6.682  1.00 20.00     0.006 C 
ENDBRANCH   7   9
ENDBRANCH   6   7
ENDBRANCH   1   6
TORSDOF 5
ENDMDL
MODEL 9
REMARK VINA RESULT:      -4.0     11.287     12.011
REMARK  5 active torsions:
REMARK  status: ('A' for Active; 'I' for Inactive)
REMARK    1  A    between atoms: C2_2  and  C5_5 
REMARK    2  A    between atoms: C5_5  and  C7_7 
REMARK    3  A    between atoms: C6_6  and  C9_9 
REMARK    4  A    between atoms: C7_7  and  C8_8 
REMARK    5  A    between atoms: C8_8  and  C9_9 
ROOT
HETATM    1  C7  UNL     1     -34.003  16.553  -1.857  1.00 20.00     0.006 C 
ENDROOT
BRANCH   1   2
HETATM    2  C5  UNL     1     -34.664  16.937  -0.526  1.00 20.00     0.033 C 
BRANCH   2   3
HETATM    3  C2  UNL     1     -33.928  17.997   0.260  1.00 20.00    -0.093 C 
HETATM    4  C1  UNL     1     -32.841  18.608  -0.237  1.00 20.00     0.014 C 
HETATM    5  C3  UNL     1     -34.444  18.313   1.634  1.00 20.00     0.042 C 
ENDBRANCH   2   3
ENDBRANCH   1   2
BRANCH   1   6
HETATM    6  C8  UNL     1     -34.796  15.496  -2.638  1.00 20.00     0.020 C 
BRANCH   6   7
HETATM    7  C9  UNL     1     -34.142  15.111  -3.975  1.00 20.00     0.082 C 
HETATM    8 CL10 UNL     1     -33.311  13.530  -3.825  1.00 20.00    -0.125 Cl
BRANCH   7   9
HETATM    9  C6  UNL     1     -33.153  16.195  -4.427  1.00 20.00     0.016 C 
HETATM   10  C4  UNL     1     -33.672  17.059  -5.570  1.00 20.00     0.006 C 
ENDBRANCH   7   9
ENDBRANCH   6   7
ENDBRANCH   1   6
TORSDOF 5
ENDMDL
