MODEL 1
REMARK VINA RESULT:      -4.0      0.000      0.000
REMARK  3 active torsions:
REMARK  status: ('A' for Active; 'I' for Inactive)
REMARK    1  A    between atoms: C1_1  and  C7_7 
REMARK    2  A    between atoms: C1_1  and  C8_8 
REMARK    3  A    between atoms: C8_8  and  O10_10 
ROOT
HETATM    1  C1  UNL     1     -34.896  15.503  -3.083  1.00 20.00     0.163 C 
HETATM    2  O9  UNL     1     -36.125  15.568  -2.996  1.00 20.00    -0.294 OA
ENDROOT
BRANCH   1   3
HETATM    3  C7  UNL     1     -34.011  16.410  -2.230  1.00 20.00     0.050 C 
HETATM    4  C2  UNL     1     -33.823  17.751  -2.932  1.00 20.00     0.017 C 
HETATM    5  C3  UNL     1     -34.635  16.587  -0.851  1.00 20.00     0.017 C 
ENDBRANCH   1   3
BRANCH   1   6
HETATM    6  C8  UNL     1     -34.217  14.518  -4.042  1.00 20.00     0.113 C 
HETATM    7  C4  UNL     1     -35.096  13.294  -4.276  1.00 20.00     0.054 C 
HETATM    8  C5  UNL     1     -32.823  14.130  -3.554  1.00 20.00     0.054 C 
BRANCH   6   9
HETATM    9  O10 UNL     1     -34.079  15.176  -5.301  1.00 20.00    -0.378 OA
HETATM   10  C6  UNL     1     -34.837  14.527  -6.309  1.00 20.00     0.203 C 
ENDBRANCH   6   9
ENDBRANCH   1   6
TORSDOF 3
ENDMDL
MODEL 2
REMARK VINA RESULT:      -3.8      1.638      3.750
REMARK  3 active torsions:
REMARK  status: ('A' for Active; 'I' for Inactive)
REMARK    1  A    between atoms: C1_1  and  C7_7 
REMARK    2  A    between atoms: C1_1  and  C8_8 
REMARK    3  A    between atoms: C8_8  and  O10_10 
ROOT
HETATM    1  C1  UNL     1     -33.864  15.914  -4.996  1.00 20.00     0.163 C 
HETATM    2  O9  UNL     1     -32.805  16.541  -5.094  1.00 20.00    -0.294 OA
ENDROOT
BRANCH   1   3
HETATM    3  C7  UNL     1     -34.879  15.925  -6.138  1.00 20.00     0.050 C 
HETATM    4  C2  UNL     1     -34.970  17.328  -6.729  1.00 20.00     0.017 C 
HETATM    5  C3  UNL     1     -34.475  14.902  -7.194  1.00 20.00     0.017 C 
ENDBRANCH   1   3
BRANCH   1   6
HETATM    6  C8  UNL     1     -34.196  15.106  -3.736  1.00 20.00     0.113 C 
HETATM    7  C4  UNL     1     -33.503  13.749  -3.761  1.00 20.00     0.054 C 
HETATM    8  C5  UNL     1     -35.704  14.969  -3.540  1.00 20.00     0.054 C 
BRANCH   6   9
HETATM    9  O10 UNL     1     -33.667  15.823  -2.620  1.00 20.00    -0.378 OA
HETATM   10  C6  UNL     1     -34.696  16.221  -1.728  1.00 20.00     0.203 C 
ENDBRANCH   6   9
ENDBRANCH   1   6
TORSDOF 3
ENDMDL
MODEL 3
REMARK VINA RESULT:      -3.8      1.885      2.668
REMARK  3 active torsions:
REMARK  status: ('A' for Active; 'I' for Inactive)
REMARK    1  A    between atoms: C1_1  and  C7_7 
REMARK    2  A    between atoms: C1_1  and  C8_8 
REMARK    3  A    between atoms: C8_8  and  O10_10 
ROOT
HETATM    1  C1  UNL     1     -35.958  15.910  -3.297  1.00 20.00     0.163 C 
HETATM    2  O9  UNL     1     -36.587  16.965  -3.176  1.00 20.00    -0.294 OA
ENDROOT
BRANCH   1   3
HETATM    3  C7  UNL     1     -34.616  15.723  -2.590  1.00 20.00     0.050 C 
HETATM    4  C2  UNL     1     -33.498  16.299  -3.452  1.00 20.00     0.017 C 
HETATM    5  C3  UNL     1     -34.661  16.389  -1.219  1.00 20.00     0.017 C 
ENDBRANCH   1   3
BRANCH   1   6
HETATM    6  C8  UNL     1     -36.496  14.757  -4.153  1.00 20.00     0.113 C 
HETATM    7  C4  UNL     1     -35.519  13.587  -4.166  1.00 20.00     0.054 C 
HETATM    8  C5  UNL     1     -36.841  15.223  -5.565  1.00 20.00     0.054 C 
BRANCH   6   9
HETATM    9  O10 UNL     1     -37.695  14.291  -3.534  1.00 20.00    -0.378 OA
HETATM   10  C6  UNL     1     -38.839  14.650  -4.291  1.00 20.00     0.203 C 
ENDBRANCH   6   9
ENDBRANCH   1   6
TORSDOF 3
ENDMDL
MODEL 4
REMARK VINA RESULT:      -3.7      1.447      3.713
REMARK  3 active torsions:
REMARK  status: ('A' for Active; 'I' for Inactive)
REMARK    1  A    between atoms: C1_1  and  C7_7 
REMARK    2  A    between atoms: C1_1  and  C8_8 
REMARK    3  A    between atoms: C8_8  and  O10_10 
ROOT
HETATM    1  C1  UNL     1     -34.751  14.056  -5.004  1.00 20.00     0.163 C 
HETATM    2  O9  UNL     1     -34.936  12.837  -5.071  1.00 20.00    -0.294 OA
ENDROOT
BRANCH   1   3
HETATM    3  C7  UNL     1     -35.421  14.997  -6.005  1.00 20.00     0.050 C 
HETATM    4  C2  UNL     1     -35.321  14.408  -7.408  1.00 20.00     0.017 C 
HETATM    5  C3  UNL     1     -36.873  15.226  -5.600  1.00 20.00     0.017 C 
ENDBRANCH   1   3
BRANCH   1   6
HETATM    6  C8  UNL     1     -33.850  14.666  -3.924  1.00 20.00     0.113 C 
HETATM    7  C4  UNL     1     -33.238  15.978  -4.402  1.00 20.00     0.054 C 
HETATM    8  C5  UNL     1     -32.781  13.677  -3.463  1.00 20.00     0.054 C 
BRANCH   6   9
HETATM    9  O10 UNL     1     -34.679  14.977  -2.804  1.00 20.00    -0.378 OA
HETATM   10  C6  UNL     1     -34.275  16.186  -2.183  1.00 20.00     0.203 C 
ENDBRANCH   6   9
ENDBRANCH   1   6
TORSDOF 3
ENDMDL
MODEL 5
REMARK VINA RESULT:      -3.7      1.151      1.702
REMARK  3 active torsions:
REMARK  status: ('A' for Active; 'I' for Inactive)
REMARK    1  A    between atoms: C1_1  and  C7_7 
REMARK    2  A    between atoms: C1_1  and  C8_8 
REMARK    3  A    between atoms: C8_8  and  O10_10 
ROOT
HETATM    1  C1  UNL     1     -34.667  16.423  -3.182  1.00 20.00     0.163 C 
HETATM    2  O9  UNL     1     -35.875  16.656  -3.287  1.00 20.00    -0.294 OA
ENDROOT
BRANCH   1   3
HETATM    3  C7  UNL     1     -33.886  16.922  -1.967  1.00 20.00     0.050 C 
HETATM    4  C2  UNL     1     -33.601  18.412  -2.118  1.00 20.00     0.017 C 
HETATM    5  C3  UNL     1     -34.676  16.633  -0.695  1.00 20.00     0.017 C 
ENDBRANCH   1   3
BRANCH   1   6
HETATM    6  C8  UNL     1     -33.913  15.631  -4.257  1.00 20.00     0.113 C 
HETATM    7  C4  UNL     1     -32.804  14.790  -3.635  1.00 20.00     0.054 C 
HETATM    8  C5  UNL     1     -33.381  16.547  -5.356  1.00 20.00     0.054 C 
BRANCH   6   9
HETATM    9  O10 UNL     1     -34.843  14.723  -4.847  1.00 20.00    -0.378 OA
HETATM   10  C6  UNL     1     -34.794  13.453  -4.217  1.00 20.00     0.203 C 
ENDBRANCH   6   9
ENDBRANCH   1   6
TORSDOF 3
ENDMDL
MODEL 6
REMARK VINA RESULT:      -3.7      1.317      1.616
REMARK  3 active torsions:
REMARK  status: ('A' for Active; 'I' for Inactive)
REMARK    1  A    between atoms: C1_1  and  C7_7 
REMARK    2  A    between atoms: C1_1  and  C8_8 
REMARK    3  A    between atoms: C8_8  and  O10_10 
ROOT
HETATM    1  C1  UNL     1     -34.337  15.978  -3.547  1.00 20.00     0.163 C 
HETATM    2  O9  UNL     1     -33.514  16.838  -3.876  1.00 20.00    -0.294 OA
ENDROOT
BRANCH   1   3
HETATM    3  C7  UNL     1     -35.333  16.249  -2.421  1.00 20.00     0.050 C 
HETATM    4  C2  UNL     1     -34.578  16.494  -1.118  1.00 20.00     0.017 C 
HETATM    5  C3  UNL     1     -36.211  17.440  -2.788  1.00 20.00     0.017 C 
ENDBRANCH   1   3
BRANCH   1   6
HETATM    6  C8  UNL     1     -34.389  14.617  -4.253  1.00 20.00     0.113 C 
HETATM    7  C4  UNL     1     -35.774  13.992  -4.125  1.00 20.00     0.054 C 
HETATM    8  C5  UNL     1     -33.295  13.681  -3.745  1.00 20.00     0.054 C 
BRANCH   6   9
HETATM    9  O10 UNL     1     -34.165  14.850  -5.643  1.00 20.00    -0.378 OA
HETATM   10  C6  UNL     1     -35.227  14.336  -6.430  1.00 20.00     0.203 C 
ENDBRANCH   6   9
ENDBRANCH   1   6
TORSDOF 3
ENDMDL
MODEL 7
REMARK VINA RESULT:      -3.6      1.701      2.994
REMARK  3 active torsions:
REMARK  status: ('A' for Active; 'I' for Inactive)
REMARK    1  A    between atoms: C1_1  and  C7_7 
REMARK    2  A    between atoms: C1_1  and  C8_8 
REMARK    3  A    between atoms: C8_8  and  O10_10 
ROOT
HETATM    1  C1  UNL     1     -34.828  16.253  -4.601  1.00 20.00     0.163 C 
HETATM    2  O9  UNL     1     -35.986  16.679  -4.632  1.00 20.00    -0.294 OA
ENDROOT
BRANCH   1   3
HETATM    3  C7  UNL     1     -33.834  16.630  -5.698  1.00 20.00     0.050 C 
HETATM    4  C2  UNL     1     -34.339  16.122  -7.044  1.00 20.00     0.017 C 
HETATM    5  C3  UNL     1     -33.636  18.142  -5.713  1.00 20.00     0.017 C 
ENDBRANCH   1   3
BRANCH   1   6
HETATM    6  C8  UNL     1     -34.349  15.336  -3.469  1.00 20.00     0.113 C 
HETATM    7  C4  UNL     1     -34.586  15.981  -2.108  1.00 20.00     0.054 C 
HETATM    8  C5  UNL     1     -32.889  14.930  -3.657  1.00 20.00     0.054 C 
BRANCH   6   9
HETATM    9  O10 UNL     1     -35.147  14.153  -3.513  1.00 20.00    -0.378 OA
HETATM   10  C6  UNL     1     -34.727  13.286  -4.553  1.00 20.00     0.203 C 
ENDBRANCH   6   9
ENDBRANCH   1   6
TORSDOF 3
ENDMDL
MODEL 8
REMARK VINA RESULT:      -3.6      1.836      3.204
REMARK  3 active torsions:
REMARK  status: ('A' for Active; 'I' for Inactive)
REMARK    1  A    between atoms: C1_1  and  C7_7 
REMARK    2  A    between atoms: C1_1  and  C8_8 
REMARK    3  A    between atoms: C8_8  and  O10_10 
ROOT
HETATM    1  C1  UNL     1     -33.890  15.884  -4.932  1.00 20.00     0.163 C 
HETATM    2  O9  UNL     1     -32.769  16.387  -4.809  1.00 20.00    -0.294 OA
ENDROOT
BRANCH   1   3
HETATM    3  C7  UNL     1     -34.493  15.051  -3.802  1.00 20.00     0.050 C 
HETATM    4  C2  UNL     1     -33.811  13.688  -3.751  1.00 20.00     0.017 C 
HETATM    5  C3  UNL     1     -34.346  15.796  -2.480  1.00 20.00     0.017 C 
ENDBRANCH   1   3
BRANCH   1   6
HETATM    6  C8  UNL     1     -34.712  16.076  -6.213  1.00 20.00     0.113 C 
HETATM    7  C4  UNL     1     -34.393  17.416  -6.867  1.00 20.00     0.054 C 
HETATM    8  C5  UNL     1     -36.207  15.916  -5.948  1.00 20.00     0.054 C 
BRANCH   6   9
HETATM    9  O10 UNL     1     -34.312  15.059  -7.131  1.00 20.00    -0.378 OA
HETATM   10  C6  UNL     1     -35.436  14.435  -7.731  1.00 20.00     0.203 C 
ENDBRANCH   6   9
ENDBRANCH   1   6
TORSDOF 3
ENDMDL
MODEL 9
REMARK VINA RESULT:      -3.6      1.636      2.706
REMARK  3 active torsions:
REMARK  status: ('A' for Active; 'I' for Inactive)
REMARK    1  A    between atoms: C1_1  and  C7_7 
REMARK    2  A    between atoms: C1_1  and  C8_8 
REMARK    3  A    between atoms: C8_8  and  O10_10 
ROOT
HETATM    1  C1  UNL     1     -33.779  16.023  -4.494  1.00 20.00     0.163 C 
HETATM    2  O9  UNL     1     -32.546  15.972  -4.525  1.00 20.00    -0.294 OA
ENDROOT
BRANCH   1   3
HETATM    3  C7  UNL     1     -34.493  16.863  -3.436  1.00 20.00     0.050 C 
HETATM    4  C2  UNL     1     -34.298  16.231  -2.062  1.00 20.00     0.017 C 
HETATM    5  C3  UNL     1     -33.962  18.292  -3.471  1.00 20.00     0.017 C 
ENDBRANCH   1   3
BRANCH   1   6
HETATM    6  C8  UNL     1     -34.633  15.251  -5.507  1.00 20.00     0.113 C 
HETATM    7  C4  UNL     1     -34.252  15.626  -6.936  1.00 20.00     0.054 C 
HETATM    8  C5  UNL     1     -36.124  15.447  -5.248  1.00 20.00     0.054 C 
BRANCH   6   9
HETATM    9  O10 UNL     1     -34.333  13.865  -5.348  1.00 20.00    -0.378 OA
HETATM   10  C6  UNL     1     -35.099  13.289  -4.302  1.00 20.00     0.203 C 
ENDBRANCH   6   9
ENDBRANCH   1   6
TORSDOF 3
ENDMDL
