MODEL 1
REMARK VINA RESULT:      -4.5      0.000      0.000
REMARK  3 active torsions:
REMARK  status: ('A' for Active; 'I' for Inactive)
REMARK    1  A    between atoms: C2_2  and  C9_9 
REMARK    2  A    between atoms: C7_7  and  C9_9 
REMARK    3  A    between atoms: C9_9  and  O11_11 
ROOT
HETATM    1  C3  UNL     1     -34.755  16.094  -1.776  1.00 20.00     0.034 C 
HETATM    2  C4  UNL     1     -33.695  18.030  -2.969  1.00 20.00     0.034 C 
HETATM    3  C5  UNL     1     -34.654  16.916  -0.497  1.00 20.00     0.168 C 
HETATM    4  C6  UNL     1     -33.653  18.744  -1.623  1.00 20.00     0.168 C 
HETATM    5  C7  UNL     1     -33.670  16.509  -2.775  1.00 20.00     0.023 C 
HETATM    6  O10 UNL     1     -34.727  18.312  -0.787  1.00 20.00    -0.391 OA
ENDROOT
BRANCH   5   7
HETATM    7  C9  UNL     1     -33.838  15.781  -4.106  1.00 20.00     0.150 C 
BRANCH   7   8
HETATM    8  C2  UNL     1     -33.910  14.280  -3.945  1.00 20.00    -0.064 C 
HETATM    9  C1  UNL     1     -32.856  13.582  -3.491  1.00 20.00     0.016 C 
HETATM   10  C8  UNL     1     -35.198  13.590  -4.297  1.00 20.00     0.045 C 
ENDBRANCH   7   8
BRANCH   7  11
HETATM   11  O11 UNL     1     -32.745  16.107  -4.961  1.00 20.00    -0.391 OA
HETATM   12  H27 UNL     1     -32.139  15.350  -4.933  1.00 20.00     0.210 HD
ENDBRANCH   7  11
ENDBRANCH   5   7
TORSDOF 3
ENDMDL
MODEL 2
REMARK VINA RESULT:      -4.4      2.910      4.994
REMARK  3 active torsions:
REMARK  status: ('A' for Active; 'I' for Inactive)
REMARK    1  A    between atoms: C2_2  and  C9_9 
REMARK    2  A    between atoms: C7_7  and  C9_9 
REMARK    3  A    between atoms: C9_9  and  O11_11 
ROOT
HETATM    1  C3  UNL     1     -37.179  15.128  -5.466  1.00 20.00     0.034 C 
HETATM    2  C4  UNL     1     -35.182  14.004  -6.486  1.00 20.00     0.034 C 
HETATM    3  C5  UNL     1     -37.476  15.698  -6.848  1.00 20.00     0.168 C 
HETATM    4  C6  UNL     1     -35.591  14.636  -7.811  1.00 20.00     0.168 C 
HETATM    5  C7  UNL     1     -35.681  14.847  -5.306  1.00 20.00     0.023 C 
HETATM    6  O10 UNL     1     -37.006  14.819  -7.869  1.00 20.00    -0.391 OA
ENDROOT
BRANCH   5   7
HETATM    7  C9  UNL     1     -35.388  14.160  -3.976  1.00 20.00     0.150 C 
BRANCH   7   8
HETATM    8  C2  UNL     1     -34.183  14.741  -3.272  1.00 20.00    -0.064 C 
HETATM    9  C1  UNL     1     -32.945  14.287  -3.531  1.00 20.00     0.016 C 
HETATM   10  C8  UNL     1     -34.407  15.850  -2.282  1.00 20.00     0.045 C 
ENDBRANCH   7   8
BRANCH   7  11
HETATM   11  O11 UNL     1     -35.169  12.770  -4.203  1.00 20.00    -0.391 OA
HETATM   12  H27 UNL     1     -35.203  12.339  -3.334  1.00 20.00     0.210 HD
ENDBRANCH   7  11
ENDBRANCH   5   7
TORSDOF 3
ENDMDL
MODEL 3
REMARK VINA RESULT:      -4.4      1.558      4.409
REMARK  3 active torsions:
REMARK  status: ('A' for Active; 'I' for Inactive)
REMARK    1  A    between atoms: C2_2  and  C9_9 
REMARK    2  A    between atoms: C7_7  and  C9_9 
REMARK    3  A    between atoms: C9_9  and  O11_11 
ROOT
HETATM    1  C3  UNL     1     -33.140  15.070  -3.519  1.00 20.00     0.034 C 
HETATM    2  C4  UNL     1     -35.567  15.707  -3.522  1.00 20.00     0.034 C 
HETATM    3  C5  UNL     1     -33.580  13.668  -3.925  1.00 20.00     0.168 C 
HETATM    4  C6  UNL     1     -35.871  14.270  -3.927  1.00 20.00     0.168 C 
HETATM    5  C7  UNL     1     -34.250  15.782  -2.739  1.00 20.00     0.023 C 
HETATM    6  O10 UNL     1     -34.790  13.717  -4.679  1.00 20.00    -0.391 OA
ENDROOT
BRANCH   5   7
HETATM    7  C9  UNL     1     -33.871  17.229  -2.437  1.00 20.00     0.150 C 
BRANCH   7   8
HETATM    8  C2  UNL     1     -33.888  17.539  -0.957  1.00 20.00    -0.064 C 
HETATM    9  C1  UNL     1     -34.809  16.996  -0.146  1.00 20.00     0.016 C 
HETATM   10  C8  UNL     1     -32.835  18.467  -0.416  1.00 20.00     0.045 C 
ENDBRANCH   7   8
BRANCH   7  11
HETATM   11  O11 UNL     1     -34.778  18.102  -3.105  1.00 20.00    -0.391 OA
HETATM   12  H27 UNL     1     -35.423  18.392  -2.441  1.00 20.00     0.210 HD
ENDBRANCH   7  11
ENDBRANCH   5   7
TORSDOF 3
ENDMDL
MODEL 4
REMARK VINA RESULT:      -4.4      1.479      4.583
REMARK  3 active torsions:
REMARK  status: ('A' for Active; 'I' for Inactive)
REMARK    1  A    between atoms: C2_2  and  C9_9 
REMARK    2  A    between atoms: C7_7  and  C9_9 
REMARK    3  A    between atoms: C9_9  and  O11_11 
ROOT
HETATM    1  C3  UNL     1     -33.435  15.391  -3.323  1.00 20.00     0.034 C 
HETATM    2  C4  UNL     1     -35.840  14.832  -3.764  1.00 20.00     0.034 C 
HETATM    3  C5  UNL     1     -33.099  13.965  -3.745  1.00 20.00     0.168 C 
HETATM    4  C6  UNL     1     -35.370  13.438  -4.162  1.00 20.00     0.168 C 
HETATM    5  C7  UNL     1     -34.862  15.471  -2.771  1.00 20.00     0.023 C 
HETATM    6  O10 UNL     1     -34.047  13.483  -4.697  1.00 20.00    -0.391 OA
ENDROOT
BRANCH   5   7
HETATM    7  C9  UNL     1     -35.253  16.913  -2.463  1.00 20.00     0.150 C 
BRANCH   7   8
HETATM    8  C2  UNL     1     -34.520  17.473  -1.265  1.00 20.00    -0.064 C 
HETATM    9  C1  UNL     1     -34.786  17.036  -0.024  1.00 20.00     0.016 C 
HETATM   10  C8  UNL     1     -33.475  18.528  -1.504  1.00 20.00     0.045 C 
ENDBRANCH   7   8
BRANCH   7  11
HETATM   11  O11 UNL     1     -36.657  16.978  -2.221  1.00 20.00    -0.391 OA
HETATM   12  H27 UNL     1     -36.780  16.828  -1.271  1.00 20.00     0.210 HD
ENDBRANCH   7  11
ENDBRANCH   5   7
TORSDOF 3
ENDMDL
MODEL 5
REMARK VINA RESULT:      -4.3      1.626      2.135
REMARK  3 active torsions:
REMARK  status: ('A' for Active; 'I' for Inactive)
REMARK    1  A    between atoms: C2_2  and  C9_9 
REMARK    2  A    between atoms: C7_7  and  C9_9 
REMARK    3  A    between atoms: C9_9  and  O11_11 
ROOT
HETATM    1  C3  UNL     1     -35.622  17.377  -3.751  1.00 20.00     0.034 C 
HETATM    2  C4  UNL     1     -33.814  16.196  -2.475  1.00 20.00     0.034 C 
HETATM    3  C5  UNL     1     -36.322  17.600  -2.416  1.00 20.00     0.168 C 
HETATM    4  C6  UNL     1     -34.615  16.485  -1.211  1.00 20.00     0.168 C 
HETATM    5  C7  UNL     1     -34.738  16.127  -3.697  1.00 20.00     0.023 C 
HETATM    6  O10 UNL     1     -35.371  17.688  -1.356  1.00 20.00    -0.391 OA
ENDROOT
BRANCH   5   7
HETATM    7  C9  UNL     1     -33.935  15.963  -4.985  1.00 20.00     0.150 C 
BRANCH   7   8
HETATM    8  C2  UNL     1     -34.403  14.792  -5.819  1.00 20.00    -0.064 C 
HETATM    9  C1  UNL     1     -34.517  14.894  -7.153  1.00 20.00     0.016 C 
HETATM   10  C8  UNL     1     -34.727  13.504  -5.113  1.00 20.00     0.045 C 
ENDBRANCH   7   8
BRANCH   7  11
HETATM   11  O11 UNL     1     -32.559  15.783  -4.661  1.00 20.00    -0.391 OA
HETATM   12  H27 UNL     1     -32.456  14.856  -4.395  1.00 20.00     0.210 HD
ENDBRANCH   7  11
ENDBRANCH   5   7
TORSDOF 3
ENDMDL
MODEL 6
REMARK VINA RESULT:      -4.2      1.302      1.708
REMARK  3 active torsions:
REMARK  status: ('A' for Active; 'I' for Inactive)
REMARK    1  A    between atoms: C2_2  and  C9_9 
REMARK    2  A    between atoms: C7_7  and  C9_9 
REMARK    3  A    between atoms: C9_9  and  O11_11 
ROOT
HETATM    1  C3  UNL     1     -34.618  16.689  -0.748  1.00 20.00     0.034 C 
HETATM    2  C4  UNL     1     -34.251  17.816  -2.960  1.00 20.00     0.034 C 
HETATM    3  C5  UNL     1     -33.825  17.827  -0.116  1.00 20.00     0.168 C 
HETATM    4  C6  UNL     1     -33.479  18.891  -2.204  1.00 20.00     0.168 C 
HETATM    5  C7  UNL     1     -34.198  16.481  -2.207  1.00 20.00     0.023 C 
HETATM    6  O10 UNL     1     -33.975  19.029  -0.872  1.00 20.00    -0.391 OA
ENDROOT
BRANCH   5   7
HETATM    7  C9  UNL     1     -35.070  15.430  -2.887  1.00 20.00     0.150 C 
BRANCH   7   8
HETATM    8  C2  UNL     1     -34.260  14.365  -3.590  1.00 20.00    -0.064 C 
HETATM    9  C1  UNL     1     -34.859  13.335  -4.209  1.00 20.00     0.016 C 
HETATM   10  C8  UNL     1     -32.762  14.496  -3.585  1.00 20.00     0.045 C 
ENDBRANCH   7   8
BRANCH   7  11
HETATM   11  O11 UNL     1     -35.921  16.069  -3.836  1.00 20.00    -0.391 OA
HETATM   12  H27 UNL     1     -36.832  15.906  -3.543  1.00 20.00     0.210 HD
ENDBRANCH   7  11
ENDBRANCH   5   7
TORSDOF 3
ENDMDL
MODEL 7
REMARK VINA RESULT:      -4.1      2.788      4.533
REMARK  3 active torsions:
REMARK  status: ('A' for Active; 'I' for Inactive)
REMARK    1  A    between atoms: C2_2  and  C9_9 
REMARK    2  A    between atoms: C7_7  and  C9_9 
REMARK    3  A    between atoms: C9_9  and  O11_11 
ROOT
HETATM    1  C3  UNL     1     -34.477  14.780  -6.233  1.00 20.00     0.034 C 
HETATM    2  C4  UNL     1     -36.521  15.900  -5.303  1.00 20.00     0.034 C 
HETATM    3  C5  UNL     1     -34.754  15.515  -7.539  1.00 20.00     0.168 C 
HETATM    4  C6  UNL     1     -36.683  16.573  -6.661  1.00 20.00     0.168 C 
HETATM    5  C7  UNL     1     -35.774  14.567  -5.445  1.00 20.00     0.023 C 
HETATM    6  O10 UNL     1     -35.415  16.756  -7.290  1.00 20.00    -0.391 OA
ENDROOT
BRANCH   5   7
HETATM    7  C9  UNL     1     -35.494  13.945  -4.080  1.00 20.00     0.150 C 
BRANCH   7   8
HETATM    8  C2  UNL     1     -34.231  14.479  -3.444  1.00 20.00    -0.064 C 
HETATM    9  C1  UNL     1     -33.060  13.840  -3.589  1.00 20.00     0.016 C 
HETATM   10  C8  UNL     1     -34.322  15.754  -2.651  1.00 20.00     0.045 C 
ENDBRANCH   7   8
BRANCH   7  11
HETATM   11  O11 UNL     1     -35.382  12.531  -4.222  1.00 20.00    -0.391 OA
HETATM   12  H27 UNL     1     -34.604  12.263  -3.709  1.00 20.00     0.210 HD
ENDBRANCH   7  11
ENDBRANCH   5   7
TORSDOF 3
ENDMDL
MODEL 8
REMARK VINA RESULT:      -4.0      2.487      4.730
REMARK  3 active torsions:
REMARK  status: ('A' for Active; 'I' for Inactive)
REMARK    1  A    between atoms: C2_2  and  C9_9 
REMARK    2  A    between atoms: C7_7  and  C9_9 
REMARK    3  A    between atoms: C9_9  and  O11_11 
ROOT
HETATM    1  C3  UNL     1     -36.154  15.510  -5.205  1.00 20.00     0.034 C 
HETATM    2  C4  UNL     1     -34.289  14.969  -6.793  1.00 20.00     0.034 C 
HETATM    3  C5  UNL     1     -37.074  15.575  -6.419  1.00 20.00     0.168 C 
HETATM    4  C6  UNL     1     -35.313  15.065  -7.918  1.00 20.00     0.168 C 
HETATM    5  C7  UNL     1     -34.711  15.838  -5.601  1.00 20.00     0.023 C 
HETATM    6  O10 UNL     1     -36.613  14.703  -7.450  1.00 20.00    -0.391 OA
ENDROOT
BRANCH   5   7
HETATM    7  C9  UNL     1     -33.760  15.653  -4.422  1.00 20.00     0.150 C 
BRANCH   7   8
HETATM    8  C2  UNL     1     -34.028  16.629  -3.299  1.00 20.00    -0.064 C 
HETATM    9  C1  UNL     1     -33.883  17.951  -3.481  1.00 20.00     0.016 C 
HETATM   10  C8  UNL     1     -34.473  16.078  -1.973  1.00 20.00     0.045 C 
ENDBRANCH   7   8
BRANCH   7  11
HETATM   11  O11 UNL     1     -32.417  15.817  -4.871  1.00 20.00    -0.391 OA
HETATM   12  H27 UNL     1     -32.466  16.032  -5.815  1.00 20.00     0.210 HD
ENDBRANCH   7  11
ENDBRANCH   5   7
TORSDOF 3
ENDMDL
MODEL 9
REMARK VINA RESULT:      -4.0      1.508      4.634
REMARK  3 active torsions:
REMARK  status: ('A' for Active; 'I' for Inactive)
REMARK    1  A    between atoms: C2_2  and  C9_9 
REMARK    2  A    between atoms: C7_7  and  C9_9 
REMARK    3  A    between atoms: C9_9  and  O11_11 
ROOT
HETATM    1  C3  UNL     1     -34.253  18.005  -3.661  1.00 20.00     0.034 C 
HETATM    2  C4  UNL     1     -33.810  15.724  -2.714  1.00 20.00     0.034 C 
HETATM    3  C5  UNL     1     -33.542  17.541  -4.926  1.00 20.00     0.168 C 
HETATM    4  C6  UNL     1     -33.124  15.387  -4.032  1.00 20.00     0.168 C 
HETATM    5  C7  UNL     1     -33.745  17.232  -2.439  1.00 20.00     0.023 C 
HETATM    6  O10 UNL     1     -33.697  16.133  -5.106  1.00 20.00    -0.391 OA
ENDROOT
BRANCH   5   7
HETATM    7  C9  UNL     1     -34.537  17.598  -1.187  1.00 20.00     0.150 C 
BRANCH   7   8
HETATM    8  C2  UNL     1     -33.696  18.311  -0.153  1.00 20.00    -0.064 C 
HETATM    9  C1  UNL     1     -32.588  18.982  -0.505  1.00 20.00     0.016 C 
HETATM   10  C8  UNL     1     -34.142  18.258   1.282  1.00 20.00     0.045 C 
ENDBRANCH   7   8
BRANCH   7  11
HETATM   11  O11 UNL     1     -35.078  16.412  -0.610  1.00 20.00    -0.391 OA
HETATM   12  H27 UNL     1     -34.665  15.666  -1.073  1.00 20.00     0.210 HD
ENDBRANCH   7  11
ENDBRANCH   5   7
TORSDOF 3
ENDMDL
