MODEL 1
REMARK VINA RESULT:      -4.1      0.000      0.000
REMARK  2 active torsions:
REMARK  status: ('A' for Active; 'I' for Inactive)
REMARK    1  A    between atoms: C2_2  and  C3_3 
REMARK    2  A    between atoms: C3_3  and  C5_5 
ROOT
HETATM    1  C3  UNL     1     -33.487  14.868  -3.453  1.00 20.00     0.159 C 
HETATM    2  O9  UNL     1     -32.271  14.726  -3.598  1.00 20.00    -0.292 OA
ENDROOT
BRANCH   1   3
HETATM    3  C2  UNL     1     -34.029  16.149  -2.892  1.00 20.00    -0.025 C 
HETATM    4  C1  UNL     1     -34.520  16.212  -1.646  1.00 20.00     0.022 C 
HETATM    5  C7  UNL     1     -33.992  17.347  -3.794  1.00 20.00     0.051 C 
ENDBRANCH   1   3
BRANCH   1   6
HETATM    6  C5  UNL     1     -34.433  13.759  -3.837  1.00 20.00     0.064 A 
HETATM    7  C4  UNL     1     -35.848  14.118  -4.133  1.00 20.00     0.018 A 
HETATM    8  C6  UNL     1     -34.933  13.670  -5.237  1.00 20.00    -0.006 A 
HETATM    9  C8  UNL     1     -34.541  14.624  -6.313  1.00 20.00     0.011 C 
ENDBRANCH   1   6
TORSDOF 2
ENDMDL
MODEL 2
REMARK VINA RESULT:      -4.1      1.535      3.463
REMARK  2 active torsions:
REMARK  status: ('A' for Active; 'I' for Inactive)
REMARK    1  A    between atoms: C2_2  and  C3_3 
REMARK    2  A    between atoms: C3_3  and  C5_5 
ROOT
HETATM    1  C3  UNL     1     -34.627  13.883  -4.663  1.00 20.00     0.159 C 
HETATM    2  O9  UNL     1     -34.978  12.775  -4.252  1.00 20.00    -0.292 OA
ENDROOT
BRANCH   1   3
HETATM    3  C2  UNL     1     -35.404  14.556  -5.756  1.00 20.00    -0.025 C 
HETATM    4  C1  UNL     1     -36.604  15.105  -5.522  1.00 20.00     0.022 C 
HETATM    5  C7  UNL     1     -34.767  14.582  -7.114  1.00 20.00     0.051 C 
ENDBRANCH   1   3
BRANCH   1   6
HETATM    6  C5  UNL     1     -33.420  14.566  -4.072  1.00 20.00     0.064 A 
HETATM    7  C4  UNL     1     -33.263  16.029  -4.301  1.00 20.00     0.018 A 
HETATM    8  C6  UNL     1     -33.592  15.507  -2.931  1.00 20.00    -0.006 A 
HETATM    9  C8  UNL     1     -34.913  15.818  -2.313  1.00 20.00     0.011 C 
ENDBRANCH   1   6
TORSDOF 2
ENDMDL
MODEL 3
REMARK VINA RESULT:      -4.0      1.293      3.486
REMARK  2 active torsions:
REMARK  status: ('A' for Active; 'I' for Inactive)
REMARK    1  A    between atoms: C2_2  and  C3_3 
REMARK    2  A    between atoms: C3_3  and  C5_5 
ROOT
HETATM    1  C3  UNL     1     -33.634  15.539  -4.425  1.00 20.00     0.159 C 
HETATM    2  O9  UNL     1     -32.878  16.416  -4.846  1.00 20.00    -0.292 OA
ENDROOT
BRANCH   1   3
HETATM    3  C2  UNL     1     -34.291  14.592  -5.385  1.00 20.00    -0.025 C 
HETATM    4  C1  UNL     1     -34.499  14.930  -6.666  1.00 20.00     0.022 C 
HETATM    5  C7  UNL     1     -34.698  13.255  -4.839  1.00 20.00     0.051 C 
ENDBRANCH   1   3
BRANCH   1   6
HETATM    6  C5  UNL     1     -33.903  15.411  -2.947  1.00 20.00     0.064 A 
HETATM    7  C4  UNL     1     -33.783  16.633  -2.106  1.00 20.00     0.018 A 
HETATM    8  C6  UNL     1     -35.131  16.022  -2.367  1.00 20.00    -0.006 A 
HETATM    9  C8  UNL     1     -36.141  16.763  -3.175  1.00 20.00     0.011 C 
ENDBRANCH   1   6
TORSDOF 2
ENDMDL
MODEL 4
REMARK VINA RESULT:      -4.0      1.594      2.285
REMARK  2 active torsions:
REMARK  status: ('A' for Active; 'I' for Inactive)
REMARK    1  A    between atoms: C2_2  and  C3_3 
REMARK    2  A    between atoms: C3_3  and  C5_5 
ROOT
HETATM    1  C3  UNL     1     -35.095  14.037  -4.215  1.00 20.00     0.159 C 
HETATM    2  O9  UNL     1     -34.959  12.812  -4.182  1.00 20.00    -0.292 OA
ENDROOT
BRANCH   1   3
HETATM    3  C2  UNL     1     -34.195  14.913  -3.395  1.00 20.00    -0.025 C 
HETATM    4  C1  UNL     1     -32.890  15.033  -3.679  1.00 20.00     0.022 C 
HETATM    5  C7  UNL     1     -34.829  15.643  -2.249  1.00 20.00     0.051 C 
ENDBRANCH   1   3
BRANCH   1   6
HETATM    6  C5  UNL     1     -36.164  14.661  -5.077  1.00 20.00     0.064 A 
HETATM    7  C4  UNL     1     -36.018  16.097  -5.441  1.00 20.00     0.018 A 
HETATM    8  C6  UNL     1     -35.851  15.029  -6.485  1.00 20.00    -0.006 A 
HETATM    9  C8  UNL     1     -34.520  14.807  -7.118  1.00 20.00     0.011 C 
ENDBRANCH   1   6
TORSDOF 2
ENDMDL
MODEL 5
REMARK VINA RESULT:      -4.0     10.806     11.752
REMARK  2 active torsions:
REMARK  status: ('A' for Active; 'I' for Inactive)
REMARK    1  A    between atoms: C2_2  and  C3_3 
REMARK    2  A    between atoms: C3_3  and  C5_5 
ROOT
HETATM    1  C3  UNL     1     -32.716   6.258   3.239  1.00 20.00     0.159 C 
HETATM    2  O9  UNL     1     -32.122   5.188   3.092  1.00 20.00    -0.292 OA
ENDROOT
BRANCH   1   3
HETATM    3  C2  UNL     1     -31.960   7.552   3.152  1.00 20.00    -0.025 C 
HETATM    4  C1  UNL     1     -31.163   7.963   4.148  1.00 20.00     0.022 C 
HETATM    5  C7  UNL     1     -32.144   8.354   1.898  1.00 20.00     0.051 C 
ENDBRANCH   1   3
BRANCH   1   6
HETATM    6  C5  UNL     1     -34.199   6.275   3.508  1.00 20.00     0.064 A 
HETATM    7  C4  UNL     1     -34.826   5.037   4.048  1.00 20.00     0.018 A 
HETATM    8  C6  UNL     1     -34.692   6.259   4.913  1.00 20.00    -0.006 A 
HETATM    9  C8  UNL     1     -33.793   6.237   6.101  1.00 20.00     0.011 C 
ENDBRANCH   1   6
TORSDOF 2
ENDMDL
MODEL 6
REMARK VINA RESULT:      -4.0     11.340     12.315
REMARK  2 active torsions:
REMARK  status: ('A' for Active; 'I' for Inactive)
REMARK    1  A    between atoms: C2_2  and  C3_3 
REMARK    2  A    between atoms: C3_3  and  C5_5 
ROOT
HETATM    1  C3  UNL     1     -33.988   5.831   4.212  1.00 20.00     0.159 C 
HETATM    2  O9  UNL     1     -34.920   5.812   3.405  1.00 20.00    -0.292 OA
ENDROOT
BRANCH   1   3
HETATM    3  C2  UNL     1     -34.273   5.799   5.684  1.00 20.00    -0.025 C 
HETATM    4  C1  UNL     1     -33.885   6.796   6.492  1.00 20.00     0.022 C 
HETATM    5  C7  UNL     1     -35.011   4.599   6.200  1.00 20.00     0.051 C 
ENDBRANCH   1   3
BRANCH   1   6
HETATM    6  C5  UNL     1     -32.562   5.888   3.727  1.00 20.00     0.064 A 
HETATM    7  C4  UNL     1     -32.320   5.842   2.259  1.00 20.00     0.018 A 
HETATM    8  C6  UNL     1     -32.069   7.108   3.030  1.00 20.00    -0.006 A 
HETATM    9  C8  UNL     1     -32.914   8.311   2.781  1.00 20.00     0.011 C 
ENDBRANCH   1   6
TORSDOF 2
ENDMDL
MODEL 7
REMARK VINA RESULT:      -3.9      1.677      2.097
REMARK  2 active torsions:
REMARK  status: ('A' for Active; 'I' for Inactive)
REMARK    1  A    between atoms: C2_2  and  C3_3 
REMARK    2  A    between atoms: C3_3  and  C5_5 
ROOT
HETATM    1  C3  UNL     1     -35.226  15.418  -2.957  1.00 20.00     0.159 C 
HETATM    2  O9  UNL     1     -36.450  15.464  -3.096  1.00 20.00    -0.292 OA
ENDROOT
BRANCH   1   3
HETATM    3  C2  UNL     1     -34.506  16.547  -2.280  1.00 20.00    -0.025 C 
HETATM    4  C1  UNL     1     -33.791  17.438  -2.980  1.00 20.00     0.022 C 
HETATM    5  C7  UNL     1     -34.632  16.624  -0.787  1.00 20.00     0.051 C 
ENDBRANCH   1   3
BRANCH   1   6
HETATM    6  C5  UNL     1     -34.446  14.232  -3.465  1.00 20.00     0.064 A 
HETATM    7  C4  UNL     1     -35.151  13.254  -4.338  1.00 20.00     0.018 A 
HETATM    8  C6  UNL     1     -34.088  14.150  -4.908  1.00 20.00    -0.006 A 
HETATM    9  C8  UNL     1     -34.451  15.195  -5.907  1.00 20.00     0.011 C 
ENDBRANCH   1   6
TORSDOF 2
ENDMDL
MODEL 8
REMARK VINA RESULT:      -3.9     11.990     13.123
REMARK  2 active torsions:
REMARK  status: ('A' for Active; 'I' for Inactive)
REMARK    1  A    between atoms: C2_2  and  C3_3 
REMARK    2  A    between atoms: C3_3  and  C5_5 
ROOT
HETATM    1  C3  UNL     1     -35.227   5.459   3.833  1.00 20.00     0.159 C 
HETATM    2  O9  UNL     1     -36.225   6.080   3.462  1.00 20.00    -0.292 OA
ENDROOT
BRANCH   1   3
HETATM    3  C2  UNL     1     -33.943   5.578   3.066  1.00 20.00    -0.025 C 
HETATM    4  C1  UNL     1     -33.660   4.755   2.047  1.00 20.00     0.022 C 
HETATM    5  C7  UNL     1     -33.001   6.662   3.498  1.00 20.00     0.051 C 
ENDBRANCH   1   3
BRANCH   1   6
HETATM    6  C5  UNL     1     -35.289   4.578   5.055  1.00 20.00     0.064 A 
HETATM    7  C4  UNL     1     -34.010   4.044   5.598  1.00 20.00     0.018 A 
HETATM    8  C6  UNL     1     -34.779   5.089   6.357  1.00 20.00    -0.006 A 
HETATM    9  C8  UNL     1     -34.204   6.452   6.538  1.00 20.00     0.011 C 
ENDBRANCH   1   6
TORSDOF 2
ENDMDL
MODEL 9
REMARK VINA RESULT:      -3.9     11.681     12.711
REMARK  2 active torsions:
REMARK  status: ('A' for Active; 'I' for Inactive)
REMARK    1  A    between atoms: C2_2  and  C3_3 
REMARK    2  A    between atoms: C3_3  and  C5_5 
ROOT
HETATM    1  C3  UNL     1     -33.736   6.453   4.174  1.00 20.00     0.159 C 
HETATM    2  O9  UNL     1     -34.847   6.883   3.859  1.00 20.00    -0.292 OA
ENDROOT
BRANCH   1   3
HETATM    3  C2  UNL     1     -32.626   6.435   3.164  1.00 20.00    -0.025 C 
HETATM    4  C1  UNL     1     -32.067   5.284   2.763  1.00 20.00     0.022 C 
HETATM    5  C7  UNL     1     -32.181   7.764   2.632  1.00 20.00     0.051 C 
ENDBRANCH   1   3
BRANCH   1   6
HETATM    6  C5  UNL     1     -33.484   5.945   5.571  1.00 20.00     0.064 A 
HETATM    7  C4  UNL     1     -34.588   6.052   6.564  1.00 20.00     0.018 A 
HETATM    8  C6  UNL     1     -34.169   4.708   6.038  1.00 20.00    -0.006 A 
HETATM    9  C8  UNL     1     -35.104   3.915   5.190  1.00 20.00     0.011 C 
ENDBRANCH   1   6
TORSDOF 2
ENDMDL
