MODEL 1
REMARK VINA RESULT:      -5.1      0.000      0.000
REMARK  3 active torsions:
REMARK  status: ('A' for Active; 'I' for Inactive)
REMARK    1  A    between atoms: C2_2  and  C9_9 
REMARK    2  A    between atoms: C3_3  and  C5_5 
REMARK    3  A    between atoms: C3_3  and  C9_9 
ROOT
HETATM    1  C3  UNL     1     -33.703   5.846   3.070  1.00 20.00     0.135 C 
HETATM    2  O10 UNL     1     -34.036   4.767   2.580  1.00 20.00    -0.297 OA
ENDROOT
BRANCH   1   3
HETATM    3  C5  UNL     1     -32.426   6.526   2.645  1.00 20.00     0.060 A 
HETATM    4  C4  UNL     1     -31.777   7.453   3.609  1.00 20.00     0.017 A 
HETATM    5  C6  UNL     1     -32.475   8.001   2.392  1.00 20.00    -0.007 A 
HETATM    6  C8  UNL     1     -31.685   8.568   1.265  1.00 20.00     0.011 C 
ENDBRANCH   1   3
BRANCH   1   7
HETATM    7  C9  UNL     1     -34.506   6.552   4.153  1.00 20.00     0.111 C 
BRANCH   7   8
HETATM    8  C2  UNL     1     -34.365   5.875   5.488  1.00 20.00    -0.086 C 
HETATM    9  C1  UNL     1     -33.818   6.503   6.541  1.00 20.00     0.014 C 
HETATM   10  C7  UNL     1     -34.893   4.474   5.597  1.00 20.00     0.043 C 
ENDBRANCH   7   8
ENDBRANCH   1   7
TORSDOF 3
ENDMDL
MODEL 2
REMARK VINA RESULT:      -5.1      0.083      1.113
REMARK  3 active torsions:
REMARK  status: ('A' for Active; 'I' for Inactive)
REMARK    1  A    between atoms: C2_2  and  C9_9 
REMARK    2  A    between atoms: C3_3  and  C5_5 
REMARK    3  A    between atoms: C3_3  and  C9_9 
ROOT
HETATM    1  C3  UNL     1     -33.696   5.810   3.050  1.00 20.00     0.135 C 
HETATM    2  O10 UNL     1     -34.024   4.732   2.555  1.00 20.00    -0.297 OA
ENDROOT
BRANCH   1   3
HETATM    3  C5  UNL     1     -32.420   6.495   2.632  1.00 20.00     0.060 A 
HETATM    4  C4  UNL     1     -31.759   7.395   3.613  1.00 20.00     0.017 A 
HETATM    5  C6  UNL     1     -32.465   7.976   2.417  1.00 20.00    -0.007 A 
HETATM    6  C8  UNL     1     -31.682   8.569   1.297  1.00 20.00     0.011 C 
ENDBRANCH   1   3
BRANCH   1   7
HETATM    7  C9  UNL     1     -34.504   6.509   4.134  1.00 20.00     0.111 C 
BRANCH   7   8
HETATM    8  C2  UNL     1     -34.371   5.823   5.465  1.00 20.00    -0.086 C 
HETATM    9  C1  UNL     1     -34.730   4.541   5.636  1.00 20.00     0.014 C 
HETATM   10  C7  UNL     1     -33.788   6.632   6.589  1.00 20.00     0.043 C 
ENDBRANCH   7   8
ENDBRANCH   1   7
TORSDOF 3
ENDMDL
MODEL 3
REMARK VINA RESULT:      -4.6      1.171      4.460
REMARK  3 active torsions:
REMARK  status: ('A' for Active; 'I' for Inactive)
REMARK    1  A    between atoms: C2_2  and  C9_9 
REMARK    2  A    between atoms: C3_3  and  C5_5 
REMARK    3  A    between atoms: C3_3  and  C9_9 
ROOT
HETATM    1  C3  UNL     1     -32.487   6.561   3.190  1.00 20.00     0.135 C 
HETATM    2  O10 UNL     1     -32.056   5.564   2.611  1.00 20.00    -0.297 OA
ENDROOT
BRANCH   1   3
HETATM    3  C5  UNL     1     -33.795   6.515   3.938  1.00 20.00     0.060 A 
HETATM    4  C4  UNL     1     -33.754   6.624   5.420  1.00 20.00     0.017 A 
HETATM    5  C6  UNL     1     -34.076   5.303   4.772  1.00 20.00    -0.007 A 
HETATM    6  C8  UNL     1     -35.463   4.764   4.819  1.00 20.00     0.011 C 
ENDBRANCH   1   3
BRANCH   1   7
HETATM    7  C9  UNL     1     -31.780   7.909   3.166  1.00 20.00     0.111 C 
BRANCH   7   8
HETATM    8  C2  UNL     1     -32.090   8.684   1.915  1.00 20.00    -0.086 C 
HETATM    9  C1  UNL     1     -31.703   8.251   0.705  1.00 20.00     0.014 C 
HETATM   10  C7  UNL     1     -32.878   9.951   2.081  1.00 20.00     0.043 C 
ENDBRANCH   7   8
ENDBRANCH   1   7
TORSDOF 3
ENDMDL
MODEL 4
REMARK VINA RESULT:      -4.5     11.087     12.458
REMARK  3 active torsions:
REMARK  status: ('A' for Active; 'I' for Inactive)
REMARK    1  A    between atoms: C2_2  and  C9_9 
REMARK    2  A    between atoms: C3_3  and  C5_5 
REMARK    3  A    between atoms: C3_3  and  C9_9 
ROOT
HETATM    1  C3  UNL     1     -34.600  13.950  -4.549  1.00 20.00     0.135 C 
HETATM    2  O10 UNL     1     -34.942  12.787  -4.343  1.00 20.00    -0.297 OA
ENDROOT
BRANCH   1   3
HETATM    3  C5  UNL     1     -35.226  14.755  -5.659  1.00 20.00     0.060 A 
HETATM    4  C4  UNL     1     -35.266  14.154  -7.019  1.00 20.00     0.017 A 
HETATM    5  C6  UNL     1     -34.321  15.290  -6.726  1.00 20.00    -0.007 A 
HETATM    6  C8  UNL     1     -34.583  16.646  -7.283  1.00 20.00     0.011 C 
ENDBRANCH   1   3
BRANCH   1   7
HETATM    7  C9  UNL     1     -33.509  14.651  -3.752  1.00 20.00     0.111 C 
BRANCH   7   8
HETATM    8  C2  UNL     1     -34.017  15.897  -3.079  1.00 20.00    -0.086 C 
HETATM    9  C1  UNL     1     -34.784  15.839  -1.979  1.00 20.00     0.014 C 
HETATM   10  C7  UNL     1     -33.601  17.209  -3.679  1.00 20.00     0.043 C 
ENDBRANCH   7   8
ENDBRANCH   1   7
TORSDOF 3
ENDMDL
MODEL 5
REMARK VINA RESULT:      -4.5      0.883      3.938
REMARK  3 active torsions:
REMARK  status: ('A' for Active; 'I' for Inactive)
REMARK    1  A    between atoms: C2_2  and  C9_9 
REMARK    2  A    between atoms: C3_3  and  C5_5 
REMARK    3  A    between atoms: C3_3  and  C9_9 
ROOT
HETATM    1  C3  UNL     1     -33.839   5.688   3.565  1.00 20.00     0.135 C 
HETATM    2  O10 UNL     1     -34.972   5.563   3.101  1.00 20.00    -0.297 OA
ENDROOT
BRANCH   1   3
HETATM    3  C5  UNL     1     -33.602   5.621   5.052  1.00 20.00     0.060 A 
HETATM    4  C4  UNL     1     -34.739   5.218   5.922  1.00 20.00     0.017 A 
HETATM    5  C6  UNL     1     -34.271   6.650   5.910  1.00 20.00    -0.007 A 
HETATM    6  C8  UNL     1     -33.534   7.208   7.077  1.00 20.00     0.011 C 
ENDBRANCH   1   3
BRANCH   1   7
HETATM    7  C9  UNL     1     -32.612   5.959   2.706  1.00 20.00     0.111 C 
BRANCH   7   8
HETATM    8  C2  UNL     1     -32.072   7.347   2.920  1.00 20.00    -0.086 C 
HETATM    9  C1  UNL     1     -31.294   7.645   3.972  1.00 20.00     0.014 C 
HETATM   10  C7  UNL     1     -32.422   8.376   1.884  1.00 20.00     0.043 C 
ENDBRANCH   7   8
ENDBRANCH   1   7
TORSDOF 3
ENDMDL
MODEL 6
REMARK VINA RESULT:      -4.4      0.769      4.155
REMARK  3 active torsions:
REMARK  status: ('A' for Active; 'I' for Inactive)
REMARK    1  A    between atoms: C2_2  and  C9_9 
REMARK    2  A    between atoms: C3_3  and  C5_5 
REMARK    3  A    between atoms: C3_3  and  C9_9 
ROOT
HETATM    1  C3  UNL     1     -33.766   5.682   3.151  1.00 20.00     0.135 C 
HETATM    2  O10 UNL     1     -34.317   5.450   2.076  1.00 20.00    -0.297 OA
ENDROOT
BRANCH   1   3
HETATM    3  C5  UNL     1     -34.569   5.797   4.422  1.00 20.00     0.060 A 
HETATM    4  C4  UNL     1     -33.897   6.361   5.622  1.00 20.00     0.017 A 
HETATM    5  C6  UNL     1     -34.209   4.889   5.557  1.00 20.00    -0.007 A 
HETATM    6  C8  UNL     1     -35.297   4.314   6.396  1.00 20.00     0.011 C 
ENDBRANCH   1   3
BRANCH   1   7
HETATM    7  C9  UNL     1     -32.267   5.913   3.287  1.00 20.00     0.111 C 
BRANCH   7   8
HETATM    8  C2  UNL     1     -31.904   7.363   3.120  1.00 20.00    -0.086 C 
HETATM    9  C1  UNL     1     -32.281   8.062   2.039  1.00 20.00     0.014 C 
HETATM   10  C7  UNL     1     -31.126   7.999   4.236  1.00 20.00     0.043 C 
ENDBRANCH   7   8
ENDBRANCH   1   7
TORSDOF 3
ENDMDL
MODEL 7
REMARK VINA RESULT:      -4.4     11.472     12.603
REMARK  3 active torsions:
REMARK  status: ('A' for Active; 'I' for Inactive)
REMARK    1  A    between atoms: C2_2  and  C9_9 
REMARK    2  A    between atoms: C3_3  and  C5_5 
REMARK    3  A    between atoms: C3_3  and  C9_9 
ROOT
HETATM    1  C3  UNL     1     -33.741  16.178  -4.255  1.00 20.00     0.135 C 
HETATM    2  O10 UNL     1     -32.787  16.519  -4.953  1.00 20.00    -0.297 OA
ENDROOT
BRANCH   1   3
HETATM    3  C5  UNL     1     -33.623  16.132  -2.753  1.00 20.00     0.060 A 
HETATM    4  C4  UNL     1     -34.866  15.936  -1.962  1.00 20.00     0.017 A 
HETATM    5  C6  UNL     1     -34.187  17.281  -1.976  1.00 20.00    -0.007 A 
HETATM    6  C8  UNL     1     -33.459  17.767  -0.772  1.00 20.00     0.011 C 
ENDBRANCH   1   3
BRANCH   1   7
HETATM    7  C9  UNL     1     -35.080  15.739  -4.832  1.00 20.00     0.111 C 
BRANCH   7   8
HETATM    8  C2  UNL     1     -34.960  14.469  -5.628  1.00 20.00    -0.086 C 
HETATM    9  C1  UNL     1     -35.043  14.467  -6.967  1.00 20.00     0.014 C 
HETATM   10  C7  UNL     1     -34.713  13.205  -4.854  1.00 20.00     0.043 C 
ENDBRANCH   7   8
ENDBRANCH   1   7
TORSDOF 3
ENDMDL
MODEL 8
REMARK VINA RESULT:      -4.4     11.485     12.581
REMARK  3 active torsions:
REMARK  status: ('A' for Active; 'I' for Inactive)
REMARK    1  A    between atoms: C2_2  and  C9_9 
REMARK    2  A    between atoms: C3_3  and  C5_5 
REMARK    3  A    between atoms: C3_3  and  C9_9 
ROOT
HETATM    1  C3  UNL     1     -33.735  16.143  -4.231  1.00 20.00     0.135 C 
HETATM    2  O10 UNL     1     -32.784  16.480  -4.934  1.00 20.00    -0.297 OA
ENDROOT
BRANCH   1   3
HETATM    3  C5  UNL     1     -33.618  16.128  -2.728  1.00 20.00     0.060 A 
HETATM    4  C4  UNL     1     -34.865  15.975  -1.933  1.00 20.00     0.017 A 
HETATM    5  C6  UNL     1     -34.160  17.305  -1.977  1.00 20.00    -0.007 A 
HETATM    6  C8  UNL     1     -33.422  17.802  -0.783  1.00 20.00     0.011 C 
ENDBRANCH   1   3
BRANCH   1   7
HETATM    7  C9  UNL     1     -35.070  15.680  -4.799  1.00 20.00     0.111 C 
BRANCH   7   8
HETATM    8  C2  UNL     1     -34.946  14.371  -5.529  1.00 20.00    -0.086 C 
HETATM    9  C1  UNL     1     -34.736  13.218  -4.875  1.00 20.00     0.014 C 
HETATM   10  C7  UNL     1     -35.097  14.411  -7.023  1.00 20.00     0.043 C 
ENDBRANCH   7   8
ENDBRANCH   1   7
TORSDOF 3
ENDMDL
MODEL 9
REMARK VINA RESULT:      -4.3     11.004     12.461
REMARK  3 active torsions:
REMARK  status: ('A' for Active; 'I' for Inactive)
REMARK    1  A    between atoms: C2_2  and  C9_9 
REMARK    2  A    between atoms: C3_3  and  C5_5 
REMARK    3  A    between atoms: C3_3  and  C9_9 
ROOT
HETATM    1  C3  UNL     1     -36.355  14.476  -4.276  1.00 20.00     0.135 C 
HETATM    2  O10 UNL     1     -37.461  14.167  -3.836  1.00 20.00    -0.297 OA
ENDROOT
BRANCH   1   3
HETATM    3  C5  UNL     1     -36.224  15.421  -5.444  1.00 20.00     0.060 A 
HETATM    4  C4  UNL     1     -37.072  15.172  -6.639  1.00 20.00     0.017 A 
HETATM    5  C6  UNL     1     -35.593  14.895  -6.696  1.00 20.00    -0.007 A 
HETATM    6  C8  UNL     1     -34.693  15.785  -7.480  1.00 20.00     0.011 C 
ENDBRANCH   1   3
BRANCH   1   7
HETATM    7  C9  UNL     1     -35.051  13.914  -3.726  1.00 20.00     0.111 C 
BRANCH   7   8
HETATM    8  C2  UNL     1     -34.144  14.998  -3.213  1.00 20.00    -0.086 C 
HETATM    9  C1  UNL     1     -32.912  15.180  -3.714  1.00 20.00     0.014 C 
HETATM   10  C7  UNL     1     -34.692  15.887  -2.134  1.00 20.00     0.043 C 
ENDBRANCH   7   8
ENDBRANCH   1   7
TORSDOF 3
ENDMDL
