MODEL 1
REMARK VINA RESULT:      -4.7      0.000      0.000
REMARK  2 active torsions:
REMARK  status: ('A' for Active; 'I' for Inactive)
REMARK    1  A    between atoms: C1_1  and  C7_7 
REMARK    2  A    between atoms: C7_7  and  O11_11 
ROOT
HETATM    1  C3  UNL     1     -34.807  13.652  -5.300  1.00 20.00     0.029 C 
HETATM    2  C4  UNL     1     -34.770  14.219  -3.879  1.00 20.00     0.046 C 
HETATM    3  C5  UNL     1     -34.501  14.709  -6.354  1.00 20.00     0.167 C 
HETATM    4  C6  UNL     1     -34.057  16.458  -4.812  1.00 20.00     0.209 C 
HETATM    5  C7  UNL     1     -33.767  15.371  -3.756  1.00 20.00     0.097 C 
HETATM    6  O10 UNL     1     -34.887  15.995  -5.885  1.00 20.00    -0.388 OA
ENDROOT
BRANCH   5   7
HETATM    7  C1  UNL     1     -33.770  15.940  -2.369  1.00 20.00     0.015 C 
HETATM    8  C2  UNL     1     -34.757  16.629  -1.762  1.00 20.00    -0.088 C 
HETATM    9  C8  UNL     1     -34.600  17.136  -0.356  1.00 20.00     0.042 C 
HETATM   10  C9  UNL     1     -36.073  16.951  -2.412  1.00 20.00     0.042 C 
ENDBRANCH   5   7
BRANCH   5  11
HETATM   11  O11 UNL     1     -32.462  14.831  -3.994  1.00 20.00    -0.384 OA
HETATM   12  H27 UNL     1     -31.974  14.917  -3.161  1.00 20.00     0.211 HD
ENDBRANCH   5  11
TORSDOF 2
ENDMDL
MODEL 2
REMARK VINA RESULT:      -4.5      1.551      1.885
REMARK  2 active torsions:
REMARK  status: ('A' for Active; 'I' for Inactive)
REMARK    1  A    between atoms: C1_1  and  C7_7 
REMARK    2  A    between atoms: C7_7  and  O11_11 
ROOT
HETATM    1  C3  UNL     1     -33.648  13.336  -4.052  1.00 20.00     0.029 C 
HETATM    2  C4  UNL     1     -33.308  14.672  -3.387  1.00 20.00     0.046 C 
HETATM    3  C5  UNL     1     -35.015  13.352  -4.722  1.00 20.00     0.167 C 
HETATM    4  C6  UNL     1     -35.473  15.637  -4.268  1.00 20.00     0.209 C 
HETATM    5  C7  UNL     1     -33.951  15.851  -4.126  1.00 20.00     0.097 C 
HETATM    6  O10 UNL     1     -35.873  14.276  -4.062  1.00 20.00    -0.388 OA
ENDROOT
BRANCH   5   7
HETATM    7  C1  UNL     1     -33.641  17.148  -3.441  1.00 20.00     0.015 C 
HETATM    8  C2  UNL     1     -33.883  17.482  -2.158  1.00 20.00    -0.088 C 
HETATM    9  C8  UNL     1     -33.508  18.835  -1.624  1.00 20.00     0.042 C 
HETATM   10  C9  UNL     1     -34.532  16.561  -1.164  1.00 20.00     0.042 C 
ENDBRANCH   5   7
BRANCH   5  11
HETATM   11  O11 UNL     1     -33.368  15.906  -5.433  1.00 20.00    -0.384 OA
HETATM   12  H27 UNL     1     -33.702  15.134  -5.914  1.00 20.00     0.211 HD
ENDBRANCH   5  11
TORSDOF 2
ENDMDL
MODEL 3
REMARK VINA RESULT:      -4.4      2.186      4.382
REMARK  2 active torsions:
REMARK  status: ('A' for Active; 'I' for Inactive)
REMARK    1  A    between atoms: C1_1  and  C7_7 
REMARK    2  A    between atoms: C7_7  and  O11_11 
ROOT
HETATM    1  C3  UNL     1     -34.244  17.770  -0.349  1.00 20.00     0.029 C 
HETATM    2  C4  UNL     1     -34.517  16.455  -1.083  1.00 20.00     0.046 C 
HETATM    3  C5  UNL     1     -34.127  18.953  -1.302  1.00 20.00     0.167 C 
HETATM    4  C6  UNL     1     -34.632  17.722  -3.268  1.00 20.00     0.209 C 
HETATM    5  C7  UNL     1     -35.326  16.681  -2.365  1.00 20.00     0.097 C 
HETATM    6  O10 UNL     1     -33.660  18.514  -2.572  1.00 20.00    -0.388 OA
ENDROOT
BRANCH   5   7
HETATM    7  C1  UNL     1     -35.552  15.389  -3.091  1.00 20.00     0.015 C 
HETATM    8  C2  UNL     1     -34.626  14.579  -3.642  1.00 20.00    -0.088 C 
HETATM    9  C8  UNL     1     -35.021  13.310  -4.342  1.00 20.00     0.042 C 
HETATM   10  C9  UNL     1     -33.150  14.857  -3.612  1.00 20.00     0.042 C 
ENDBRANCH   5   7
BRANCH   5  11
HETATM   11  O11 UNL     1     -36.609  17.186  -1.978  1.00 20.00    -0.384 OA
HETATM   12  H27 UNL     1     -36.488  17.608  -1.114  1.00 20.00     0.211 HD
ENDBRANCH   5  11
TORSDOF 2
ENDMDL
MODEL 4
REMARK VINA RESULT:      -4.4      1.424      2.206
REMARK  2 active torsions:
REMARK  status: ('A' for Active; 'I' for Inactive)
REMARK    1  A    between atoms: C1_1  and  C7_7 
REMARK    2  A    between atoms: C7_7  and  O11_11 
ROOT
HETATM    1  C3  UNL     1     -34.838  14.350  -5.936  1.00 20.00     0.029 C 
HETATM    2  C4  UNL     1     -34.265  15.623  -5.310  1.00 20.00     0.046 C 
HETATM    3  C5  UNL     1     -34.736  13.148  -5.006  1.00 20.00     0.167 C 
HETATM    4  C6  UNL     1     -33.829  14.349  -3.170  1.00 20.00     0.209 C 
HETATM    5  C7  UNL     1     -34.432  15.629  -3.787  1.00 20.00     0.097 C 
HETATM    6  O10 UNL     1     -33.627  13.302  -4.128  1.00 20.00    -0.388 OA
ENDROOT
BRANCH   5   7
HETATM    7  C1  UNL     1     -33.832  16.864  -3.185  1.00 20.00     0.015 C 
HETATM    8  C2  UNL     1     -33.939  17.297  -1.913  1.00 20.00    -0.088 C 
HETATM    9  C8  UNL     1     -33.271  18.567  -1.466  1.00 20.00     0.042 C 
HETATM   10  C9  UNL     1     -34.715  16.576  -0.848  1.00 20.00     0.042 C 
ENDBRANCH   5   7
BRANCH   5  11
HETATM   11  O11 UNL     1     -35.837  15.657  -3.511  1.00 20.00    -0.384 OA
HETATM   12  H27 UNL     1     -35.988  16.422  -2.935  1.00 20.00     0.211 HD
ENDBRANCH   5  11
TORSDOF 2
ENDMDL
MODEL 5
REMARK VINA RESULT:      -4.3      1.713      2.301
REMARK  2 active torsions:
REMARK  status: ('A' for Active; 'I' for Inactive)
REMARK    1  A    between atoms: C1_1  and  C7_7 
REMARK    2  A    between atoms: C7_7  and  O11_11 
ROOT
HETATM    1  C3  UNL     1     -36.416  15.537  -6.386  1.00 20.00     0.029 C 
HETATM    2  C4  UNL     1     -36.215  16.021  -4.948  1.00 20.00     0.046 C 
HETATM    3  C5  UNL     1     -35.496  14.376  -6.741  1.00 20.00     0.167 C 
HETATM    4  C6  UNL     1     -34.531  14.170  -4.582  1.00 20.00     0.209 C 
HETATM    5  C7  UNL     1     -35.783  14.878  -4.022  1.00 20.00     0.097 C 
HETATM    6  O10 UNL     1     -34.302  14.444  -5.970  1.00 20.00    -0.388 OA
ENDROOT
BRANCH   5   7
HETATM    7  C1  UNL     1     -35.553  15.375  -2.626  1.00 20.00     0.015 C 
HETATM    8  C2  UNL     1     -34.657  16.294  -2.215  1.00 20.00    -0.088 C 
HETATM    9  C8  UNL     1     -34.552  16.684  -0.768  1.00 20.00     0.042 C 
HETATM   10  C9  UNL     1     -33.702  16.999  -3.136  1.00 20.00     0.042 C 
ENDBRANCH   5   7
BRANCH   5  11
HETATM   11  O11 UNL     1     -36.862  13.938  -3.970  1.00 20.00    -0.384 OA
HETATM   12  H27 UNL     1     -36.541  13.181  -3.457  1.00 20.00     0.211 HD
ENDBRANCH   5  11
TORSDOF 2
ENDMDL
MODEL 6
REMARK VINA RESULT:      -4.3     11.539     12.617
REMARK  2 active torsions:
REMARK  status: ('A' for Active; 'I' for Inactive)
REMARK    1  A    between atoms: C1_1  and  C7_7 
REMARK    2  A    between atoms: C7_7  and  O11_11 
ROOT
HETATM    1  C3  UNL     1     -34.192   5.784   6.294  1.00 20.00     0.029 C 
HETATM    2  C4  UNL     1     -33.816   6.763   5.180  1.00 20.00     0.046 C 
HETATM    3  C5  UNL     1     -34.973   4.584   5.773  1.00 20.00     0.167 C 
HETATM    4  C6  UNL     1     -34.842   5.194   3.483  1.00 20.00     0.209 C 
HETATM    5  C7  UNL     1     -33.605   6.045   3.843  1.00 20.00     0.097 C 
HETATM    6  O10 UNL     1     -35.699   4.943   4.604  1.00 20.00    -0.388 OA
ENDROOT
BRANCH   5   7
HETATM    7  C1  UNL     1     -33.276   7.021   2.754  1.00 20.00     0.015 C 
HETATM    8  C2  UNL     1     -32.192   7.817   2.660  1.00 20.00    -0.088 C 
HETATM    9  C8  UNL     1     -32.011   8.748   1.495  1.00 20.00     0.042 C 
HETATM   10  C9  UNL     1     -31.091   7.853   3.682  1.00 20.00     0.042 C 
ENDBRANCH   5   7
BRANCH   5  11
HETATM   11  O11 UNL     1     -32.476   5.177   3.996  1.00 20.00    -0.384 OA
HETATM   12  H27 UNL     1     -32.521   4.538   3.268  1.00 20.00     0.211 HD
ENDBRANCH   5  11
TORSDOF 2
ENDMDL
MODEL 7
REMARK VINA RESULT:      -4.2      2.216      3.850
REMARK  2 active torsions:
REMARK  status: ('A' for Active; 'I' for Inactive)
REMARK    1  A    between atoms: C1_1  and  C7_7 
REMARK    2  A    between atoms: C7_7  and  O11_11 
ROOT
HETATM    1  C3  UNL     1     -33.284  15.351  -3.529  1.00 20.00     0.029 C 
HETATM    2  C4  UNL     1     -34.602  15.728  -4.208  1.00 20.00     0.046 C 
HETATM    3  C5  UNL     1     -33.008  13.854  -3.589  1.00 20.00     0.167 C 
HETATM    4  C6  UNL     1     -34.917  13.315  -4.893  1.00 20.00     0.209 C 
HETATM    5  C7  UNL     1     -34.932  14.783  -5.368  1.00 20.00     0.097 C 
HETATM    6  O10 UNL     1     -34.233  13.132  -3.646  1.00 20.00    -0.388 OA
ENDROOT
BRANCH   5   7
HETATM    7  C1  UNL     1     -36.244  15.143  -5.998  1.00 20.00     0.015 C 
HETATM    8  C2  UNL     1     -37.458  15.177  -5.413  1.00 20.00    -0.088 C 
HETATM    9  C8  UNL     1     -38.685  15.560  -6.191  1.00 20.00     0.042 C 
HETATM   10  C9  UNL     1     -37.698  14.844  -3.968  1.00 20.00     0.042 C 
ENDBRANCH   5   7
BRANCH   5  11
HETATM   11  O11 UNL     1     -33.917  14.957  -6.364  1.00 20.00    -0.384 OA
HETATM   12  H27 UNL     1     -34.033  14.237  -7.002  1.00 20.00     0.211 HD
ENDBRANCH   5  11
TORSDOF 2
ENDMDL
MODEL 8
REMARK VINA RESULT:      -4.2      2.004      4.411
REMARK  2 active torsions:
REMARK  status: ('A' for Active; 'I' for Inactive)
REMARK    1  A    between atoms: C1_1  and  C7_7 
REMARK    2  A    between atoms: C7_7  and  O11_11 
ROOT
HETATM    1  C3  UNL     1     -34.583  16.587  -0.961  1.00 20.00     0.029 C 
HETATM    2  C4  UNL     1     -34.374  16.099  -2.396  1.00 20.00     0.046 C 
HETATM    3  C5  UNL     1     -35.536  17.773  -0.884  1.00 20.00     0.167 C 
HETATM    4  C6  UNL     1     -36.053  17.810  -3.200  1.00 20.00     0.209 C 
HETATM    5  C7  UNL     1     -35.619  16.330  -3.259  1.00 20.00     0.097 C 
HETATM    6  O10 UNL     1     -35.485  18.521  -2.093  1.00 20.00    -0.388 OA
ENDROOT
BRANCH   5   7
HETATM    7  C1  UNL     1     -35.385  15.883  -4.670  1.00 20.00     0.015 C 
HETATM    8  C2  UNL     1     -35.134  14.633  -5.109  1.00 20.00    -0.088 C 
HETATM    9  C8  UNL     1     -34.920  14.350  -6.569  1.00 20.00     0.042 C 
HETATM   10  C9  UNL     1     -35.044  13.434  -4.208  1.00 20.00     0.042 C 
ENDBRANCH   5   7
BRANCH   5  11
HETATM   11  O11 UNL     1     -36.669  15.518  -2.720  1.00 20.00    -0.384 OA
HETATM   12  H27 UNL     1     -36.303  15.081  -1.937  1.00 20.00     0.211 HD
ENDBRANCH   5  11
TORSDOF 2
ENDMDL
MODEL 9
REMARK VINA RESULT:      -4.2     12.620     14.161
REMARK  2 active torsions:
REMARK  status: ('A' for Active; 'I' for Inactive)
REMARK    1  A    between atoms: C1_1  and  C7_7 
REMARK    2  A    between atoms: C7_7  and  O11_11 
ROOT
HETATM    1  C3  UNL     1     -40.881   6.130  -0.117  1.00 20.00     0.029 C 
HETATM    2  C4  UNL     1     -40.490   4.885  -0.916  1.00 20.00     0.046 C 
HETATM    3  C5  UNL     1     -41.975   6.939  -0.801  1.00 20.00     0.167 C 
HETATM    4  C6  UNL     1     -42.290   5.429  -2.606  1.00 20.00     0.209 C 
HETATM    5  C7  UNL     1     -41.674   4.330  -1.714  1.00 20.00     0.097 C 
HETATM    6  O10 UNL     1     -41.912   6.754  -2.211  1.00 20.00    -0.388 OA
ENDROOT
BRANCH   5   7
HETATM    7  C1  UNL     1     -41.266   3.135  -2.521  1.00 20.00     0.015 C 
HETATM    8  C2  UNL     1     -42.002   2.458  -3.425  1.00 20.00    -0.088 C 
HETATM    9  C8  UNL     1     -41.440   1.271  -4.153  1.00 20.00     0.042 C 
HETATM   10  C9  UNL     1     -43.417   2.814  -3.782  1.00 20.00     0.042 C 
ENDBRANCH   5   7
BRANCH   5  11
HETATM   11  O11 UNL     1     -42.660   3.894  -0.771  1.00 20.00    -0.384 OA
HETATM   12  H27 UNL     1     -43.302   4.616  -0.694  1.00 20.00     0.211 HD
ENDBRANCH   5  11
TORSDOF 2
ENDMDL
