MODEL 1
REMARK VINA RESULT:      -5.0      0.000      0.000
REMARK  3 active torsions:
REMARK  status: ('A' for Active; 'I' for Inactive)
REMARK    1  A    between atoms: C2_2  and  C10_10 
REMARK    2  A    between atoms: C5_5  and  C10_10 
REMARK    3  A    between atoms: C7_7  and  O11_11 
ROOT
HETATM    1  C3  UNL     1     -35.432  15.371  -3.017  1.00 20.00     0.008 C 
HETATM    2  C4  UNL     1     -35.252  14.208  -3.998  1.00 20.00     0.032 C 
HETATM    3  C5  UNL     1     -34.023  15.879  -2.696  1.00 20.00    -0.004 C 
HETATM    4  C6  UNL     1     -33.185  15.487  -3.928  1.00 20.00     0.015 C 
HETATM    5  C7  UNL     1     -33.750  14.100  -4.263  1.00 20.00     0.122 C 
HETATM    6  C9  UNL     1     -33.316  16.442  -5.114  1.00 20.00     0.013 C 
ENDROOT
BRANCH   3   7
HETATM    7  C10 UNL     1     -33.994  17.351  -2.316  1.00 20.00     0.038 C 
BRANCH   7   8
HETATM    8  C2  UNL     1     -33.900  17.569  -0.824  1.00 20.00    -0.093 C 
HETATM    9  C1  UNL     1     -34.825  17.077   0.015  1.00 20.00     0.014 C 
HETATM   10  C8  UNL     1     -32.747  18.390  -0.324  1.00 20.00     0.042 C 
ENDBRANCH   7   8
ENDBRANCH   3   7
BRANCH   5  11
HETATM   11  O11 UNL     1     -33.206  13.127  -3.372  1.00 20.00    -0.395 OA
HETATM   12  H29 UNL     1     -33.515  13.364  -2.484  1.00 20.00     0.210 HD
ENDBRANCH   5  11
TORSDOF 3
ENDMDL
MODEL 2
REMARK VINA RESULT:      -4.8      1.240      1.454
REMARK  3 active torsions:
REMARK  status: ('A' for Active; 'I' for Inactive)
REMARK    1  A    between atoms: C2_2  and  C10_10 
REMARK    2  A    between atoms: C5_5  and  C10_10 
REMARK    3  A    between atoms: C7_7  and  O11_11 
ROOT
HETATM    1  C3  UNL     1     -35.972  15.448  -3.111  1.00 20.00     0.008 C 
HETATM    2  C4  UNL     1     -36.484  14.520  -4.218  1.00 20.00     0.032 C 
HETATM    3  C5  UNL     1     -34.464  15.199  -3.010  1.00 20.00    -0.004 C 
HETATM    4  C6  UNL     1     -34.065  14.692  -4.410  1.00 20.00     0.015 C 
HETATM    5  C7  UNL     1     -35.256  13.793  -4.767  1.00 20.00     0.122 C 
HETATM    6  C9  UNL     1     -33.868  15.793  -5.450  1.00 20.00     0.013 C 
ENDROOT
BRANCH   3   7
HETATM    7  C10 UNL     1     -33.694  16.408  -2.499  1.00 20.00     0.038 C 
BRANCH   7   8
HETATM    8  C2  UNL     1     -34.507  17.263  -1.557  1.00 20.00    -0.093 C 
HETATM    9  C1  UNL     1     -34.730  16.888  -0.287  1.00 20.00     0.014 C 
HETATM   10  C8  UNL     1     -35.085  18.533  -2.111  1.00 20.00     0.042 C 
ENDBRANCH   7   8
ENDBRANCH   3   7
BRANCH   5  11
HETATM   11  O11 UNL     1     -35.137  12.541  -4.094  1.00 20.00    -0.395 OA
HETATM   12  H29 UNL     1     -34.563  11.986  -4.644  1.00 20.00     0.210 HD
ENDBRANCH   5  11
TORSDOF 3
ENDMDL
MODEL 3
REMARK VINA RESULT:      -4.8      1.658      2.099
REMARK  3 active torsions:
REMARK  status: ('A' for Active; 'I' for Inactive)
REMARK    1  A    between atoms: C2_2  and  C10_10 
REMARK    2  A    between atoms: C5_5  and  C10_10 
REMARK    3  A    between atoms: C7_7  and  O11_11 
ROOT
HETATM    1  C3  UNL     1     -35.238  16.445  -4.446  1.00 20.00     0.008 C 
HETATM    2  C4  UNL     1     -36.017  15.409  -5.263  1.00 20.00     0.032 C 
HETATM    3  C5  UNL     1     -34.942  15.787  -3.095  1.00 20.00    -0.004 C 
HETATM    4  C6  UNL     1     -34.947  14.276  -3.396  1.00 20.00     0.015 C 
HETATM    5  C7  UNL     1     -36.111  14.159  -4.389  1.00 20.00     0.122 C 
HETATM    6  C9  UNL     1     -33.646  13.745  -3.999  1.00 20.00     0.013 C 
ENDROOT
BRANCH   3   7
HETATM    7  C10 UNL     1     -33.682  16.327  -2.434  1.00 20.00     0.038 C 
BRANCH   7   8
HETATM    8  C2  UNL     1     -33.979  17.272  -1.294  1.00 20.00    -0.093 C 
HETATM    9  C1  UNL     1     -34.784  16.916  -0.280  1.00 20.00     0.014 C 
HETATM   10  C8  UNL     1     -33.363  18.640  -1.361  1.00 20.00     0.042 C 
ENDBRANCH   7   8
ENDBRANCH   3   7
BRANCH   5  11
HETATM   11  O11 UNL     1     -37.352  14.194  -3.685  1.00 20.00    -0.395 OA
HETATM   12  H29 UNL     1     -38.050  14.118  -4.354  1.00 20.00     0.210 HD
ENDBRANCH   5  11
TORSDOF 3
ENDMDL
MODEL 4
REMARK VINA RESULT:      -4.8      1.568      1.998
REMARK  3 active torsions:
REMARK  status: ('A' for Active; 'I' for Inactive)
REMARK    1  A    between atoms: C2_2  and  C10_10 
REMARK    2  A    between atoms: C5_5  and  C10_10 
REMARK    3  A    between atoms: C7_7  and  O11_11 
ROOT
HETATM    1  C3  UNL     1     -35.071  15.547  -5.347  1.00 20.00     0.008 C 
HETATM    2  C4  UNL     1     -34.714  14.135  -5.821  1.00 20.00     0.032 C 
HETATM    3  C5  UNL     1     -34.936  15.530  -3.820  1.00 20.00    -0.004 C 
HETATM    4  C6  UNL     1     -33.920  14.407  -3.539  1.00 20.00     0.015 C 
HETATM    5  C7  UNL     1     -34.332  13.347  -4.568  1.00 20.00     0.122 C 
HETATM    6  C9  UNL     1     -32.458  14.816  -3.716  1.00 20.00     0.013 C 
ENDROOT
BRANCH   3   7
HETATM    7  C10 UNL     1     -34.596  16.894  -3.239  1.00 20.00     0.038 C 
BRANCH   7   8
HETATM    8  C2  UNL     1     -35.303  17.166  -1.933  1.00 20.00    -0.093 C 
HETATM    9  C1  UNL     1     -36.459  17.846  -1.890  1.00 20.00     0.014 C 
HETATM   10  C8  UNL     1     -34.638  16.674  -0.679  1.00 20.00     0.042 C 
ENDBRANCH   7   8
ENDBRANCH   3   7
BRANCH   5  11
HETATM   11  O11 UNL     1     -35.487  12.648  -4.107  1.00 20.00    -0.395 OA
HETATM   12  H29 UNL     1     -35.377  12.536  -3.150  1.00 20.00     0.210 HD
ENDBRANCH   5  11
TORSDOF 3
ENDMDL
MODEL 5
REMARK VINA RESULT:      -4.7     11.600     12.457
REMARK  3 active torsions:
REMARK  status: ('A' for Active; 'I' for Inactive)
REMARK    1  A    between atoms: C2_2  and  C10_10 
REMARK    2  A    between atoms: C5_5  and  C10_10 
REMARK    3  A    between atoms: C7_7  and  O11_11 
ROOT
HETATM    1  C3  UNL     1     -33.567   6.771   5.311  1.00 20.00     0.008 C 
HETATM    2  C4  UNL     1     -34.457   6.119   6.375  1.00 20.00     0.032 C 
HETATM    3  C5  UNL     1     -33.499   5.778   4.146  1.00 20.00    -0.004 C 
HETATM    4  C6  UNL     1     -34.800   4.960   4.265  1.00 20.00     0.015 C 
HETATM    5  C7  UNL     1     -34.925   4.789   5.785  1.00 20.00     0.122 C 
HETATM    6  C9  UNL     1     -36.035   5.644   3.679  1.00 20.00     0.013 C 
ENDROOT
BRANCH   3   7
HETATM    7  C10 UNL     1     -33.260   6.452   2.804  1.00 20.00     0.038 C 
BRANCH   7   8
HETATM    8  C2  UNL     1     -32.151   7.475   2.852  1.00 20.00    -0.093 C 
HETATM    9  C1  UNL     1     -31.189   7.421   3.787  1.00 20.00     0.014 C 
HETATM   10  C8  UNL     1     -32.190   8.576   1.831  1.00 20.00     0.042 C 
ENDBRANCH   7   8
ENDBRANCH   3   7
BRANCH   5  11
HETATM   11  O11 UNL     1     -34.039   3.763   6.231  1.00 20.00    -0.395 OA
HETATM   12  H29 UNL     1     -34.379   3.459   7.086  1.00 20.00     0.210 HD
ENDBRANCH   5  11
TORSDOF 3
ENDMDL
MODEL 6
REMARK VINA RESULT:      -4.7      1.654      2.408
REMARK  3 active torsions:
REMARK  status: ('A' for Active; 'I' for Inactive)
REMARK    1  A    between atoms: C2_2  and  C10_10 
REMARK    2  A    between atoms: C5_5  and  C10_10 
REMARK    3  A    between atoms: C7_7  and  O11_11 
ROOT
HETATM    1  C3  UNL     1     -34.104  13.774  -3.476  1.00 20.00     0.008 C 
HETATM    2  C4  UNL     1     -34.363  13.161  -4.855  1.00 20.00     0.032 C 
HETATM    3  C5  UNL     1     -34.582  15.227  -3.559  1.00 20.00    -0.004 C 
HETATM    4  C6  UNL     1     -35.652  15.215  -4.668  1.00 20.00     0.015 C 
HETATM    5  C7  UNL     1     -35.031  14.254  -5.691  1.00 20.00     0.122 C 
HETATM    6  C9  UNL     1     -37.029  14.731  -4.216  1.00 20.00     0.013 C 
ENDROOT
BRANCH   3   7
HETATM    7  C10 UNL     1     -35.028  15.784  -2.215  1.00 20.00     0.038 C 
BRANCH   7   8
HETATM    8  C2  UNL     1     -34.267  17.026  -1.816  1.00 20.00    -0.093 C 
HETATM    9  C1  UNL     1     -34.076  17.346  -0.526  1.00 20.00     0.014 C 
HETATM   10  C8  UNL     1     -33.765  17.907  -2.923  1.00 20.00     0.042 C 
ENDBRANCH   7   8
ENDBRANCH   3   7
BRANCH   5  11
HETATM   11  O11 UNL     1     -34.020  14.929  -6.438  1.00 20.00    -0.395 OA
HETATM   12  H29 UNL     1     -33.768  14.333  -7.161  1.00 20.00     0.210 HD
ENDBRANCH   5  11
TORSDOF 3
ENDMDL
MODEL 7
REMARK VINA RESULT:      -4.3     13.027     15.016
REMARK  3 active torsions:
REMARK  status: ('A' for Active; 'I' for Inactive)
REMARK    1  A    between atoms: C2_2  and  C10_10 
REMARK    2  A    between atoms: C5_5  and  C10_10 
REMARK    3  A    between atoms: C7_7  and  O11_11 
ROOT
HETATM    1  C3  UNL     1     -40.795   4.534  -1.265  1.00 20.00     0.008 C 
HETATM    2  C4  UNL     1     -40.790   5.600  -0.165  1.00 20.00     0.032 C 
HETATM    3  C5  UNL     1     -42.267   4.212  -1.540  1.00 20.00    -0.004 C 
HETATM    4  C6  UNL     1     -43.022   5.490  -1.126  1.00 20.00     0.015 C 
HETATM    5  C7  UNL     1     -42.257   5.909   0.137  1.00 20.00     0.122 C 
HETATM    6  C9  UNL     1     -43.013   6.601  -2.176  1.00 20.00     0.013 C 
ENDROOT
BRANCH   3   7
HETATM    7  C10 UNL     1     -42.514   3.728  -2.961  1.00 20.00     0.038 C 
BRANCH   7   8
HETATM    8  C2  UNL     1     -42.311   2.240  -3.116  1.00 20.00    -0.093 C 
HETATM    9  C1  UNL     1     -41.308   1.744  -3.857  1.00 20.00     0.014 C 
HETATM   10  C8  UNL     1     -43.300   1.340  -2.434  1.00 20.00     0.042 C 
ENDBRANCH   7   8
ENDBRANCH   3   7
BRANCH   5  11
HETATM   11  O11 UNL     1     -42.668   5.105   1.241  1.00 20.00    -0.395 OA
HETATM   12  H29 UNL     1     -42.770   5.705   1.996  1.00 20.00     0.210 HD
ENDBRANCH   5  11
TORSDOF 3
ENDMDL
MODEL 8
REMARK VINA RESULT:      -4.2      2.070      2.593
REMARK  3 active torsions:
REMARK  status: ('A' for Active; 'I' for Inactive)
REMARK    1  A    between atoms: C2_2  and  C10_10 
REMARK    2  A    between atoms: C5_5  and  C10_10 
REMARK    3  A    between atoms: C7_7  and  O11_11 
ROOT
HETATM    1  C3  UNL     1     -35.441  15.558  -5.120  1.00 20.00     0.008 C 
HETATM    2  C4  UNL     1     -34.918  14.262  -5.748  1.00 20.00     0.032 C 
HETATM    3  C5  UNL     1     -35.241  15.409  -3.608  1.00 20.00    -0.004 C 
HETATM    4  C6  UNL     1     -34.071  14.415  -3.473  1.00 20.00     0.015 C 
HETATM    5  C7  UNL     1     -34.381  13.414  -4.595  1.00 20.00     0.122 C 
HETATM    6  C9  UNL     1     -32.686  15.037  -3.650  1.00 20.00     0.013 C 
ENDROOT
BRANCH   3   7
HETATM    7  C10 UNL     1     -35.061  16.743  -2.898  1.00 20.00     0.038 C 
BRANCH   7   8
HETATM    8  C2  UNL     1     -36.193  17.706  -3.168  1.00 20.00    -0.093 C 
HETATM    9  C1  UNL     1     -37.454  17.424  -2.805  1.00 20.00     0.014 C 
HETATM   10  C8  UNL     1     -35.851  18.977  -3.891  1.00 20.00     0.042 C 
ENDBRANCH   7   8
ENDBRANCH   3   7
BRANCH   5  11
HETATM   11  O11 UNL     1     -35.411  12.521  -4.176  1.00 20.00    -0.395 OA
HETATM   12  H29 UNL     1     -35.092  12.093  -3.367  1.00 20.00     0.210 HD
ENDBRANCH   5  11
TORSDOF 3
ENDMDL
MODEL 9
REMARK VINA RESULT:      -4.2      2.312      4.412
REMARK  3 active torsions:
REMARK  status: ('A' for Active; 'I' for Inactive)
REMARK    1  A    between atoms: C2_2  and  C10_10 
REMARK    2  A    between atoms: C5_5  and  C10_10 
REMARK    3  A    between atoms: C7_7  and  O11_11 
ROOT
HETATM    1  C3  UNL     1     -34.558  16.615  -0.787  1.00 20.00     0.008 C 
HETATM    2  C4  UNL     1     -35.416  17.825  -0.404  1.00 20.00     0.032 C 
HETATM    3  C5  UNL     1     -34.920  16.277  -2.237  1.00 20.00    -0.004 C 
HETATM    4  C6  UNL     1     -35.418  17.610  -2.827  1.00 20.00     0.015 C 
HETATM    5  C7  UNL     1     -36.218  18.192  -1.654  1.00 20.00     0.122 C 
HETATM    6  C9  UNL     1     -34.308  18.563  -3.270  1.00 20.00     0.013 C 
ENDROOT
BRANCH   3   7
HETATM    7  C10 UNL     1     -33.784  15.602  -2.991  1.00 20.00     0.038 C 
BRANCH   7   8
HETATM    8  C2  UNL     1     -34.267  14.775  -4.158  1.00 20.00    -0.093 C 
HETATM    9  C1  UNL     1     -34.763  13.540  -3.984  1.00 20.00     0.014 C 
HETATM   10  C8  UNL     1     -34.136  15.380  -5.526  1.00 20.00     0.042 C 
ENDBRANCH   7   8
ENDBRANCH   3   7
BRANCH   5  11
HETATM   11  O11 UNL     1     -37.492  17.557  -1.573  1.00 20.00    -0.395 OA
HETATM   12  H29 UNL     1     -37.860  17.562  -2.471  1.00 20.00     0.210 HD
ENDBRANCH   5  11
TORSDOF 3
ENDMDL
