MODEL 1
REMARK VINA RESULT:      -4.5      0.000      0.000
REMARK  5 active torsions:
REMARK  status: ('A' for Active; 'I' for Inactive)
REMARK    1  A    between atoms: C2_2  and  C6_6 
REMARK    2  A    between atoms: C6_6  and  C8_8 
REMARK    3  A    between atoms: C7_7  and  C8_8 
REMARK    4  A    between atoms: C7_7  and  C9_9 
REMARK    5  A    between atoms: C9_9  and  O10_10 
ROOT
HETATM    1  C4  UNL     1     -32.043   5.300   2.865  1.00 20.00     0.010 C 
HETATM    2  C8  UNL     1     -32.864   6.571   3.118  1.00 20.00    -0.012 C 
ENDROOT
BRANCH   2   3
HETATM    3  C6  UNL     1     -33.423   6.527   4.560  1.00 20.00     0.037 C 
BRANCH   3   4
HETATM    4  C2  UNL     1     -34.580   5.574   4.769  1.00 20.00    -0.093 C 
HETATM    5  C1  UNL     1     -35.522   5.397   3.830  1.00 20.00     0.014 C 
HETATM    6  C3  UNL     1     -34.607   4.804   6.058  1.00 20.00     0.042 C 
ENDBRANCH   3   4
ENDBRANCH   2   3
BRANCH   2   7
HETATM    7  C7  UNL     1     -32.027   7.850   2.878  1.00 20.00     0.035 C 
BRANCH   7   8
HETATM    8  C9  UNL     1     -32.367   8.606   1.586  1.00 20.00     0.114 C 
HETATM    9  C5  UNL     1     -32.680  10.070   1.874  1.00 20.00     0.039 C 
BRANCH   8  10
HETATM   10  O10 UNL     1     -31.254   8.541   0.699  1.00 20.00    -0.396 OA
HETATM   11  H28 UNL     1     -31.059   7.598   0.569  1.00 20.00     0.210 HD
ENDBRANCH   8  10
ENDBRANCH   7   8
ENDBRANCH   2   7
TORSDOF 5
ENDMDL
MODEL 2
REMARK VINA RESULT:      -4.3     10.502     11.443
REMARK  5 active torsions:
REMARK  status: ('A' for Active; 'I' for Inactive)
REMARK    1  A    between atoms: C2_2  and  C6_6 
REMARK    2  A    between atoms: C6_6  and  C8_8 
REMARK    3  A    between atoms: C7_7  and  C8_8 
REMARK    4  A    between atoms: C7_7  and  C9_9 
REMARK    5  A    between atoms: C9_9  and  O10_10 
ROOT
HETATM    1  C4  UNL     1     -33.597  16.795  -4.099  1.00 20.00     0.010 C 
HETATM    2  C8  UNL     1     -33.710  15.634  -3.102  1.00 20.00    -0.012 C 
ENDROOT
BRANCH   2   3
HETATM    3  C6  UNL     1     -34.988  15.828  -2.252  1.00 20.00     0.037 C 
BRANCH   3   4
HETATM    4  C2  UNL     1     -35.010  17.081  -1.405  1.00 20.00    -0.093 C 
HETATM    5  C1  UNL     1     -34.052  17.333  -0.499  1.00 20.00     0.014 C 
HETATM    6  C3  UNL     1     -36.130  18.052  -1.649  1.00 20.00     0.042 C 
ENDBRANCH   3   4
ENDBRANCH   2   3
BRANCH   2   7
HETATM    7  C7  UNL     1     -33.713  14.263  -3.819  1.00 20.00     0.035 C 
BRANCH   7   8
HETATM    8  C9  UNL     1     -35.058  13.867  -4.444  1.00 20.00     0.114 C 
HETATM    9  C5  UNL     1     -35.023  14.015  -5.960  1.00 20.00     0.039 C 
BRANCH   8  10
HETATM   10  O10 UNL     1     -35.343  12.510  -4.121  1.00 20.00    -0.396 OA
HETATM   11  H28 UNL     1     -35.975  12.527  -3.384  1.00 20.00     0.210 HD
ENDBRANCH   8  10
ENDBRANCH   7   8
ENDBRANCH   2   7
TORSDOF 5
ENDMDL
MODEL 3
REMARK VINA RESULT:      -4.3     10.172     11.346
REMARK  5 active torsions:
REMARK  status: ('A' for Active; 'I' for Inactive)
REMARK    1  A    between atoms: C2_2  and  C6_6 
REMARK    2  A    between atoms: C6_6  and  C8_8 
REMARK    3  A    between atoms: C7_7  and  C8_8 
REMARK    4  A    between atoms: C7_7  and  C9_9 
REMARK    5  A    between atoms: C9_9  and  O10_10 
ROOT
HETATM    1  C4  UNL     1     -35.294  17.299  -3.826  1.00 20.00     0.010 C 
HETATM    2  C8  UNL     1     -34.047  16.645  -3.216  1.00 20.00    -0.012 C 
ENDROOT
BRANCH   2   3
HETATM    3  C6  UNL     1     -34.375  16.192  -1.773  1.00 20.00     0.037 C 
BRANCH   3   4
HETATM    4  C2  UNL     1     -34.143  17.238  -0.705  1.00 20.00    -0.093 C 
HETATM    5  C1  UNL     1     -33.133  18.119  -0.793  1.00 20.00     0.014 C 
HETATM    6  C3  UNL     1     -35.114  17.274   0.439  1.00 20.00     0.042 C 
ENDBRANCH   3   4
ENDBRANCH   2   3
BRANCH   2   7
HETATM    7  C7  UNL     1     -33.542  15.462  -4.076  1.00 20.00     0.035 C 
BRANCH   7   8
HETATM    8  C9  UNL     1     -33.945  14.074  -3.561  1.00 20.00     0.114 C 
HETATM    9  C5  UNL     1     -35.201  13.572  -4.263  1.00 20.00     0.039 C 
BRANCH   8  10
HETATM   10  O10 UNL     1     -32.883  13.157  -3.806  1.00 20.00    -0.396 OA
HETATM   11  H28 UNL     1     -32.737  13.153  -4.766  1.00 20.00     0.210 HD
ENDBRANCH   8  10
ENDBRANCH   7   8
ENDBRANCH   2   7
TORSDOF 5
ENDMDL
MODEL 4
REMARK VINA RESULT:      -4.2      1.616      2.153
REMARK  5 active torsions:
REMARK  status: ('A' for Active; 'I' for Inactive)
REMARK    1  A    between atoms: C2_2  and  C6_6 
REMARK    2  A    between atoms: C6_6  and  C8_8 
REMARK    3  A    between atoms: C7_7  and  C8_8 
REMARK    4  A    between atoms: C7_7  and  C9_9 
REMARK    5  A    between atoms: C9_9  and  O10_10 
ROOT
HETATM    1  C4  UNL     1     -34.073   4.890   2.116  1.00 20.00     0.010 C 
HETATM    2  C8  UNL     1     -33.898   6.091   3.054  1.00 20.00    -0.012 C 
ENDROOT
BRANCH   2   3
HETATM    3  C6  UNL     1     -35.008   6.051   4.131  1.00 20.00     0.037 C 
BRANCH   3   4
HETATM    4  C2  UNL     1     -34.576   5.510   5.477  1.00 20.00    -0.093 C 
HETATM    5  C1  UNL     1     -34.098   6.318   6.437  1.00 20.00     0.014 C 
HETATM    6  C3  UNL     1     -34.741   4.036   5.706  1.00 20.00     0.042 C 
ENDBRANCH   3   4
ENDBRANCH   2   3
BRANCH   2   7
HETATM    7  C7  UNL     1     -32.490   6.113   3.697  1.00 20.00     0.035 C 
BRANCH   7   8
HETATM    8  C9  UNL     1     -31.577   7.244   3.204  1.00 20.00     0.114 C 
HETATM    9  C5  UNL     1     -32.292   8.120   2.183  1.00 20.00     0.039 C 
BRANCH   8  10
HETATM   10  O10 UNL     1     -31.190   8.051   4.312  1.00 20.00    -0.396 OA
HETATM   11  H28 UNL     1     -30.293   7.772   4.559  1.00 20.00     0.210 HD
ENDBRANCH   8  10
ENDBRANCH   7   8
ENDBRANCH   2   7
TORSDOF 5
ENDMDL
MODEL 5
REMARK VINA RESULT:      -4.1      1.575      2.097
REMARK  5 active torsions:
REMARK  status: ('A' for Active; 'I' for Inactive)
REMARK    1  A    between atoms: C2_2  and  C6_6 
REMARK    2  A    between atoms: C6_6  and  C8_8 
REMARK    3  A    between atoms: C7_7  and  C8_8 
REMARK    4  A    between atoms: C7_7  and  C9_9 
REMARK    5  A    between atoms: C9_9  and  O10_10 
ROOT
HETATM    1  C4  UNL     1     -34.010   4.841   2.112  1.00 20.00     0.010 C 
HETATM    2  C8  UNL     1     -33.998   6.033   3.077  1.00 20.00    -0.012 C 
ENDROOT
BRANCH   2   3
HETATM    3  C6  UNL     1     -35.154   5.868   4.091  1.00 20.00     0.037 C 
BRANCH   3   4
HETATM    4  C2  UNL     1     -34.759   5.261   5.420  1.00 20.00    -0.093 C 
HETATM    5  C1  UNL     1     -34.830   3.938   5.636  1.00 20.00     0.014 C 
HETATM    6  C3  UNL     1     -34.245   6.199   6.474  1.00 20.00     0.042 C 
ENDBRANCH   3   4
ENDBRANCH   2   3
BRANCH   2   7
HETATM    7  C7  UNL     1     -32.634   6.174   3.796  1.00 20.00     0.035 C 
BRANCH   7   8
HETATM    8  C9  UNL     1     -31.666   7.173   3.147  1.00 20.00     0.114 C 
HETATM    9  C5  UNL     1     -32.404   8.118   2.206  1.00 20.00     0.039 C 
BRANCH   8  10
HETATM   10  O10 UNL     1     -31.034   7.941   4.167  1.00 20.00    -0.396 OA
HETATM   11  H28 UNL     1     -31.619   8.694   4.350  1.00 20.00     0.210 HD
ENDBRANCH   8  10
ENDBRANCH   7   8
ENDBRANCH   2   7
TORSDOF 5
ENDMDL
MODEL 6
REMARK VINA RESULT:      -4.1     10.453     12.411
REMARK  5 active torsions:
REMARK  status: ('A' for Active; 'I' for Inactive)
REMARK    1  A    between atoms: C2_2  and  C6_6 
REMARK    2  A    between atoms: C6_6  and  C8_8 
REMARK    3  A    between atoms: C7_7  and  C8_8 
REMARK    4  A    between atoms: C7_7  and  C9_9 
REMARK    5  A    between atoms: C9_9  and  O10_10 
ROOT
HETATM    1  C4  UNL     1     -34.635  16.265  -1.363  1.00 20.00     0.010 C 
HETATM    2  C8  UNL     1     -34.726  16.062  -2.881  1.00 20.00    -0.012 C 
ENDROOT
BRANCH   2   3
HETATM    3  C6  UNL     1     -33.818  17.102  -3.580  1.00 20.00     0.037 C 
BRANCH   3   4
HETATM    4  C2  UNL     1     -34.409  17.737  -4.820  1.00 20.00    -0.093 C 
HETATM    5  C1  UNL     1     -33.635  18.135  -5.842  1.00 20.00     0.014 C 
HETATM    6  C3  UNL     1     -35.904  17.867  -4.876  1.00 20.00     0.042 C 
ENDBRANCH   3   4
ENDBRANCH   2   3
BRANCH   2   7
HETATM    7  C7  UNL     1     -34.346  14.619  -3.290  1.00 20.00     0.035 C 
BRANCH   7   8
HETATM    8  C9  UNL     1     -35.289  13.971  -4.312  1.00 20.00     0.114 C 
HETATM    9  C5  UNL     1     -34.795  14.200  -5.736  1.00 20.00     0.039 C 
BRANCH   8  10
HETATM   10  O10 UNL     1     -35.354  12.569  -4.068  1.00 20.00    -0.396 OA
HETATM   11  H28 UNL     1     -34.608  12.355  -3.484  1.00 20.00     0.210 HD
ENDBRANCH   8  10
ENDBRANCH   7   8
ENDBRANCH   2   7
TORSDOF 5
ENDMDL
MODEL 7
REMARK VINA RESULT:      -4.1      2.831      4.963
REMARK  5 active torsions:
REMARK  status: ('A' for Active; 'I' for Inactive)
REMARK    1  A    between atoms: C2_2  and  C6_6 
REMARK    2  A    between atoms: C6_6  and  C8_8 
REMARK    3  A    between atoms: C7_7  and  C8_8 
REMARK    4  A    between atoms: C7_7  and  C9_9 
REMARK    5  A    between atoms: C9_9  and  O10_10 
ROOT
HETATM    1  C4  UNL     1     -33.802   4.956   1.924  1.00 20.00     0.010 C 
HETATM    2  C8  UNL     1     -33.703   5.637   3.295  1.00 20.00    -0.012 C 
ENDROOT
BRANCH   2   3
HETATM    3  C6  UNL     1     -33.605   7.167   3.087  1.00 20.00     0.037 C 
BRANCH   3   4
HETATM    4  C2  UNL     1     -32.205   7.693   2.857  1.00 20.00    -0.093 C 
HETATM    5  C1  UNL     1     -31.227   7.504   3.757  1.00 20.00     0.014 C 
HETATM    6  C3  UNL     1     -31.946   8.403   1.559  1.00 20.00     0.042 C 
ENDBRANCH   3   4
ENDBRANCH   2   3
BRANCH   2   7
HETATM    7  C7  UNL     1     -34.899   5.268   4.205  1.00 20.00     0.035 C 
BRANCH   7   8
HETATM    8  C9  UNL     1     -34.515   4.840   5.628  1.00 20.00     0.114 C 
HETATM    9  C5  UNL     1     -34.318   6.052   6.530  1.00 20.00     0.039 C 
BRANCH   8  10
HETATM   10  O10 UNL     1     -35.553   4.027   6.168  1.00 20.00    -0.396 OA
HETATM   11  H28 UNL     1     -35.449   3.146   5.774  1.00 20.00     0.210 HD
ENDBRANCH   8  10
ENDBRANCH   7   8
ENDBRANCH   2   7
TORSDOF 5
ENDMDL
MODEL 8
REMARK VINA RESULT:      -4.0     10.286     11.877
REMARK  5 active torsions:
REMARK  status: ('A' for Active; 'I' for Inactive)
REMARK    1  A    between atoms: C2_2  and  C6_6 
REMARK    2  A    between atoms: C6_6  and  C8_8 
REMARK    3  A    between atoms: C7_7  and  C8_8 
REMARK    4  A    between atoms: C7_7  and  C9_9 
REMARK    5  A    between atoms: C9_9  and  O10_10 
ROOT
HETATM    1  C4  UNL     1     -34.315  13.590  -3.695  1.00 20.00     0.010 C 
HETATM    2  C8  UNL     1     -34.724  15.064  -3.579  1.00 20.00    -0.012 C 
ENDROOT
BRANCH   2   3
HETATM    3  C6  UNL     1     -33.579  15.849  -2.895  1.00 20.00     0.037 C 
BRANCH   3   4
HETATM    4  C2  UNL     1     -34.027  16.917  -1.922  1.00 20.00    -0.093 C 
HETATM    5  C1  UNL     1     -34.652  16.605  -0.776  1.00 20.00     0.014 C 
HETATM    6  C3  UNL     1     -33.707  18.342  -2.275  1.00 20.00     0.042 C 
ENDBRANCH   3   4
ENDBRANCH   2   3
BRANCH   2   7
HETATM    7  C7  UNL     1     -35.078  15.671  -4.958  1.00 20.00     0.035 C 
BRANCH   7   8
HETATM    8  C9  UNL     1     -34.846  14.733  -6.150  1.00 20.00     0.114 C 
HETATM    9  C5  UNL     1     -36.040  14.745  -7.097  1.00 20.00     0.039 C 
BRANCH   8  10
HETATM   10  O10 UNL     1     -33.689  15.160  -6.864  1.00 20.00    -0.396 OA
HETATM   11  H28 UNL     1     -33.025  15.398  -6.198  1.00 20.00     0.210 HD
ENDBRANCH   8  10
ENDBRANCH   7   8
ENDBRANCH   2   7
TORSDOF 5
ENDMDL
MODEL 9
REMARK VINA RESULT:      -4.0     10.423     11.715
REMARK  5 active torsions:
REMARK  status: ('A' for Active; 'I' for Inactive)
REMARK    1  A    between atoms: C2_2  and  C6_6 
REMARK    2  A    between atoms: C6_6  and  C8_8 
REMARK    3  A    between atoms: C7_7  and  C8_8 
REMARK    4  A    between atoms: C7_7  and  C9_9 
REMARK    5  A    between atoms: C9_9  and  O10_10 
ROOT
HETATM    1  C4  UNL     1     -34.361  13.419  -4.132  1.00 20.00     0.010 C 
HETATM    2  C8  UNL     1     -34.907  14.642  -3.385  1.00 20.00    -0.012 C 
ENDROOT
BRANCH   2   3
HETATM    3  C6  UNL     1     -33.726  15.570  -3.012  1.00 20.00     0.037 C 
BRANCH   3   4
HETATM    4  C2  UNL     1     -34.085  16.736  -2.118  1.00 20.00    -0.093 C 
HETATM    5  C1  UNL     1     -34.620  16.549  -0.901  1.00 20.00     0.014 C 
HETATM    6  C3  UNL     1     -33.782  18.113  -2.635  1.00 20.00     0.042 C 
ENDBRANCH   3   4
ENDBRANCH   2   3
BRANCH   2   7
HETATM    7  C7  UNL     1     -35.972  15.394  -4.220  1.00 20.00     0.035 C 
BRANCH   7   8
HETATM    8  C9  UNL     1     -37.369  15.441  -3.586  1.00 20.00     0.114 C 
HETATM    9  C5  UNL     1     -38.232  16.512  -4.243  1.00 20.00     0.039 C 
BRANCH   8  10
HETATM   10  O10 UNL     1     -38.001  14.175  -3.753  1.00 20.00    -0.396 OA
HETATM   11  H28 UNL     1     -38.951  14.320  -3.615  1.00 20.00     0.210 HD
ENDBRANCH   8  10
ENDBRANCH   7   8
ENDBRANCH   2   7
TORSDOF 5
ENDMDL
