MODEL 1
REMARK VINA RESULT:      -4.6      0.000      0.000
REMARK  3 active torsions:
REMARK  status: ('A' for Active; 'I' for Inactive)
REMARK    1  A    between atoms: C2_2  and  C3_3 
REMARK    2  A    between atoms: C3_3  and  C7_7 
REMARK    3  A    between atoms: C8_8  and  C11_11 
ROOT
HETATM    1  C4  UNL     1     -35.111  14.235  -6.842  1.00 20.00     0.013 C 
HETATM    2  C5  UNL     1     -34.258  15.430  -7.242  1.00 20.00     0.005 C 
HETATM    3  C6  UNL     1     -35.630  16.163  -5.417  1.00 20.00     0.017 C 
HETATM    4  C7  UNL     1     -35.750  14.636  -5.511  1.00 20.00     0.060 C 
HETATM    5  C8  UNL     1     -35.099  16.615  -6.780  1.00 20.00    -0.014 C 
ENDROOT
BRANCH   4   6
HETATM    6  C3  UNL     1     -35.035  13.989  -4.365  1.00 20.00     0.158 C 
HETATM    7  O12 UNL     1     -35.107  12.771  -4.195  1.00 20.00    -0.292 OA
BRANCH   6   8
HETATM    8  C2  UNL     1     -34.229  14.831  -3.420  1.00 20.00    -0.025 C 
HETATM    9  C1  UNL     1     -34.810  15.512  -2.422  1.00 20.00     0.022 C 
HETATM   10  C9  UNL     1     -32.748  14.867  -3.651  1.00 20.00     0.051 C 
ENDBRANCH   6   8
ENDBRANCH   4   6
BRANCH   5  11
HETATM   11  C11 UNL     1     -34.316  17.916  -6.718  1.00 20.00     0.000 C 
HETATM   12  C10 UNL     1     -33.572  18.061  -5.427  1.00 20.00     0.005 C 
ENDBRANCH   5  11
TORSDOF 3
ENDMDL
MODEL 2
REMARK VINA RESULT:      -4.6      1.048      3.180
REMARK  3 active torsions:
REMARK  status: ('A' for Active; 'I' for Inactive)
REMARK    1  A    between atoms: C2_2  and  C3_3 
REMARK    2  A    between atoms: C3_3  and  C7_7 
REMARK    3  A    between atoms: C8_8  and  C11_11 
ROOT
HETATM    1  C4  UNL     1     -34.779  15.166  -2.748  1.00 20.00     0.013 C 
HETATM    2  C5  UNL     1     -35.008  16.635  -3.071  1.00 20.00     0.005 C 
HETATM    3  C6  UNL     1     -33.227  15.901  -4.500  1.00 20.00     0.017 C 
HETATM    4  C7  UNL     1     -33.858  14.658  -3.860  1.00 20.00     0.060 C 
HETATM    5  C8  UNL     1     -33.653  17.076  -3.616  1.00 20.00    -0.014 C 
ENDROOT
BRANCH   4   6
HETATM    6  C3  UNL     1     -34.638  13.888  -4.882  1.00 20.00     0.158 C 
HETATM    7  O12 UNL     1     -34.807  12.675  -4.750  1.00 20.00    -0.292 OA
BRANCH   6   8
HETATM    8  C2  UNL     1     -35.215  14.601  -6.069  1.00 20.00    -0.025 C 
HETATM    9  C1  UNL     1     -34.514  14.750  -7.202  1.00 20.00     0.022 C 
HETATM   10  C9  UNL     1     -36.609  15.134  -5.920  1.00 20.00     0.051 C 
ENDBRANCH   6   8
ENDBRANCH   4   6
BRANCH   5  11
HETATM   11  C11 UNL     1     -33.711  18.399  -4.362  1.00 20.00     0.000 C 
HETATM   12  C10 UNL     1     -33.667  18.208  -5.846  1.00 20.00     0.005 C 
ENDBRANCH   5  11
TORSDOF 3
ENDMDL
MODEL 3
REMARK VINA RESULT:      -4.6      2.063      4.400
REMARK  3 active torsions:
REMARK  status: ('A' for Active; 'I' for Inactive)
REMARK    1  A    between atoms: C2_2  and  C3_3 
REMARK    2  A    between atoms: C3_3  and  C7_7 
REMARK    3  A    between atoms: C8_8  and  C11_11 
ROOT
HETATM    1  C4  UNL     1     -35.922  15.898  -3.841  1.00 20.00     0.013 C 
HETATM    2  C5  UNL     1     -35.759  16.899  -2.706  1.00 20.00     0.005 C 
HETATM    3  C6  UNL     1     -33.731  15.621  -2.774  1.00 20.00     0.017 C 
HETATM    4  C7  UNL     1     -34.526  15.308  -4.048  1.00 20.00     0.060 C 
HETATM    5  C8  UNL     1     -34.747  16.214  -1.794  1.00 20.00    -0.014 C 
ENDROOT
BRANCH   4   6
HETATM    6  C3  UNL     1     -33.862  15.928  -5.239  1.00 20.00     0.158 C 
HETATM    7  O12 UNL     1     -32.818  16.568  -5.105  1.00 20.00    -0.292 OA
BRANCH   6   8
HETATM    8  C2  UNL     1     -34.473  15.766  -6.599  1.00 20.00    -0.025 C 
HETATM    9  C1  UNL     1     -34.840  14.562  -7.062  1.00 20.00     0.022 C 
HETATM   10  C9  UNL     1     -34.653  17.017  -7.406  1.00 20.00     0.051 C 
ENDBRANCH   6   8
ENDBRANCH   4   6
BRANCH   5  11
HETATM   11  C11 UNL     1     -34.123  17.157  -0.778  1.00 20.00     0.000 C 
HETATM   12  C10 UNL     1     -35.001  17.351   0.419  1.00 20.00     0.005 C 
ENDBRANCH   5  11
TORSDOF 3
ENDMDL
MODEL 4
REMARK VINA RESULT:      -4.4      1.703      2.804
REMARK  3 active torsions:
REMARK  status: ('A' for Active; 'I' for Inactive)
REMARK    1  A    between atoms: C2_2  and  C3_3 
REMARK    2  A    between atoms: C3_3  and  C7_7 
REMARK    3  A    between atoms: C8_8  and  C11_11 
ROOT
HETATM    1  C4  UNL     1     -34.796  13.544  -3.730  1.00 20.00     0.013 C 
HETATM    2  C5  UNL     1     -34.533  13.384  -5.220  1.00 20.00     0.005 C 
HETATM    3  C6  UNL     1     -35.464  15.575  -4.932  1.00 20.00     0.017 C 
HETATM    4  C7  UNL     1     -35.107  15.031  -3.543  1.00 20.00     0.060 C 
HETATM    5  C8  UNL     1     -35.535  14.349  -5.846  1.00 20.00    -0.014 C 
ENDROOT
BRANCH   4   6
HETATM    6  C3  UNL     1     -33.917  15.754  -2.992  1.00 20.00     0.158 C 
HETATM    7  O12 UNL     1     -32.781  15.454  -3.363  1.00 20.00    -0.292 OA
BRANCH   6   8
HETATM    8  C2  UNL     1     -34.112  16.849  -1.985  1.00 20.00    -0.025 C 
HETATM    9  C1  UNL     1     -34.649  16.602  -0.782  1.00 20.00     0.022 C 
HETATM   10  C9  UNL     1     -33.676  18.223  -2.395  1.00 20.00     0.051 C 
ENDBRANCH   6   8
ENDBRANCH   4   6
BRANCH   5  11
HETATM   11  C11 UNL     1     -35.231  14.666  -7.301  1.00 20.00     0.000 C 
HETATM   12  C10 UNL     1     -34.698  16.054  -7.473  1.00 20.00     0.005 C 
ENDBRANCH   5  11
TORSDOF 3
ENDMDL
MODEL 5
REMARK VINA RESULT:      -4.4     10.993     12.677
REMARK  3 active torsions:
REMARK  status: ('A' for Active; 'I' for Inactive)
REMARK    1  A    between atoms: C2_2  and  C3_3 
REMARK    2  A    between atoms: C3_3  and  C7_7 
REMARK    3  A    between atoms: C8_8  and  C11_11 
ROOT
HETATM    1  C4  UNL     1     -32.198   5.802   3.861  1.00 20.00     0.013 C 
HETATM    2  C5  UNL     1     -31.834   7.273   3.716  1.00 20.00     0.005 C 
HETATM    3  C6  UNL     1     -33.578   6.851   2.125  1.00 20.00     0.017 C 
HETATM    4  C7  UNL     1     -33.491   5.636   3.058  1.00 20.00     0.060 C 
HETATM    5  C8  UNL     1     -32.242   7.582   2.279  1.00 20.00    -0.014 C 
ENDROOT
BRANCH   4   6
HETATM    6  C3  UNL     1     -34.678   5.597   3.970  1.00 20.00     0.158 C 
HETATM    7  O12 UNL     1     -35.806   5.827   3.533  1.00 20.00    -0.292 OA
BRANCH   6   8
HETATM    8  C2  UNL     1     -34.489   5.275   5.423  1.00 20.00    -0.025 C 
HETATM    9  C1  UNL     1     -34.615   4.022   5.883  1.00 20.00     0.022 C 
HETATM   10  C9  UNL     1     -34.151   6.424   6.326  1.00 20.00     0.051 C 
ENDBRANCH   6   8
ENDBRANCH   4   6
BRANCH   5  11
HETATM   11  C11 UNL     1     -32.336   9.071   1.991  1.00 20.00     0.000 C 
HETATM   12  C10 UNL     1     -32.303   9.361   0.523  1.00 20.00     0.005 C 
ENDBRANCH   5  11
TORSDOF 3
ENDMDL
MODEL 6
REMARK VINA RESULT:      -4.3      1.631      2.418
REMARK  3 active torsions:
REMARK  status: ('A' for Active; 'I' for Inactive)
REMARK    1  A    between atoms: C2_2  and  C3_3 
REMARK    2  A    between atoms: C3_3  and  C7_7 
REMARK    3  A    between atoms: C8_8  and  C11_11 
ROOT
HETATM    1  C4  UNL     1     -35.114  13.844  -6.022  1.00 20.00     0.013 C 
HETATM    2  C5  UNL     1     -35.912  15.109  -6.304  1.00 20.00     0.005 C 
HETATM    3  C6  UNL     1     -36.422  14.481  -4.047  1.00 20.00     0.017 C 
HETATM    4  C7  UNL     1     -35.227  13.638  -4.510  1.00 20.00     0.060 C 
HETATM    5  C8  UNL     1     -37.080  14.997  -5.329  1.00 20.00    -0.014 C 
ENDROOT
BRANCH   4   6
HETATM    6  C3  UNL     1     -33.976  14.089  -3.820  1.00 20.00     0.158 C 
HETATM    7  O12 UNL     1     -33.078  13.283  -3.573  1.00 20.00    -0.292 OA
BRANCH   6   8
HETATM    8  C2  UNL     1     -33.820  15.528  -3.429  1.00 20.00    -0.025 C 
HETATM    9  C1  UNL     1     -33.252  16.418  -4.255  1.00 20.00     0.022 C 
HETATM   10  C9  UNL     1     -34.333  15.915  -2.074  1.00 20.00     0.051 C 
ENDBRANCH   6   8
ENDBRANCH   4   6
BRANCH   5  11
HETATM   11  C11 UNL     1     -37.826  16.306  -5.137  1.00 20.00     0.000 C 
HETATM   12  C10 UNL     1     -36.932  17.390  -4.619  1.00 20.00     0.005 C 
ENDBRANCH   5  11
TORSDOF 3
ENDMDL
MODEL 7
REMARK VINA RESULT:      -4.3     10.882     12.573
REMARK  3 active torsions:
REMARK  status: ('A' for Active; 'I' for Inactive)
REMARK    1  A    between atoms: C2_2  and  C3_3 
REMARK    2  A    between atoms: C3_3  and  C7_7 
REMARK    3  A    between atoms: C8_8  and  C11_11 
ROOT
HETATM    1  C4  UNL     1     -32.045   6.109   3.958  1.00 20.00     0.013 C 
HETATM    2  C5  UNL     1     -31.783   7.586   3.696  1.00 20.00     0.005 C 
HETATM    3  C6  UNL     1     -33.396   6.889   2.065  1.00 20.00     0.017 C 
HETATM    4  C7  UNL     1     -33.273   5.772   3.110  1.00 20.00     0.060 C 
HETATM    5  C8  UNL     1     -32.129   7.733   2.219  1.00 20.00    -0.014 C 
ENDROOT
BRANCH   4   6
HETATM    6  C3  UNL     1     -34.505   5.720   3.961  1.00 20.00     0.158 C 
HETATM    7  O12 UNL     1     -35.617   5.873   3.455  1.00 20.00    -0.292 OA
BRANCH   6   8
HETATM    8  C2  UNL     1     -34.380   5.481   5.437  1.00 20.00    -0.025 C 
HETATM    9  C1  UNL     1     -34.094   6.480   6.284  1.00 20.00     0.022 C 
HETATM   10  C9  UNL     1     -34.591   4.074   5.909  1.00 20.00     0.051 C 
ENDBRANCH   6   8
ENDBRANCH   4   6
BRANCH   5  11
HETATM   11  C11 UNL     1     -32.315   9.179   1.790  1.00 20.00     0.000 C 
HETATM   12  C10 UNL     1     -32.464   9.309   0.306  1.00 20.00     0.005 C 
ENDBRANCH   5  11
TORSDOF 3
ENDMDL
MODEL 8
REMARK VINA RESULT:      -4.3      2.292      3.863
REMARK  3 active torsions:
REMARK  status: ('A' for Active; 'I' for Inactive)
REMARK    1  A    between atoms: C2_2  and  C3_3 
REMARK    2  A    between atoms: C3_3  and  C7_7 
REMARK    3  A    between atoms: C8_8  and  C11_11 
ROOT
HETATM    1  C4  UNL     1     -33.384  16.842  -4.074  1.00 20.00     0.013 C 
HETATM    2  C5  UNL     1     -34.190  16.188  -5.187  1.00 20.00     0.005 C 
HETATM    3  C6  UNL     1     -34.277  14.685  -3.321  1.00 20.00     0.017 C 
HETATM    4  C7  UNL     1     -33.699  16.017  -2.825  1.00 20.00     0.060 C 
HETATM    5  C8  UNL     1     -34.102  14.705  -4.841  1.00 20.00    -0.014 C 
ENDROOT
BRANCH   4   6
HETATM    6  C3  UNL     1     -34.696  16.725  -1.960  1.00 20.00     0.158 C 
HETATM    7  O12 UNL     1     -35.888  16.738  -2.269  1.00 20.00    -0.292 OA
BRANCH   6   8
HETATM    8  C2  UNL     1     -34.237  17.421  -0.713  1.00 20.00    -0.025 C 
HETATM    9  C1  UNL     1     -33.099  18.129  -0.687  1.00 20.00     0.022 C 
HETATM   10  C9  UNL     1     -35.116  17.283   0.494  1.00 20.00     0.051 C 
ENDBRANCH   6   8
ENDBRANCH   4   6
BRANCH   5  11
HETATM   11  C11 UNL     1     -35.128  13.858  -5.575  1.00 20.00     0.000 C 
HETATM   12  C10 UNL     1     -35.365  14.348  -6.970  1.00 20.00     0.005 C 
ENDBRANCH   5  11
TORSDOF 3
ENDMDL
MODEL 9
REMARK VINA RESULT:      -4.2      1.837      3.531
REMARK  3 active torsions:
REMARK  status: ('A' for Active; 'I' for Inactive)
REMARK    1  A    between atoms: C2_2  and  C3_3 
REMARK    2  A    between atoms: C3_3  and  C7_7 
REMARK    3  A    between atoms: C8_8  and  C11_11 
ROOT
HETATM    1  C4  UNL     1     -34.427  13.389  -4.921  1.00 20.00     0.013 C 
HETATM    2  C5  UNL     1     -34.398  13.995  -3.524  1.00 20.00     0.005 C 
HETATM    3  C6  UNL     1     -33.921  15.786  -5.046  1.00 20.00     0.017 C 
HETATM    4  C7  UNL     1     -34.413  14.589  -5.870  1.00 20.00     0.060 C 
HETATM    5  C8  UNL     1     -33.484  15.203  -3.700  1.00 20.00    -0.014 C 
ENDROOT
BRANCH   4   6
HETATM    6  C3  UNL     1     -35.787  14.856  -6.403  1.00 20.00     0.158 C 
HETATM    7  O12 UNL     1     -36.121  14.421  -7.506  1.00 20.00    -0.292 OA
BRANCH   6   8
HETATM    8  C2  UNL     1     -36.758  15.659  -5.589  1.00 20.00    -0.025 C 
HETATM    9  C1  UNL     1     -37.562  15.077  -4.688  1.00 20.00     0.022 C 
HETATM   10  C9  UNL     1     -36.778  17.138  -5.836  1.00 20.00     0.051 C 
ENDBRANCH   6   8
ENDBRANCH   4   6
BRANCH   5  11
HETATM   11  C11 UNL     1     -33.582  16.198  -2.554  1.00 20.00     0.000 C 
HETATM   12  C10 UNL     1     -34.930  16.172  -1.904  1.00 20.00     0.005 C 
ENDBRANCH   5  11
TORSDOF 3
ENDMDL
