MODEL 1
REMARK VINA RESULT:      -4.9      0.000      0.000
REMARK  3 active torsions:
REMARK  status: ('A' for Active; 'I' for Inactive)
REMARK    1  A    between atoms: C2_2  and  C9_9 
REMARK    2  A    between atoms: C3_3  and  C5_5 
REMARK    3  A    between atoms: C3_3  and  C9_9 
ROOT
HETATM    1  C3  UNL     1     -33.778   5.784   3.400  1.00 20.00     0.135 C 
HETATM    2  O10 UNL     1     -34.425   5.272   2.489  1.00 20.00    -0.297 OA
ENDROOT
BRANCH   1   3
HETATM    3  C5  UNL     1     -34.465   6.322   4.630  1.00 20.00     0.060 A 
HETATM    4  C4  UNL     1     -33.744   6.236   5.930  1.00 20.00     0.017 A 
HETATM    5  C6  UNL     1     -34.950   5.378   5.675  1.00 20.00    -0.007 A 
HETATM    6  C8  UNL     1     -34.803   3.897   5.578  1.00 20.00     0.011 C 
ENDBRANCH   1   3
BRANCH   1   7
HETATM    7  C9  UNL     1     -32.265   5.957   3.354  1.00 20.00     0.111 C 
BRANCH   7   8
HETATM    8  C2  UNL     1     -31.871   7.396   3.158  1.00 20.00    -0.086 C 
HETATM    9  C1  UNL     1     -32.222   8.078   2.056  1.00 20.00     0.014 C 
HETATM   10  C7  UNL     1     -31.093   8.042   4.268  1.00 20.00     0.043 C 
ENDBRANCH   7   8
ENDBRANCH   1   7
TORSDOF 3
ENDMDL
MODEL 2
REMARK VINA RESULT:      -4.9      0.600      4.030
REMARK  3 active torsions:
REMARK  status: ('A' for Active; 'I' for Inactive)
REMARK    1  A    between atoms: C2_2  and  C9_9 
REMARK    2  A    between atoms: C3_3  and  C5_5 
REMARK    3  A    between atoms: C3_3  and  C9_9 
ROOT
HETATM    1  C3  UNL     1     -33.612   5.916   3.090  1.00 20.00     0.135 C 
HETATM    2  O10 UNL     1     -34.004   5.171   2.193  1.00 20.00    -0.297 OA
ENDROOT
BRANCH   1   3
HETATM    3  C5  UNL     1     -32.156   6.288   3.205  1.00 20.00     0.060 A 
HETATM    4  C4  UNL     1     -31.797   7.466   4.042  1.00 20.00     0.017 A 
HETATM    5  C6  UNL     1     -31.658   7.528   2.547  1.00 20.00    -0.007 A 
HETATM    6  C8  UNL     1     -32.526   8.445   1.755  1.00 20.00     0.011 C 
ENDBRANCH   1   3
BRANCH   1   7
HETATM    7  C9  UNL     1     -34.531   6.483   4.164  1.00 20.00     0.111 C 
BRANCH   7   8
HETATM    8  C2  UNL     1     -34.520   5.642   5.412  1.00 20.00    -0.086 C 
HETATM    9  C1  UNL     1     -34.140   6.147   6.596  1.00 20.00     0.014 C 
HETATM   10  C7  UNL     1     -34.983   4.221   5.275  1.00 20.00     0.043 C 
ENDBRANCH   7   8
ENDBRANCH   1   7
TORSDOF 3
ENDMDL
MODEL 3
REMARK VINA RESULT:      -4.7      0.882      1.847
REMARK  3 active torsions:
REMARK  status: ('A' for Active; 'I' for Inactive)
REMARK    1  A    between atoms: C2_2  and  C9_9 
REMARK    2  A    between atoms: C3_3  and  C5_5 
REMARK    3  A    between atoms: C3_3  and  C9_9 
ROOT
HETATM    1  C3  UNL     1     -33.936   5.891   3.750  1.00 20.00     0.135 C 
HETATM    2  O10 UNL     1     -34.893   6.620   3.497  1.00 20.00    -0.297 OA
ENDROOT
BRANCH   1   3
HETATM    3  C5  UNL     1     -34.003   4.890   4.876  1.00 20.00     0.060 A 
HETATM    4  C4  UNL     1     -35.262   4.808   5.666  1.00 20.00     0.017 A 
HETATM    5  C6  UNL     1     -34.013   5.368   6.286  1.00 20.00    -0.007 A 
HETATM    6  C8  UNL     1     -33.952   6.808   6.668  1.00 20.00     0.011 C 
ENDBRANCH   1   3
BRANCH   1   7
HETATM    7  C9  UNL     1     -32.614   5.959   2.997  1.00 20.00     0.111 C 
BRANCH   7   8
HETATM    8  C2  UNL     1     -31.997   7.329   3.069  1.00 20.00    -0.086 C 
HETATM    9  C1  UNL     1     -31.342   7.749   4.163  1.00 20.00     0.014 C 
HETATM   10  C7  UNL     1     -32.123   8.194   1.848  1.00 20.00     0.043 C 
ENDBRANCH   7   8
ENDBRANCH   1   7
TORSDOF 3
ENDMDL
MODEL 4
REMARK VINA RESULT:      -4.2     11.476     12.694
REMARK  3 active torsions:
REMARK  status: ('A' for Active; 'I' for Inactive)
REMARK    1  A    between atoms: C2_2  and  C9_9 
REMARK    2  A    between atoms: C3_3  and  C5_5 
REMARK    3  A    between atoms: C3_3  and  C9_9 
ROOT
HETATM    1  C3  UNL     1     -34.014  14.130  -4.201  1.00 20.00     0.135 C 
HETATM    2  O10 UNL     1     -34.356  13.229  -3.436  1.00 20.00    -0.297 OA
ENDROOT
BRANCH   1   3
HETATM    3  C5  UNL     1     -34.453  14.126  -5.644  1.00 20.00     0.060 A 
HETATM    4  C4  UNL     1     -34.446  15.420  -6.381  1.00 20.00     0.017 A 
HETATM    5  C6  UNL     1     -35.746  14.759  -6.022  1.00 20.00    -0.007 A 
HETATM    6  C8  UNL     1     -36.665  15.405  -5.041  1.00 20.00     0.011 C 
ENDBRANCH   1   3
BRANCH   1   7
HETATM    7  C9  UNL     1     -33.106  15.278  -3.784  1.00 20.00     0.111 C 
BRANCH   7   8
HETATM    8  C2  UNL     1     -33.857  16.339  -3.024  1.00 20.00    -0.086 C 
HETATM    9  C1  UNL     1     -34.481  16.067  -1.868  1.00 20.00     0.014 C 
HETATM   10  C7  UNL     1     -33.848  17.723  -3.607  1.00 20.00     0.043 C 
ENDBRANCH   7   8
ENDBRANCH   1   7
TORSDOF 3
ENDMDL
MODEL 5
REMARK VINA RESULT:      -4.2     11.529     12.415
REMARK  3 active torsions:
REMARK  status: ('A' for Active; 'I' for Inactive)
REMARK    1  A    between atoms: C2_2  and  C9_9 
REMARK    2  A    between atoms: C3_3  and  C5_5 
REMARK    3  A    between atoms: C3_3  and  C9_9 
ROOT
HETATM    1  C3  UNL     1     -35.631  15.046  -3.445  1.00 20.00     0.135 C 
HETATM    2  O10 UNL     1     -36.625  15.753  -3.289  1.00 20.00    -0.297 OA
ENDROOT
BRANCH   1   3
HETATM    3  C5  UNL     1     -35.642  13.902  -4.427  1.00 20.00     0.060 A 
HETATM    4  C4  UNL     1     -34.350  13.232  -4.738  1.00 20.00     0.017 A 
HETATM    5  C6  UNL     1     -35.031  14.081  -5.773  1.00 20.00    -0.007 A 
HETATM    6  C8  UNL     1     -34.399  15.352  -6.228  1.00 20.00     0.011 C 
ENDBRANCH   1   3
BRANCH   1   7
HETATM    7  C9  UNL     1     -34.344  15.229  -2.651  1.00 20.00     0.111 C 
BRANCH   7   8
HETATM    8  C2  UNL     1     -34.230  16.617  -2.081  1.00 20.00    -0.086 C 
HETATM    9  C1  UNL     1     -33.836  17.656  -2.835  1.00 20.00     0.014 C 
HETATM   10  C7  UNL     1     -34.606  16.790  -0.638  1.00 20.00     0.043 C 
ENDBRANCH   7   8
ENDBRANCH   1   7
TORSDOF 3
ENDMDL
MODEL 6
REMARK VINA RESULT:      -4.1     11.445     12.552
REMARK  3 active torsions:
REMARK  status: ('A' for Active; 'I' for Inactive)
REMARK    1  A    between atoms: C2_2  and  C9_9 
REMARK    2  A    between atoms: C3_3  and  C5_5 
REMARK    3  A    between atoms: C3_3  and  C9_9 
ROOT
HETATM    1  C3  UNL     1     -33.484  15.245  -3.560  1.00 20.00     0.135 C 
HETATM    2  O10 UNL     1     -32.352  14.763  -3.552  1.00 20.00    -0.297 OA
ENDROOT
BRANCH   1   3
HETATM    3  C5  UNL     1     -34.679  14.405  -3.934  1.00 20.00     0.060 A 
HETATM    4  C4  UNL     1     -34.443  13.157  -4.709  1.00 20.00     0.017 A 
HETATM    5  C6  UNL     1     -35.113  14.335  -5.357  1.00 20.00    -0.007 A 
HETATM    6  C8  UNL     1     -34.430  15.065  -6.463  1.00 20.00     0.011 C 
ENDBRANCH   1   3
BRANCH   1   7
HETATM    7  C9  UNL     1     -33.770  16.706  -3.241  1.00 20.00     0.111 C 
BRANCH   7   8
HETATM    8  C2  UNL     1     -34.828  16.852  -2.181  1.00 20.00    -0.086 C 
HETATM    9  C1  UNL     1     -34.584  16.549  -0.897  1.00 20.00     0.014 C 
HETATM   10  C7  UNL     1     -36.161  17.384  -2.624  1.00 20.00     0.043 C 
ENDBRANCH   7   8
ENDBRANCH   1   7
TORSDOF 3
ENDMDL
MODEL 7
REMARK VINA RESULT:      -4.1     11.822     13.011
REMARK  3 active torsions:
REMARK  status: ('A' for Active; 'I' for Inactive)
REMARK    1  A    between atoms: C2_2  and  C9_9 
REMARK    2  A    between atoms: C3_3  and  C5_5 
REMARK    3  A    between atoms: C3_3  and  C9_9 
ROOT
HETATM    1  C3  UNL     1     -33.731  16.089  -4.263  1.00 20.00     0.135 C 
HETATM    2  O10 UNL     1     -32.797  16.440  -4.984  1.00 20.00    -0.297 OA
ENDROOT
BRANCH   1   3
HETATM    3  C5  UNL     1     -33.558  15.989  -2.769  1.00 20.00     0.060 A 
HETATM    4  C4  UNL     1     -34.777  16.056  -1.917  1.00 20.00     0.017 A 
HETATM    5  C6  UNL     1     -33.790  17.189  -1.918  1.00 20.00    -0.007 A 
HETATM    6  C8  UNL     1     -34.184  18.520  -2.462  1.00 20.00     0.011 C 
ENDBRANCH   1   3
BRANCH   1   7
HETATM    7  C9  UNL     1     -35.098  15.693  -4.804  1.00 20.00     0.111 C 
BRANCH   7   8
HETATM    8  C2  UNL     1     -35.035  14.429  -5.618  1.00 20.00    -0.086 C 
HETATM    9  C1  UNL     1     -35.184  14.442  -6.951  1.00 20.00     0.014 C 
HETATM   10  C7  UNL     1     -34.765  13.155  -4.869  1.00 20.00     0.043 C 
ENDBRANCH   7   8
ENDBRANCH   1   7
TORSDOF 3
ENDMDL
MODEL 8
REMARK VINA RESULT:      -4.0     11.563     12.637
REMARK  3 active torsions:
REMARK  status: ('A' for Active; 'I' for Inactive)
REMARK    1  A    between atoms: C2_2  and  C9_9 
REMARK    2  A    between atoms: C3_3  and  C5_5 
REMARK    3  A    between atoms: C3_3  and  C9_9 
ROOT
HETATM    1  C3  UNL     1     -33.470  15.742  -3.518  1.00 20.00     0.135 C 
HETATM    2  O10 UNL     1     -32.818  16.134  -4.484  1.00 20.00    -0.297 OA
ENDROOT
BRANCH   1   3
HETATM    3  C5  UNL     1     -33.594  16.586  -2.275  1.00 20.00     0.060 A 
HETATM    4  C4  UNL     1     -34.761  16.351  -1.382  1.00 20.00     0.017 A 
HETATM    5  C6  UNL     1     -34.667  17.615  -2.187  1.00 20.00    -0.007 A 
HETATM    6  C8  UNL     1     -35.647  17.878  -3.279  1.00 20.00     0.011 C 
ENDBRANCH   1   3
BRANCH   1   7
HETATM    7  C9  UNL     1     -34.161  14.385  -3.473  1.00 20.00     0.111 C 
BRANCH   7   8
HETATM    8  C2  UNL     1     -35.260  14.281  -4.495  1.00 20.00    -0.086 C 
HETATM    9  C1  UNL     1     -34.999  14.022  -5.786  1.00 20.00     0.014 C 
HETATM   10  C7  UNL     1     -36.666  14.451  -3.996  1.00 20.00     0.043 C 
ENDBRANCH   7   8
ENDBRANCH   1   7
TORSDOF 3
ENDMDL
MODEL 9
REMARK VINA RESULT:      -4.0     11.104     12.719
REMARK  3 active torsions:
REMARK  status: ('A' for Active; 'I' for Inactive)
REMARK    1  A    between atoms: C2_2  and  C9_9 
REMARK    2  A    between atoms: C3_3  and  C5_5 
REMARK    3  A    between atoms: C3_3  and  C9_9 
ROOT
HETATM    1  C3  UNL     1     -35.132  13.733  -4.270  1.00 20.00     0.135 C 
HETATM    2  O10 UNL     1     -34.833  12.843  -5.065  1.00 20.00    -0.297 OA
ENDROOT
BRANCH   1   3
HETATM    3  C5  UNL     1     -34.129  14.242  -3.266  1.00 20.00     0.060 A 
HETATM    4  C4  UNL     1     -34.375  15.571  -2.643  1.00 20.00     0.017 A 
HETATM    5  C6  UNL     1     -33.250  15.390  -3.621  1.00 20.00    -0.007 A 
HETATM    6  C8  UNL     1     -33.291  16.081  -4.941  1.00 20.00     0.011 C 
ENDBRANCH   1   3
BRANCH   1   7
HETATM    7  C9  UNL     1     -36.520  14.356  -4.201  1.00 20.00     0.111 C 
BRANCH   7   8
HETATM    8  C2  UNL     1     -36.730  15.379  -5.285  1.00 20.00    -0.086 C 
HETATM    9  C1  UNL     1     -36.633  15.056  -6.584  1.00 20.00     0.014 C 
HETATM   10  C7  UNL     1     -37.084  16.770  -4.844  1.00 20.00     0.043 C 
ENDBRANCH   7   8
ENDBRANCH   1   7
TORSDOF 3
ENDMDL
