MODEL 1
REMARK VINA RESULT:      -3.9      0.000      0.000
REMARK  2 active torsions:
REMARK  status: ('A' for Active; 'I' for Inactive)
REMARK    1  A    between atoms: C7_7  and  C8_8 
REMARK    2  A    between atoms: C7_7  and  N9_9 
ROOT
HETATM    1  C1  UNL     1     -34.738  15.145  -3.055  1.00 20.00     0.277 C 
HETATM    2  C2  UNL     1     -33.595  16.759  -4.303  1.00 20.00     0.277 C 
HETATM    3  C3  UNL     1     -34.841  14.721  -4.528  1.00 20.00     0.015 C 
HETATM    4  C4  UNL     1     -33.791  15.582  -5.251  1.00 20.00     0.015 C 
HETATM    5  C5  UNL     1     -34.601  13.230  -4.732  1.00 20.00     0.012 C 
HETATM    6  C6  UNL     1     -34.216  16.012  -6.647  1.00 20.00     0.012 C 
HETATM    7  N9  UNL     1     -33.609  16.080  -3.008  1.00 20.00     0.090 N 
ENDROOT
BRANCH   7   8
HETATM    8  C7  UNL     1     -33.695  17.008  -1.890  1.00 20.00     0.287 C 
BRANCH   8   9
HETATM    9  C8  UNL     1     -34.717  16.576  -0.851  1.00 20.00     0.144 C 
HETATM   10 CL10 UNL     1     -34.651  17.615   0.594  1.00 20.00    -0.129 Cl
ENDBRANCH   8   9
ENDBRANCH   7   8
TORSDOF 2
ENDMDL
MODEL 2
REMARK VINA RESULT:      -3.9     11.107     12.197
REMARK  2 active torsions:
REMARK  status: ('A' for Active; 'I' for Inactive)
REMARK    1  A    between atoms: C7_7  and  C8_8 
REMARK    2  A    between atoms: C7_7  and  N9_9 
ROOT
HETATM    1  C1  UNL     1     -33.004   6.915   5.228  1.00 20.00     0.277 C 
HETATM    2  C2  UNL     1     -33.709   6.384   3.062  1.00 20.00     0.277 C 
HETATM    3  C3  UNL     1     -34.320   6.135   5.369  1.00 20.00     0.015 C 
HETATM    4  C4  UNL     1     -34.544   5.503   3.984  1.00 20.00     0.015 C 
HETATM    5  C5  UNL     1     -34.272   5.090   6.477  1.00 20.00     0.012 C 
HETATM    6  C6  UNL     1     -36.008   5.441   3.576  1.00 20.00     0.012 C 
HETATM    7  N9  UNL     1     -32.517   6.596   3.882  1.00 20.00     0.090 N 
ENDROOT
BRANCH   7   8
HETATM    8  C7  UNL     1     -31.642   7.626   3.343  1.00 20.00     0.287 C 
BRANCH   8   9
HETATM    9  C8  UNL     1     -31.996   8.002   1.914  1.00 20.00     0.144 C 
HETATM   10 CL10 UNL     1     -32.541   9.695   1.805  1.00 20.00    -0.129 Cl
ENDBRANCH   8   9
ENDBRANCH   7   8
TORSDOF 2
ENDMDL
MODEL 3
REMARK VINA RESULT:      -3.9      2.504      4.927
REMARK  2 active torsions:
REMARK  status: ('A' for Active; 'I' for Inactive)
REMARK    1  A    between atoms: C7_7  and  C8_8 
REMARK    2  A    between atoms: C7_7  and  N9_9 
ROOT
HETATM    1  C1  UNL     1     -33.713  17.979  -2.664  1.00 20.00     0.277 C 
HETATM    2  C2  UNL     1     -34.723  16.267  -1.432  1.00 20.00     0.277 C 
HETATM    3  C3  UNL     1     -33.898  18.511  -1.234  1.00 20.00     0.015 C 
HETATM    4  C4  UNL     1     -34.212  17.260  -0.396  1.00 20.00     0.015 C 
HETATM    5  C5  UNL     1     -32.674  19.257  -0.719  1.00 20.00     0.012 C 
HETATM    6  C6  UNL     1     -35.211  17.515   0.722  1.00 20.00     0.012 C 
HETATM    7  N9  UNL     1     -33.803  16.521  -2.540  1.00 20.00     0.090 N 
ENDROOT
BRANCH   7   8
HETATM    8  C7  UNL     1     -34.224  15.878  -3.776  1.00 20.00     0.287 C 
BRANCH   8   9
HETATM    9  C8  UNL     1     -35.393  14.929  -3.571  1.00 20.00     0.144 C 
HETATM   10 CL10 UNL     1     -35.003  13.286  -4.137  1.00 20.00    -0.129 Cl
ENDBRANCH   8   9
ENDBRANCH   7   8
TORSDOF 2
ENDMDL
MODEL 4
REMARK VINA RESULT:      -3.9     10.913     12.099
REMARK  2 active torsions:
REMARK  status: ('A' for Active; 'I' for Inactive)
REMARK    1  A    between atoms: C7_7  and  C8_8 
REMARK    2  A    between atoms: C7_7  and  N9_9 
ROOT
HETATM    1  C1  UNL     1     -33.620   5.979   2.882  1.00 20.00     0.277 C 
HETATM    2  C2  UNL     1     -32.876   6.867   4.914  1.00 20.00     0.277 C 
HETATM    3  C3  UNL     1     -34.520   5.390   3.980  1.00 20.00     0.015 C 
HETATM    4  C4  UNL     1     -34.243   6.264   5.215  1.00 20.00     0.015 C 
HETATM    5  C5  UNL     1     -35.995   5.388   3.596  1.00 20.00     0.012 C 
HETATM    6  C6  UNL     1     -34.272   5.490   6.524  1.00 20.00     0.012 C 
HETATM    7  N9  UNL     1     -33.011   7.167   3.489  1.00 20.00     0.090 N 
ENDROOT
BRANCH   7   8
HETATM    8  C7  UNL     1     -31.744   7.526   2.870  1.00 20.00     0.287 C 
BRANCH   8   9
HETATM    9  C8  UNL     1     -31.925   8.237   1.539  1.00 20.00     0.144 C 
HETATM   10 CL10 UNL     1     -32.574   9.880   1.765  1.00 20.00    -0.129 Cl
ENDBRANCH   8   9
ENDBRANCH   7   8
TORSDOF 2
ENDMDL
MODEL 5
REMARK VINA RESULT:      -3.8      2.903      4.430
REMARK  2 active torsions:
REMARK  status: ('A' for Active; 'I' for Inactive)
REMARK    1  A    between atoms: C7_7  and  C8_8 
REMARK    2  A    between atoms: C7_7  and  N9_9 
ROOT
HETATM    1  C1  UNL     1     -33.430  15.692  -3.191  1.00 20.00     0.277 C 
HETATM    2  C2  UNL     1     -35.697  15.195  -3.483  1.00 20.00     0.277 C 
HETATM    3  C3  UNL     1     -34.223  16.841  -2.549  1.00 20.00     0.015 C 
HETATM    4  C4  UNL     1     -35.659  16.303  -2.438  1.00 20.00     0.015 C 
HETATM    5  C5  UNL     1     -33.660  17.263  -1.197  1.00 20.00     0.012 C 
HETATM    6  C6  UNL     1     -36.723  17.367  -2.666  1.00 20.00     0.012 C 
HETATM    7  N9  UNL     1     -34.384  14.581  -3.287  1.00 20.00     0.090 N 
ENDROOT
BRANCH   7   8
HETATM    8  C7  UNL     1     -34.043  13.639  -4.341  1.00 20.00     0.287 C 
BRANCH   8   9
HETATM    9  C8  UNL     1     -34.965  13.751  -5.544  1.00 20.00     0.144 C 
HETATM   10 CL10 UNL     1     -34.304  14.865  -6.766  1.00 20.00    -0.129 Cl
ENDBRANCH   8   9
ENDBRANCH   7   8
TORSDOF 2
ENDMDL
MODEL 6
REMARK VINA RESULT:      -3.8      1.562      2.071
REMARK  2 active torsions:
REMARK  status: ('A' for Active; 'I' for Inactive)
REMARK    1  A    between atoms: C7_7  and  C8_8 
REMARK    2  A    between atoms: C7_7  and  N9_9 
ROOT
HETATM    1  C1  UNL     1     -35.723  16.558  -3.615  1.00 20.00     0.277 C 
HETATM    2  C2  UNL     1     -33.854  15.173  -3.372  1.00 20.00     0.277 C 
HETATM    3  C3  UNL     1     -36.095  15.199  -4.228  1.00 20.00     0.015 C 
HETATM    4  C4  UNL     1     -35.004  14.238  -3.725  1.00 20.00     0.015 C 
HETATM    5  C5  UNL     1     -37.493  14.737  -3.837  1.00 20.00     0.012 C 
HETATM    6  C6  UNL     1     -34.613  13.179  -4.745  1.00 20.00     0.012 C 
HETATM    7  N9  UNL     1     -34.576  16.279  -2.744  1.00 20.00     0.090 N 
ENDROOT
BRANCH   7   8
HETATM    8  C7  UNL     1     -33.736  17.448  -2.533  1.00 20.00     0.287 C 
BRANCH   8   9
HETATM    9  C8  UNL     1     -33.665  17.859  -1.071  1.00 20.00     0.144 C 
HETATM   10 CL10 UNL     1     -34.797  16.911  -0.076  1.00 20.00    -0.129 Cl
ENDBRANCH   8   9
ENDBRANCH   7   8
TORSDOF 2
ENDMDL
MODEL 7
REMARK VINA RESULT:      -3.7      3.103      4.181
REMARK  2 active torsions:
REMARK  status: ('A' for Active; 'I' for Inactive)
REMARK    1  A    between atoms: C7_7  and  C8_8 
REMARK    2  A    between atoms: C7_7  and  N9_9 
ROOT
HETATM    1  C1  UNL     1     -34.730  17.521  -3.641  1.00 20.00     0.277 C 
HETATM    2  C2  UNL     1     -33.188  16.208  -4.810  1.00 20.00     0.277 C 
HETATM    3  C3  UNL     1     -34.662  16.168  -2.917  1.00 20.00     0.015 C 
HETATM    4  C4  UNL     1     -33.400  15.493  -3.481  1.00 20.00     0.015 C 
HETATM    5  C5  UNL     1     -34.609  16.311  -1.401  1.00 20.00     0.012 C 
HETATM    6  C6  UNL     1     -33.536  13.986  -3.636  1.00 20.00     0.012 C 
HETATM    7  N9  UNL     1     -33.501  17.588  -4.438  1.00 20.00     0.090 N 
ENDROOT
BRANCH   7   8
HETATM    8  C7  UNL     1     -33.627  18.464  -5.592  1.00 20.00     0.287 C 
BRANCH   8   9
HETATM    9  C8  UNL     1     -34.906  18.216  -6.376  1.00 20.00     0.144 C 
HETATM   10 CL10 UNL     1     -34.572  17.387  -7.916  1.00 20.00    -0.129 Cl
ENDBRANCH   8   9
ENDBRANCH   7   8
TORSDOF 2
ENDMDL
MODEL 8
REMARK VINA RESULT:      -3.7      0.817      2.151
REMARK  2 active torsions:
REMARK  status: ('A' for Active; 'I' for Inactive)
REMARK    1  A    between atoms: C7_7  and  C8_8 
REMARK    2  A    between atoms: C7_7  and  N9_9 
ROOT
HETATM    1  C1  UNL     1     -33.773  16.811  -4.855  1.00 20.00     0.277 C 
HETATM    2  C2  UNL     1     -34.996  15.454  -3.394  1.00 20.00     0.277 C 
HETATM    3  C3  UNL     1     -33.959  15.457  -5.558  1.00 20.00     0.015 C 
HETATM    4  C4  UNL     1     -35.053  14.747  -4.743  1.00 20.00     0.015 C 
HETATM    5  C5  UNL     1     -34.337  15.600  -7.027  1.00 20.00     0.012 C 
HETATM    6  C6  UNL     1     -34.847  13.244  -4.631  1.00 20.00     0.012 C 
HETATM    7  N9  UNL     1     -34.806  16.842  -3.814  1.00 20.00     0.090 N 
ENDROOT
BRANCH   7   8
HETATM    8  C7  UNL     1     -34.459  17.720  -2.707  1.00 20.00     0.287 C 
BRANCH   8   9
HETATM    9  C8  UNL     1     -33.788  16.979  -1.563  1.00 20.00     0.144 C 
HETATM   10 CL10 UNL     1     -34.804  16.990  -0.099  1.00 20.00    -0.129 Cl
ENDBRANCH   8   9
ENDBRANCH   7   8
TORSDOF 2
ENDMDL
MODEL 9
REMARK VINA RESULT:      -3.7      1.420      1.930
REMARK  2 active torsions:
REMARK  status: ('A' for Active; 'I' for Inactive)
REMARK    1  A    between atoms: C7_7  and  C8_8 
REMARK    2  A    between atoms: C7_7  and  N9_9 
ROOT
HETATM    1  C1  UNL     1     -35.015  15.040  -4.955  1.00 20.00     0.277 C 
HETATM    2  C2  UNL     1     -33.623  16.881  -5.333  1.00 20.00     0.277 C 
HETATM    3  C3  UNL     1     -35.306  15.530  -6.381  1.00 20.00     0.015 C 
HETATM    4  C4  UNL     1     -34.139  16.477  -6.709  1.00 20.00     0.015 C 
HETATM    5  C5  UNL     1     -35.421  14.390  -7.386  1.00 20.00     0.012 C 
HETATM    6  C6  UNL     1     -34.548  17.670  -7.560  1.00 20.00     0.012 C 
HETATM    7  N9  UNL     1     -33.704  15.607  -4.619  1.00 20.00     0.090 N 
ENDROOT
BRANCH   7   8
HETATM    8  C7  UNL     1     -33.507  15.755  -3.185  1.00 20.00     0.287 C 
BRANCH   8   9
HETATM    9  C8  UNL     1     -34.818  15.793  -2.417  1.00 20.00     0.144 C 
HETATM   10 CL10 UNL     1     -34.602  16.510  -0.801  1.00 20.00    -0.129 Cl
ENDBRANCH   8   9
ENDBRANCH   7   8
TORSDOF 2
ENDMDL
