MODEL 1
REMARK VINA RESULT:      -4.1      0.000      0.000
REMARK  4 active torsions:
REMARK  status: ('A' for Active; 'I' for Inactive)
REMARK    1  A    between atoms: C2_2  and  C9_9 
REMARK    2  A    between atoms: C5_5  and  C9_9 
REMARK    3  A    between atoms: C8_8  and  C9_9 
REMARK    4  A    between atoms: C9_9  and  O10_10 
ROOT
HETATM    1  C9  UNL     1     -34.927  15.617  -3.268  1.00 20.00     0.083 C 
ENDROOT
BRANCH   1   2
HETATM    2  C2  UNL     1     -34.957  16.421  -4.576  1.00 20.00    -0.059 C 
HETATM    3  C1  UNL     1     -36.049  16.552  -5.350  1.00 20.00     0.017 C 
HETATM    4  C6  UNL     1     -33.677  17.103  -4.993  1.00 20.00     0.046 C 
ENDBRANCH   1   2
BRANCH   1   5
HETATM    5  C5  UNL     1     -34.618  14.133  -3.396  1.00 20.00     0.024 A 
HETATM    6  C3  UNL     1     -34.341  13.529  -4.745  1.00 20.00     0.008 A 
HETATM    7  C4  UNL     1     -33.228  13.676  -3.744  1.00 20.00     0.008 A 
ENDBRANCH   1   5
BRANCH   1   8
HETATM    8  C8  UNL     1     -33.976  16.256  -2.220  1.00 20.00     0.038 C 
HETATM    9  C7  UNL     1     -34.623  16.626  -0.892  1.00 20.00     0.008 C 
ENDBRANCH   1   8
BRANCH   1  10
HETATM   10  O10 UNL     1     -36.243  15.696  -2.684  1.00 20.00    -0.385 OA
HETATM   11  H26 UNL     1     -36.132  15.451  -1.757  1.00 20.00     0.211 HD
ENDBRANCH   1  10
TORSDOF 4
ENDMDL
MODEL 2
REMARK VINA RESULT:      -4.1      0.619      3.301
REMARK  4 active torsions:
REMARK  status: ('A' for Active; 'I' for Inactive)
REMARK    1  A    between atoms: C2_2  and  C9_9 
REMARK    2  A    between atoms: C5_5  and  C9_9 
REMARK    3  A    between atoms: C8_8  and  C9_9 
REMARK    4  A    between atoms: C9_9  and  O10_10 
ROOT
HETATM    1  C9  UNL     1     -34.841  15.642  -3.290  1.00 20.00     0.083 C 
ENDROOT
BRANCH   1   2
HETATM    2  C2  UNL     1     -34.435  14.232  -3.744  1.00 20.00    -0.059 C 
HETATM    3  C1  UNL     1     -35.275  13.365  -4.338  1.00 20.00     0.017 C 
HETATM    4  C6  UNL     1     -33.002  13.820  -3.509  1.00 20.00     0.046 C 
ENDBRANCH   1   2
BRANCH   1   5
HETATM    5  C5  UNL     1     -33.985  16.270  -2.200  1.00 20.00     0.024 A 
HETATM    6  C3  UNL     1     -34.198  17.704  -1.801  1.00 20.00     0.008 A 
HETATM    7  C4  UNL     1     -34.584  16.596  -0.860  1.00 20.00     0.008 A 
ENDBRANCH   1   5
BRANCH   1   8
HETATM    8  C8  UNL     1     -34.956  16.622  -4.488  1.00 20.00     0.038 C 
HETATM    9  C7  UNL     1     -33.693  16.778  -5.326  1.00 20.00     0.008 C 
ENDBRANCH   1   8
BRANCH   1  10
HETATM   10  O10 UNL     1     -36.171  15.552  -2.743  1.00 20.00    -0.385 OA
HETATM   11  H26 UNL     1     -36.057  15.508  -1.786  1.00 20.00     0.211 HD
ENDBRANCH   1  10
TORSDOF 4
ENDMDL
MODEL 3
REMARK VINA RESULT:      -4.0      1.911      3.083
REMARK  4 active torsions:
REMARK  status: ('A' for Active; 'I' for Inactive)
REMARK    1  A    between atoms: C2_2  and  C9_9 
REMARK    2  A    between atoms: C5_5  and  C9_9 
REMARK    3  A    between atoms: C8_8  and  C9_9 
REMARK    4  A    between atoms: C9_9  and  O10_10 
ROOT
HETATM    1  C9  UNL     1     -34.916  13.994  -4.229  1.00 20.00     0.083 C 
ENDROOT
BRANCH   1   2
HETATM    2  C2  UNL     1     -35.992  14.917  -3.637  1.00 20.00    -0.059 C 
HETATM    3  C1  UNL     1     -35.721  15.986  -2.868  1.00 20.00     0.017 C 
HETATM    4  C6  UNL     1     -37.430  14.591  -3.959  1.00 20.00     0.046 C 
ENDBRANCH   1   2
BRANCH   1   5
HETATM    5  C5  UNL     1     -34.451  14.321  -5.640  1.00 20.00     0.024 A 
HETATM    6  C3  UNL     1     -35.426  14.304  -6.784  1.00 20.00     0.008 A 
HETATM    7  C4  UNL     1     -34.865  15.611  -6.295  1.00 20.00     0.008 A 
ENDBRANCH   1   5
BRANCH   1   8
HETATM    8  C8  UNL     1     -33.684  13.870  -3.293  1.00 20.00     0.038 C 
HETATM    9  C7  UNL     1     -32.482  14.723  -3.681  1.00 20.00     0.008 C 
ENDBRANCH   1   8
BRANCH   1  10
HETATM   10  O10 UNL     1     -35.476  12.668  -4.297  1.00 20.00    -0.385 OA
HETATM   11  H26 UNL     1     -35.949  12.542  -3.465  1.00 20.00     0.211 HD
ENDBRANCH   1  10
TORSDOF 4
ENDMDL
MODEL 4
REMARK VINA RESULT:      -4.0      1.717      3.268
REMARK  4 active torsions:
REMARK  status: ('A' for Active; 'I' for Inactive)
REMARK    1  A    between atoms: C2_2  and  C9_9 
REMARK    2  A    between atoms: C5_5  and  C9_9 
REMARK    3  A    between atoms: C8_8  and  C9_9 
REMARK    4  A    between atoms: C9_9  and  O10_10 
ROOT
HETATM    1  C9  UNL     1     -33.771  15.996  -4.337  1.00 20.00     0.083 C 
ENDROOT
BRANCH   1   2
HETATM    2  C2  UNL     1     -34.303  17.350  -4.831  1.00 20.00    -0.059 C 
HETATM    3  C1  UNL     1     -33.521  18.413  -5.086  1.00 20.00     0.017 C 
HETATM    4  C6  UNL     1     -35.792  17.466  -5.045  1.00 20.00     0.046 C 
ENDBRANCH   1   2
BRANCH   1   5
HETATM    5  C5  UNL     1     -33.662  15.825  -2.829  1.00 20.00     0.024 A 
HETATM    6  C3  UNL     1     -33.737  17.022  -1.923  1.00 20.00     0.008 A 
HETATM    7  C4  UNL     1     -34.868  16.033  -1.954  1.00 20.00     0.008 A 
ENDBRANCH   1   5
BRANCH   1   8
HETATM    8  C8  UNL     1     -34.572  14.809  -4.936  1.00 20.00     0.038 C 
HETATM    9  C7  UNL     1     -34.149  13.427  -4.453  1.00 20.00     0.008 C 
ENDBRANCH   1   8
BRANCH   1  10
HETATM   10  O10 UNL     1     -32.432  15.847  -4.848  1.00 20.00    -0.385 OA
HETATM   11  H26 UNL     1     -32.194  16.709  -5.210  1.00 20.00     0.211 HD
ENDBRANCH   1  10
TORSDOF 4
ENDMDL
MODEL 5
REMARK VINA RESULT:      -4.0      1.736      3.333
REMARK  4 active torsions:
REMARK  status: ('A' for Active; 'I' for Inactive)
REMARK    1  A    between atoms: C2_2  and  C9_9 
REMARK    2  A    between atoms: C5_5  and  C9_9 
REMARK    3  A    between atoms: C8_8  and  C9_9 
REMARK    4  A    between atoms: C9_9  and  O10_10 
ROOT
HETATM    1  C9  UNL     1     -33.742  15.684  -4.206  1.00 20.00     0.083 C 
ENDROOT
BRANCH   1   2
HETATM    2  C2  UNL     1     -33.979  14.180  -4.006  1.00 20.00    -0.059 C 
HETATM    3  C1  UNL     1     -33.047  13.330  -3.539  1.00 20.00     0.017 C 
HETATM    4  C6  UNL     1     -35.349  13.648  -4.349  1.00 20.00     0.046 C 
ENDBRANCH   1   2
BRANCH   1   5
HETATM    5  C5  UNL     1     -34.717  16.402  -5.128  1.00 20.00     0.024 A 
HETATM    6  C3  UNL     1     -34.320  17.687  -5.800  1.00 20.00     0.008 A 
HETATM    7  C4  UNL     1     -34.476  16.431  -6.612  1.00 20.00     0.008 A 
ENDBRANCH   1   5
BRANCH   1   8
HETATM    8  C8  UNL     1     -33.656  16.440  -2.853  1.00 20.00     0.038 C 
HETATM    9  C7  UNL     1     -34.818  16.199  -1.898  1.00 20.00     0.008 C 
ENDBRANCH   1   8
BRANCH   1  10
HETATM   10  O10 UNL     1     -32.443  15.838  -4.811  1.00 20.00    -0.385 OA
HETATM   11  H26 UNL     1     -32.345  16.783  -4.982  1.00 20.00     0.211 HD
ENDBRANCH   1  10
TORSDOF 4
ENDMDL
MODEL 6
REMARK VINA RESULT:      -3.9      1.751      3.025
REMARK  4 active torsions:
REMARK  status: ('A' for Active; 'I' for Inactive)
REMARK    1  A    between atoms: C2_2  and  C9_9 
REMARK    2  A    between atoms: C5_5  and  C9_9 
REMARK    3  A    between atoms: C8_8  and  C9_9 
REMARK    4  A    between atoms: C9_9  and  O10_10 
ROOT
HETATM    1  C9  UNL     1     -33.925  15.910  -3.995  1.00 20.00     0.083 C 
ENDROOT
BRANCH   1   2
HETATM    2  C2  UNL     1     -33.932  17.068  -2.985  1.00 20.00    -0.059 C 
HETATM    3  C1  UNL     1     -33.773  18.359  -3.326  1.00 20.00     0.017 C 
HETATM    4  C6  UNL     1     -34.142  16.712  -1.534  1.00 20.00     0.046 C 
ENDBRANCH   1   2
BRANCH   1   5
HETATM    5  C5  UNL     1     -34.213  14.526  -3.433  1.00 20.00     0.024 A 
HETATM    6  C3  UNL     1     -35.212  13.626  -4.107  1.00 20.00     0.008 A 
HETATM    7  C4  UNL     1     -33.746  13.298  -4.166  1.00 20.00     0.008 A 
ENDBRANCH   1   5
BRANCH   1   8
HETATM    8  C8  UNL     1     -34.867  16.187  -5.197  1.00 20.00     0.038 C 
HETATM    9  C7  UNL     1     -34.190  16.220  -6.561  1.00 20.00     0.008 C 
ENDBRANCH   1   8
BRANCH   1  10
HETATM   10  O10 UNL     1     -32.601  15.838  -4.558  1.00 20.00    -0.385 OA
HETATM   11  H26 UNL     1     -32.659  15.202  -5.281  1.00 20.00     0.211 HD
ENDBRANCH   1  10
TORSDOF 4
ENDMDL
MODEL 7
REMARK VINA RESULT:      -3.9     11.142     12.620
REMARK  4 active torsions:
REMARK  status: ('A' for Active; 'I' for Inactive)
REMARK    1  A    between atoms: C2_2  and  C9_9 
REMARK    2  A    between atoms: C5_5  and  C9_9 
REMARK    3  A    between atoms: C8_8  and  C9_9 
REMARK    4  A    between atoms: C9_9  and  O10_10 
ROOT
HETATM    1  C9  UNL     1     -33.895   6.300   4.220  1.00 20.00     0.083 C 
ENDROOT
BRANCH   1   2
HETATM    2  C2  UNL     1     -33.973   6.063   5.736  1.00 20.00    -0.059 C 
HETATM    3  C1  UNL     1     -33.684   6.999   6.657  1.00 20.00     0.017 C 
HETATM    4  C6  UNL     1     -34.412   4.694   6.194  1.00 20.00     0.046 C 
ENDBRANCH   1   2
BRANCH   1   5
HETATM    5  C5  UNL     1     -32.502   6.288   3.608  1.00 20.00     0.024 A 
HETATM    6  C3  UNL     1     -32.180   7.176   2.438  1.00 20.00     0.008 A 
HETATM    7  C4  UNL     1     -31.585   7.467   3.788  1.00 20.00     0.008 A 
ENDBRANCH   1   5
BRANCH   1   8
HETATM    8  C8  UNL     1     -34.814   5.326   3.436  1.00 20.00     0.038 C 
HETATM    9  C7  UNL     1     -36.272   5.752   3.325  1.00 20.00     0.008 C 
ENDBRANCH   1   8
BRANCH   1  10
HETATM   10  O10 UNL     1     -34.427   7.615   3.963  1.00 20.00    -0.385 OA
HETATM   11  H26 UNL     1     -35.384   7.503   3.912  1.00 20.00     0.211 HD
ENDBRANCH   1  10
TORSDOF 4
ENDMDL
MODEL 8
REMARK VINA RESULT:      -3.9      1.905      3.755
REMARK  4 active torsions:
REMARK  status: ('A' for Active; 'I' for Inactive)
REMARK    1  A    between atoms: C2_2  and  C9_9 
REMARK    2  A    between atoms: C5_5  and  C9_9 
REMARK    3  A    between atoms: C8_8  and  C9_9 
REMARK    4  A    between atoms: C9_9  and  O10_10 
ROOT
HETATM    1  C9  UNL     1     -35.316  14.294  -4.513  1.00 20.00     0.083 C 
ENDROOT
BRANCH   1   2
HETATM    2  C2  UNL     1     -34.122  14.539  -3.578  1.00 20.00    -0.059 C 
HETATM    3  C1  UNL     1     -33.015  13.775  -3.561  1.00 20.00     0.017 C 
HETATM    4  C6  UNL     1     -34.213  15.719  -2.641  1.00 20.00     0.046 C 
ENDBRANCH   1   2
BRANCH   1   5
HETATM    5  C5  UNL     1     -36.482  15.263  -4.382  1.00 20.00     0.024 A 
HETATM    6  C3  UNL     1     -37.711  15.089  -5.231  1.00 20.00     0.008 A 
HETATM    7  C4  UNL     1     -37.773  14.814  -3.754  1.00 20.00     0.008 A 
ENDBRANCH   1   5
BRANCH   1   8
HETATM    8  C8  UNL     1     -34.877  14.210  -6.000  1.00 20.00     0.038 C 
HETATM    9  C7  UNL     1     -34.287  15.490  -6.578  1.00 20.00     0.008 C 
ENDBRANCH   1   8
BRANCH   1  10
HETATM   10  O10 UNL     1     -35.848  12.992  -4.199  1.00 20.00    -0.385 OA
HETATM   11  H26 UNL     1     -35.673  12.859  -3.259  1.00 20.00     0.211 HD
ENDBRANCH   1  10
TORSDOF 4
ENDMDL
MODEL 9
REMARK VINA RESULT:      -3.8      2.144      3.435
REMARK  4 active torsions:
REMARK  status: ('A' for Active; 'I' for Inactive)
REMARK    1  A    between atoms: C2_2  and  C9_9 
REMARK    2  A    between atoms: C5_5  and  C9_9 
REMARK    3  A    between atoms: C8_8  and  C9_9 
REMARK    4  A    between atoms: C9_9  and  O10_10 
ROOT
HETATM    1  C9  UNL     1     -33.912  15.879  -5.095  1.00 20.00     0.083 C 
ENDROOT
BRANCH   1   2
HETATM    2  C2  UNL     1     -34.467  14.803  -4.150  1.00 20.00    -0.059 C 
HETATM    3  C1  UNL     1     -35.684  14.859  -3.583  1.00 20.00     0.017 C 
HETATM    4  C6  UNL     1     -33.579  13.616  -3.865  1.00 20.00     0.046 C 
ENDBRANCH   1   2
BRANCH   1   5
HETATM    5  C5  UNL     1     -34.144  15.654  -6.582  1.00 20.00     0.024 A 
HETATM    6  C3  UNL     1     -34.984  14.499  -7.053  1.00 20.00     0.008 A 
HETATM    7  C4  UNL     1     -35.499  15.906  -7.184  1.00 20.00     0.008 A 
ENDBRANCH   1   5
BRANCH   1   8
HETATM    8  C8  UNL     1     -34.404  17.299  -4.704  1.00 20.00     0.038 C 
HETATM    9  C7  UNL     1     -33.534  18.449  -5.195  1.00 20.00     0.008 C 
ENDBRANCH   1   8
BRANCH   1  10
HETATM   10  O10 UNL     1     -32.482  15.911  -4.920  1.00 20.00    -0.385 OA
HETATM   11  H26 UNL     1     -32.298  16.718  -4.424  1.00 20.00     0.211 HD
ENDBRANCH   1  10
TORSDOF 4
ENDMDL
