MODEL 1
REMARK VINA RESULT:      -3.4      0.000      0.000
REMARK  4 active torsions:
REMARK  status: ('A' for Active; 'I' for Inactive)
REMARK    1  A    between atoms: C2_2  and  C7_7 
REMARK    2  A    between atoms: C6_6  and  C7_7 
REMARK    3  A    between atoms: C6_6  and  S9_9 
REMARK    4  A    between atoms: C7_7  and  N8_8 
ROOT
HETATM    1  C7  UNL     1     -33.908  15.280  -3.413  1.00 20.00     0.257 C 
ENDROOT
BRANCH   1   2
HETATM    2  C2  UNL     1     -34.951  14.321  -3.967  1.00 20.00    -0.060 C 
HETATM    3  C1  UNL     1     -34.586  13.191  -4.597  1.00 20.00     0.016 C 
HETATM    4  C3  UNL     1     -36.407  14.662  -3.798  1.00 20.00     0.044 C 
ENDBRANCH   1   2
BRANCH   1   5
HETATM    5  C6  UNL     1     -34.486  16.604  -2.877  1.00 20.00     0.113 C 
BRANCH   5   6
HETATM    6  S9  UNL     1     -34.605  16.634  -1.060  1.00 20.00    -0.171 SA
HETATM    7  C5  UNL     1     -33.410  17.952  -0.746  1.00 20.00     0.089 C 
ENDBRANCH   5   6
ENDBRANCH   1   5
BRANCH   1   8
HETATM    8  N8  UNL     1     -32.894  15.594  -4.431  1.00 20.00     0.088 N 
HETATM    9  C4  UNL     1     -33.292  16.756  -5.202  1.00 20.00     0.307 C 
HETATM   10  H24 UNL     1     -32.012  15.777  -3.961  1.00 20.00     0.316 HD
ENDBRANCH   1   8
TORSDOF 4
ENDMDL
MODEL 2
REMARK VINA RESULT:      -3.4      2.241      4.212
REMARK  4 active torsions:
REMARK  status: ('A' for Active; 'I' for Inactive)
REMARK    1  A    between atoms: C2_2  and  C7_7 
REMARK    2  A    between atoms: C6_6  and  C7_7 
REMARK    3  A    between atoms: C6_6  and  S9_9 
REMARK    4  A    between atoms: C7_7  and  N8_8 
ROOT
HETATM    1  C7  UNL     1     -34.939  15.765  -2.276  1.00 20.00     0.257 C 
ENDROOT
BRANCH   1   2
HETATM    2  C2  UNL     1     -34.479  16.952  -1.442  1.00 20.00    -0.060 C 
HETATM    3  C1  UNL     1     -34.774  17.033  -0.133  1.00 20.00     0.016 C 
HETATM    4  C3  UNL     1     -33.684  18.039  -2.114  1.00 20.00     0.044 C 
ENDBRANCH   1   2
BRANCH   1   5
HETATM    5  C6  UNL     1     -34.168  15.580  -3.596  1.00 20.00     0.113 C 
BRANCH   5   6
HETATM    6  S9  UNL     1     -33.512  13.892  -3.796  1.00 20.00    -0.171 SA
HETATM    7  C5  UNL     1     -34.798  13.246  -4.889  1.00 20.00     0.089 C 
ENDBRANCH   5   6
ENDBRANCH   1   5
BRANCH   1   8
HETATM    8  N8  UNL     1     -36.374  15.869  -2.585  1.00 20.00     0.088 N 
HETATM    9  C4  UNL     1     -36.566  16.414  -3.916  1.00 20.00     0.307 C 
HETATM   10  H24 UNL     1     -36.783  14.941  -2.529  1.00 20.00     0.316 HD
ENDBRANCH   1   8
TORSDOF 4
ENDMDL
MODEL 3
REMARK VINA RESULT:      -3.3     11.894     12.657
REMARK  4 active torsions:
REMARK  status: ('A' for Active; 'I' for Inactive)
REMARK    1  A    between atoms: C2_2  and  C7_7 
REMARK    2  A    between atoms: C6_6  and  C7_7 
REMARK    3  A    between atoms: C6_6  and  S9_9 
REMARK    4  A    between atoms: C7_7  and  N8_8 
ROOT
HETATM    1  C7  UNL     1     -33.898   5.571   4.421  1.00 20.00     0.257 C 
ENDROOT
BRANCH   1   2
HETATM    2  C2  UNL     1     -34.247   5.662   5.899  1.00 20.00    -0.060 C 
HETATM    3  C1  UNL     1     -34.900   4.663   6.518  1.00 20.00     0.016 C 
HETATM    4  C3  UNL     1     -33.847   6.897   6.659  1.00 20.00     0.044 C 
ENDBRANCH   1   2
BRANCH   1   5
HETATM    5  C6  UNL     1     -33.580   6.925   3.760  1.00 20.00     0.113 C 
BRANCH   5   6
HETATM    6  S9  UNL     1     -31.854   7.040   3.188  1.00 20.00    -0.171 SA
HETATM    7  C5  UNL     1     -32.083   8.327   1.940  1.00 20.00     0.089 C 
ENDBRANCH   5   6
ENDBRANCH   1   5
BRANCH   1   8
HETATM    8  N8  UNL     1     -34.985   4.928   3.666  1.00 20.00     0.088 N 
HETATM    9  C4  UNL     1     -36.035   5.886   3.375  1.00 20.00     0.307 C 
HETATM   10  H24 UNL     1     -34.601   4.561   2.799  1.00 20.00     0.316 HD
ENDBRANCH   1   8
TORSDOF 4
ENDMDL
MODEL 4
REMARK VINA RESULT:      -3.3     11.885     12.660
REMARK  4 active torsions:
REMARK  status: ('A' for Active; 'I' for Inactive)
REMARK    1  A    between atoms: C2_2  and  C7_7 
REMARK    2  A    between atoms: C6_6  and  C7_7 
REMARK    3  A    between atoms: C6_6  and  S9_9 
REMARK    4  A    between atoms: C7_7  and  N8_8 
ROOT
HETATM    1  C7  UNL     1     -33.890   5.594   4.407  1.00 20.00     0.257 C 
ENDROOT
BRANCH   1   2
HETATM    2  C2  UNL     1     -34.250   5.694   5.882  1.00 20.00    -0.060 C 
HETATM    3  C1  UNL     1     -33.903   6.773   6.606  1.00 20.00     0.016 C 
HETATM    4  C3  UNL     1     -35.003   4.558   6.520  1.00 20.00     0.044 C 
ENDBRANCH   1   2
BRANCH   1   5
HETATM    5  C6  UNL     1     -33.581   6.946   3.736  1.00 20.00     0.113 C 
BRANCH   5   6
HETATM    6  S9  UNL     1     -31.852   7.073   3.176  1.00 20.00    -0.171 SA
HETATM    7  C5  UNL     1     -32.082   8.353   1.923  1.00 20.00     0.089 C 
ENDBRANCH   5   6
ENDBRANCH   1   5
BRANCH   1   8
HETATM    8  N8  UNL     1     -34.967   4.935   3.651  1.00 20.00     0.088 N 
HETATM    9  C4  UNL     1     -36.026   5.880   3.350  1.00 20.00     0.307 C 
HETATM   10  H24 UNL     1     -34.576   4.568   2.788  1.00 20.00     0.316 HD
ENDBRANCH   1   8
TORSDOF 4
ENDMDL
MODEL 5
REMARK VINA RESULT:      -3.3      2.000      3.343
REMARK  4 active torsions:
REMARK  status: ('A' for Active; 'I' for Inactive)
REMARK    1  A    between atoms: C2_2  and  C7_7 
REMARK    2  A    between atoms: C6_6  and  C7_7 
REMARK    3  A    between atoms: C6_6  and  S9_9 
REMARK    4  A    between atoms: C7_7  and  N8_8 
ROOT
HETATM    1  C7  UNL     1     -33.911  15.021  -3.514  1.00 20.00     0.257 C 
ENDROOT
BRANCH   1   2
HETATM    2  C2  UNL     1     -34.953  15.701  -2.638  1.00 20.00    -0.060 C 
HETATM    3  C1  UNL     1     -34.607  16.285  -1.477  1.00 20.00     0.016 C 
HETATM    4  C3  UNL     1     -36.387  15.709  -3.096  1.00 20.00     0.044 C 
ENDBRANCH   1   2
BRANCH   1   5
HETATM    5  C6  UNL     1     -33.895  15.510  -4.975  1.00 20.00     0.113 C 
BRANCH   5   6
HETATM    6  S9  UNL     1     -33.541  17.292  -5.115  1.00 20.00    -0.171 SA
HETATM    7  C5  UNL     1     -35.023  17.776  -6.028  1.00 20.00     0.089 C 
ENDBRANCH   5   6
ENDBRANCH   1   5
BRANCH   1   8
HETATM    8  N8  UNL     1     -34.100  13.562  -3.514  1.00 20.00     0.088 N 
HETATM    9  C4  UNL     1     -34.539  13.108  -4.820  1.00 20.00     0.307 C 
HETATM   10  H24 UNL     1     -33.216  13.124  -3.274  1.00 20.00     0.316 HD
ENDBRANCH   1   8
TORSDOF 4
ENDMDL
MODEL 6
REMARK VINA RESULT:      -3.3      2.616      4.273
REMARK  4 active torsions:
REMARK  status: ('A' for Active; 'I' for Inactive)
REMARK    1  A    between atoms: C2_2  and  C7_7 
REMARK    2  A    between atoms: C6_6  and  C7_7 
REMARK    3  A    between atoms: C6_6  and  S9_9 
REMARK    4  A    between atoms: C7_7  and  N8_8 
ROOT
HETATM    1  C7  UNL     1     -35.628  15.375  -3.453  1.00 20.00     0.257 C 
ENDROOT
BRANCH   1   2
HETATM    2  C2  UNL     1     -34.680  16.288  -2.688  1.00 20.00    -0.060 C 
HETATM    3  C1  UNL     1     -34.713  16.350  -1.346  1.00 20.00     0.016 C 
HETATM    4  C3  UNL     1     -33.700  17.124  -3.466  1.00 20.00     0.044 C 
ENDBRANCH   1   2
BRANCH   1   5
HETATM    5  C6  UNL     1     -35.743  15.697  -4.955  1.00 20.00     0.113 C 
BRANCH   5   6
HETATM    6  S9  UNL     1     -34.866  14.491  -6.001  1.00 20.00    -0.171 SA
HETATM    7  C5  UNL     1     -34.572  13.228  -4.744  1.00 20.00     0.089 C 
ENDBRANCH   5   6
ENDBRANCH   1   5
BRANCH   1   8
HETATM    8  N8  UNL     1     -36.976  15.411  -2.864  1.00 20.00     0.088 N 
HETATM    9  C4  UNL     1     -37.953  14.894  -3.804  1.00 20.00     0.307 C 
HETATM   10  H24 UNL     1     -36.973  14.844  -2.021  1.00 20.00     0.316 HD
ENDBRANCH   1   8
TORSDOF 4
ENDMDL
MODEL 7
REMARK VINA RESULT:      -3.3      2.217      3.111
REMARK  4 active torsions:
REMARK  status: ('A' for Active; 'I' for Inactive)
REMARK    1  A    between atoms: C2_2  and  C7_7 
REMARK    2  A    between atoms: C6_6  and  C7_7 
REMARK    3  A    between atoms: C6_6  and  S9_9 
REMARK    4  A    between atoms: C7_7  and  N8_8 
ROOT
HETATM    1  C7  UNL     1     -34.781  15.757  -3.390  1.00 20.00     0.257 C 
ENDROOT
BRANCH   1   2
HETATM    2  C2  UNL     1     -34.265  14.370  -3.745  1.00 20.00    -0.060 C 
HETATM    3  C1  UNL     1     -32.969  14.051  -3.582  1.00 20.00     0.016 C 
HETATM    4  C3  UNL     1     -35.237  13.356  -4.285  1.00 20.00     0.044 C 
ENDBRANCH   1   2
BRANCH   1   5
HETATM    5  C6  UNL     1     -33.732  16.877  -3.526  1.00 20.00     0.113 C 
BRANCH   5   6
HETATM    6  S9  UNL     1     -33.606  17.518  -5.226  1.00 20.00    -0.171 SA
HETATM    7  C5  UNL     1     -35.355  17.420  -5.667  1.00 20.00     0.089 C 
ENDBRANCH   5   6
ENDBRANCH   1   5
BRANCH   1   8
HETATM    8  N8  UNL     1     -35.313  15.781  -2.018  1.00 20.00     0.088 N 
HETATM    9  C4  UNL     1     -34.483  16.614  -1.168  1.00 20.00     0.307 C 
HETATM   10  H24 UNL     1     -36.258  16.151  -2.047  1.00 20.00     0.316 HD
ENDBRANCH   1   8
TORSDOF 4
ENDMDL
MODEL 8
REMARK VINA RESULT:      -3.3      2.091      3.544
REMARK  4 active torsions:
REMARK  status: ('A' for Active; 'I' for Inactive)
REMARK    1  A    between atoms: C2_2  and  C7_7 
REMARK    2  A    between atoms: C6_6  and  C7_7 
REMARK    3  A    between atoms: C6_6  and  S9_9 
REMARK    4  A    between atoms: C7_7  and  N8_8 
ROOT
HETATM    1  C7  UNL     1     -34.619  15.617  -2.543  1.00 20.00     0.257 C 
ENDROOT
BRANCH   1   2
HETATM    2  C2  UNL     1     -33.696  15.126  -3.648  1.00 20.00    -0.060 C 
HETATM    3  C1  UNL     1     -33.375  13.824  -3.753  1.00 20.00     0.016 C 
HETATM    4  C3  UNL     1     -33.144  16.128  -4.626  1.00 20.00     0.044 C 
ENDBRANCH   1   2
BRANCH   1   5
HETATM    5  C6  UNL     1     -35.947  16.215  -3.046  1.00 20.00     0.113 C 
BRANCH   5   6
HETATM    6  S9  UNL     1     -37.046  14.963  -3.782  1.00 20.00    -0.171 SA
HETATM    7  C5  UNL     1     -36.914  15.488  -5.506  1.00 20.00     0.089 C 
ENDBRANCH   5   6
ENDBRANCH   1   5
BRANCH   1   8
HETATM    8  N8  UNL     1     -33.944  16.622  -1.706  1.00 20.00     0.088 N 
HETATM    9  C4  UNL     1     -34.700  16.860  -0.491  1.00 20.00     0.307 C 
HETATM   10  H24 UNL     1     -33.017  16.277  -1.474  1.00 20.00     0.316 HD
ENDBRANCH   1   8
TORSDOF 4
ENDMDL
MODEL 9
REMARK VINA RESULT:      -3.2      2.151      4.014
REMARK  4 active torsions:
REMARK  status: ('A' for Active; 'I' for Inactive)
REMARK    1  A    between atoms: C2_2  and  C7_7 
REMARK    2  A    between atoms: C6_6  and  C7_7 
REMARK    3  A    between atoms: C6_6  and  S9_9 
REMARK    4  A    between atoms: C7_7  and  N8_8 
ROOT
HETATM    1  C7  UNL     1     -33.502  15.884  -3.240  1.00 20.00     0.257 C 
ENDROOT
BRANCH   1   2
HETATM    2  C2  UNL     1     -33.972  16.882  -2.192  1.00 20.00    -0.060 C 
HETATM    3  C1  UNL     1     -34.637  16.472  -1.097  1.00 20.00     0.016 C 
HETATM    4  C3  UNL     1     -33.680  18.342  -2.404  1.00 20.00     0.044 C 
ENDBRANCH   1   2
BRANCH   1   5
HETATM    5  C6  UNL     1     -33.291  16.488  -4.641  1.00 20.00     0.113 C 
BRANCH   5   6
HETATM    6  S9  UNL     1     -34.829  16.558  -5.615  1.00 20.00    -0.171 SA
HETATM    7  C5  UNL     1     -34.328  15.463  -6.962  1.00 20.00     0.089 C 
ENDBRANCH   5   6
ENDBRANCH   1   5
BRANCH   1   8
HETATM    8  N8  UNL     1     -34.447  14.762  -3.355  1.00 20.00     0.088 N 
HETATM    9  C4  UNL     1     -33.753  13.555  -3.764  1.00 20.00     0.307 C 
HETATM   10  H24 UNL     1     -34.886  14.618  -2.450  1.00 20.00     0.316 HD
ENDBRANCH   1   8
TORSDOF 4
ENDMDL
