MODEL 1
REMARK VINA RESULT:      -4.1      0.000      0.000
REMARK  3 active torsions:
REMARK  status: ('A' for Active; 'I' for Inactive)
REMARK    1  A    between atoms: C2_2  and  C6_6 
REMARK    2  A    between atoms: C3_3  and  C7_7 
REMARK    3  A    between atoms: C3_3  and  O8_8 
ROOT
HETATM    1  C1  UNL     1     -33.898   4.794   2.822  1.00 20.00     0.045 A 
HETATM    2  C2  UNL     1     -33.743   6.292   2.895  1.00 20.00     0.022 A 
HETATM    3  C3  UNL     1     -34.643   5.573   3.877  1.00 20.00     0.062 A 
ENDROOT
BRANCH   3   4
HETATM    4  C7  UNL     1     -34.284   5.412   5.317  1.00 20.00     0.034 C 
HETATM    5  C5  UNL     1     -34.990   4.254   5.971  1.00 20.00     0.008 C 
ENDBRANCH   3   4
BRANCH   3   6
HETATM    6  O8  UNL     1     -36.056   5.738   3.654  1.00 20.00    -0.389 OA
HETATM    7  H22 UNL     1     -36.261   5.205   2.875  1.00 20.00     0.210 HD
ENDBRANCH   3   6
BRANCH   2   8
HETATM    8  C6  UNL     1     -32.441   6.894   3.298  1.00 20.00     0.003 C 
HETATM    9  C4  UNL     1     -31.974   7.974   2.356  1.00 20.00     0.005 C 
ENDBRANCH   2   8
TORSDOF 3
ENDMDL
MODEL 2
REMARK VINA RESULT:      -4.1      1.282      3.505
REMARK  3 active torsions:
REMARK  status: ('A' for Active; 'I' for Inactive)
REMARK    1  A    between atoms: C2_2  and  C6_6 
REMARK    2  A    between atoms: C3_3  and  C7_7 
REMARK    3  A    between atoms: C3_3  and  O8_8 
ROOT
HETATM    1  C1  UNL     1     -35.603   5.779   3.949  1.00 20.00     0.045 A 
HETATM    2  C2  UNL     1     -34.920   4.500   4.361  1.00 20.00     0.022 A 
HETATM    3  C3  UNL     1     -34.208   5.485   3.459  1.00 20.00     0.062 A 
ENDROOT
BRANCH   3   4
HETATM    4  C7  UNL     1     -33.061   6.315   3.933  1.00 20.00     0.034 C 
HETATM    5  C5  UNL     1     -32.382   7.068   2.820  1.00 20.00     0.008 C 
ENDBRANCH   3   4
BRANCH   3   6
HETATM    6  O8  UNL     1     -34.097   5.091   2.079  1.00 20.00    -0.389 OA
HETATM    7  H22 UNL     1     -34.093   5.913   1.572  1.00 20.00     0.210 HD
ENDBRANCH   3   6
BRANCH   2   8
HETATM    8  C6  UNL     1     -34.522   4.285   5.780  1.00 20.00     0.003 C 
HETATM    9  C4  UNL     1     -34.838   5.462   6.666  1.00 20.00     0.005 C 
ENDBRANCH   2   8
TORSDOF 3
ENDMDL
MODEL 3
REMARK VINA RESULT:      -4.0     11.272     12.165
REMARK  3 active torsions:
REMARK  status: ('A' for Active; 'I' for Inactive)
REMARK    1  A    between atoms: C2_2  and  C6_6 
REMARK    2  A    between atoms: C3_3  and  C7_7 
REMARK    3  A    between atoms: C3_3  and  O8_8 
ROOT
HETATM    1  C1  UNL     1     -36.166  14.830  -3.669  1.00 20.00     0.045 A 
HETATM    2  C2  UNL     1     -34.834  14.756  -2.969  1.00 20.00     0.022 A 
HETATM    3  C3  UNL     1     -35.049  14.015  -4.271  1.00 20.00     0.062 A 
ENDROOT
BRANCH   3   4
HETATM    4  C7  UNL     1     -34.414  14.448  -5.550  1.00 20.00     0.034 C 
HETATM    5  C5  UNL     1     -35.352  14.372  -6.726  1.00 20.00     0.008 C 
ENDBRANCH   3   4
BRANCH   3   6
HETATM    6  O8  UNL     1     -35.182  12.586  -4.153  1.00 20.00    -0.389 OA
HETATM    7  H22 UNL     1     -35.731  12.438  -3.372  1.00 20.00     0.210 HD
ENDBRANCH   3   6
BRANCH   2   8
HETATM    8  C6  UNL     1     -33.968  15.964  -2.872  1.00 20.00     0.003 C 
HETATM    9  C4  UNL     1     -34.122  16.697  -1.564  1.00 20.00     0.005 C 
ENDBRANCH   2   8
TORSDOF 3
ENDMDL
MODEL 4
REMARK VINA RESULT:      -3.9     11.631     12.791
REMARK  3 active torsions:
REMARK  status: ('A' for Active; 'I' for Inactive)
REMARK    1  A    between atoms: C2_2  and  C6_6 
REMARK    2  A    between atoms: C3_3  and  C7_7 
REMARK    3  A    between atoms: C3_3  and  O8_8 
ROOT
HETATM    1  C1  UNL     1     -34.179  14.372  -3.614  1.00 20.00     0.045 A 
HETATM    2  C2  UNL     1     -33.814  15.418  -2.594  1.00 20.00     0.022 A 
HETATM    3  C3  UNL     1     -33.203  15.462  -3.977  1.00 20.00     0.062 A 
ENDROOT
BRANCH   3   4
HETATM    4  C7  UNL     1     -33.580  16.497  -4.984  1.00 20.00     0.034 C 
HETATM    5  C5  UNL     1     -34.065  15.905  -6.281  1.00 20.00     0.008 C 
ENDBRANCH   3   4
BRANCH   3   6
HETATM    6  O8  UNL     1     -31.821  15.066  -4.054  1.00 20.00    -0.389 OA
HETATM    7  H22 UNL     1     -31.407  15.680  -4.674  1.00 20.00     0.210 HD
ENDBRANCH   3   6
BRANCH   2   8
HETATM    8  C6  UNL     1     -34.829  16.409  -2.138  1.00 20.00     0.003 C 
HETATM    9  C4  UNL     1     -34.667  16.796  -0.690  1.00 20.00     0.005 C 
ENDBRANCH   2   8
TORSDOF 3
ENDMDL
MODEL 5
REMARK VINA RESULT:      -3.9     11.702     12.821
REMARK  3 active torsions:
REMARK  status: ('A' for Active; 'I' for Inactive)
REMARK    1  A    between atoms: C2_2  and  C6_6 
REMARK    2  A    between atoms: C3_3  and  C7_7 
REMARK    3  A    between atoms: C3_3  and  O8_8 
ROOT
HETATM    1  C1  UNL     1     -33.415  14.247  -3.598  1.00 20.00     0.045 A 
HETATM    2  C2  UNL     1     -33.645  15.607  -2.992  1.00 20.00     0.022 A 
HETATM    3  C3  UNL     1     -33.633  15.439  -4.496  1.00 20.00     0.062 A 
ENDROOT
BRANCH   3   4
HETATM    4  C7  UNL     1     -34.874  15.536  -5.319  1.00 20.00     0.034 C 
HETATM    5  C5  UNL     1     -34.723  14.916  -6.683  1.00 20.00     0.008 C 
ENDBRANCH   3   4
BRANCH   3   6
HETATM    6  O8  UNL     1     -32.462  15.943  -5.164  1.00 20.00    -0.389 OA
HETATM    7  H22 UNL     1     -32.558  16.904  -5.171  1.00 20.00     0.210 HD
ENDBRANCH   3   6
BRANCH   2   8
HETATM    8  C6  UNL     1     -34.894  15.888  -2.231  1.00 20.00     0.003 C 
HETATM    9  C4  UNL     1     -34.641  16.595  -0.923  1.00 20.00     0.005 C 
ENDBRANCH   2   8
TORSDOF 3
ENDMDL
MODEL 6
REMARK VINA RESULT:      -3.9      2.196      4.248
REMARK  3 active torsions:
REMARK  status: ('A' for Active; 'I' for Inactive)
REMARK    1  A    between atoms: C2_2  and  C6_6 
REMARK    2  A    between atoms: C3_3  and  C7_7 
REMARK    3  A    between atoms: C3_3  and  O8_8 
ROOT
HETATM    1  C1  UNL     1     -32.087   5.753   2.943  1.00 20.00     0.045 A 
HETATM    2  C2  UNL     1     -33.062   6.236   3.986  1.00 20.00     0.022 A 
HETATM    3  C3  UNL     1     -32.205   7.229   3.231  1.00 20.00     0.062 A 
ENDROOT
BRANCH   3   4
HETATM    4  C7  UNL     1     -32.770   8.147   2.198  1.00 20.00     0.034 C 
HETATM    5  C5  UNL     1     -31.746   8.597   1.190  1.00 20.00     0.008 C 
ENDBRANCH   3   4
BRANCH   3   6
HETATM    6  O8  UNL     1     -31.124   7.810   3.984  1.00 20.00    -0.389 OA
HETATM    7  H22 UNL     1     -30.657   8.389   3.367  1.00 20.00     0.210 HD
ENDBRANCH   3   6
BRANCH   2   8
HETATM    8  C6  UNL     1     -34.529   6.112   3.757  1.00 20.00     0.003 C 
HETATM    9  C4  UNL     1     -35.147   4.959   4.506  1.00 20.00     0.005 C 
ENDBRANCH   2   8
TORSDOF 3
ENDMDL
MODEL 7
REMARK VINA RESULT:      -3.8      8.780      9.620
REMARK  3 active torsions:
REMARK  status: ('A' for Active; 'I' for Inactive)
REMARK    1  A    between atoms: C2_2  and  C6_6 
REMARK    2  A    between atoms: C3_3  and  C7_7 
REMARK    3  A    between atoms: C3_3  and  O8_8 
ROOT
HETATM    1  C1  UNL     1     -41.749   5.275  -0.016  1.00 20.00     0.045 A 
HETATM    2  C2  UNL     1     -41.043   6.161  -1.010  1.00 20.00     0.022 A 
HETATM    3  C3  UNL     1     -41.210   4.684  -1.294  1.00 20.00     0.062 A 
ENDROOT
BRANCH   3   4
HETATM    4  C7  UNL     1     -42.151   4.173  -2.334  1.00 20.00     0.034 C 
HETATM    5  C5  UNL     1     -41.698   2.874  -2.948  1.00 20.00     0.008 C 
ENDBRANCH   3   4
BRANCH   3   6
HETATM    6  O8  UNL     1     -40.015   3.891  -1.164  1.00 20.00    -0.389 OA
HETATM    7  H22 UNL     1     -39.860   3.807  -0.214  1.00 20.00     0.210 HD
ENDBRANCH   3   6
BRANCH   2   8
HETATM    8  C6  UNL     1     -41.800   7.207  -1.753  1.00 20.00     0.003 C 
HETATM    9  C4  UNL     1     -42.782   7.952  -0.886  1.00 20.00     0.005 C 
ENDBRANCH   2   8
TORSDOF 3
ENDMDL
MODEL 8
REMARK VINA RESULT:      -3.8     11.312     12.088
REMARK  3 active torsions:
REMARK  status: ('A' for Active; 'I' for Inactive)
REMARK    1  A    between atoms: C2_2  and  C6_6 
REMARK    2  A    between atoms: C3_3  and  C7_7 
REMARK    3  A    between atoms: C3_3  and  O8_8 
ROOT
HETATM    1  C1  UNL     1     -36.033  16.019  -4.390  1.00 20.00     0.045 A 
HETATM    2  C2  UNL     1     -35.890  15.800  -2.906  1.00 20.00     0.022 A 
HETATM    3  C3  UNL     1     -36.239  14.641  -3.815  1.00 20.00     0.062 A 
ENDROOT
BRANCH   3   4
HETATM    4  C7  UNL     1     -35.269  13.550  -4.124  1.00 20.00     0.034 C 
HETATM    5  C5  UNL     1     -34.744  13.615  -5.534  1.00 20.00     0.008 C 
ENDBRANCH   3   4
BRANCH   3   6
HETATM    6  O8  UNL     1     -37.604  14.189  -3.743  1.00 20.00    -0.389 OA
HETATM    7  H22 UNL     1     -38.009  14.692  -3.025  1.00 20.00     0.210 HD
ENDBRANCH   3   6
BRANCH   2   8
HETATM    8  C6  UNL     1     -34.558  15.928  -2.252  1.00 20.00     0.003 C 
HETATM    9  C4  UNL     1     -34.626  16.592  -0.900  1.00 20.00     0.005 C 
ENDBRANCH   2   8
TORSDOF 3
ENDMDL
MODEL 9
REMARK VINA RESULT:      -3.7     11.274     12.293
REMARK  3 active torsions:
REMARK  status: ('A' for Active; 'I' for Inactive)
REMARK    1  A    between atoms: C2_2  and  C6_6 
REMARK    2  A    between atoms: C3_3  and  C7_7 
REMARK    3  A    between atoms: C3_3  and  O8_8 
ROOT
HETATM    1  C1  UNL     1     -35.210  13.379  -4.231  1.00 20.00     0.045 A 
HETATM    2  C2  UNL     1     -35.456  14.576  -5.112  1.00 20.00     0.022 A 
HETATM    3  C3  UNL     1     -35.425  14.735  -3.607  1.00 20.00     0.062 A 
ENDROOT
BRANCH   3   4
HETATM    4  C7  UNL     1     -34.302  15.418  -2.900  1.00 20.00     0.034 C 
HETATM    5  C5  UNL     1     -34.759  16.213  -1.705  1.00 20.00     0.008 C 
ENDBRANCH   3   4
BRANCH   3   6
HETATM    6  O8  UNL     1     -36.706  14.941  -2.982  1.00 20.00    -0.389 OA
HETATM    7  H22 UNL     1     -36.516  15.133  -2.054  1.00 20.00     0.210 HD
ENDBRANCH   3   6
BRANCH   2   8
HETATM    8  C6  UNL     1     -34.372  15.097  -5.992  1.00 20.00     0.003 C 
HETATM    9  C4  UNL     1     -34.656  14.897  -7.458  1.00 20.00     0.005 C 
ENDBRANCH   2   8
TORSDOF 3
ENDMDL
