MODEL 1
REMARK VINA RESULT:      -4.5      0.000      0.000
REMARK  2 active torsions:
REMARK  status: ('A' for Active; 'I' for Inactive)
REMARK    1  A    between atoms: C3_3  and  C6_6 
REMARK    2  A    between atoms: C6_6  and  O9_9 
ROOT
HETATM    1  C2  UNL     1     -32.654   5.459   2.941  1.00 20.00     0.045 A 
HETATM    2  C5  UNL     1     -32.697   6.964   3.009  1.00 20.00     0.019 A 
HETATM    3  C6  UNL     1     -33.585   6.138   3.914  1.00 20.00     0.066 A 
HETATM    4  C8  UNL     1     -31.527   7.724   3.534  1.00 20.00     0.013 C 
ENDROOT
BRANCH   3   5
HETATM    5  C3  UNL     1     -33.403   6.030   5.425  1.00 20.00     0.024 A 
HETATM    6  C1  UNL     1     -34.475   6.431   6.405  1.00 20.00     0.012 A 
HETATM    7  C4  UNL     1     -34.066   4.986   6.292  1.00 20.00    -0.011 A 
HETATM    8  C7  UNL     1     -35.012   3.981   5.732  1.00 20.00     0.010 C 
ENDBRANCH   3   5
BRANCH   3   9
HETATM    9  O9  UNL     1     -34.976   6.121   3.516  1.00 20.00    -0.389 OA
HETATM   10  H23 UNL     1     -35.298   5.245   3.755  1.00 20.00     0.210 HD
ENDBRANCH   3   9
TORSDOF 2
ENDMDL
MODEL 2
REMARK VINA RESULT:      -4.5     11.988     13.580
REMARK  2 active torsions:
REMARK  status: ('A' for Active; 'I' for Inactive)
REMARK    1  A    between atoms: C3_3  and  C6_6 
REMARK    2  A    between atoms: C6_6  and  O9_9 
ROOT
HETATM    1  C2  UNL     1     -34.965  16.646  -5.986  1.00 20.00     0.045 A 
HETATM    2  C5  UNL     1     -34.297  15.787  -7.027  1.00 20.00     0.019 A 
HETATM    3  C6  UNL     1     -33.954  15.609  -5.564  1.00 20.00     0.066 A 
HETATM    4  C8  UNL     1     -35.086  14.772  -7.780  1.00 20.00     0.013 C 
ENDROOT
BRANCH   3   5
HETATM    5  C3  UNL     1     -34.339  14.386  -4.738  1.00 20.00     0.024 A 
HETATM    6  C1  UNL     1     -33.409  13.757  -3.732  1.00 20.00     0.012 A 
HETATM    7  C4  UNL     1     -34.678  14.421  -3.266  1.00 20.00    -0.011 A 
HETATM    8  C7  UNL     1     -34.616  15.680  -2.474  1.00 20.00     0.010 C 
ENDBRANCH   3   5
BRANCH   3   9
HETATM    9  O9  UNL     1     -32.666  16.153  -5.192  1.00 20.00    -0.389 OA
HETATM   10  H23 UNL     1     -32.178  16.240  -6.018  1.00 20.00     0.210 HD
ENDBRANCH   3   9
TORSDOF 2
ENDMDL
MODEL 3
REMARK VINA RESULT:      -4.4      1.567      2.340
REMARK  2 active torsions:
REMARK  status: ('A' for Active; 'I' for Inactive)
REMARK    1  A    between atoms: C3_3  and  C6_6 
REMARK    2  A    between atoms: C6_6  and  O9_9 
ROOT
HETATM    1  C2  UNL     1     -31.607   7.677   3.900  1.00 20.00     0.045 A 
HETATM    2  C5  UNL     1     -31.794   7.732   2.406  1.00 20.00     0.019 A 
HETATM    3  C6  UNL     1     -32.509   6.677   3.221  1.00 20.00     0.066 A 
HETATM    4  C8  UNL     1     -32.521   8.874   1.784  1.00 20.00     0.013 C 
ENDROOT
BRANCH   3   5
HETATM    5  C3  UNL     1     -34.016   6.651   3.453  1.00 20.00     0.024 A 
HETATM    6  C1  UNL     1     -34.795   5.370   3.609  1.00 20.00     0.012 A 
HETATM    7  C4  UNL     1     -34.672   6.318   4.773  1.00 20.00    -0.011 A 
HETATM    8  C7  UNL     1     -33.878   5.933   5.972  1.00 20.00     0.010 C 
ENDBRANCH   3   5
BRANCH   3   9
HETATM    9  O9  UNL     1     -31.940   5.353   3.097  1.00 20.00    -0.389 OA
HETATM   10  H23 UNL     1     -31.435   5.215   3.906  1.00 20.00     0.210 HD
ENDBRANCH   3   9
TORSDOF 2
ENDMDL
MODEL 4
REMARK VINA RESULT:      -4.3     12.144     13.958
REMARK  2 active torsions:
REMARK  status: ('A' for Active; 'I' for Inactive)
REMARK    1  A    between atoms: C3_3  and  C6_6 
REMARK    2  A    between atoms: C6_6  and  O9_9 
ROOT
HETATM    1  C2  UNL     1     -34.020  14.368  -3.652  1.00 20.00     0.045 A 
HETATM    2  C5  UNL     1     -33.753  15.568  -2.781  1.00 20.00     0.019 A 
HETATM    3  C6  UNL     1     -33.669  15.690  -4.287  1.00 20.00     0.066 A 
HETATM    4  C8  UNL     1     -34.860  16.189  -2.001  1.00 20.00     0.013 C 
ENDROOT
BRANCH   3   5
HETATM    5  C3  UNL     1     -34.664  16.473  -5.138  1.00 20.00     0.024 A 
HETATM    6  C1  UNL     1     -34.243  17.316  -6.315  1.00 20.00     0.012 A 
HETATM    7  C4  UNL     1     -35.082  16.085  -6.537  1.00 20.00    -0.011 A 
HETATM    8  C7  UNL     1     -34.505  14.901  -7.232  1.00 20.00     0.010 C 
ENDBRANCH   3   5
BRANCH   3   9
HETATM    9  O9  UNL     1     -32.317  15.764  -4.796  1.00 20.00    -0.389 OA
HETATM   10  H23 UNL     1     -31.941  16.561  -4.406  1.00 20.00     0.210 HD
ENDBRANCH   3   9
TORSDOF 2
ENDMDL
MODEL 5
REMARK VINA RESULT:      -4.2     11.662     13.280
REMARK  2 active torsions:
REMARK  status: ('A' for Active; 'I' for Inactive)
REMARK    1  A    between atoms: C3_3  and  C6_6 
REMARK    2  A    between atoms: C6_6  and  O9_9 
ROOT
HETATM    1  C2  UNL     1     -34.966  14.419  -3.428  1.00 20.00     0.045 A 
HETATM    2  C5  UNL     1     -33.526  14.044  -3.665  1.00 20.00     0.019 A 
HETATM    3  C6  UNL     1     -34.540  13.902  -4.779  1.00 20.00     0.066 A 
HETATM    4  C8  UNL     1     -32.472  15.097  -3.688  1.00 20.00     0.013 C 
ENDROOT
BRANCH   3   5
HETATM    5  C3  UNL     1     -34.564  14.775  -6.030  1.00 20.00     0.024 A 
HETATM    6  C1  UNL     1     -35.165  14.315  -7.333  1.00 20.00     0.012 A 
HETATM    7  C4  UNL     1     -35.800  15.451  -6.576  1.00 20.00    -0.011 A 
HETATM    8  C7  UNL     1     -37.138  15.276  -5.945  1.00 20.00     0.010 C 
ENDBRANCH   3   5
BRANCH   3   9
HETATM    9  O9  UNL     1     -34.935  12.536  -5.044  1.00 20.00    -0.389 OA
HETATM   10  H23 UNL     1     -35.554  12.587  -5.780  1.00 20.00     0.210 HD
ENDBRANCH   3   9
TORSDOF 2
ENDMDL
MODEL 6
REMARK VINA RESULT:      -4.1     11.714     12.868
REMARK  2 active torsions:
REMARK  status: ('A' for Active; 'I' for Inactive)
REMARK    1  A    between atoms: C3_3  and  C6_6 
REMARK    2  A    between atoms: C6_6  and  O9_9 
ROOT
HETATM    1  C2  UNL     1     -35.712  17.043  -3.438  1.00 20.00     0.045 A 
HETATM    2  C5  UNL     1     -35.373  16.562  -2.051  1.00 20.00     0.019 A 
HETATM    3  C6  UNL     1     -35.688  15.563  -3.143  1.00 20.00     0.066 A 
HETATM    4  C8  UNL     1     -33.994  16.734  -1.514  1.00 20.00     0.013 C 
ENDROOT
BRANCH   3   5
HETATM    5  C3  UNL     1     -34.659  14.626  -3.768  1.00 20.00     0.024 A 
HETATM    6  C1  UNL     1     -35.005  13.238  -4.243  1.00 20.00     0.012 A 
HETATM    7  C4  UNL     1     -34.591  14.289  -5.239  1.00 20.00    -0.011 A 
HETATM    8  C7  UNL     1     -35.580  14.825  -6.216  1.00 20.00     0.010 C 
ENDBRANCH   3   5
BRANCH   3   9
HETATM    9  O9  UNL     1     -36.998  14.960  -3.028  1.00 20.00    -0.389 OA
HETATM   10  H23 UNL     1     -37.082  14.386  -3.798  1.00 20.00     0.210 HD
ENDBRANCH   3   9
TORSDOF 2
ENDMDL
MODEL 7
REMARK VINA RESULT:      -4.0      0.860      3.785
REMARK  2 active torsions:
REMARK  status: ('A' for Active; 'I' for Inactive)
REMARK    1  A    between atoms: C3_3  and  C6_6 
REMARK    2  A    between atoms: C6_6  and  O9_9 
ROOT
HETATM    1  C2  UNL     1     -33.909   6.342   6.171  1.00 20.00     0.045 A 
HETATM    2  C5  UNL     1     -34.959   5.341   5.764  1.00 20.00     0.019 A 
HETATM    3  C6  UNL     1     -34.192   6.108   4.708  1.00 20.00     0.066 A 
HETATM    4  C8  UNL     1     -34.738   3.886   5.996  1.00 20.00     0.013 C 
ENDROOT
BRANCH   3   5
HETATM    5  C3  UNL     1     -33.166   5.480   3.771  1.00 20.00     0.024 A 
HETATM    6  C1  UNL     1     -33.128   5.771   2.293  1.00 20.00     0.012 A 
HETATM    7  C4  UNL     1     -31.990   6.217   3.173  1.00 20.00    -0.011 A 
HETATM    8  C7  UNL     1     -31.761   7.668   3.423  1.00 20.00     0.010 C 
ENDBRANCH   3   5
BRANCH   3   9
HETATM    9  O9  UNL     1     -34.956   7.162   4.076  1.00 20.00    -0.389 OA
HETATM   10  H23 UNL     1     -34.311   7.836   3.836  1.00 20.00     0.210 HD
ENDBRANCH   3   9
TORSDOF 2
ENDMDL
MODEL 8
REMARK VINA RESULT:      -4.0     12.205     12.784
REMARK  2 active torsions:
REMARK  status: ('A' for Active; 'I' for Inactive)
REMARK    1  A    between atoms: C3_3  and  C6_6 
REMARK    2  A    between atoms: C6_6  and  O9_9 
ROOT
HETATM    1  C2  UNL     1     -33.325  15.899  -3.014  1.00 20.00     0.045 A 
HETATM    2  C5  UNL     1     -34.193  16.880  -2.270  1.00 20.00     0.019 A 
HETATM    3  C6  UNL     1     -34.751  16.119  -3.453  1.00 20.00     0.066 A 
HETATM    4  C8  UNL     1     -34.624  16.590  -0.873  1.00 20.00     0.013 C 
ENDROOT
BRANCH   3   5
HETATM    5  C3  UNL     1     -35.813  15.029  -3.346  1.00 20.00     0.024 A 
HETATM    6  C1  UNL     1     -36.833  14.777  -4.426  1.00 20.00     0.012 A 
HETATM    7  C4  UNL     1     -35.790  13.734  -4.123  1.00 20.00    -0.011 A 
HETATM    8  C7  UNL     1     -34.724  13.431  -5.117  1.00 20.00     0.010 C 
ENDBRANCH   3   5
BRANCH   3   9
HETATM    9  O9  UNL     1     -34.887  16.915  -4.653  1.00 20.00    -0.389 OA
HETATM   10  H23 UNL     1     -34.990  16.280  -5.370  1.00 20.00     0.210 HD
ENDBRANCH   3   9
TORSDOF 2
ENDMDL
MODEL 9
REMARK VINA RESULT:      -4.0     12.248     13.939
REMARK  2 active torsions:
REMARK  status: ('A' for Active; 'I' for Inactive)
REMARK    1  A    between atoms: C3_3  and  C6_6 
REMARK    2  A    between atoms: C6_6  and  O9_9 
ROOT
HETATM    1  C2  UNL     1     -33.899  16.677  -3.145  1.00 20.00     0.045 A 
HETATM    2  C5  UNL     1     -33.657  17.798  -4.123  1.00 20.00     0.019 A 
HETATM    3  C6  UNL     1     -33.679  16.363  -4.604  1.00 20.00     0.066 A 
HETATM    4  C8  UNL     1     -34.750  18.755  -4.451  1.00 20.00     0.013 C 
ENDROOT
BRANCH   3   5
HETATM    5  C3  UNL     1     -34.777  15.773  -5.484  1.00 20.00     0.024 A 
HETATM    6  C1  UNL     1     -34.496  14.772  -6.574  1.00 20.00     0.012 A 
HETATM    7  C4  UNL     1     -35.297  14.359  -5.368  1.00 20.00    -0.011 A 
HETATM    8  C7  UNL     1     -34.731  13.389  -4.389  1.00 20.00     0.010 C 
ENDBRANCH   3   5
BRANCH   3   9
HETATM    9  O9  UNL     1     -32.371  15.824  -4.905  1.00 20.00    -0.389 OA
HETATM   10  H23 UNL     1     -32.131  16.199  -5.759  1.00 20.00     0.210 HD
ENDBRANCH   3   9
TORSDOF 2
ENDMDL
