MODEL 1
REMARK VINA RESULT:      -5.1      0.000      0.000
REMARK  4 active torsions:
REMARK  status: ('A' for Active; 'I' for Inactive)
REMARK    1  A    between atoms: C3_3  and  C5_5 
REMARK    2  A    between atoms: C3_3  and  O8_8 
REMARK    3  A    between atoms: C5_5  and  C6_6 
REMARK    4  A    between atoms: C6_6  and  C7_7 
ROOT
HETATM    1  C1  UNL     1     -32.252   5.685   3.167  1.00 20.00     0.045 A 
HETATM    2  C2  UNL     1     -32.011   7.159   3.362  1.00 20.00     0.019 A 
HETATM    3  C3  UNL     1     -33.226   6.505   3.975  1.00 20.00     0.062 A 
HETATM    4  C4  UNL     1     -32.126   8.096   2.208  1.00 20.00     0.013 C 
ENDROOT
BRANCH   3   5
HETATM    5  C5  UNL     1     -33.306   6.319   5.453  1.00 20.00     0.047 C 
BRANCH   5   6
HETATM    6  C6  UNL     1     -34.694   5.852   5.896  1.00 20.00     0.120 C 
BRANCH   6   7
HETATM    7  C7  UNL     1     -34.834   4.347   5.837  1.00 20.00     0.388 C 
HETATM    8  F9  UNL     1     -35.261   3.938   4.623  1.00 20.00    -0.171 F 
HETATM    9  F10 UNL     1     -33.660   3.733   6.096  1.00 20.00    -0.171 F 
HETATM   10  F11 UNL     1     -35.731   3.918   6.753  1.00 20.00    -0.171 F 
ENDBRANCH   6   7
ENDBRANCH   5   6
ENDBRANCH   3   5
BRANCH   3  11
HETATM   11  O8  UNL     1     -34.497   6.760   3.353  1.00 20.00    -0.389 OA
HETATM   12  H22 UNL     1     -35.129   6.860   4.076  1.00 20.00     0.210 HD
ENDBRANCH   3  11
TORSDOF 4
ENDMDL
MODEL 2
REMARK VINA RESULT:      -5.1      1.250      1.743
REMARK  4 active torsions:
REMARK  status: ('A' for Active; 'I' for Inactive)
REMARK    1  A    between atoms: C3_3  and  C5_5 
REMARK    2  A    between atoms: C3_3  and  O8_8 
REMARK    3  A    between atoms: C5_5  and  C6_6 
REMARK    4  A    between atoms: C6_6  and  C7_7 
ROOT
HETATM    1  C1  UNL     1     -31.593   7.631   3.758  1.00 20.00     0.045 A 
HETATM    2  C2  UNL     1     -32.392   8.138   2.586  1.00 20.00     0.019 A 
HETATM    3  C3  UNL     1     -32.691   6.780   3.173  1.00 20.00     0.062 A 
HETATM    4  C4  UNL     1     -31.749   8.286   1.249  1.00 20.00     0.013 C 
ENDROOT
BRANCH   3   5
HETATM    5  C5  UNL     1     -33.951   6.561   3.942  1.00 20.00     0.047 C 
BRANCH   5   6
HETATM    6  C6  UNL     1     -33.768   5.532   5.059  1.00 20.00     0.120 C 
BRANCH   6   7
HETATM    7  C7  UNL     1     -35.029   4.733   5.309  1.00 20.00     0.388 C 
HETATM    8  F9  UNL     1     -34.797   3.406   5.219  1.00 20.00    -0.171 F 
HETATM    9  F10 UNL     1     -35.537   4.987   6.532  1.00 20.00    -0.171 F 
HETATM   10  F11 UNL     1     -35.977   5.046   4.398  1.00 20.00    -0.171 F 
ENDBRANCH   6   7
ENDBRANCH   5   6
ENDBRANCH   3   5
BRANCH   3  11
HETATM   11  O8  UNL     1     -32.261   5.628   2.427  1.00 20.00    -0.389 OA
HETATM   12  H22 UNL     1     -33.057   5.104   2.269  1.00 20.00     0.210 HD
ENDBRANCH   3  11
TORSDOF 4
ENDMDL
MODEL 3
REMARK VINA RESULT:      -4.9      3.360      4.846
REMARK  4 active torsions:
REMARK  status: ('A' for Active; 'I' for Inactive)
REMARK    1  A    between atoms: C3_3  and  C5_5 
REMARK    2  A    between atoms: C3_3  and  O8_8 
REMARK    3  A    between atoms: C5_5  and  C6_6 
REMARK    4  A    between atoms: C6_6  and  C7_7 
ROOT
HETATM    1  C1  UNL     1     -34.120   6.475   5.941  1.00 20.00     0.045 A 
HETATM    2  C2  UNL     1     -34.017   4.984   5.755  1.00 20.00     0.019 A 
HETATM    3  C3  UNL     1     -33.960   5.900   4.557  1.00 20.00     0.062 A 
HETATM    4  C4  UNL     1     -35.198   4.113   6.018  1.00 20.00     0.013 C 
ENDROOT
BRANCH   3   5
HETATM    5  C5  UNL     1     -32.677   6.084   3.819  1.00 20.00     0.047 C 
BRANCH   5   6
HETATM    6  C6  UNL     1     -32.887   6.768   2.467  1.00 20.00     0.120 C 
BRANCH   6   7
HETATM    7  C7  UNL     1     -32.089   8.047   2.345  1.00 20.00     0.388 C 
HETATM    8  F9  UNL     1     -31.347   8.059   1.217  1.00 20.00    -0.171 F 
HETATM    9  F10 UNL     1     -32.894   9.130   2.328  1.00 20.00    -0.171 F 
HETATM   10  F11 UNL     1     -31.245   8.181   3.392  1.00 20.00    -0.171 F 
ENDBRANCH   6   7
ENDBRANCH   5   6
ENDBRANCH   3   5
BRANCH   3  11
HETATM   11  O8  UNL     1     -35.125   5.959   3.715  1.00 20.00    -0.389 OA
HETATM   12  H22 UNL     1     -34.803   5.860   2.811  1.00 20.00     0.210 HD
ENDBRANCH   3  11
TORSDOF 4
ENDMDL
MODEL 4
REMARK VINA RESULT:      -4.9      3.365      4.849
REMARK  4 active torsions:
REMARK  status: ('A' for Active; 'I' for Inactive)
REMARK    1  A    between atoms: C3_3  and  C5_5 
REMARK    2  A    between atoms: C3_3  and  O8_8 
REMARK    3  A    between atoms: C5_5  and  C6_6 
REMARK    4  A    between atoms: C6_6  and  C7_7 
ROOT
HETATM    1  C1  UNL     1     -34.095   6.480   5.924  1.00 20.00     0.045 A 
HETATM    2  C2  UNL     1     -34.003   4.987   5.751  1.00 20.00     0.019 A 
HETATM    3  C3  UNL     1     -33.950   5.892   4.544  1.00 20.00     0.062 A 
HETATM    4  C4  UNL     1     -35.187   4.126   6.031  1.00 20.00     0.013 C 
ENDROOT
BRANCH   3   5
HETATM    5  C5  UNL     1     -32.672   6.061   3.794  1.00 20.00     0.047 C 
BRANCH   5   6
HETATM    6  C6  UNL     1     -32.884   6.767   2.454  1.00 20.00     0.120 C 
BRANCH   6   7
HETATM    7  C7  UNL     1     -32.083   8.046   2.351  1.00 20.00     0.388 C 
HETATM    8  F9  UNL     1     -32.887   9.131   2.339  1.00 20.00    -0.171 F 
HETATM    9  F10 UNL     1     -31.224   8.174   3.383  1.00 20.00    -0.171 F 
HETATM   10  F11 UNL     1     -31.358   8.062   1.210  1.00 20.00    -0.171 F 
ENDBRANCH   6   7
ENDBRANCH   5   6
ENDBRANCH   3   5
BRANCH   3  11
HETATM   11  O8  UNL     1     -35.122   5.951   3.711  1.00 20.00    -0.389 OA
HETATM   12  H22 UNL     1     -35.421   6.869   3.742  1.00 20.00     0.210 HD
ENDBRANCH   3  11
TORSDOF 4
ENDMDL
MODEL 5
REMARK VINA RESULT:      -4.4     12.095     13.021
REMARK  4 active torsions:
REMARK  status: ('A' for Active; 'I' for Inactive)
REMARK    1  A    between atoms: C3_3  and  C5_5 
REMARK    2  A    between atoms: C3_3  and  O8_8 
REMARK    3  A    between atoms: C5_5  and  C6_6 
REMARK    4  A    between atoms: C6_6  and  C7_7 
ROOT
HETATM    1  C1  UNL     1     -33.724  18.168  -2.642  1.00 20.00     0.045 A 
HETATM    2  C2  UNL     1     -33.735  16.886  -1.851  1.00 20.00     0.019 A 
HETATM    3  C3  UNL     1     -34.198  16.890  -3.288  1.00 20.00     0.062 A 
HETATM    4  C4  UNL     1     -34.692  16.711  -0.722  1.00 20.00     0.013 C 
ENDROOT
BRANCH   3   5
HETATM    5  C5  UNL     1     -33.367  16.238  -4.341  1.00 20.00     0.047 C 
BRANCH   5   6
HETATM    6  C6  UNL     1     -34.084  15.045  -4.978  1.00 20.00     0.120 C 
BRANCH   6   7
HETATM    7  C7  UNL     1     -33.876  13.770  -4.192  1.00 20.00     0.388 C 
HETATM    8  F9  UNL     1     -34.063  12.679  -4.965  1.00 20.00    -0.171 F 
HETATM    9  F10 UNL     1     -32.631  13.707  -3.675  1.00 20.00    -0.171 F 
HETATM   10  F11 UNL     1     -34.750  13.698  -3.164  1.00 20.00    -0.171 F 
ENDBRANCH   6   7
ENDBRANCH   5   6
ENDBRANCH   3   5
BRANCH   3  11
HETATM   11  O8  UNL     1     -35.613  16.796  -3.526  1.00 20.00    -0.389 OA
HETATM   12  H22 UNL     1     -35.936  16.112  -2.927  1.00 20.00     0.210 HD
ENDBRANCH   3  11
TORSDOF 4
ENDMDL
MODEL 6
REMARK VINA RESULT:      -4.3      2.916      4.467
REMARK  4 active torsions:
REMARK  status: ('A' for Active; 'I' for Inactive)
REMARK    1  A    between atoms: C3_3  and  C5_5 
REMARK    2  A    between atoms: C3_3  and  O8_8 
REMARK    3  A    between atoms: C5_5  and  C6_6 
REMARK    4  A    between atoms: C6_6  and  C7_7 
ROOT
HETATM    1  C1  UNL     1     -34.458   6.270   5.621  1.00 20.00     0.045 A 
HETATM    2  C2  UNL     1     -34.227   4.782   5.568  1.00 20.00     0.019 A 
HETATM    3  C3  UNL     1     -34.787   5.503   4.365  1.00 20.00     0.062 A 
HETATM    4  C4  UNL     1     -35.066   3.864   6.390  1.00 20.00     0.013 C 
ENDROOT
BRANCH   3   5
HETATM    5  C5  UNL     1     -33.948   5.680   3.145  1.00 20.00     0.047 C 
BRANCH   5   6
HETATM    6  C6  UNL     1     -33.412   7.108   3.022  1.00 20.00     0.120 C 
BRANCH   6   7
HETATM    7  C7  UNL     1     -31.901   7.153   3.052  1.00 20.00     0.388 C 
HETATM    8  F9  UNL     1     -31.400   7.666   1.908  1.00 20.00    -0.171 F 
HETATM    9  F10 UNL     1     -31.451   7.905   4.079  1.00 20.00    -0.171 F 
HETATM   10  F11 UNL     1     -31.391   5.910   3.201  1.00 20.00    -0.171 F 
ENDBRANCH   6   7
ENDBRANCH   5   6
ENDBRANCH   3   5
BRANCH   3  11
HETATM   11  O8  UNL     1     -36.187   5.330   4.086  1.00 20.00    -0.389 OA
HETATM   12  H22 UNL     1     -36.501   6.187   3.770  1.00 20.00     0.210 HD
ENDBRANCH   3  11
TORSDOF 4
ENDMDL
MODEL 7
REMARK VINA RESULT:      -4.3     12.857     13.458
REMARK  4 active torsions:
REMARK  status: ('A' for Active; 'I' for Inactive)
REMARK    1  A    between atoms: C3_3  and  C5_5 
REMARK    2  A    between atoms: C3_3  and  O8_8 
REMARK    3  A    between atoms: C5_5  and  C6_6 
REMARK    4  A    between atoms: C6_6  and  C7_7 
ROOT
HETATM    1  C1  UNL     1     -34.346  16.928  -3.141  1.00 20.00     0.045 A 
HETATM    2  C2  UNL     1     -34.116  16.308  -1.788  1.00 20.00     0.019 A 
HETATM    3  C3  UNL     1     -34.912  15.565  -2.834  1.00 20.00     0.062 A 
HETATM    4  C4  UNL     1     -34.764  16.888  -0.578  1.00 20.00     0.013 C 
ENDROOT
BRANCH   3   5
HETATM    5  C5  UNL     1     -34.337  14.356  -3.490  1.00 20.00     0.047 C 
BRANCH   5   6
HETATM    6  C6  UNL     1     -35.266  13.792  -4.567  1.00 20.00     0.120 C 
BRANCH   6   7
HETATM    7  C7  UNL     1     -35.146  14.545  -5.873  1.00 20.00     0.388 C 
HETATM    8  F9  UNL     1     -33.930  15.115  -6.004  1.00 20.00    -0.171 F 
HETATM    9  F10 UNL     1     -35.343  13.730  -6.931  1.00 20.00    -0.171 F 
HETATM   10  F11 UNL     1     -36.069  15.530  -5.939  1.00 20.00    -0.171 F 
ENDBRANCH   6   7
ENDBRANCH   5   6
ENDBRANCH   3   5
BRANCH   3  11
HETATM   11  O8  UNL     1     -36.338  15.505  -2.658  1.00 20.00    -0.389 OA
HETATM   12  H22 UNL     1     -36.702  15.283  -3.525  1.00 20.00     0.210 HD
ENDBRANCH   3  11
TORSDOF 4
ENDMDL
MODEL 8
REMARK VINA RESULT:      -4.3     12.243     12.849
REMARK  4 active torsions:
REMARK  status: ('A' for Active; 'I' for Inactive)
REMARK    1  A    between atoms: C3_3  and  C5_5 
REMARK    2  A    between atoms: C3_3  and  O8_8 
REMARK    3  A    between atoms: C5_5  and  C6_6 
REMARK    4  A    between atoms: C6_6  and  C7_7 
ROOT
HETATM    1  C1  UNL     1     -34.247  17.605  -2.459  1.00 20.00     0.045 A 
HETATM    2  C2  UNL     1     -34.080  16.839  -1.173  1.00 20.00     0.019 A 
HETATM    3  C3  UNL     1     -34.704  16.171  -2.374  1.00 20.00     0.062 A 
HETATM    4  C4  UNL     1     -34.887  17.203   0.027  1.00 20.00     0.013 C 
ENDROOT
BRANCH   3   5
HETATM    5  C5  UNL     1     -33.958  15.109  -3.108  1.00 20.00     0.047 C 
BRANCH   5   6
HETATM    6  C6  UNL     1     -34.368  15.036  -4.581  1.00 20.00     0.120 C 
BRANCH   6   7
HETATM    7  C7  UNL     1     -34.825  13.649  -4.976  1.00 20.00     0.388 C 
HETATM    8  F9  UNL     1     -35.231  13.613  -6.263  1.00 20.00    -0.171 F 
HETATM    9  F10 UNL     1     -33.838  12.743  -4.824  1.00 20.00    -0.171 F 
HETATM   10  F11 UNL     1     -35.865  13.255  -4.208  1.00 20.00    -0.171 F 
ENDBRANCH   6   7
ENDBRANCH   5   6
ENDBRANCH   3   5
BRANCH   3  11
HETATM   11  O8  UNL     1     -36.128  15.968  -2.351  1.00 20.00    -0.389 OA
HETATM   12  H22 UNL     1     -36.437  16.164  -3.244  1.00 20.00     0.210 HD
ENDBRANCH   3  11
TORSDOF 4
ENDMDL
MODEL 9
REMARK VINA RESULT:      -4.3     12.555     13.784
REMARK  4 active torsions:
REMARK  status: ('A' for Active; 'I' for Inactive)
REMARK    1  A    between atoms: C3_3  and  C5_5 
REMARK    2  A    between atoms: C3_3  and  O8_8 
REMARK    3  A    between atoms: C5_5  and  C6_6 
REMARK    4  A    between atoms: C6_6  and  C7_7 
ROOT
HETATM    1  C1  UNL     1     -34.143  16.898  -6.545  1.00 20.00     0.045 A 
HETATM    2  C2  UNL     1     -34.873  15.822  -5.784  1.00 20.00     0.019 A 
HETATM    3  C3  UNL     1     -33.763  16.598  -5.116  1.00 20.00     0.062 A 
HETATM    4  C4  UNL     1     -34.706  14.390  -6.165  1.00 20.00     0.013 C 
ENDROOT
BRANCH   3   5
HETATM    5  C5  UNL     1     -34.083  17.581  -4.041  1.00 20.00     0.047 C 
BRANCH   5   6
HETATM    6  C6  UNL     1     -33.697  17.059  -2.656  1.00 20.00     0.120 C 
BRANCH   6   7
HETATM    7  C7  UNL     1     -34.720  16.089  -2.107  1.00 20.00     0.388 C 
HETATM    8  F9  UNL     1     -34.731  16.095  -0.757  1.00 20.00    -0.171 F 
HETATM    9  F10 UNL     1     -35.963  16.389  -2.536  1.00 20.00    -0.171 F 
HETATM   10  F11 UNL     1     -34.442  14.828  -2.509  1.00 20.00    -0.171 F 
ENDBRANCH   6   7
ENDBRANCH   5   6
ENDBRANCH   3   5
BRANCH   3  11
HETATM   11  O8  UNL     1     -32.506  15.925  -4.931  1.00 20.00    -0.389 OA
HETATM   12  H22 UNL     1     -31.934  16.231  -5.646  1.00 20.00     0.210 HD
ENDBRANCH   3  11
TORSDOF 4
ENDMDL
