MODEL 1
REMARK VINA RESULT:      -5.3      0.000      0.000
REMARK  3 active torsions:
REMARK  status: ('A' for Active; 'I' for Inactive)
REMARK    1  A    between atoms: C1_1  and  C7_7 
REMARK    2  A    between atoms: C1_1  and  C12_12 
REMARK    3  A    between atoms: C8_8  and  C13_13 
ROOT
HETATM    1  C2  UNL     1     -33.661  17.550  -4.452  1.00 20.00     0.001 C 
HETATM    2  C3  UNL     1     -34.946  16.852  -4.890  1.00 20.00     0.012 C 
HETATM    3  C4  UNL     1     -34.601  15.136  -2.957  1.00 20.00     0.012 C 
HETATM    4  C5  UNL     1     -33.790  18.242  -3.095  1.00 20.00     0.005 C 
HETATM    5  C6  UNL     1     -34.883  16.224  -1.923  1.00 20.00     0.006 C 
HETATM    6  C7  UNL     1     -35.135  15.429  -4.360  1.00 20.00     0.055 C 
HETATM    7  C8  UNL     1     -33.796  17.309  -1.877  1.00 20.00    -0.011 C 
ENDROOT
BRANCH   6   8
HETATM    8  C1  UNL     1     -34.503  14.453  -5.311  1.00 20.00     0.130 C 
HETATM    9  O14 UNL     1     -34.082  13.366  -4.917  1.00 20.00    -0.298 OA
BRANCH   8  10
HETATM   10  C12 UNL     1     -34.418  14.892  -6.761  1.00 20.00     0.074 C 
HETATM   11  C9  UNL     1     -35.582  14.389  -7.594  1.00 20.00     0.013 C 
ENDBRANCH   8  10
ENDBRANCH   6   8
BRANCH   7  12
HETATM   12  C13 UNL     1     -33.958  18.147  -0.603  1.00 20.00    -0.019 C 
HETATM   13  C10 UNL     1     -34.790  17.391   0.426  1.00 20.00     0.010 C 
HETATM   14  C11 UNL     1     -32.591  18.513  -0.033  1.00 20.00     0.010 C 
ENDBRANCH   7  12
TORSDOF 3
ENDMDL
MODEL 2
REMARK VINA RESULT:      -5.2      1.744      2.250
REMARK  3 active torsions:
REMARK  status: ('A' for Active; 'I' for Inactive)
REMARK    1  A    between atoms: C1_1  and  C7_7 
REMARK    2  A    between atoms: C1_1  and  C12_12 
REMARK    3  A    between atoms: C8_8  and  C13_13 
ROOT
HETATM    1  C2  UNL     1     -33.741  18.651  -3.054  1.00 20.00     0.001 C 
HETATM    2  C3  UNL     1     -35.162  18.120  -3.232  1.00 20.00     0.012 C 
HETATM    3  C4  UNL     1     -34.617  16.252  -1.496  1.00 20.00     0.012 C 
HETATM    4  C5  UNL     1     -33.500  19.260  -1.673  1.00 20.00     0.005 C 
HETATM    5  C6  UNL     1     -34.547  17.291  -0.379  1.00 20.00     0.006 C 
HETATM    6  C7  UNL     1     -35.398  16.692  -2.735  1.00 20.00     0.055 C 
HETATM    7  C8  UNL     1     -33.357  18.253  -0.524  1.00 20.00    -0.011 C 
ENDROOT
BRANCH   6   8
HETATM    8  C1  UNL     1     -35.097  15.721  -3.842  1.00 20.00     0.130 C 
HETATM    9  O14 UNL     1     -35.327  16.008  -5.017  1.00 20.00    -0.298 OA
BRANCH   8  10
HETATM   10  C12 UNL     1     -34.503  14.390  -3.421  1.00 20.00     0.074 C 
HETATM   11  C9  UNL     1     -34.847  13.266  -4.381  1.00 20.00     0.013 C 
ENDBRANCH   8  10
ENDBRANCH   6   8
BRANCH   7  12
HETATM   12  C13 UNL     1     -33.148  19.016   0.790  1.00 20.00    -0.019 C 
HETATM   13  C10 UNL     1     -33.999  18.405   1.898  1.00 20.00     0.010 C 
HETATM   14  C11 UNL     1     -31.673  19.014   1.175  1.00 20.00     0.010 C 
ENDBRANCH   7  12
TORSDOF 3
ENDMDL
MODEL 3
REMARK VINA RESULT:      -5.0      1.473      2.358
REMARK  3 active torsions:
REMARK  status: ('A' for Active; 'I' for Inactive)
REMARK    1  A    between atoms: C1_1  and  C7_7 
REMARK    2  A    between atoms: C1_1  and  C12_12 
REMARK    3  A    between atoms: C8_8  and  C13_13 
ROOT
HETATM    1  C2  UNL     1     -34.861  15.888  -2.014  1.00 20.00     0.001 C 
HETATM    2  C3  UNL     1     -33.766  15.752  -3.069  1.00 20.00     0.012 C 
HETATM    3  C4  UNL     1     -33.985  18.307  -3.539  1.00 20.00     0.012 C 
HETATM    4  C5  UNL     1     -34.417  16.694  -0.794  1.00 20.00     0.005 C 
HETATM    5  C6  UNL     1     -33.398  18.624  -2.165  1.00 20.00     0.006 C 
HETATM    6  C7  UNL     1     -33.667  16.908  -4.067  1.00 20.00     0.055 C 
HETATM    7  C8  UNL     1     -34.319  18.211  -1.006  1.00 20.00    -0.011 C 
ENDROOT
BRANCH   6   8
HETATM    8  C1  UNL     1     -34.569  16.637  -5.237  1.00 20.00     0.130 C 
HETATM    9  O14 UNL     1     -35.669  17.181  -5.330  1.00 20.00    -0.298 OA
BRANCH   8  10
HETATM   10  C12 UNL     1     -34.043  15.665  -6.276  1.00 20.00     0.074 C 
HETATM   11  C9  UNL     1     -34.864  14.391  -6.354  1.00 20.00     0.013 C 
ENDBRANCH   8  10
ENDBRANCH   6   8
BRANCH   7  12
HETATM   12  C13 UNL     1     -33.839  18.869   0.294  1.00 20.00    -0.019 C 
HETATM   13  C10 UNL     1     -34.415  18.138   1.502  1.00 20.00     0.010 C 
HETATM   14  C11 UNL     1     -32.315  18.888   0.346  1.00 20.00     0.010 C 
ENDBRANCH   7  12
TORSDOF 3
ENDMDL
MODEL 4
REMARK VINA RESULT:      -5.0      1.419      2.214
REMARK  3 active torsions:
REMARK  status: ('A' for Active; 'I' for Inactive)
REMARK    1  A    between atoms: C1_1  and  C7_7 
REMARK    2  A    between atoms: C1_1  and  C12_12 
REMARK    3  A    between atoms: C8_8  and  C13_13 
ROOT
HETATM    1  C2  UNL     1     -36.292  15.931  -3.776  1.00 20.00     0.001 C 
HETATM    2  C3  UNL     1     -35.762  14.593  -4.286  1.00 20.00     0.012 C 
HETATM    3  C4  UNL     1     -33.452  15.733  -4.695  1.00 20.00     0.012 C 
HETATM    4  C5  UNL     1     -35.664  16.355  -2.449  1.00 20.00     0.005 C 
HETATM    5  C6  UNL     1     -33.242  15.878  -3.190  1.00 20.00     0.006 C 
HETATM    6  C7  UNL     1     -34.469  14.666  -5.102  1.00 20.00     0.055 C 
HETATM    7  C8  UNL     1     -34.220  16.867  -2.536  1.00 20.00    -0.011 C 
ENDROOT
BRANCH   6   8
HETATM    8  C1  UNL     1     -34.804  14.873  -6.552  1.00 20.00     0.130 C 
HETATM    9  O14 UNL     1     -35.353  13.989  -7.209  1.00 20.00    -0.298 OA
BRANCH   8  10
HETATM   10  C12 UNL     1     -34.425  16.220  -7.140  1.00 20.00     0.074 C 
HETATM   11  C9  UNL     1     -35.619  17.138  -7.318  1.00 20.00     0.013 C 
ENDBRANCH   8  10
ENDBRANCH   6   8
BRANCH   7  12
HETATM   12  C13 UNL     1     -33.728  17.224  -1.128  1.00 20.00    -0.019 C 
HETATM   13  C10 UNL     1     -33.198  18.654  -1.100  1.00 20.00     0.010 C 
HETATM   14  C11 UNL     1     -34.850  17.041  -0.112  1.00 20.00     0.010 C 
ENDBRANCH   7  12
TORSDOF 3
ENDMDL
MODEL 5
REMARK VINA RESULT:      -5.0      1.509      2.678
REMARK  3 active torsions:
REMARK  status: ('A' for Active; 'I' for Inactive)
REMARK    1  A    between atoms: C1_1  and  C7_7 
REMARK    2  A    between atoms: C1_1  and  C12_12 
REMARK    3  A    between atoms: C8_8  and  C13_13 
ROOT
HETATM    1  C2  UNL     1     -35.519  14.433  -3.832  1.00 20.00     0.001 C 
HETATM    2  C3  UNL     1     -34.578  14.091  -4.984  1.00 20.00     0.012 C 
HETATM    3  C4  UNL     1     -34.374  16.639  -5.495  1.00 20.00     0.012 C 
HETATM    4  C5  UNL     1     -34.816  15.153  -2.681  1.00 20.00     0.005 C 
HETATM    5  C6  UNL     1     -33.605  16.853  -4.193  1.00 20.00     0.006 C 
HETATM    6  C7  UNL     1     -34.370  15.202  -6.016  1.00 20.00     0.055 C 
HETATM    7  C8  UNL     1     -34.465  16.624  -2.940  1.00 20.00    -0.011 C 
ENDROOT
BRANCH   6   8
HETATM    8  C1  UNL     1     -35.418  15.093  -7.086  1.00 20.00     0.130 C 
HETATM    9  O14 UNL     1     -35.385  14.185  -7.917  1.00 20.00    -0.298 OA
BRANCH   8  10
HETATM   10  C12 UNL     1     -36.499  16.159  -7.075  1.00 20.00     0.074 C 
HETATM   11  C9  UNL     1     -37.842  15.625  -6.614  1.00 20.00     0.013 C 
ENDBRANCH   8  10
ENDBRANCH   6   8
BRANCH   7  12
HETATM   12  C13 UNL     1     -33.746  17.193  -1.710  1.00 20.00    -0.019 C 
HETATM   13  C10 UNL     1     -33.480  18.683  -1.895  1.00 20.00     0.010 C 
HETATM   14  C11 UNL     1     -34.569  16.941  -0.452  1.00 20.00     0.010 C 
ENDBRANCH   7  12
TORSDOF 3
ENDMDL
MODEL 6
REMARK VINA RESULT:      -4.9      1.490      2.248
REMARK  3 active torsions:
REMARK  status: ('A' for Active; 'I' for Inactive)
REMARK    1  A    between atoms: C1_1  and  C7_7 
REMARK    2  A    between atoms: C1_1  and  C12_12 
REMARK    3  A    between atoms: C8_8  and  C13_13 
ROOT
HETATM    1  C2  UNL     1     -34.706  15.466  -2.716  1.00 20.00     0.001 C 
HETATM    2  C3  UNL     1     -33.531  15.546  -3.687  1.00 20.00     0.012 C 
HETATM    3  C4  UNL     1     -34.100  18.060  -4.074  1.00 20.00     0.012 C 
HETATM    4  C5  UNL     1     -34.478  16.268  -1.435  1.00 20.00     0.005 C 
HETATM    5  C6  UNL     1     -33.667  18.393  -2.648  1.00 20.00     0.006 C 
HETATM    6  C7  UNL     1     -33.537  16.752  -4.629  1.00 20.00     0.055 C 
HETATM    7  C8  UNL     1     -34.595  17.791  -1.581  1.00 20.00    -0.011 C 
ENDROOT
BRANCH   6   8
HETATM    8  C1  UNL     1     -34.302  16.408  -5.876  1.00 20.00     0.130 C 
HETATM    9  O14 UNL     1     -33.835  15.639  -6.715  1.00 20.00    -0.298 OA
BRANCH   8  10
HETATM   10  C12 UNL     1     -35.663  17.064  -6.027  1.00 20.00     0.074 C 
HETATM   11  C9  UNL     1     -36.808  16.101  -5.773  1.00 20.00     0.013 C 
ENDBRANCH   8  10
ENDBRANCH   6   8
BRANCH   7  12
HETATM   12  C13 UNL     1     -34.313  18.448  -0.223  1.00 20.00    -0.019 C 
HETATM   13  C10 UNL     1     -34.957  17.641   0.899  1.00 20.00     0.010 C 
HETATM   14  C11 UNL     1     -32.811  18.584  -0.002  1.00 20.00     0.010 C 
ENDBRANCH   7  12
TORSDOF 3
ENDMDL
MODEL 7
REMARK VINA RESULT:      -4.8      1.697      2.268
REMARK  3 active torsions:
REMARK  status: ('A' for Active; 'I' for Inactive)
REMARK    1  A    between atoms: C1_1  and  C7_7 
REMARK    2  A    between atoms: C1_1  and  C12_12 
REMARK    3  A    between atoms: C8_8  and  C13_13 
ROOT
HETATM    1  C2  UNL     1     -36.366  17.314  -3.331  1.00 20.00     0.001 C 
HETATM    2  C3  UNL     1     -36.026  15.826  -3.372  1.00 20.00     0.012 C 
HETATM    3  C4  UNL     1     -33.784  16.367  -2.156  1.00 20.00     0.012 C 
HETATM    4  C5  UNL     1     -36.637  17.825  -1.916  1.00 20.00     0.005 C 
HETATM    5  C6  UNL     1     -34.545  16.728  -0.883  1.00 20.00     0.006 C 
HETATM    6  C7  UNL     1     -34.554  15.481  -3.136  1.00 20.00     0.055 C 
HETATM    7  C8  UNL     1     -35.396  18.000  -1.030  1.00 20.00    -0.011 C 
ENDROOT
BRANCH   6   8
HETATM    8  C1  UNL     1     -33.820  15.494  -4.448  1.00 20.00     0.130 C 
HETATM    9  O14 UNL     1     -32.797  16.161  -4.596  1.00 20.00    -0.298 OA
BRANCH   8  10
HETATM   10  C12 UNL     1     -34.419  14.647  -5.556  1.00 20.00     0.074 C 
HETATM   11  C9  UNL     1     -34.319  15.311  -6.917  1.00 20.00     0.013 C 
ENDBRANCH   8  10
ENDBRANCH   6   8
BRANCH   7  12
HETATM   12  C13 UNL     1     -35.835  18.490   0.356  1.00 20.00    -0.019 C 
HETATM   13  C10 UNL     1     -37.354  18.594   0.424  1.00 20.00     0.010 C 
HETATM   14  C11 UNL     1     -35.305  17.556   1.439  1.00 20.00     0.010 C 
ENDBRANCH   7  12
TORSDOF 3
ENDMDL
MODEL 8
REMARK VINA RESULT:      -4.8      2.384      5.667
REMARK  3 active torsions:
REMARK  status: ('A' for Active; 'I' for Inactive)
REMARK    1  A    between atoms: C1_1  and  C7_7 
REMARK    2  A    between atoms: C1_1  and  C12_12 
REMARK    3  A    between atoms: C8_8  and  C13_13 
ROOT
HETATM    1  C2  UNL     1     -34.980  18.507  -3.219  1.00 20.00     0.001 C 
HETATM    2  C3  UNL     1     -33.689  18.437  -2.407  1.00 20.00     0.012 C 
HETATM    3  C4  UNL     1     -34.564  16.233  -1.321  1.00 20.00     0.012 C 
HETATM    4  C5  UNL     1     -35.087  17.402  -4.269  1.00 20.00     0.005 C 
HETATM    5  C6  UNL     1     -34.423  15.504  -2.655  1.00 20.00     0.006 C 
HETATM    6  C7  UNL     1     -33.726  17.506  -1.193  1.00 20.00     0.055 C 
HETATM    7  C8  UNL     1     -35.409  16.004  -3.723  1.00 20.00    -0.011 C 
ENDROOT
BRANCH   6   8
HETATM    8  C1  UNL     1     -34.218  18.266   0.006  1.00 20.00     0.130 C 
HETATM    9  O14 UNL     1     -33.622  19.263   0.413  1.00 20.00    -0.298 OA
BRANCH   8  10
HETATM   10  C12 UNL     1     -35.473  17.731   0.668  1.00 20.00     0.074 C 
HETATM   11  C9  UNL     1     -35.343  17.634   2.177  1.00 20.00     0.013 C 
ENDBRANCH   8  10
ENDBRANCH   6   8
BRANCH   7  12
HETATM   12  C13 UNL     1     -35.455  15.008  -4.889  1.00 20.00    -0.019 C 
HETATM   13  C10 UNL     1     -34.376  15.343  -5.913  1.00 20.00     0.010 C 
HETATM   14  C11 UNL     1     -35.291  13.582  -4.374  1.00 20.00     0.010 C 
ENDBRANCH   7  12
TORSDOF 3
ENDMDL
MODEL 9
REMARK VINA RESULT:      -4.8      1.901      5.726
REMARK  3 active torsions:
REMARK  status: ('A' for Active; 'I' for Inactive)
REMARK    1  A    between atoms: C1_1  and  C7_7 
REMARK    2  A    between atoms: C1_1  and  C12_12 
REMARK    3  A    between atoms: C8_8  and  C13_13 
ROOT
HETATM    1  C2  UNL     1     -33.900  14.860  -3.321  1.00 20.00     0.001 C 
HETATM    2  C3  UNL     1     -35.064  15.552  -2.615  1.00 20.00     0.012 C 
HETATM    3  C4  UNL     1     -34.505  17.721  -3.950  1.00 20.00     0.012 C 
HETATM    4  C5  UNL     1     -34.149  14.646  -4.813  1.00 20.00     0.005 C 
HETATM    5  C6  UNL     1     -34.958  17.055  -5.248  1.00 20.00     0.006 C 
HETATM    6  C7  UNL     1     -35.054  17.081  -2.674  1.00 20.00     0.055 C 
HETATM    7  C8  UNL     1     -34.039  15.903  -5.687  1.00 20.00    -0.011 C 
ENDROOT
BRANCH   6   8
HETATM    8  C1  UNL     1     -34.272  17.621  -1.510  1.00 20.00     0.130 C 
HETATM    9  O14 UNL     1     -33.355  18.424  -1.680  1.00 20.00    -0.298 OA
BRANCH   8  10
HETATM   10  C12 UNL     1     -34.679  17.116  -0.139  1.00 20.00     0.074 C 
HETATM   11  C9  UNL     1     -34.389  18.117   0.964  1.00 20.00     0.013 C 
ENDBRANCH   8  10
ENDBRANCH   6   8
BRANCH   7  12
HETATM   12  C13 UNL     1     -34.341  15.531  -7.144  1.00 20.00    -0.019 C 
HETATM   13  C10 UNL     1     -35.361  14.399  -7.200  1.00 20.00     0.010 C 
HETATM   14  C11 UNL     1     -34.840  16.751  -7.910  1.00 20.00     0.010 C 
ENDBRANCH   7  12
TORSDOF 3
ENDMDL
