MODEL 1
REMARK VINA RESULT:      -4.2      0.000      0.000
REMARK  2 active torsions:
REMARK  status: ('A' for Active; 'I' for Inactive)
REMARK    1  A    between atoms: C4_4  and  C7_7 
REMARK    2  A    between atoms: C7_7  and  C8_8 
ROOT
HETATM    1  C1  UNL     1     -34.575  15.031  -5.321  1.00 20.00     0.034 C 
HETATM    2  C2  UNL     1     -34.792  13.583  -5.710  1.00 20.00     0.168 C 
HETATM    3  C3  UNL     1     -34.344  13.669  -3.425  1.00 20.00     0.173 C 
HETATM    4  C4  UNL     1     -33.722  14.890  -4.080  1.00 20.00     0.026 C 
HETATM    5  O9  UNL     1     -34.800  12.823  -4.493  1.00 20.00    -0.391 OA
ENDROOT
BRANCH   4   6
HETATM    6  C7  UNL     1     -33.707  16.119  -3.193  1.00 20.00     0.067 C 
HETATM    7 BR10 UNL     1     -33.668  17.715  -4.344  1.00 20.00    -0.090 Br
BRANCH   6   8
HETATM    8  C8  UNL     1     -34.858  16.233  -2.173  1.00 20.00    -0.008 C 
HETATM    9  C5  UNL     1     -35.947  17.181  -2.689  1.00 20.00     0.011 C 
HETATM   10  C6  UNL     1     -34.418  16.665  -0.793  1.00 20.00     0.011 C 
ENDBRANCH   6   8
ENDBRANCH   4   6
TORSDOF 2
ENDMDL
MODEL 2
REMARK VINA RESULT:      -4.2      2.432      4.381
REMARK  2 active torsions:
REMARK  status: ('A' for Active; 'I' for Inactive)
REMARK    1  A    between atoms: C4_4  and  C7_7 
REMARK    2  A    between atoms: C7_7  and  C8_8 
ROOT
HETATM    1  C1  UNL     1     -34.580  16.620  -0.879  1.00 20.00     0.034 C 
HETATM    2  C2  UNL     1     -33.753  17.847  -0.556  1.00 20.00     0.168 C 
HETATM    3  C3  UNL     1     -33.861  17.625  -2.873  1.00 20.00     0.173 C 
HETATM    4  C4  UNL     1     -34.061  16.254  -2.251  1.00 20.00     0.026 C 
HETATM    5  O9  UNL     1     -33.481  18.504  -1.802  1.00 20.00    -0.391 OA
ENDROOT
BRANCH   4   6
HETATM    6  C7  UNL     1     -34.987  15.352  -3.046  1.00 20.00     0.067 C 
HETATM    7 BR10 UNL     1     -35.577  16.328  -4.650  1.00 20.00    -0.090 Br
BRANCH   6   8
HETATM    8  C8  UNL     1     -34.415  13.978  -3.446  1.00 20.00    -0.008 C 
HETATM    9  C5  UNL     1     -32.892  14.053  -3.616  1.00 20.00     0.011 C 
HETATM   10  C6  UNL     1     -35.038  13.389  -4.691  1.00 20.00     0.011 C 
ENDBRANCH   6   8
ENDBRANCH   4   6
TORSDOF 2
ENDMDL
MODEL 3
REMARK VINA RESULT:      -4.1      2.529      4.362
REMARK  2 active torsions:
REMARK  status: ('A' for Active; 'I' for Inactive)
REMARK    1  A    between atoms: C4_4  and  C7_7 
REMARK    2  A    between atoms: C7_7  and  C8_8 
ROOT
HETATM    1  C1  UNL     1     -34.591  16.726  -0.736  1.00 20.00     0.034 C 
HETATM    2  C2  UNL     1     -33.747  17.940  -0.409  1.00 20.00     0.168 C 
HETATM    3  C3  UNL     1     -33.820  17.702  -2.725  1.00 20.00     0.173 C 
HETATM    4  C4  UNL     1     -34.057  16.339  -2.097  1.00 20.00     0.026 C 
HETATM    5  O9  UNL     1     -33.442  18.583  -1.655  1.00 20.00    -0.391 OA
ENDROOT
BRANCH   4   6
HETATM    6  C7  UNL     1     -34.985  15.449  -2.900  1.00 20.00     0.067 C 
HETATM    7 BR10 UNL     1     -36.359  16.581  -3.738  1.00 20.00    -0.090 Br
BRANCH   6   8
HETATM    8  C8  UNL     1     -34.316  14.557  -3.964  1.00 20.00    -0.008 C 
HETATM    9  C5  UNL     1     -35.191  13.335  -4.275  1.00 20.00     0.011 C 
HETATM   10  C6  UNL     1     -32.921  14.105  -3.601  1.00 20.00     0.011 C 
ENDBRANCH   6   8
ENDBRANCH   4   6
TORSDOF 2
ENDMDL
MODEL 4
REMARK VINA RESULT:      -4.1      1.507      2.012
REMARK  2 active torsions:
REMARK  status: ('A' for Active; 'I' for Inactive)
REMARK    1  A    between atoms: C4_4  and  C7_7 
REMARK    2  A    between atoms: C7_7  and  C8_8 
ROOT
HETATM    1  C1  UNL     1     -33.315  14.883  -3.759  1.00 20.00     0.034 C 
HETATM    2  C2  UNL     1     -33.982  13.583  -4.158  1.00 20.00     0.168 C 
HETATM    3  C3  UNL     1     -35.625  15.039  -3.378  1.00 20.00     0.173 C 
HETATM    4  C4  UNL     1     -34.299  15.434  -2.751  1.00 20.00     0.026 C 
HETATM    5  O9  UNL     1     -35.398  13.794  -4.057  1.00 20.00    -0.391 OA
ENDROOT
BRANCH   4   6
HETATM    6  C7  UNL     1     -34.161  16.924  -2.499  1.00 20.00     0.067 C 
HETATM    7 BR10 UNL     1     -35.878  17.786  -2.928  1.00 20.00    -0.090 Br
BRANCH   6   8
HETATM    8  C8  UNL     1     -33.705  17.332  -1.084  1.00 20.00    -0.008 C 
HETATM    9  C5  UNL     1     -34.834  17.117  -0.068  1.00 20.00     0.011 C 
HETATM   10  C6  UNL     1     -33.195  18.751  -0.987  1.00 20.00     0.011 C 
ENDBRANCH   6   8
ENDBRANCH   4   6
TORSDOF 2
ENDMDL
MODEL 5
REMARK VINA RESULT:      -3.8      1.865      2.383
REMARK  2 active torsions:
REMARK  status: ('A' for Active; 'I' for Inactive)
REMARK    1  A    between atoms: C4_4  and  C7_7 
REMARK    2  A    between atoms: C7_7  and  C8_8 
ROOT
HETATM    1  C1  UNL     1     -33.610  14.626  -3.852  1.00 20.00     0.034 C 
HETATM    2  C2  UNL     1     -33.897  13.229  -4.363  1.00 20.00     0.168 C 
HETATM    3  C3  UNL     1     -35.930  14.278  -3.916  1.00 20.00     0.173 C 
HETATM    4  C4  UNL     1     -34.859  14.922  -3.052  1.00 20.00     0.026 C 
HETATM    5  O9  UNL     1     -35.319  13.133  -4.533  1.00 20.00    -0.391 OA
ENDROOT
BRANCH   4   6
HETATM    6  C7  UNL     1     -35.093  16.396  -2.787  1.00 20.00     0.067 C 
HETATM    7 BR10 UNL     1     -34.588  16.779  -0.923  1.00 20.00    -0.090 Br
BRANCH   6   8
HETATM    8  C8  UNL     1     -34.380  17.378  -3.738  1.00 20.00    -0.008 C 
HETATM    9  C5  UNL     1     -33.785  18.555  -2.956  1.00 20.00     0.011 C 
HETATM   10  C6  UNL     1     -35.255  17.898  -4.855  1.00 20.00     0.011 C 
ENDBRANCH   6   8
ENDBRANCH   4   6
TORSDOF 2
ENDMDL
MODEL 6
REMARK VINA RESULT:      -3.8      1.988      2.911
REMARK  2 active torsions:
REMARK  status: ('A' for Active; 'I' for Inactive)
REMARK    1  A    between atoms: C4_4  and  C7_7 
REMARK    2  A    between atoms: C7_7  and  C8_8 
ROOT
HETATM    1  C1  UNL     1     -34.444  14.882  -7.227  1.00 20.00     0.034 C 
HETATM    2  C2  UNL     1     -35.848  14.837  -7.793  1.00 20.00     0.168 C 
HETATM    3  C3  UNL     1     -35.802  16.410  -6.075  1.00 20.00     0.173 C 
HETATM    4  C4  UNL     1     -34.695  15.399  -5.828  1.00 20.00     0.026 C 
HETATM    5  O9  UNL     1     -36.584  15.897  -7.166  1.00 20.00    -0.391 OA
ENDROOT
BRANCH   4   6
HETATM    6  C7  UNL     1     -33.471  15.986  -5.153  1.00 20.00     0.067 C 
HETATM    7 BR10 UNL     1     -33.734  17.928  -4.971  1.00 20.00    -0.090 Br
BRANCH   6   8
HETATM    8  C8  UNL     1     -33.090  15.376  -3.789  1.00 20.00    -0.008 C 
HETATM    9  C5  UNL     1     -33.423  13.879  -3.754  1.00 20.00     0.011 C 
HETATM   10  C6  UNL     1     -33.727  16.067  -2.605  1.00 20.00     0.011 C 
ENDBRANCH   6   8
ENDBRANCH   4   6
TORSDOF 2
ENDMDL
MODEL 7
REMARK VINA RESULT:      -3.8      2.875      3.873
REMARK  2 active torsions:
REMARK  status: ('A' for Active; 'I' for Inactive)
REMARK    1  A    between atoms: C4_4  and  C7_7 
REMARK    2  A    between atoms: C7_7  and  C8_8 
ROOT
HETATM    1  C1  UNL     1     -33.380  16.940  -5.283  1.00 20.00     0.034 C 
HETATM    2  C2  UNL     1     -33.607  18.313  -5.880  1.00 20.00     0.168 C 
HETATM    3  C3  UNL     1     -34.106  18.413  -3.606  1.00 20.00     0.173 C 
HETATM    4  C4  UNL     1     -34.288  16.979  -4.074  1.00 20.00     0.026 C 
HETATM    5  O9  UNL     1     -33.889  19.200  -4.788  1.00 20.00    -0.391 OA
ENDROOT
BRANCH   4   6
HETATM    6  C7  UNL     1     -33.958  15.944  -3.015  1.00 20.00     0.067 C 
HETATM    7 BR10 UNL     1     -34.482  16.664  -1.260  1.00 20.00    -0.090 Br
BRANCH   6   8
HETATM    8  C8  UNL     1     -34.576  14.546  -3.217  1.00 20.00    -0.008 C 
HETATM    9  C5  UNL     1     -33.567  13.600  -3.881  1.00 20.00     0.011 C 
HETATM   10  C6  UNL     1     -35.865  14.551  -4.006  1.00 20.00     0.011 C 
ENDBRANCH   6   8
ENDBRANCH   4   6
TORSDOF 2
ENDMDL
MODEL 8
REMARK VINA RESULT:      -3.8      2.330      4.241
REMARK  2 active torsions:
REMARK  status: ('A' for Active; 'I' for Inactive)
REMARK    1  A    between atoms: C4_4  and  C7_7 
REMARK    2  A    between atoms: C7_7  and  C8_8 
ROOT
HETATM    1  C1  UNL     1     -34.525  16.449  -1.198  1.00 20.00     0.034 C 
HETATM    2  C2  UNL     1     -35.154  17.472  -0.274  1.00 20.00     0.168 C 
HETATM    3  C3  UNL     1     -36.178  17.642  -2.360  1.00 20.00     0.173 C 
HETATM    4  C4  UNL     1     -34.788  17.061  -2.556  1.00 20.00     0.026 C 
HETATM    5  O9  UNL     1     -36.257  18.052  -0.986  1.00 20.00    -0.391 OA
ENDROOT
BRANCH   4   6
HETATM    6  C7  UNL     1     -34.692  16.081  -3.709  1.00 20.00     0.067 C 
HETATM    7 BR10 UNL     1     -33.459  16.821  -5.052  1.00 20.00    -0.090 Br
BRANCH   6   8
HETATM    8  C8  UNL     1     -34.272  14.643  -3.343  1.00 20.00    -0.008 C 
HETATM    9  C5  UNL     1     -32.786  14.419  -3.650  1.00 20.00     0.011 C 
HETATM   10  C6  UNL     1     -35.098  13.570  -4.014  1.00 20.00     0.011 C 
ENDBRANCH   6   8
ENDBRANCH   4   6
TORSDOF 2
ENDMDL
MODEL 9
REMARK VINA RESULT:      -3.7      2.350      2.797
REMARK  2 active torsions:
REMARK  status: ('A' for Active; 'I' for Inactive)
REMARK    1  A    between atoms: C4_4  and  C7_7 
REMARK    2  A    between atoms: C7_7  and  C8_8 
ROOT
HETATM    1  C1  UNL     1     -37.283  15.261  -3.805  1.00 20.00     0.034 C 
HETATM    2  C2  UNL     1     -37.921  15.398  -5.172  1.00 20.00     0.168 C 
HETATM    3  C3  UNL     1     -35.658  14.930  -5.465  1.00 20.00     0.173 C 
HETATM    4  C4  UNL     1     -35.838  15.589  -4.108  1.00 20.00     0.026 C 
HETATM    5  O9  UNL     1     -36.924  15.029  -6.135  1.00 20.00    -0.391 OA
ENDROOT
BRANCH   4   6
HETATM    6  C7  UNL     1     -34.857  15.105  -3.058  1.00 20.00     0.067 C 
HETATM    7 BR10 UNL     1     -33.678  13.762  -3.883  1.00 20.00    -0.090 Br
BRANCH   6   8
HETATM    8  C8  UNL     1     -34.012  16.193  -2.366  1.00 20.00    -0.008 C 
HETATM    9  C5  UNL     1     -34.622  16.571  -1.010  1.00 20.00     0.011 C 
HETATM   10  C6  UNL     1     -33.810  17.439  -3.198  1.00 20.00     0.011 C 
ENDBRANCH   6   8
ENDBRANCH   4   6
TORSDOF 2
ENDMDL
