MODEL 1
REMARK VINA RESULT:      -4.8      0.000      0.000
REMARK  4 active torsions:
REMARK  status: ('A' for Active; 'I' for Inactive)
REMARK    1  A    between atoms: C6_6  and  C7_7 
REMARK    2  A    between atoms: C6_6  and  C9_9 
REMARK    3  A    between atoms: C8_8  and  C10_10 
REMARK    4  A    between atoms: C9_9  and  C10_10 
ROOT
HETATM    1  C5  UNL     1     -32.043   5.334   3.240  1.00 20.00     0.011 C 
HETATM    2  C9  UNL     1     -33.027   6.493   3.013  1.00 20.00     0.001 C 
ENDROOT
BRANCH   2   3
HETATM    3  C6  UNL     1     -32.292   7.852   2.918  1.00 20.00     0.009 C 
BRANCH   3   4
HETATM    4  C7  UNL     1     -32.563   8.677   1.640  1.00 20.00    -0.022 C 
HETATM    5  C1  UNL     1     -31.442   8.542   0.609  1.00 20.00     0.009 C 
HETATM    6  C2  UNL     1     -32.744  10.153   2.011  1.00 20.00     0.009 C 
ENDBRANCH   3   4
ENDBRANCH   2   3
BRANCH   2   7
HETATM    7  C10 UNL     1     -34.157   6.489   4.088  1.00 20.00     0.089 C 
HETATM    8 CL11 UNL     1     -35.615   5.640   3.445  1.00 20.00    -0.124 Cl
BRANCH   7   9
HETATM    9  C8  UNL     1     -33.770   5.899   5.473  1.00 20.00    -0.004 C 
HETATM   10  C3  UNL     1     -34.751   4.815   5.941  1.00 20.00     0.011 C 
HETATM   11  C4  UNL     1     -33.704   6.986   6.558  1.00 20.00     0.011 C 
ENDBRANCH   7   9
ENDBRANCH   2   7
TORSDOF 4
ENDMDL
MODEL 2
REMARK VINA RESULT:      -4.5     10.743     12.021
REMARK  4 active torsions:
REMARK  status: ('A' for Active; 'I' for Inactive)
REMARK    1  A    between atoms: C6_6  and  C7_7 
REMARK    2  A    between atoms: C6_6  and  C9_9 
REMARK    3  A    between atoms: C8_8  and  C10_10 
REMARK    4  A    between atoms: C9_9  and  C10_10 
ROOT
HETATM    1  C5  UNL     1     -36.542  14.782  -3.834  1.00 20.00     0.011 C 
HETATM    2  C9  UNL     1     -35.102  15.079  -4.284  1.00 20.00     0.001 C 
ENDROOT
BRANCH   2   3
HETATM    3  C6  UNL     1     -34.672  14.162  -5.455  1.00 20.00     0.009 C 
BRANCH   3   4
HETATM    4  C7  UNL     1     -34.434  14.867  -6.809  1.00 20.00    -0.022 C 
HETATM    5  C1  UNL     1     -34.354  16.388  -6.670  1.00 20.00     0.009 C 
HETATM    6  C2  UNL     1     -35.557  14.498  -7.784  1.00 20.00     0.009 C 
ENDBRANCH   3   4
ENDBRANCH   2   3
BRANCH   2   7
HETATM    7  C10 UNL     1     -34.115  15.024  -3.077  1.00 20.00     0.089 C 
HETATM    8 CL11 UNL     1     -32.550  14.289  -3.595  1.00 20.00    -0.124 Cl
BRANCH   7   9
HETATM    9  C8  UNL     1     -33.852  16.376  -2.357  1.00 20.00    -0.004 C 
HETATM   10  C3  UNL     1     -34.677  16.522  -1.071  1.00 20.00     0.011 C 
HETATM   11  C4  UNL     1     -34.164  17.576  -3.266  1.00 20.00     0.011 C 
ENDBRANCH   7   9
ENDBRANCH   2   7
TORSDOF 4
ENDMDL
MODEL 3
REMARK VINA RESULT:      -4.4     10.282     12.110
REMARK  4 active torsions:
REMARK  status: ('A' for Active; 'I' for Inactive)
REMARK    1  A    between atoms: C6_6  and  C7_7 
REMARK    2  A    between atoms: C6_6  and  C9_9 
REMARK    3  A    between atoms: C8_8  and  C10_10 
REMARK    4  A    between atoms: C9_9  and  C10_10 
ROOT
HETATM    1  C5  UNL     1     -33.302  13.638  -3.730  1.00 20.00     0.011 C 
HETATM    2  C9  UNL     1     -34.257  14.825  -3.940  1.00 20.00     0.001 C 
ENDROOT
BRANCH   2   3
HETATM    3  C6  UNL     1     -34.813  15.351  -2.594  1.00 20.00     0.009 C 
BRANCH   3   4
HETATM    4  C7  UNL     1     -34.008  16.491  -1.932  1.00 20.00    -0.022 C 
HETATM    5  C1  UNL     1     -34.589  16.909  -0.581  1.00 20.00     0.009 C 
HETATM    6  C2  UNL     1     -33.966  17.701  -2.870  1.00 20.00     0.009 C 
ENDBRANCH   3   4
ENDBRANCH   2   3
BRANCH   2   7
HETATM    7  C10 UNL     1     -35.379  14.468  -4.962  1.00 20.00     0.089 C 
HETATM    8 CL11 UNL     1     -36.994  14.563  -4.161  1.00 20.00    -0.124 Cl
BRANCH   7   9
HETATM    9  C8  UNL     1     -35.389  15.302  -6.274  1.00 20.00    -0.004 C 
HETATM   10  C3  UNL     1     -35.440  14.418  -7.527  1.00 20.00     0.011 C 
HETATM   11  C4  UNL     1     -34.154  16.213  -6.379  1.00 20.00     0.011 C 
ENDBRANCH   7   9
ENDBRANCH   2   7
TORSDOF 4
ENDMDL
MODEL 4
REMARK VINA RESULT:      -4.4      1.054      1.791
REMARK  4 active torsions:
REMARK  status: ('A' for Active; 'I' for Inactive)
REMARK    1  A    between atoms: C6_6  and  C7_7 
REMARK    2  A    between atoms: C6_6  and  C9_9 
REMARK    3  A    between atoms: C8_8  and  C10_10 
REMARK    4  A    between atoms: C9_9  and  C10_10 
ROOT
HETATM    1  C5  UNL     1     -34.089   4.855   2.018  1.00 20.00     0.011 C 
HETATM    2  C9  UNL     1     -33.681   6.064   2.877  1.00 20.00     0.001 C 
ENDROOT
BRANCH   2   3
HETATM    3  C6  UNL     1     -32.177   6.020   3.241  1.00 20.00     0.009 C 
BRANCH   3   4
HETATM    4  C7  UNL     1     -31.410   7.353   3.092  1.00 20.00    -0.022 C 
HETATM    5  C1  UNL     1     -31.272   8.100   4.419  1.00 20.00     0.009 C 
HETATM    6  C2  UNL     1     -32.124   8.245   2.071  1.00 20.00     0.009 C 
ENDBRANCH   3   4
ENDBRANCH   2   3
BRANCH   2   7
HETATM    7  C10 UNL     1     -34.604   6.200   4.127  1.00 20.00     0.089 C 
HETATM    8 CL11 UNL     1     -36.235   5.517   3.765  1.00 20.00    -0.124 Cl
BRANCH   7   9
HETATM    9  C8  UNL     1     -34.053   5.585   5.444  1.00 20.00    -0.004 C 
HETATM   10  C3  UNL     1     -34.923   4.429   5.956  1.00 20.00     0.011 C 
HETATM   11  C4  UNL     1     -33.945   6.635   6.562  1.00 20.00     0.011 C 
ENDBRANCH   7   9
ENDBRANCH   2   7
TORSDOF 4
ENDMDL
MODEL 5
REMARK VINA RESULT:      -4.4     10.621     12.401
REMARK  4 active torsions:
REMARK  status: ('A' for Active; 'I' for Inactive)
REMARK    1  A    between atoms: C6_6  and  C7_7 
REMARK    2  A    between atoms: C6_6  and  C9_9 
REMARK    3  A    between atoms: C8_8  and  C10_10 
REMARK    4  A    between atoms: C9_9  and  C10_10 
ROOT
HETATM    1  C5  UNL     1     -34.052  13.885  -3.447  1.00 20.00     0.011 C 
HETATM    2  C9  UNL     1     -34.093  15.421  -3.407  1.00 20.00     0.001 C 
ENDROOT
BRANCH   2   3
HETATM    3  C6  UNL     1     -34.876  15.937  -2.175  1.00 20.00     0.009 C 
BRANCH   3   4
HETATM    4  C7  UNL     1     -34.085  16.844  -1.206  1.00 20.00    -0.022 C 
HETATM    5  C1  UNL     1     -34.878  17.180   0.057  1.00 20.00     0.009 C 
HETATM    6  C2  UNL     1     -33.689  18.139  -1.924  1.00 20.00     0.009 C 
ENDBRANCH   3   4
ENDBRANCH   2   3
BRANCH   2   7
HETATM    7  C10 UNL     1     -34.626  16.004  -4.752  1.00 20.00     0.089 C 
HETATM    8 CL11 UNL     1     -33.386  17.089  -5.488  1.00 20.00    -0.124 Cl
BRANCH   7   9
HETATM    9  C8  UNL     1     -35.103  14.958  -5.799  1.00 20.00    -0.004 C 
HETATM   10  C3  UNL     1     -34.370  15.100  -7.141  1.00 20.00     0.011 C 
HETATM   11  C4  UNL     1     -36.614  15.065  -6.064  1.00 20.00     0.011 C 
ENDBRANCH   7   9
ENDBRANCH   2   7
TORSDOF 4
ENDMDL
MODEL 6
REMARK VINA RESULT:      -4.3     11.000     12.409
REMARK  4 active torsions:
REMARK  status: ('A' for Active; 'I' for Inactive)
REMARK    1  A    between atoms: C6_6  and  C7_7 
REMARK    2  A    between atoms: C6_6  and  C9_9 
REMARK    3  A    between atoms: C8_8  and  C10_10 
REMARK    4  A    between atoms: C9_9  and  C10_10 
ROOT
HETATM    1  C5  UNL     1     -33.414  17.277  -5.108  1.00 20.00     0.011 C 
HETATM    2  C9  UNL     1     -34.201  16.160  -4.403  1.00 20.00     0.001 C 
ENDROOT
BRANCH   2   3
HETATM    3  C6  UNL     1     -33.823  16.056  -2.906  1.00 20.00     0.009 C 
BRANCH   3   4
HETATM    4  C7  UNL     1     -34.985  16.242  -1.904  1.00 20.00    -0.022 C 
HETATM    5  C1  UNL     1     -36.126  17.081  -2.481  1.00 20.00     0.009 C 
HETATM    6  C2  UNL     1     -34.458  16.902  -0.625  1.00 20.00     0.009 C 
ENDBRANCH   3   4
ENDBRANCH   2   3
BRANCH   2   7
HETATM    7  C10 UNL     1     -34.052  14.805  -5.162  1.00 20.00     0.089 C 
HETATM    8 CL11 UNL     1     -33.769  13.468  -3.982  1.00 20.00    -0.124 Cl
BRANCH   7   9
HETATM    9  C8  UNL     1     -35.221  14.431  -6.115  1.00 20.00    -0.004 C 
HETATM   10  C3  UNL     1     -34.919  14.790  -7.577  1.00 20.00     0.011 C 
HETATM   11  C4  UNL     1     -36.531  15.129  -5.711  1.00 20.00     0.011 C 
ENDBRANCH   7   9
ENDBRANCH   2   7
TORSDOF 4
ENDMDL
MODEL 7
REMARK VINA RESULT:      -4.3     11.197     12.339
REMARK  4 active torsions:
REMARK  status: ('A' for Active; 'I' for Inactive)
REMARK    1  A    between atoms: C6_6  and  C7_7 
REMARK    2  A    between atoms: C6_6  and  C9_9 
REMARK    3  A    between atoms: C8_8  and  C10_10 
REMARK    4  A    between atoms: C9_9  and  C10_10 
ROOT
HETATM    1  C5  UNL     1     -38.151  14.838  -3.625  1.00 20.00     0.011 C 
HETATM    2  C9  UNL     1     -36.660  15.057  -3.926  1.00 20.00     0.001 C 
ENDROOT
BRANCH   2   3
HETATM    3  C6  UNL     1     -36.062  16.183  -3.049  1.00 20.00     0.009 C 
BRANCH   3   4
HETATM    4  C7  UNL     1     -34.781  15.819  -2.266  1.00 20.00    -0.022 C 
HETATM    5  C1  UNL     1     -34.667  16.580  -0.945  1.00 20.00     0.009 C 
HETATM    6  C2  UNL     1     -33.551  16.108  -3.133  1.00 20.00     0.009 C 
ENDBRANCH   3   4
ENDBRANCH   2   3
BRANCH   2   7
HETATM    7  C10 UNL     1     -36.423  15.285  -5.451  1.00 20.00     0.089 C 
HETATM    8 CL11 UNL     1     -35.978  17.009  -5.753  1.00 20.00    -0.124 Cl
BRANCH   7   9
HETATM    9  C8  UNL     1     -35.383  14.345  -6.122  1.00 20.00    -0.004 C 
HETATM   10  C3  UNL     1     -34.786  13.335  -5.131  1.00 20.00     0.011 C 
HETATM   11  C4  UNL     1     -34.227  15.134  -6.758  1.00 20.00     0.011 C 
ENDBRANCH   7   9
ENDBRANCH   2   7
TORSDOF 4
ENDMDL
MODEL 8
REMARK VINA RESULT:      -4.2     10.688     12.021
REMARK  4 active torsions:
REMARK  status: ('A' for Active; 'I' for Inactive)
REMARK    1  A    between atoms: C6_6  and  C7_7 
REMARK    2  A    between atoms: C6_6  and  C9_9 
REMARK    3  A    between atoms: C8_8  and  C10_10 
REMARK    4  A    between atoms: C9_9  and  C10_10 
ROOT
HETATM    1  C5  UNL     1     -35.763  17.705  -3.286  1.00 20.00     0.011 C 
HETATM    2  C9  UNL     1     -35.231  16.297  -2.976  1.00 20.00     0.001 C 
ENDROOT
BRANCH   2   3
HETATM    3  C6  UNL     1     -34.475  16.260  -1.625  1.00 20.00     0.009 C 
BRANCH   3   4
HETATM    4  C7  UNL     1     -34.475  17.577  -0.818  1.00 20.00    -0.022 C 
HETATM    5  C1  UNL     1     -33.073  18.169  -0.665  1.00 20.00     0.009 C 
HETATM    6  C2  UNL     1     -35.082  17.329   0.567  1.00 20.00     0.009 C 
ENDBRANCH   3   4
ENDBRANCH   2   3
BRANCH   2   7
HETATM    7  C10 UNL     1     -34.381  15.744  -4.162  1.00 20.00     0.089 C 
HETATM    8 CL11 UNL     1     -32.821  15.079  -3.543  1.00 20.00    -0.124 Cl
BRANCH   7   9
HETATM    9  C8  UNL     1     -35.085  14.692  -5.065  1.00 20.00    -0.004 C 
HETATM   10  C3  UNL     1     -34.914  13.262  -4.535  1.00 20.00     0.011 C 
HETATM   11  C4  UNL     1     -34.557  14.736  -6.508  1.00 20.00     0.011 C 
ENDBRANCH   7   9
ENDBRANCH   2   7
TORSDOF 4
ENDMDL
MODEL 9
REMARK VINA RESULT:      -4.2     10.579     12.199
REMARK  4 active torsions:
REMARK  status: ('A' for Active; 'I' for Inactive)
REMARK    1  A    between atoms: C6_6  and  C7_7 
REMARK    2  A    between atoms: C6_6  and  C9_9 
REMARK    3  A    between atoms: C8_8  and  C10_10 
REMARK    4  A    between atoms: C9_9  and  C10_10 
ROOT
HETATM    1  C5  UNL     1     -33.577  13.502  -3.814  1.00 20.00     0.011 C 
HETATM    2  C9  UNL     1     -34.370  14.808  -3.981  1.00 20.00     0.001 C 
ENDROOT
BRANCH   2   3
HETATM    3  C6  UNL     1     -35.123  14.845  -5.333  1.00 20.00     0.009 C 
BRANCH   3   4
HETATM    4  C7  UNL     1     -36.637  15.145  -5.253  1.00 20.00    -0.022 C 
HETATM    5  C1  UNL     1     -36.961  16.606  -5.569  1.00 20.00     0.009 C 
HETATM    6  C2  UNL     1     -37.156  14.794  -3.855  1.00 20.00     0.009 C 
ENDBRANCH   3   4
ENDBRANCH   2   3
BRANCH   2   7
HETATM    7  C10 UNL     1     -33.456  16.052  -3.761  1.00 20.00     0.089 C 
HETATM    8 CL11 UNL     1     -33.315  16.991  -5.296  1.00 20.00    -0.124 Cl
BRANCH   7   9
HETATM    9  C8  UNL     1     -33.870  16.997  -2.598  1.00 20.00    -0.004 C 
HETATM   10  C3  UNL     1     -34.657  16.264  -1.503  1.00 20.00     0.011 C 
HETATM   11  C4  UNL     1     -34.724  18.174  -3.097  1.00 20.00     0.011 C 
ENDBRANCH   7   9
ENDBRANCH   2   7
TORSDOF 4
ENDMDL
