MODEL 1
REMARK VINA RESULT:      -4.1      0.000      0.000
REMARK  2 active torsions:
REMARK  status: ('A' for Active; 'I' for Inactive)
REMARK    1  A    between atoms: C5_5  and  C7_7 
REMARK    2  A    between atoms: C7_7  and  O9_9 
ROOT
HETATM    1  C2  UNL     1     -33.730  14.411  -3.567  1.00 20.00     0.045 A 
HETATM    2  C6  UNL     1     -33.635  15.714  -2.817  1.00 20.00     0.019 A 
HETATM    3  C7  UNL     1     -33.765  15.711  -4.317  1.00 20.00     0.066 A 
HETATM    4  C8  UNL     1     -34.738  16.143  -1.912  1.00 20.00     0.013 C 
ENDROOT
BRANCH   3   5
HETATM    5  C5  UNL     1     -35.037  16.137  -5.005  1.00 20.00     0.030 C 
HETATM    6  C1  UNL     1     -35.951  14.957  -5.340  1.00 20.00     0.018 C 
HETATM    7  C3  UNL     1     -35.381  14.254  -6.562  1.00 20.00     0.074 C 
HETATM    8  S10 UNL     1     -34.721  15.579  -7.609  1.00 20.00    -0.169 SA
HETATM    9  C4  UNL     1     -34.778  16.863  -6.324  1.00 20.00     0.081 C 
ENDBRANCH   3   5
BRANCH   3  10
HETATM   10  O9  UNL     1     -32.587  16.058  -5.058  1.00 20.00    -0.389 OA
HETATM   11  H24 UNL     1     -32.113  15.228  -5.210  1.00 20.00     0.210 HD
ENDBRANCH   3  10
TORSDOF 2
ENDMDL
MODEL 2
REMARK VINA RESULT:      -4.1      2.081      2.984
REMARK  2 active torsions:
REMARK  status: ('A' for Active; 'I' for Inactive)
REMARK    1  A    between atoms: C5_5  and  C7_7 
REMARK    2  A    between atoms: C7_7  and  O9_9 
ROOT
HETATM    1  C2  UNL     1     -35.340  17.475  -3.017  1.00 20.00     0.045 A 
HETATM    2  C6  UNL     1     -35.208  16.993  -1.595  1.00 20.00     0.019 A 
HETATM    3  C7  UNL     1     -35.286  16.003  -2.727  1.00 20.00     0.066 A 
HETATM    4  C8  UNL     1     -33.956  17.247  -0.829  1.00 20.00     0.013 C 
ENDROOT
BRANCH   3   5
HETATM    5  C5  UNL     1     -34.086  15.203  -3.167  1.00 20.00     0.030 C 
HETATM    6  C1  UNL     1     -33.324  15.866  -4.317  1.00 20.00     0.018 C 
HETATM    7  C3  UNL     1     -34.108  15.627  -5.598  1.00 20.00     0.074 C 
HETATM    8  S10 UNL     1     -34.789  13.955  -5.433  1.00 20.00    -0.169 SA
HETATM    9  C4  UNL     1     -34.458  13.804  -3.653  1.00 20.00     0.081 C 
ENDBRANCH   3   5
BRANCH   3  10
HETATM   10  O9  UNL     1     -36.516  15.278  -2.853  1.00 20.00    -0.389 OA
HETATM   11  H24 UNL     1     -36.546  14.668  -2.102  1.00 20.00     0.210 HD
ENDBRANCH   3  10
TORSDOF 2
ENDMDL
MODEL 3
REMARK VINA RESULT:      -3.9      1.967      2.408
REMARK  2 active torsions:
REMARK  status: ('A' for Active; 'I' for Inactive)
REMARK    1  A    between atoms: C5_5  and  C7_7 
REMARK    2  A    between atoms: C7_7  and  O9_9 
ROOT
HETATM    1  C2  UNL     1     -35.036  14.285  -3.638  1.00 20.00     0.045 A 
HETATM    2  C6  UNL     1     -33.613  13.837  -3.843  1.00 20.00     0.019 A 
HETATM    3  C7  UNL     1     -34.546  13.957  -5.018  1.00 20.00     0.066 A 
HETATM    4  C8  UNL     1     -32.486  14.782  -3.607  1.00 20.00     0.013 C 
ENDROOT
BRANCH   3   5
HETATM    5  C5  UNL     1     -34.404  15.060  -6.037  1.00 20.00     0.030 C 
HETATM    6  C1  UNL     1     -35.209  16.309  -5.672  1.00 20.00     0.018 C 
HETATM    7  C3  UNL     1     -36.670  16.034  -5.991  1.00 20.00     0.074 C 
HETATM    8  S10 UNL     1     -36.647  15.038  -7.506  1.00 20.00    -0.169 SA
HETATM    9  C4  UNL     1     -34.875  14.640  -7.428  1.00 20.00     0.081 C 
ENDBRANCH   3   5
BRANCH   3  10
HETATM   10  O9  UNL     1     -35.010  12.727  -5.590  1.00 20.00    -0.389 OA
HETATM   11  H24 UNL     1     -34.314  12.433  -6.194  1.00 20.00     0.210 HD
ENDBRANCH   3  10
TORSDOF 2
ENDMDL
MODEL 4
REMARK VINA RESULT:      -3.8      2.096      3.733
REMARK  2 active torsions:
REMARK  status: ('A' for Active; 'I' for Inactive)
REMARK    1  A    between atoms: C5_5  and  C7_7 
REMARK    2  A    between atoms: C7_7  and  O9_9 
ROOT
HETATM    1  C2  UNL     1     -34.404  16.862  -6.534  1.00 20.00     0.045 A 
HETATM    2  C6  UNL     1     -34.151  15.430  -6.930  1.00 20.00     0.019 A 
HETATM    3  C7  UNL     1     -33.976  15.863  -5.499  1.00 20.00     0.066 A 
HETATM    4  C8  UNL     1     -35.277  14.564  -7.379  1.00 20.00     0.013 C 
ENDROOT
BRANCH   3   5
HETATM    5  C5  UNL     1     -34.944  15.452  -4.419  1.00 20.00     0.030 C 
HETATM    6  C1  UNL     1     -35.927  16.565  -4.050  1.00 20.00     0.018 C 
HETATM    7  C3  UNL     1     -35.190  17.570  -3.178  1.00 20.00     0.074 C 
HETATM    8  S10 UNL     1     -34.079  16.578  -2.145  1.00 20.00    -0.169 SA
HETATM    9  C4  UNL     1     -34.244  15.054  -3.121  1.00 20.00     0.081 C 
ENDBRANCH   3   5
BRANCH   3  10
HETATM   10  O9  UNL     1     -32.626  15.966  -5.026  1.00 20.00    -0.389 OA
HETATM   11  H24 UNL     1     -32.567  15.385  -4.255  1.00 20.00     0.210 HD
ENDBRANCH   3  10
TORSDOF 2
ENDMDL
MODEL 5
REMARK VINA RESULT:      -3.7      2.829      4.044
REMARK  2 active torsions:
REMARK  status: ('A' for Active; 'I' for Inactive)
REMARK    1  A    between atoms: C5_5  and  C7_7 
REMARK    2  A    between atoms: C7_7  and  O9_9 
ROOT
HETATM    1  C2  UNL     1     -34.702  13.754  -3.645  1.00 20.00     0.045 A 
HETATM    2  C6  UNL     1     -35.406  14.146  -4.918  1.00 20.00     0.019 A 
HETATM    3  C7  UNL     1     -35.510  15.017  -3.695  1.00 20.00     0.066 A 
HETATM    4  C8  UNL     1     -34.619  14.535  -6.123  1.00 20.00     0.013 C 
ENDROOT
BRANCH   3   5
HETATM    5  C5  UNL     1     -34.810  16.350  -3.606  1.00 20.00     0.030 C 
HETATM    6  C1  UNL     1     -33.772  16.398  -2.483  1.00 20.00     0.018 C 
HETATM    7  C3  UNL     1     -34.514  16.562  -1.166  1.00 20.00     0.074 C 
HETATM    8  S10 UNL     1     -35.911  17.656  -1.539  1.00 20.00    -0.169 SA
HETATM    9  C4  UNL     1     -35.775  17.505  -3.345  1.00 20.00     0.081 C 
ENDBRANCH   3   5
BRANCH   3  10
HETATM   10  O9  UNL     1     -36.770  15.003  -3.011  1.00 20.00    -0.389 OA
HETATM   11  H24 UNL     1     -37.210  15.833  -3.240  1.00 20.00     0.210 HD
ENDBRANCH   3  10
TORSDOF 2
ENDMDL
MODEL 6
REMARK VINA RESULT:      -3.7      1.929      2.926
REMARK  2 active torsions:
REMARK  status: ('A' for Active; 'I' for Inactive)
REMARK    1  A    between atoms: C5_5  and  C7_7 
REMARK    2  A    between atoms: C7_7  and  O9_9 
ROOT
HETATM    1  C2  UNL     1     -33.964  17.724  -4.064  1.00 20.00     0.045 A 
HETATM    2  C6  UNL     1     -33.460  18.089  -5.436  1.00 20.00     0.019 A 
HETATM    3  C7  UNL     1     -33.694  16.647  -5.074  1.00 20.00     0.066 A 
HETATM    4  C8  UNL     1     -34.334  18.836  -6.384  1.00 20.00     0.013 C 
ENDROOT
BRANCH   3   5
HETATM    5  C5  UNL     1     -34.846  15.860  -5.646  1.00 20.00     0.030 C 
HETATM    6  C1  UNL     1     -36.087  15.893  -4.752  1.00 20.00     0.018 C 
HETATM    7  C3  UNL     1     -35.852  14.940  -3.590  1.00 20.00     0.074 C 
HETATM    8  S10 UNL     1     -34.936  13.544  -4.298  1.00 20.00    -0.169 SA
HETATM    9  C4  UNL     1     -34.507  14.385  -5.851  1.00 20.00     0.081 C 
ENDBRANCH   3   5
BRANCH   3  10
HETATM   10  O9  UNL     1     -32.523  15.847  -4.863  1.00 20.00    -0.389 OA
HETATM   11  H24 UNL     1     -31.820  16.462  -4.612  1.00 20.00     0.210 HD
ENDBRANCH   3  10
TORSDOF 2
ENDMDL
MODEL 7
REMARK VINA RESULT:      -3.7      2.007      2.838
REMARK  2 active torsions:
REMARK  status: ('A' for Active; 'I' for Inactive)
REMARK    1  A    between atoms: C5_5  and  C7_7 
REMARK    2  A    between atoms: C7_7  and  O9_9 
ROOT
HETATM    1  C2  UNL     1     -34.435  14.890  -6.197  1.00 20.00     0.045 A 
HETATM    2  C6  UNL     1     -34.242  14.098  -4.930  1.00 20.00     0.019 A 
HETATM    3  C7  UNL     1     -33.889  15.561  -4.971  1.00 20.00     0.066 A 
HETATM    4  C8  UNL     1     -35.421  13.573  -4.185  1.00 20.00     0.013 C 
ENDROOT
BRANCH   3   5
HETATM    5  C5  UNL     1     -34.719  16.600  -4.260  1.00 20.00     0.030 C 
HETATM    6  C1  UNL     1     -35.696  17.316  -5.195  1.00 20.00     0.018 C 
HETATM    7  C3  UNL     1     -34.907  18.328  -6.011  1.00 20.00     0.074 C 
HETATM    8  S10 UNL     1     -33.655  18.982  -4.876  1.00 20.00    -0.169 SA
HETATM    9  C4  UNL     1     -33.869  17.692  -3.614  1.00 20.00     0.081 C 
ENDBRANCH   3   5
BRANCH   3  10
HETATM   10  O9  UNL     1     -32.490  15.877  -4.980  1.00 20.00    -0.389 OA
HETATM   11  H24 UNL     1     -32.028  15.043  -5.147  1.00 20.00     0.210 HD
ENDBRANCH   3  10
TORSDOF 2
ENDMDL
MODEL 8
REMARK VINA RESULT:      -3.6      2.363      3.143
REMARK  2 active torsions:
REMARK  status: ('A' for Active; 'I' for Inactive)
REMARK    1  A    between atoms: C5_5  and  C7_7 
REMARK    2  A    between atoms: C7_7  and  O9_9 
ROOT
HETATM    1  C2  UNL     1     -33.006  14.942  -3.683  1.00 20.00     0.045 A 
HETATM    2  C6  UNL     1     -34.134  13.951  -3.568  1.00 20.00     0.019 A 
HETATM    3  C7  UNL     1     -34.395  15.422  -3.378  1.00 20.00     0.066 A 
HETATM    4  C8  UNL     1     -34.597  13.197  -4.767  1.00 20.00     0.013 C 
ENDROOT
BRANCH   3   5
HETATM    5  C5  UNL     1     -35.141  16.236  -4.405  1.00 20.00     0.030 C 
HETATM    6  C1  UNL     1     -34.211  16.898  -5.423  1.00 20.00     0.018 C 
HETATM    7  C3  UNL     1     -33.568  18.103  -4.756  1.00 20.00     0.074 C 
HETATM    8  S10 UNL     1     -34.860  18.806  -3.695  1.00 20.00    -0.169 SA
HETATM    9  C4  UNL     1     -35.961  17.363  -3.780  1.00 20.00     0.081 C 
ENDBRANCH   3   5
BRANCH   3  10
HETATM   10  O9  UNL     1     -34.646  15.854  -2.035  1.00 20.00    -0.389 OA
HETATM   11  H24 UNL     1     -35.443  15.386  -1.747  1.00 20.00     0.210 HD
ENDBRANCH   3  10
TORSDOF 2
ENDMDL
MODEL 9
REMARK VINA RESULT:      -3.5      2.690      3.902
REMARK  2 active torsions:
REMARK  status: ('A' for Active; 'I' for Inactive)
REMARK    1  A    between atoms: C5_5  and  C7_7 
REMARK    2  A    between atoms: C7_7  and  O9_9 
ROOT
HETATM    1  C2  UNL     1     -35.662  14.886  -3.417  1.00 20.00     0.045 A 
HETATM    2  C6  UNL     1     -34.446  14.660  -4.277  1.00 20.00     0.019 A 
HETATM    3  C7  UNL     1     -34.761  16.037  -3.756  1.00 20.00     0.066 A 
HETATM    4  C8  UNL     1     -33.306  13.846  -3.767  1.00 20.00     0.013 C 
ENDROOT
BRANCH   3   5
HETATM    5  C5  UNL     1     -33.941  16.683  -2.668  1.00 20.00     0.030 C 
HETATM    6  C1  UNL     1     -34.602  16.584  -1.292  1.00 20.00     0.018 C 
HETATM    7  C3  UNL     1     -35.718  17.615  -1.233  1.00 20.00     0.074 C 
HETATM    8  S10 UNL     1     -35.089  19.049  -2.147  1.00 20.00    -0.169 SA
HETATM    9  C4  UNL     1     -33.698  18.170  -2.919  1.00 20.00     0.081 C 
ENDBRANCH   3   5
BRANCH   3  10
HETATM   10  O9  UNL     1     -35.256  16.981  -4.716  1.00 20.00    -0.389 OA
HETATM   11  H24 UNL     1     -35.077  17.857  -4.347  1.00 20.00     0.210 HD
ENDBRANCH   3  10
TORSDOF 2
ENDMDL
