MODEL 1
REMARK VINA RESULT:      -4.8      0.000      0.000
REMARK  3 active torsions:
REMARK  status: ('A' for Active; 'I' for Inactive)
REMARK    1  A    between atoms: C5_5  and  C9_9 
REMARK    2  A    between atoms: C6_6  and  C11_11 
REMARK    3  A    between atoms: C10_10  and  C11_11 
ROOT
HETATM    1  C1  UNL     1     -34.664  16.545  -0.977  1.00 20.00     0.005 C 
HETATM    2  C2  UNL     1     -33.659  18.286  -2.507  1.00 20.00     0.005 C 
HETATM    3  C3  UNL     1     -34.812  15.591  -2.161  1.00 20.00     0.006 C 
HETATM    4  C4  UNL     1     -33.807  17.331  -3.690  1.00 20.00     0.006 C 
HETATM    5  C5  UNL     1     -33.504  17.527  -1.182  1.00 20.00    -0.015 C 
HETATM    6  C6  UNL     1     -34.968  16.349  -3.485  1.00 20.00     0.004 C 
ENDROOT
BRANCH   6   7
HETATM    7  C11 UNL     1     -35.064  15.375  -4.656  1.00 20.00     0.086 C 
HETATM    8 CL12 UNL     1     -34.734  13.742  -4.026  1.00 20.00    -0.125 Cl
BRANCH   7   9
HETATM    9  C10 UNL     1     -34.092  15.768  -5.762  1.00 20.00     0.016 C 
HETATM   10  C8  UNL     1     -34.388  15.063  -7.079  1.00 20.00     0.006 C 
ENDBRANCH   7   9
ENDBRANCH   6   7
BRANCH   5  11
HETATM   11  C9  UNL     1     -33.409  18.502  -0.010  1.00 20.00     0.000 C 
HETATM   12  C7  UNL     1     -31.996  18.902   0.261  1.00 20.00     0.005 C 
ENDBRANCH   5  11
TORSDOF 3
ENDMDL
MODEL 2
REMARK VINA RESULT:      -4.7      1.201      1.710
REMARK  3 active torsions:
REMARK  status: ('A' for Active; 'I' for Inactive)
REMARK    1  A    between atoms: C5_5  and  C9_9 
REMARK    2  A    between atoms: C6_6  and  C11_11 
REMARK    3  A    between atoms: C10_10  and  C11_11 
ROOT
HETATM    1  C1  UNL     1     -36.027  16.548  -2.419  1.00 20.00     0.005 C 
HETATM    2  C2  UNL     1     -33.523  16.242  -2.532  1.00 20.00     0.005 C 
HETATM    3  C3  UNL     1     -36.199  15.571  -3.581  1.00 20.00     0.006 C 
HETATM    4  C4  UNL     1     -33.694  15.265  -3.693  1.00 20.00     0.006 C 
HETATM    5  C5  UNL     1     -34.754  16.256  -1.616  1.00 20.00    -0.015 C 
HETATM    6  C6  UNL     1     -34.968  15.558  -4.497  1.00 20.00     0.004 C 
ENDROOT
BRANCH   6   7
HETATM    7  C11 UNL     1     -35.143  14.540  -5.621  1.00 20.00     0.086 C 
HETATM    8 CL12 UNL     1     -34.529  12.975  -5.029  1.00 20.00    -0.125 Cl
BRANCH   7   9
HETATM    9  C10 UNL     1     -34.416  14.998  -6.879  1.00 20.00     0.016 C 
HETATM   10  C8  UNL     1     -34.499  16.505  -7.086  1.00 20.00     0.006 C 
ENDBRANCH   7   9
ENDBRANCH   6   7
BRANCH   5  11
HETATM   11  C9  UNL     1     -34.579  17.275  -0.492  1.00 20.00     0.000 C 
HETATM   12  C7  UNL     1     -33.316  18.057  -0.648  1.00 20.00     0.005 C 
ENDBRANCH   5  11
TORSDOF 3
ENDMDL
MODEL 3
REMARK VINA RESULT:      -4.7      1.130      1.211
REMARK  3 active torsions:
REMARK  status: ('A' for Active; 'I' for Inactive)
REMARK    1  A    between atoms: C5_5  and  C9_9 
REMARK    2  A    between atoms: C6_6  and  C11_11 
REMARK    3  A    between atoms: C10_10  and  C11_11 
ROOT
HETATM    1  C1  UNL     1     -34.560  16.836  -0.636  1.00 20.00     0.005 C 
HETATM    2  C2  UNL     1     -33.641  18.565  -2.231  1.00 20.00     0.005 C 
HETATM    3  C3  UNL     1     -34.817  15.890  -1.808  1.00 20.00     0.006 C 
HETATM    4  C4  UNL     1     -33.896  17.619  -3.403  1.00 20.00     0.006 C 
HETATM    5  C5  UNL     1     -33.400  17.796  -0.924  1.00 20.00    -0.015 C 
HETATM    6  C6  UNL     1     -35.058  16.659  -3.113  1.00 20.00     0.004 C 
ENDROOT
BRANCH   6   7
HETATM    7  C11 UNL     1     -35.261  15.693  -4.278  1.00 20.00     0.086 C 
HETATM    8 CL12 UNL     1     -36.654  14.655  -3.878  1.00 20.00    -0.125 Cl
BRANCH   7   9
HETATM    9  C10 UNL     1     -33.997  14.880  -4.528  1.00 20.00     0.016 C 
HETATM   10  C8  UNL     1     -34.269  13.383  -4.601  1.00 20.00     0.006 C 
ENDBRANCH   7   9
ENDBRANCH   6   7
BRANCH   5  11
HETATM   11  C9  UNL     1     -33.197  18.763   0.241  1.00 20.00     0.000 C 
HETATM   12  C7  UNL     1     -31.752  18.925   0.577  1.00 20.00     0.005 C 
ENDBRANCH   5  11
TORSDOF 3
ENDMDL
MODEL 4
REMARK VINA RESULT:      -4.6      2.266      5.320
REMARK  3 active torsions:
REMARK  status: ('A' for Active; 'I' for Inactive)
REMARK    1  A    between atoms: C5_5  and  C9_9 
REMARK    2  A    between atoms: C6_6  and  C11_11 
REMARK    3  A    between atoms: C10_10  and  C11_11 
ROOT
HETATM    1  C1  UNL     1     -34.627  14.979  -3.027  1.00 20.00     0.005 C 
HETATM    2  C2  UNL     1     -33.575  16.832  -4.383  1.00 20.00     0.005 C 
HETATM    3  C3  UNL     1     -34.831  15.947  -1.863  1.00 20.00     0.006 C 
HETATM    4  C4  UNL     1     -33.780  17.800  -3.219  1.00 20.00     0.006 C 
HETATM    5  C5  UNL     1     -34.620  15.708  -4.376  1.00 20.00    -0.015 C 
HETATM    6  C6  UNL     1     -33.786  17.069  -1.869  1.00 20.00     0.004 C 
ENDROOT
BRANCH   6   7
HETATM    7  C11 UNL     1     -34.040  18.050  -0.727  1.00 20.00     0.086 C 
HETATM    8 CL12 UNL     1     -32.455  18.547  -0.082  1.00 20.00    -0.125 Cl
BRANCH   7   9
HETATM    9  C10 UNL     1     -34.916  17.410   0.344  1.00 20.00     0.016 C 
HETATM   10  C8  UNL     1     -34.742  18.062   1.709  1.00 20.00     0.006 C 
ENDBRANCH   7   9
ENDBRANCH   6   7
BRANCH   5  11
HETATM   11  C9  UNL     1     -34.365  14.727  -5.519  1.00 20.00     0.000 C 
HETATM   12  C7  UNL     1     -34.695  13.325  -5.126  1.00 20.00     0.005 C 
ENDBRANCH   5  11
TORSDOF 3
ENDMDL
MODEL 5
REMARK VINA RESULT:      -4.5      0.752      1.639
REMARK  3 active torsions:
REMARK  status: ('A' for Active; 'I' for Inactive)
REMARK    1  A    between atoms: C5_5  and  C9_9 
REMARK    2  A    between atoms: C6_6  and  C11_11 
REMARK    3  A    between atoms: C10_10  and  C11_11 
ROOT
HETATM    1  C1  UNL     1     -33.482  18.591  -2.334  1.00 20.00     0.005 C 
HETATM    2  C2  UNL     1     -34.353  16.874  -0.700  1.00 20.00     0.005 C 
HETATM    3  C3  UNL     1     -33.885  17.688  -3.499  1.00 20.00     0.006 C 
HETATM    4  C4  UNL     1     -34.757  15.971  -1.864  1.00 20.00     0.006 C 
HETATM    5  C5  UNL     1     -34.363  18.355  -1.102  1.00 20.00    -0.015 C 
HETATM    6  C6  UNL     1     -33.875  16.207  -3.097  1.00 20.00     0.004 C 
ENDROOT
BRANCH   6   7
HETATM    7  C11 UNL     1     -34.329  15.330  -4.261  1.00 20.00     0.086 C 
HETATM    8 CL12 UNL     1     -33.633  13.708  -4.016  1.00 20.00    -0.125 Cl
BRANCH   7   9
HETATM    9  C10 UNL     1     -33.901  15.939  -5.591  1.00 20.00     0.016 C 
HETATM   10  C8  UNL     1     -34.396  15.138  -6.788  1.00 20.00     0.006 C 
ENDBRANCH   7   9
ENDBRANCH   6   7
BRANCH   5  11
HETATM   11  C9  UNL     1     -33.908  19.232   0.063  1.00 20.00     0.000 C 
HETATM   12  C7  UNL     1     -32.479  18.982   0.417  1.00 20.00     0.005 C 
ENDBRANCH   5  11
TORSDOF 3
ENDMDL
MODEL 6
REMARK VINA RESULT:      -4.4      1.639      2.001
REMARK  3 active torsions:
REMARK  status: ('A' for Active; 'I' for Inactive)
REMARK    1  A    between atoms: C5_5  and  C9_9 
REMARK    2  A    between atoms: C6_6  and  C11_11 
REMARK    3  A    between atoms: C10_10  and  C11_11 
ROOT
HETATM    1  C1  UNL     1     -34.848  15.491  -2.408  1.00 20.00     0.005 C 
HETATM    2  C2  UNL     1     -34.032  17.823  -2.933  1.00 20.00     0.005 C 
HETATM    3  C3  UNL     1     -34.486  15.045  -3.824  1.00 20.00     0.006 C 
HETATM    4  C4  UNL     1     -33.669  17.377  -4.348  1.00 20.00     0.006 C 
HETATM    5  C5  UNL     1     -33.969  16.656  -1.938  1.00 20.00    -0.015 C 
HETATM    6  C6  UNL     1     -34.549  16.211  -4.818  1.00 20.00     0.004 C 
ENDROOT
BRANCH   6   7
HETATM    7  C11 UNL     1     -34.135  15.752  -6.214  1.00 20.00     0.086 C 
HETATM    8 CL12 UNL     1     -34.487  17.083  -7.345  1.00 20.00    -0.125 Cl
BRANCH   7   9
HETATM    9  C10 UNL     1     -34.866  14.471  -6.596  1.00 20.00     0.016 C 
HETATM   10  C8  UNL     1     -35.614  14.595  -7.917  1.00 20.00     0.006 C 
ENDBRANCH   7   9
ENDBRANCH   6   7
BRANCH   5  11
HETATM   11  C9  UNL     1     -34.384  17.116  -0.541  1.00 20.00     0.000 C 
HETATM   12  C7  UNL     1     -33.567  18.275  -0.076  1.00 20.00     0.005 C 
ENDBRANCH   5  11
TORSDOF 3
ENDMDL
MODEL 7
REMARK VINA RESULT:      -4.4      1.866      5.283
REMARK  3 active torsions:
REMARK  status: ('A' for Active; 'I' for Inactive)
REMARK    1  A    between atoms: C5_5  and  C9_9 
REMARK    2  A    between atoms: C6_6  and  C11_11 
REMARK    3  A    between atoms: C10_10  and  C11_11 
ROOT
HETATM    1  C1  UNL     1     -36.028  15.125  -3.935  1.00 20.00     0.005 C 
HETATM    2  C2  UNL     1     -33.503  15.083  -3.946  1.00 20.00     0.005 C 
HETATM    3  C3  UNL     1     -36.006  16.120  -2.775  1.00 20.00     0.006 C 
HETATM    4  C4  UNL     1     -33.481  16.077  -2.788  1.00 20.00     0.006 C 
HETATM    5  C5  UNL     1     -34.768  15.236  -4.801  1.00 20.00    -0.015 C 
HETATM    6  C6  UNL     1     -34.742  15.965  -1.920  1.00 20.00     0.004 C 
ENDROOT
BRANCH   6   7
HETATM    7  C11 UNL     1     -34.720  17.002  -0.799  1.00 20.00     0.086 C 
HETATM    8 CL12 UNL     1     -36.173  18.017  -0.977  1.00 20.00    -0.125 Cl
BRANCH   7   9
HETATM    9  C10 UNL     1     -33.439  17.824  -0.855  1.00 20.00     0.016 C 
HETATM   10  C8  UNL     1     -33.151  18.549   0.454  1.00 20.00     0.006 C 
ENDBRANCH   7   9
ENDBRANCH   6   7
BRANCH   5  11
HETATM   11  C9  UNL     1     -34.791  14.199  -5.922  1.00 20.00     0.000 C 
HETATM   12  C7  UNL     1     -34.784  14.843  -7.270  1.00 20.00     0.005 C 
ENDBRANCH   5  11
TORSDOF 3
ENDMDL
MODEL 8
REMARK VINA RESULT:      -4.4      3.607      6.957
REMARK  3 active torsions:
REMARK  status: ('A' for Active; 'I' for Inactive)
REMARK    1  A    between atoms: C5_5  and  C9_9 
REMARK    2  A    between atoms: C6_6  and  C11_11 
REMARK    3  A    between atoms: C10_10  and  C11_11 
ROOT
HETATM    1  C1  UNL     1     -33.138  18.381  -0.748  1.00 20.00     0.005 C 
HETATM    2  C2  UNL     1     -35.212  17.507   0.396  1.00 20.00     0.005 C 
HETATM    3  C3  UNL     1     -32.498  18.645   0.614  1.00 20.00     0.006 C 
HETATM    4  C4  UNL     1     -34.572  17.770   1.757  1.00 20.00     0.006 C 
HETATM    5  C5  UNL     1     -34.156  17.236  -0.684  1.00 20.00    -0.015 C 
HETATM    6  C6  UNL     1     -33.554  18.916   1.693  1.00 20.00     0.004 C 
ENDROOT
BRANCH   6   7
HETATM    7  C11 UNL     1     -32.893  19.128   3.052  1.00 20.00     0.086 C 
HETATM    8 CL12 UNL     1     -31.142  18.869   2.846  1.00 20.00    -0.125 Cl
BRANCH   7   9
HETATM    9  C10 UNL     1     -33.490  18.187   4.092  1.00 20.00     0.016 C 
HETATM   10  C8  UNL     1     -33.434  18.761   5.501  1.00 20.00     0.006 C 
ENDBRANCH   7   9
ENDBRANCH   6   7
BRANCH   5  11
HETATM   11  C9  UNL     1     -34.817  17.025  -2.045  1.00 20.00     0.000 C 
HETATM   12  C7  UNL     1     -34.629  15.629  -2.539  1.00 20.00     0.005 C 
ENDBRANCH   5  11
TORSDOF 3
ENDMDL
MODEL 9
REMARK VINA RESULT:      -4.4      1.811      2.601
REMARK  3 active torsions:
REMARK  status: ('A' for Active; 'I' for Inactive)
REMARK    1  A    between atoms: C5_5  and  C9_9 
REMARK    2  A    between atoms: C6_6  and  C11_11 
REMARK    3  A    between atoms: C10_10  and  C11_11 
ROOT
HETATM    1  C1  UNL     1     -35.259  15.511  -2.576  1.00 20.00     0.005 C 
HETATM    2  C2  UNL     1     -33.894  17.137  -3.944  1.00 20.00     0.005 C 
HETATM    3  C3  UNL     1     -35.555  14.699  -3.836  1.00 20.00     0.006 C 
HETATM    4  C4  UNL     1     -34.190  16.325  -5.204  1.00 20.00     0.006 C 
HETATM    5  C5  UNL     1     -33.926  16.261  -2.685  1.00 20.00    -0.015 C 
HETATM    6  C6  UNL     1     -35.524  15.575  -5.095  1.00 20.00     0.004 C 
ENDROOT
BRANCH   6   7
HETATM    7  C11 UNL     1     -35.774  14.734  -6.344  1.00 20.00     0.086 C 
HETATM    8 CL12 UNL     1     -34.321  14.849  -7.369  1.00 20.00    -0.125 Cl
BRANCH   7   9
HETATM    9  C10 UNL     1     -37.024  15.211  -7.072  1.00 20.00     0.016 C 
HETATM   10  C8  UNL     1     -38.211  15.397  -6.136  1.00 20.00     0.006 C 
ENDBRANCH   7   9
ENDBRANCH   6   7
BRANCH   5  11
HETATM   11  C9  UNL     1     -33.677  17.103  -1.435  1.00 20.00     0.000 C 
HETATM   12  C7  UNL     1     -34.727  16.875  -0.398  1.00 20.00     0.005 C 
ENDBRANCH   5  11
TORSDOF 3
ENDMDL
