MODEL 1
REMARK VINA RESULT:      -4.2      0.000      0.000
REMARK  5 active torsions:
REMARK  status: ('A' for Active; 'I' for Inactive)
REMARK    1  A    between atoms: C4_4  and  C7_7 
REMARK    2  A    between atoms: C5_5  and  C8_8 
REMARK    3  A    between atoms: C6_6  and  C7_7 
REMARK    4  A    between atoms: C6_6  and  O9_9 
REMARK    5  A    between atoms: C7_7  and  C8_8 
ROOT
HETATM    1  C7  UNL     1     -33.715   6.536   4.271  1.00 20.00     0.027 C 
ENDROOT
BRANCH   1   2
HETATM    2  C4  UNL     1     -34.856   5.880   3.459  1.00 20.00     0.004 C 
HETATM    3  C1  UNL     1     -34.366   5.085   2.257  1.00 20.00     0.005 C 
ENDBRANCH   1   2
BRANCH   1   4
HETATM    4  C6  UNL     1     -32.361   6.354   3.556  1.00 20.00     0.173 C 
BRANCH   4   5
HETATM    5  O9  UNL     1     -31.713   7.605   3.354  1.00 20.00    -0.396 OA
HETATM    6  C3  UNL     1     -32.056   8.170   2.096  1.00 20.00     0.201 C 
ENDBRANCH   4   5
ENDBRANCH   1   4
BRANCH   1   7
HETATM    7  C8  UNL     1     -33.656   6.040   5.747  1.00 20.00     0.088 C 
HETATM    8 CL10 UNL     1     -33.398   7.441   6.851  1.00 20.00    -0.125 Cl
BRANCH   7   9
HETATM    9  C5  UNL     1     -34.888   5.236   6.195  1.00 20.00     0.016 C 
HETATM   10  C2  UNL     1     -34.809   3.757   5.832  1.00 20.00     0.006 C 
ENDBRANCH   7   9
ENDBRANCH   1   7
TORSDOF 5
ENDMDL
MODEL 2
REMARK VINA RESULT:      -4.2     11.835     12.540
REMARK  5 active torsions:
REMARK  status: ('A' for Active; 'I' for Inactive)
REMARK    1  A    between atoms: C4_4  and  C7_7 
REMARK    2  A    between atoms: C5_5  and  C8_8 
REMARK    3  A    between atoms: C6_6  and  C7_7 
REMARK    4  A    between atoms: C6_6  and  O9_9 
REMARK    5  A    between atoms: C7_7  and  C8_8 
ROOT
HETATM    1  C7  UNL     1     -35.406  14.030  -3.994  1.00 20.00     0.027 C 
ENDROOT
BRANCH   1   2
HETATM    2  C4  UNL     1     -34.667  13.621  -5.290  1.00 20.00     0.004 C 
HETATM    3  C1  UNL     1     -35.217  14.293  -6.540  1.00 20.00     0.005 C 
ENDBRANCH   1   2
BRANCH   1   4
HETATM    4  C6  UNL     1     -36.710  14.784  -4.324  1.00 20.00     0.173 C 
BRANCH   4   5
HETATM    5  O9  UNL     1     -37.839  14.140  -3.744  1.00 20.00    -0.396 OA
HETATM    6  C3  UNL     1     -39.001  14.953  -3.831  1.00 20.00     0.201 C 
ENDBRANCH   4   5
ENDBRANCH   1   4
BRANCH   1   7
HETATM    7  C8  UNL     1     -34.508  14.837  -3.011  1.00 20.00     0.088 C 
HETATM    8 CL10 UNL     1     -32.969  15.298  -3.831  1.00 20.00    -0.125 Cl
BRANCH   7   9
HETATM    9  C5  UNL     1     -35.181  16.084  -2.415  1.00 20.00     0.016 C 
HETATM   10  C2  UNL     1     -34.569  16.525  -1.089  1.00 20.00     0.006 C 
ENDBRANCH   7   9
ENDBRANCH   1   7
TORSDOF 5
ENDMDL
MODEL 3
REMARK VINA RESULT:      -4.1     11.820     13.594
REMARK  5 active torsions:
REMARK  status: ('A' for Active; 'I' for Inactive)
REMARK    1  A    between atoms: C4_4  and  C7_7 
REMARK    2  A    between atoms: C5_5  and  C8_8 
REMARK    3  A    between atoms: C6_6  and  C7_7 
REMARK    4  A    between atoms: C6_6  and  O9_9 
REMARK    5  A    between atoms: C7_7  and  C8_8 
ROOT
HETATM    1  C7  UNL     1     -33.789  15.669  -3.805  1.00 20.00     0.027 C 
ENDROOT
BRANCH   1   2
HETATM    2  C4  UNL     1     -33.609  16.419  -2.464  1.00 20.00     0.004 C 
HETATM    3  C1  UNL     1     -34.790  16.263  -1.517  1.00 20.00     0.005 C 
ENDBRANCH   1   2
BRANCH   1   4
HETATM    4  C6  UNL     1     -33.135  14.274  -3.742  1.00 20.00     0.173 C 
BRANCH   4   5
HETATM    5  O9  UNL     1     -34.090  13.270  -3.420  1.00 20.00    -0.396 OA
HETATM    6  C3  UNL     1     -35.224  13.339  -4.275  1.00 20.00     0.201 C 
ENDBRANCH   4   5
ENDBRANCH   1   4
BRANCH   1   7
HETATM    7  C8  UNL     1     -33.284  16.486  -5.031  1.00 20.00     0.088 C 
HETATM    8 CL10 UNL     1     -33.995  15.813  -6.545  1.00 20.00    -0.125 Cl
BRANCH   7   9
HETATM    9  C5  UNL     1     -33.561  17.996  -4.945  1.00 20.00     0.016 C 
HETATM   10  C2  UNL     1     -33.727  18.658  -6.309  1.00 20.00     0.006 C 
ENDBRANCH   7   9
ENDBRANCH   1   7
TORSDOF 5
ENDMDL
MODEL 4
REMARK VINA RESULT:      -4.1     11.418     12.713
REMARK  5 active torsions:
REMARK  status: ('A' for Active; 'I' for Inactive)
REMARK    1  A    between atoms: C4_4  and  C7_7 
REMARK    2  A    between atoms: C5_5  and  C8_8 
REMARK    3  A    between atoms: C6_6  and  C7_7 
REMARK    4  A    between atoms: C6_6  and  O9_9 
REMARK    5  A    between atoms: C7_7  and  C8_8 
ROOT
HETATM    1  C7  UNL     1     -35.460  14.766  -3.222  1.00 20.00     0.027 C 
ENDROOT
BRANCH   1   2
HETATM    2  C4  UNL     1     -34.467  13.688  -3.716  1.00 20.00     0.004 C 
HETATM    3  C1  UNL     1     -34.700  13.264  -5.159  1.00 20.00     0.005 C 
ENDBRANCH   1   2
BRANCH   1   4
HETATM    4  C6  UNL     1     -36.651  14.897  -4.192  1.00 20.00     0.173 C 
BRANCH   4   5
HETATM    5  O9  UNL     1     -37.776  14.159  -3.729  1.00 20.00    -0.396 OA
HETATM    6  C3  UNL     1     -38.996  14.745  -4.164  1.00 20.00     0.201 C 
ENDBRANCH   4   5
ENDBRANCH   1   4
BRANCH   1   7
HETATM    7  C8  UNL     1     -34.780  16.143  -2.958  1.00 20.00     0.088 C 
HETATM    8 CL10 UNL     1     -34.626  16.415  -1.182  1.00 20.00    -0.125 Cl
BRANCH   7   9
HETATM    9  C5  UNL     1     -33.412  16.316  -3.637  1.00 20.00     0.016 C 
HETATM   10  C2  UNL     1     -33.486  17.071  -4.960  1.00 20.00     0.006 C 
ENDBRANCH   7   9
ENDBRANCH   1   7
TORSDOF 5
ENDMDL
MODEL 5
REMARK VINA RESULT:      -4.0     11.696     12.844
REMARK  5 active torsions:
REMARK  status: ('A' for Active; 'I' for Inactive)
REMARK    1  A    between atoms: C4_4  and  C7_7 
REMARK    2  A    between atoms: C5_5  and  C8_8 
REMARK    3  A    between atoms: C6_6  and  C7_7 
REMARK    4  A    between atoms: C6_6  and  O9_9 
REMARK    5  A    between atoms: C7_7  and  C8_8 
ROOT
HETATM    1  C7  UNL     1     -33.710  16.317  -3.037  1.00 20.00     0.027 C 
ENDROOT
BRANCH   1   2
HETATM    2  C4  UNL     1     -33.674  17.145  -1.731  1.00 20.00     0.004 C 
HETATM    3  C1  UNL     1     -34.669  16.668  -0.682  1.00 20.00     0.005 C 
ENDBRANCH   1   2
BRANCH   1   4
HETATM    4  C6  UNL     1     -34.102  17.204  -4.236  1.00 20.00     0.173 C 
BRANCH   4   5
HETATM    5  O9  UNL     1     -33.316  16.898  -5.382  1.00 20.00    -0.396 OA
HETATM    6  C3  UNL     1     -34.121  16.419  -6.451  1.00 20.00     0.201 C 
ENDBRANCH   4   5
ENDBRANCH   1   4
BRANCH   1   7
HETATM    7  C8  UNL     1     -34.621  15.058  -2.933  1.00 20.00     0.088 C 
HETATM    8 CL10 UNL     1     -36.240  15.417  -3.638  1.00 20.00    -0.125 Cl
BRANCH   7   9
HETATM    9  C5  UNL     1     -34.032  13.794  -3.581  1.00 20.00     0.016 C 
HETATM   10  C2  UNL     1     -34.883  13.250  -4.724  1.00 20.00     0.006 C 
ENDBRANCH   7   9
ENDBRANCH   1   7
TORSDOF 5
ENDMDL
MODEL 6
REMARK VINA RESULT:      -3.9     11.482     12.467
REMARK  5 active torsions:
REMARK  status: ('A' for Active; 'I' for Inactive)
REMARK    1  A    between atoms: C4_4  and  C7_7 
REMARK    2  A    between atoms: C5_5  and  C8_8 
REMARK    3  A    between atoms: C6_6  and  C7_7 
REMARK    4  A    between atoms: C6_6  and  O9_9 
REMARK    5  A    between atoms: C7_7  and  C8_8 
ROOT
HETATM    1  C7  UNL     1     -33.573  15.917  -3.144  1.00 20.00     0.027 C 
ENDROOT
BRANCH   1   2
HETATM    2  C4  UNL     1     -33.613  16.988  -4.258  1.00 20.00     0.004 C 
HETATM    3  C1  UNL     1     -33.529  16.407  -5.663  1.00 20.00     0.005 C 
ENDBRANCH   1   2
BRANCH   1   4
HETATM    4  C6  UNL     1     -33.170  14.544  -3.720  1.00 20.00     0.173 C 
BRANCH   4   5
HETATM    5  O9  UNL     1     -34.185  13.573  -3.494  1.00 20.00    -0.396 OA
HETATM    6  C3  UNL     1     -34.704  13.070  -4.718  1.00 20.00     0.201 C 
ENDBRANCH   4   5
ENDBRANCH   1   4
BRANCH   1   7
HETATM    7  C8  UNL     1     -34.900  15.833  -2.333  1.00 20.00     0.088 C 
HETATM    8 CL10 UNL     1     -34.652  16.520  -0.685  1.00 20.00    -0.125 Cl
BRANCH   7   9
HETATM    9  C5  UNL     1     -36.102  16.511  -3.012  1.00 20.00     0.016 C 
HETATM   10  C2  UNL     1     -37.137  15.521  -3.534  1.00 20.00     0.006 C 
ENDBRANCH   7   9
ENDBRANCH   1   7
TORSDOF 5
ENDMDL
MODEL 7
REMARK VINA RESULT:      -3.9     12.111     13.239
REMARK  5 active torsions:
REMARK  status: ('A' for Active; 'I' for Inactive)
REMARK    1  A    between atoms: C4_4  and  C7_7 
REMARK    2  A    between atoms: C5_5  and  C8_8 
REMARK    3  A    between atoms: C6_6  and  C7_7 
REMARK    4  A    between atoms: C6_6  and  O9_9 
REMARK    5  A    between atoms: C7_7  and  C8_8 
ROOT
HETATM    1  C7  UNL     1     -34.757  16.180  -2.869  1.00 20.00     0.027 C 
ENDROOT
BRANCH   1   2
HETATM    2  C4  UNL     1     -34.623  16.364  -1.340  1.00 20.00     0.004 C 
HETATM    3  C1  UNL     1     -33.693  17.502  -0.944  1.00 20.00     0.005 C 
ENDBRANCH   1   2
BRANCH   1   4
HETATM    4  C6  UNL     1     -35.980  15.304  -3.210  1.00 20.00     0.173 C 
BRANCH   4   5
HETATM    5  O9  UNL     1     -36.753  15.883  -4.254  1.00 20.00    -0.396 OA
HETATM    6  C3  UNL     1     -36.653  15.128  -5.454  1.00 20.00     0.201 C 
ENDBRANCH   4   5
ENDBRANCH   1   4
BRANCH   1   7
HETATM    7  C8  UNL     1     -33.457  15.633  -3.531  1.00 20.00     0.088 C 
HETATM    8 CL10 UNL     1     -33.573  13.844  -3.715  1.00 20.00    -0.125 Cl
BRANCH   7   9
HETATM    9  C5  UNL     1     -33.113  16.280  -4.883  1.00 20.00     0.016 C 
HETATM   10  C2  UNL     1     -33.592  17.723  -5.001  1.00 20.00     0.006 C 
ENDBRANCH   7   9
ENDBRANCH   1   7
TORSDOF 5
ENDMDL
MODEL 8
REMARK VINA RESULT:      -3.9     11.939     12.816
REMARK  5 active torsions:
REMARK  status: ('A' for Active; 'I' for Inactive)
REMARK    1  A    between atoms: C4_4  and  C7_7 
REMARK    2  A    between atoms: C5_5  and  C8_8 
REMARK    3  A    between atoms: C6_6  and  C7_7 
REMARK    4  A    between atoms: C6_6  and  O9_9 
REMARK    5  A    between atoms: C7_7  and  C8_8 
ROOT
HETATM    1  C7  UNL     1     -34.460  15.778  -3.056  1.00 20.00     0.027 C 
ENDROOT
BRANCH   1   2
HETATM    2  C4  UNL     1     -33.820  16.623  -1.929  1.00 20.00     0.004 C 
HETATM    3  C1  UNL     1     -34.686  16.725  -0.681  1.00 20.00     0.005 C 
ENDBRANCH   1   2
BRANCH   1   4
HETATM    4  C6  UNL     1     -33.458  14.739  -3.597  1.00 20.00     0.173 C 
BRANCH   4   5
HETATM    5  O9  UNL     1     -34.015  13.430  -3.584  1.00 20.00    -0.396 OA
HETATM    6  C3  UNL     1     -34.548  13.080  -4.855  1.00 20.00     0.201 C 
ENDBRANCH   4   5
ENDBRANCH   1   4
BRANCH   1   7
HETATM    7  C8  UNL     1     -35.060  16.648  -4.201  1.00 20.00     0.088 C 
HETATM    8 CL10 UNL     1     -33.956  16.623  -5.626  1.00 20.00    -0.125 Cl
BRANCH   7   9
HETATM    9  C5  UNL     1     -36.480  16.243  -4.627  1.00 20.00     0.016 C 
HETATM   10  C2  UNL     1     -37.207  15.402  -3.584  1.00 20.00     0.006 C 
ENDBRANCH   7   9
ENDBRANCH   1   7
TORSDOF 5
ENDMDL
MODEL 9
REMARK VINA RESULT:      -3.9      1.929      2.655
REMARK  5 active torsions:
REMARK  status: ('A' for Active; 'I' for Inactive)
REMARK    1  A    between atoms: C4_4  and  C7_7 
REMARK    2  A    between atoms: C5_5  and  C8_8 
REMARK    3  A    between atoms: C6_6  and  C7_7 
REMARK    4  A    between atoms: C6_6  and  O9_9 
REMARK    5  A    between atoms: C7_7  and  C8_8 
ROOT
HETATM    1  C7  UNL     1     -33.300   6.053   4.386  1.00 20.00     0.027 C 
ENDROOT
BRANCH   1   2
HETATM    2  C4  UNL     1     -33.377   7.282   5.321  1.00 20.00     0.004 C 
HETATM    3  C1  UNL     1     -33.733   6.929   6.759  1.00 20.00     0.005 C 
ENDBRANCH   1   2
BRANCH   1   4
HETATM    4  C6  UNL     1     -32.192   6.239   3.330  1.00 20.00     0.173 C 
BRANCH   4   5
HETATM    5  O9  UNL     1     -31.747   7.589   3.281  1.00 20.00    -0.396 OA
HETATM    6  C3  UNL     1     -32.047   8.190   2.029  1.00 20.00     0.201 C 
ENDBRANCH   4   5
ENDBRANCH   1   4
BRANCH   1   7
HETATM    7  C8  UNL     1     -34.668   5.704   3.728  1.00 20.00     0.088 C 
HETATM    8 CL10 UNL     1     -34.397   5.031   2.078  1.00 20.00    -0.125 Cl
BRANCH   7   9
HETATM    9  C5  UNL     1     -35.541   4.743   4.551  1.00 20.00     0.016 C 
HETATM   10  C2  UNL     1     -34.738   3.861   5.501  1.00 20.00     0.006 C 
ENDBRANCH   7   9
ENDBRANCH   1   7
TORSDOF 5
ENDMDL
