MODEL 1
REMARK VINA RESULT:      -4.5      0.000      0.000
REMARK  3 active torsions:
REMARK  status: ('A' for Active; 'I' for Inactive)
REMARK    1  A    between atoms: C3_3  and  C6_6 
REMARK    2  A    between atoms: C3_3  and  O8_8 
REMARK    3  A    between atoms: C6_6  and  C7_7 
ROOT
HETATM    1  C1  UNL     1     -33.781   4.566   5.664  1.00 20.00     0.045 A 
HETATM    2  C2  UNL     1     -34.563   5.695   6.282  1.00 20.00     0.019 A 
HETATM    3  C3  UNL     1     -34.750   5.355   4.820  1.00 20.00     0.061 A 
HETATM    4  C4  UNL     1     -33.869   6.934   6.732  1.00 20.00     0.013 C 
ENDROOT
BRANCH   3   5
HETATM    5  C6  UNL     1     -34.241   6.235   3.726  1.00 20.00     0.038 C 
BRANCH   5   6
HETATM    6  C7  UNL     1     -32.793   5.903   3.331  1.00 20.00    -0.002 C 
HETATM    7  C5  UNL     1     -31.902   7.134   3.301  1.00 20.00     0.005 C 
ENDBRANCH   5   6
ENDBRANCH   3   5
BRANCH   3   8
HETATM    8  O8  UNL     1     -35.983   4.689   4.492  1.00 20.00    -0.389 OA
HETATM    9  H22 UNL     1     -36.135   4.055   5.205  1.00 20.00     0.210 HD
ENDBRANCH   3   8
TORSDOF 3
ENDMDL
MODEL 2
REMARK VINA RESULT:      -4.4      0.964      2.891
REMARK  3 active torsions:
REMARK  status: ('A' for Active; 'I' for Inactive)
REMARK    1  A    between atoms: C3_3  and  C6_6 
REMARK    2  A    between atoms: C3_3  and  O8_8 
REMARK    3  A    between atoms: C6_6  and  C7_7 
ROOT
HETATM    1  C1  UNL     1     -35.553   5.871   4.024  1.00 20.00     0.045 A 
HETATM    2  C2  UNL     1     -34.363   5.255   3.335  1.00 20.00     0.019 A 
HETATM    3  C3  UNL     1     -34.803   4.742   4.689  1.00 20.00     0.061 A 
HETATM    4  C4  UNL     1     -33.112   6.042   3.147  1.00 20.00     0.013 C 
ENDROOT
BRANCH   3   5
HETATM    5  C6  UNL     1     -34.018   4.999   5.931  1.00 20.00     0.038 C 
BRANCH   5   6
HETATM    6  C7  UNL     1     -34.448   6.293   6.642  1.00 20.00    -0.002 C 
HETATM    7  C5  UNL     1     -33.326   7.317   6.712  1.00 20.00     0.005 C 
ENDBRANCH   5   6
ENDBRANCH   3   5
BRANCH   3   8
HETATM    8  O8  UNL     1     -35.461   3.462   4.681  1.00 20.00    -0.389 OA
HETATM    9  H22 UNL     1     -35.483   3.174   5.603  1.00 20.00     0.210 HD
ENDBRANCH   3   8
TORSDOF 3
ENDMDL
MODEL 3
REMARK VINA RESULT:      -4.0     12.247     13.011
REMARK  3 active torsions:
REMARK  status: ('A' for Active; 'I' for Inactive)
REMARK    1  A    between atoms: C3_3  and  C6_6 
REMARK    2  A    between atoms: C3_3  and  O8_8 
REMARK    3  A    between atoms: C6_6  and  C7_7 
ROOT
HETATM    1  C1  UNL     1     -32.989  14.097  -3.496  1.00 20.00     0.045 A 
HETATM    2  C2  UNL     1     -34.016  13.998  -4.593  1.00 20.00     0.019 A 
HETATM    3  C3  UNL     1     -33.523  15.353  -4.138  1.00 20.00     0.061 A 
HETATM    4  C4  UNL     1     -35.391  13.507  -4.295  1.00 20.00     0.013 C 
ENDROOT
BRANCH   3   5
HETATM    5  C6  UNL     1     -34.378  16.289  -3.349  1.00 20.00     0.038 C 
BRANCH   5   6
HETATM    6  C7  UNL     1     -33.720  16.711  -2.025  1.00 20.00    -0.002 C 
HETATM    7  C5  UNL     1     -34.668  16.595  -0.843  1.00 20.00     0.005 C 
ENDBRANCH   5   6
ENDBRANCH   3   5
BRANCH   3   8
HETATM    8  O8  UNL     1     -32.628  16.022  -5.045  1.00 20.00    -0.389 OA
HETATM    9  H22 UNL     1     -32.113  15.324  -5.467  1.00 20.00     0.210 HD
ENDBRANCH   3   8
TORSDOF 3
ENDMDL
MODEL 4
REMARK VINA RESULT:      -4.0     12.131     12.855
REMARK  3 active torsions:
REMARK  status: ('A' for Active; 'I' for Inactive)
REMARK    1  A    between atoms: C3_3  and  C6_6 
REMARK    2  A    between atoms: C3_3  and  O8_8 
REMARK    3  A    between atoms: C6_6  and  C7_7 
ROOT
HETATM    1  C1  UNL     1     -33.877  16.656  -3.856  1.00 20.00     0.045 A 
HETATM    2  C2  UNL     1     -33.606  16.316  -2.413  1.00 20.00     0.019 A 
HETATM    3  C3  UNL     1     -33.562  15.232  -3.468  1.00 20.00     0.061 A 
HETATM    4  C4  UNL     1     -34.696  16.403  -1.402  1.00 20.00     0.013 C 
ENDROOT
BRANCH   3   5
HETATM    5  C6  UNL     1     -34.616  14.180  -3.574  1.00 20.00     0.038 C 
BRANCH   5   6
HETATM    6  C7  UNL     1     -34.481  13.339  -4.853  1.00 20.00    -0.002 C 
HETATM    7  C5  UNL     1     -35.040  14.047  -6.076  1.00 20.00     0.005 C 
ENDBRANCH   5   6
ENDBRANCH   3   5
BRANCH   3   8
HETATM    8  O8  UNL     1     -32.248  14.762  -3.819  1.00 20.00    -0.389 OA
HETATM    9  H22 UNL     1     -31.770  14.674  -2.984  1.00 20.00     0.210 HD
ENDBRANCH   3   8
TORSDOF 3
ENDMDL
MODEL 5
REMARK VINA RESULT:      -4.0     12.106     13.081
REMARK  3 active torsions:
REMARK  status: ('A' for Active; 'I' for Inactive)
REMARK    1  A    between atoms: C3_3  and  C6_6 
REMARK    2  A    between atoms: C3_3  and  O8_8 
REMARK    3  A    between atoms: C6_6  and  C7_7 
ROOT
HETATM    1  C1  UNL     1     -36.161  14.699  -4.989  1.00 20.00     0.045 A 
HETATM    2  C2  UNL     1     -35.039  14.325  -5.922  1.00 20.00     0.019 A 
HETATM    3  C3  UNL     1     -34.958  13.962  -4.455  1.00 20.00     0.061 A 
HETATM    4  C4  UNL     1     -34.184  15.381  -6.532  1.00 20.00     0.013 C 
ENDROOT
BRANCH   3   5
HETATM    5  C6  UNL     1     -34.021  14.647  -3.517  1.00 20.00     0.038 C 
BRANCH   5   6
HETATM    6  C7  UNL     1     -34.749  15.582  -2.537  1.00 20.00    -0.002 C 
HETATM    7  C5  UNL     1     -33.846  16.683  -2.005  1.00 20.00     0.005 C 
ENDBRANCH   5   6
ENDBRANCH   3   5
BRANCH   3   8
HETATM    8  O8  UNL     1     -35.159  12.571  -4.150  1.00 20.00    -0.389 OA
HETATM    9  H22 UNL     1     -34.286  12.221  -3.932  1.00 20.00     0.210 HD
ENDBRANCH   3   8
TORSDOF 3
ENDMDL
MODEL 6
REMARK VINA RESULT:      -3.9     11.976     12.748
REMARK  3 active torsions:
REMARK  status: ('A' for Active; 'I' for Inactive)
REMARK    1  A    between atoms: C3_3  and  C6_6 
REMARK    2  A    between atoms: C3_3  and  O8_8 
REMARK    3  A    between atoms: C6_6  and  C7_7 
ROOT
HETATM    1  C1  UNL     1     -35.374  13.580  -4.217  1.00 20.00     0.045 A 
HETATM    2  C2  UNL     1     -34.477  13.952  -5.369  1.00 20.00     0.019 A 
HETATM    3  C3  UNL     1     -33.969  14.059  -3.948  1.00 20.00     0.061 A 
HETATM    4  C4  UNL     1     -34.780  15.150  -6.201  1.00 20.00     0.013 C 
ENDROOT
BRANCH   3   5
HETATM    5  C6  UNL     1     -33.745  15.374  -3.279  1.00 20.00     0.038 C 
BRANCH   5   6
HETATM    6  C7  UNL     1     -34.903  15.762  -2.344  1.00 20.00    -0.002 C 
HETATM    7  C5  UNL     1     -34.439  16.596  -1.160  1.00 20.00     0.005 C 
ENDBRANCH   5   6
ENDBRANCH   3   5
BRANCH   3   8
HETATM    8  O8  UNL     1     -33.026  13.047  -3.550  1.00 20.00    -0.389 OA
HETATM    9  H22 UNL     1     -32.856  13.201  -2.612  1.00 20.00     0.210 HD
ENDBRANCH   3   8
TORSDOF 3
ENDMDL
MODEL 7
REMARK VINA RESULT:      -3.9     11.824     12.982
REMARK  3 active torsions:
REMARK  status: ('A' for Active; 'I' for Inactive)
REMARK    1  A    between atoms: C3_3  and  C6_6 
REMARK    2  A    between atoms: C3_3  and  O8_8 
REMARK    3  A    between atoms: C6_6  and  C7_7 
ROOT
HETATM    1  C1  UNL     1     -33.501  14.157  -3.936  1.00 20.00     0.045 A 
HETATM    2  C2  UNL     1     -34.607  14.607  -3.017  1.00 20.00     0.019 A 
HETATM    3  C3  UNL     1     -34.938  13.876  -4.300  1.00 20.00     0.061 A 
HETATM    4  C4  UNL     1     -34.886  16.058  -2.830  1.00 20.00     0.013 C 
ENDROOT
BRANCH   3   5
HETATM    5  C6  UNL     1     -35.558  14.564  -5.471  1.00 20.00     0.038 C 
BRANCH   5   6
HETATM    6  C7  UNL     1     -34.571  14.747  -6.635  1.00 20.00    -0.002 C 
HETATM    7  C5  UNL     1     -34.346  16.210  -6.981  1.00 20.00     0.005 C 
ENDBRANCH   5   6
ENDBRANCH   3   5
BRANCH   3   8
HETATM    8  O8  UNL     1     -35.371  12.513  -4.142  1.00 20.00    -0.389 OA
HETATM    9  H22 UNL     1     -34.684  11.971  -4.551  1.00 20.00     0.210 HD
ENDBRANCH   3   8
TORSDOF 3
ENDMDL
MODEL 8
REMARK VINA RESULT:      -3.8     12.363     13.801
REMARK  3 active torsions:
REMARK  status: ('A' for Active; 'I' for Inactive)
REMARK    1  A    between atoms: C3_3  and  C6_6 
REMARK    2  A    between atoms: C3_3  and  O8_8 
REMARK    3  A    between atoms: C6_6  and  C7_7 
ROOT
HETATM    1  C1  UNL     1     -34.026  15.329  -3.033  1.00 20.00     0.045 A 
HETATM    2  C2  UNL     1     -33.943  14.120  -3.927  1.00 20.00     0.019 A 
HETATM    3  C3  UNL     1     -33.742  15.504  -4.504  1.00 20.00     0.061 A 
HETATM    4  C4  UNL     1     -35.160  13.307  -4.208  1.00 20.00     0.013 C 
ENDROOT
BRANCH   3   5
HETATM    5  C6  UNL     1     -34.754  16.155  -5.386  1.00 20.00     0.038 C 
BRANCH   5   6
HETATM    6  C7  UNL     1     -34.333  16.153  -6.865  1.00 20.00    -0.002 C 
HETATM    7  C5  UNL     1     -34.726  14.870  -7.579  1.00 20.00     0.005 C 
ENDBRANCH   5   6
ENDBRANCH   3   5
BRANCH   3   8
HETATM    8  O8  UNL     1     -32.385  15.841  -4.844  1.00 20.00    -0.389 OA
HETATM    9  H22 UNL     1     -32.425  16.229  -5.728  1.00 20.00     0.210 HD
ENDBRANCH   3   8
TORSDOF 3
ENDMDL
MODEL 9
REMARK VINA RESULT:      -3.8     11.813     12.714
REMARK  3 active torsions:
REMARK  status: ('A' for Active; 'I' for Inactive)
REMARK    1  A    between atoms: C3_3  and  C6_6 
REMARK    2  A    between atoms: C3_3  and  O8_8 
REMARK    3  A    between atoms: C6_6  and  C7_7 
ROOT
HETATM    1  C1  UNL     1     -35.076  15.477  -4.607  1.00 20.00     0.045 A 
HETATM    2  C2  UNL     1     -34.837  14.211  -3.828  1.00 20.00     0.019 A 
HETATM    3  C3  UNL     1     -35.163  15.497  -3.101  1.00 20.00     0.061 A 
HETATM    4  C4  UNL     1     -33.481  13.594  -3.791  1.00 20.00     0.013 C 
ENDROOT
BRANCH   3   5
HETATM    5  C6  UNL     1     -34.145  16.242  -2.305  1.00 20.00     0.038 C 
BRANCH   5   6
HETATM    6  C7  UNL     1     -34.646  16.598  -0.895  1.00 20.00    -0.002 C 
HETATM    7  C5  UNL     1     -33.912  17.790  -0.302  1.00 20.00     0.005 C 
ENDBRANCH   5   6
ENDBRANCH   3   5
BRANCH   3   8
HETATM    8  O8  UNL     1     -36.491  15.577  -2.551  1.00 20.00    -0.389 OA
HETATM    9  H22 UNL     1     -37.070  15.164  -3.204  1.00 20.00     0.210 HD
ENDBRANCH   3   8
TORSDOF 3
ENDMDL
