MODEL 1
REMARK VINA RESULT:      -4.3      0.000      0.000
REMARK  2 active torsions:
REMARK  status: ('A' for Active; 'I' for Inactive)
REMARK    1  A    between atoms: C4_4  and  C7_7 
REMARK    2  A    between atoms: C7_7  and  C8_8 
ROOT
HETATM    1  C1  UNL     1     -35.492  15.093  -4.262  1.00 20.00     0.034 C 
HETATM    2  C2  UNL     1     -35.949  13.663  -4.456  1.00 20.00     0.168 C 
HETATM    3  C3  UNL     1     -33.764  13.630  -3.652  1.00 20.00     0.173 C 
HETATM    4  C4  UNL     1     -34.414  14.931  -3.214  1.00 20.00     0.026 C 
HETATM    5  O9  UNL     1     -34.808  12.825  -4.221  1.00 20.00    -0.391 OA
ENDROOT
BRANCH   4   6
HETATM    6  C7  UNL     1     -33.449  16.098  -3.127  1.00 20.00     0.067 C 
HETATM    7 BR10 UNL     1     -33.597  17.148  -4.785  1.00 20.00    -0.090 Br
BRANCH   6   8
HETATM    8  C8  UNL     1     -33.610  17.020  -1.902  1.00 20.00    -0.008 C 
HETATM    9  C5  UNL     1     -34.725  16.506  -0.982  1.00 20.00     0.011 C 
HETATM   10  C6  UNL     1     -33.864  18.469  -2.250  1.00 20.00     0.011 C 
ENDBRANCH   6   8
ENDBRANCH   4   6
TORSDOF 2
ENDMDL
MODEL 2
REMARK VINA RESULT:      -4.3      0.559      1.241
REMARK  2 active torsions:
REMARK  status: ('A' for Active; 'I' for Inactive)
REMARK    1  A    between atoms: C4_4  and  C7_7 
REMARK    2  A    between atoms: C7_7  and  C8_8 
ROOT
HETATM    1  C1  UNL     1     -35.379  14.908  -4.016  1.00 20.00     0.034 C 
HETATM    2  C2  UNL     1     -35.386  13.422  -4.310  1.00 20.00     0.168 C 
HETATM    3  C3  UNL     1     -33.216  14.046  -3.739  1.00 20.00     0.173 C 
HETATM    4  C4  UNL     1     -34.179  15.035  -3.105  1.00 20.00     0.026 C 
HETATM    5  O9  UNL     1     -34.019  12.986  -4.280  1.00 20.00    -0.391 OA
ENDROOT
BRANCH   4   6
HETATM    6  C7  UNL     1     -33.626  16.444  -2.996  1.00 20.00     0.067 C 
HETATM    7 BR10 UNL     1     -33.668  17.264  -4.784  1.00 20.00    -0.090 Br
BRANCH   6   8
HETATM    8  C8  UNL     1     -34.321  17.367  -1.975  1.00 20.00    -0.008 C 
HETATM    9  C5  UNL     1     -33.484  18.628  -1.731  1.00 20.00     0.011 C 
HETATM   10  C6  UNL     1     -34.635  16.700  -0.656  1.00 20.00     0.011 C 
ENDBRANCH   6   8
ENDBRANCH   4   6
TORSDOF 2
ENDMDL
MODEL 3
REMARK VINA RESULT:      -4.0      2.225      4.097
REMARK  2 active torsions:
REMARK  status: ('A' for Active; 'I' for Inactive)
REMARK    1  A    between atoms: C4_4  and  C7_7 
REMARK    2  A    between atoms: C7_7  and  C8_8 
ROOT
HETATM    1  C1  UNL     1     -34.700  16.297  -1.312  1.00 20.00     0.034 C 
HETATM    2  C2  UNL     1     -34.379  17.508  -0.461  1.00 20.00     0.168 C 
HETATM    3  C3  UNL     1     -33.758  17.971  -2.658  1.00 20.00     0.173 C 
HETATM    4  C4  UNL     1     -34.852  16.918  -2.683  1.00 20.00     0.026 C 
HETATM    5  O9  UNL     1     -33.666  18.429  -1.300  1.00 20.00    -0.391 OA
ENDROOT
BRANCH   4   6
HETATM    6  C7  UNL     1     -34.726  15.932  -3.830  1.00 20.00     0.067 C 
HETATM    7 BR10 UNL     1     -33.414  16.641  -5.113  1.00 20.00    -0.090 Br
BRANCH   6   8
HETATM    8  C8  UNL     1     -34.358  14.486  -3.442  1.00 20.00    -0.008 C 
HETATM    9  C5  UNL     1     -32.859  14.237  -3.647  1.00 20.00     0.011 C 
HETATM   10  C6  UNL     1     -35.155  13.430  -4.172  1.00 20.00     0.011 C 
ENDBRANCH   6   8
ENDBRANCH   4   6
TORSDOF 2
ENDMDL
MODEL 4
REMARK VINA RESULT:      -3.8      2.165      4.149
REMARK  2 active torsions:
REMARK  status: ('A' for Active; 'I' for Inactive)
REMARK    1  A    between atoms: C4_4  and  C7_7 
REMARK    2  A    between atoms: C7_7  and  C8_8 
ROOT
HETATM    1  C1  UNL     1     -33.854  16.285  -2.354  1.00 20.00     0.034 C 
HETATM    2  C2  UNL     1     -34.431  16.756  -1.035  1.00 20.00     0.168 C 
HETATM    3  C3  UNL     1     -36.055  17.026  -2.682  1.00 20.00     0.173 C 
HETATM    4  C4  UNL     1     -35.105  15.925  -3.124  1.00 20.00     0.026 C 
HETATM    5  O9  UNL     1     -35.709  17.341  -1.325  1.00 20.00    -0.391 OA
ENDROOT
BRANCH   4   6
HETATM    6  C7  UNL     1     -34.911  15.852  -4.627  1.00 20.00     0.067 C 
HETATM    7 BR10 UNL     1     -33.509  17.136  -5.133  1.00 20.00    -0.090 Br
BRANCH   6   8
HETATM    8  C8  UNL     1     -34.583  14.458  -5.199  1.00 20.00    -0.008 C 
HETATM    9  C5  UNL     1     -35.163  14.304  -6.610  1.00 20.00     0.011 C 
HETATM   10  C6  UNL     1     -35.045  13.311  -4.330  1.00 20.00     0.011 C 
ENDBRANCH   6   8
ENDBRANCH   4   6
TORSDOF 2
ENDMDL
MODEL 5
REMARK VINA RESULT:      -3.8      2.545      4.304
REMARK  2 active torsions:
REMARK  status: ('A' for Active; 'I' for Inactive)
REMARK    1  A    between atoms: C4_4  and  C7_7 
REMARK    2  A    between atoms: C7_7  and  C8_8 
ROOT
HETATM    1  C1  UNL     1     -34.593  16.549  -0.923  1.00 20.00     0.034 C 
HETATM    2  C2  UNL     1     -34.053  17.951  -0.734  1.00 20.00     0.168 C 
HETATM    3  C3  UNL     1     -33.861  17.390  -2.986  1.00 20.00     0.173 C 
HETATM    4  C4  UNL     1     -34.986  16.565  -2.383  1.00 20.00     0.026 C 
HETATM    5  O9  UNL     1     -33.480  18.349  -1.988  1.00 20.00    -0.391 OA
ENDROOT
BRANCH   4   6
HETATM    6  C7  UNL     1     -35.135  15.189  -3.003  1.00 20.00     0.067 C 
HETATM    7 BR10 UNL     1     -36.955  15.034  -3.735  1.00 20.00    -0.090 Br
BRANCH   6   8
HETATM    8  C8  UNL     1     -34.098  14.816  -4.081  1.00 20.00    -0.008 C 
HETATM    9  C5  UNL     1     -34.788  14.547  -5.424  1.00 20.00     0.011 C 
HETATM   10  C6  UNL     1     -33.223  13.640  -3.714  1.00 20.00     0.011 C 
ENDBRANCH   6   8
ENDBRANCH   4   6
TORSDOF 2
ENDMDL
MODEL 6
REMARK VINA RESULT:      -3.8      2.301      2.972
REMARK  2 active torsions:
REMARK  status: ('A' for Active; 'I' for Inactive)
REMARK    1  A    between atoms: C4_4  and  C7_7 
REMARK    2  A    between atoms: C7_7  and  C8_8 
ROOT
HETATM    1  C1  UNL     1     -37.533  16.396  -3.443  1.00 20.00     0.034 C 
HETATM    2  C2  UNL     1     -38.573  15.295  -3.495  1.00 20.00     0.168 C 
HETATM    3  C3  UNL     1     -36.489  14.355  -3.942  1.00 20.00     0.173 C 
HETATM    4  C4  UNL     1     -36.278  15.616  -3.121  1.00 20.00     0.026 C 
HETATM    5  O9  UNL     1     -37.904  14.112  -3.957  1.00 20.00    -0.391 OA
ENDROOT
BRANCH   4   6
HETATM    6  C7  UNL     1     -34.989  16.348  -3.445  1.00 20.00     0.067 C 
HETATM    7 BR10 UNL     1     -34.070  16.762  -1.756  1.00 20.00    -0.090 Br
BRANCH   6   8
HETATM    8  C8  UNL     1     -34.025  15.627  -4.409  1.00 20.00    -0.008 C 
HETATM    9  C5  UNL     1     -32.845  15.021  -3.639  1.00 20.00     0.011 C 
HETATM   10  C6  UNL     1     -33.509  16.499  -5.530  1.00 20.00     0.011 C 
ENDBRANCH   6   8
ENDBRANCH   4   6
TORSDOF 2
ENDMDL
MODEL 7
REMARK VINA RESULT:      -3.8      1.845      2.576
REMARK  2 active torsions:
REMARK  status: ('A' for Active; 'I' for Inactive)
REMARK    1  A    between atoms: C4_4  and  C7_7 
REMARK    2  A    between atoms: C7_7  and  C8_8 
ROOT
HETATM    1  C1  UNL     1     -33.790  14.645  -3.423  1.00 20.00     0.034 C 
HETATM    2  C2  UNL     1     -33.722  13.300  -4.115  1.00 20.00     0.168 C 
HETATM    3  C3  UNL     1     -35.951  13.970  -4.034  1.00 20.00     0.173 C 
HETATM    4  C4  UNL     1     -35.077  15.212  -3.979  1.00 20.00     0.026 C 
HETATM    5  O9  UNL     1     -35.076  12.869  -4.321  1.00 20.00    -0.391 OA
ENDROOT
BRANCH   4   6
HETATM    6  C7  UNL     1     -35.668  16.339  -3.154  1.00 20.00     0.067 C 
HETATM    7 BR10 UNL     1     -34.647  16.480  -1.477  1.00 20.00    -0.090 Br
BRANCH   6   8
HETATM    8  C8  UNL     1     -35.742  17.716  -3.845  1.00 20.00    -0.008 C 
HETATM    9  C5  UNL     1     -36.256  17.571  -5.282  1.00 20.00     0.011 C 
HETATM   10  C6  UNL     1     -34.436  18.477  -3.844  1.00 20.00     0.011 C 
ENDBRANCH   6   8
ENDBRANCH   4   6
TORSDOF 2
ENDMDL
MODEL 8
REMARK VINA RESULT:      -3.8      2.567      4.045
REMARK  2 active torsions:
REMARK  status: ('A' for Active; 'I' for Inactive)
REMARK    1  A    between atoms: C4_4  and  C7_7 
REMARK    2  A    between atoms: C7_7  and  C8_8 
ROOT
HETATM    1  C1  UNL     1     -34.237  18.414  -3.523  1.00 20.00     0.034 C 
HETATM    2  C2  UNL     1     -34.121  19.174  -4.828  1.00 20.00     0.168 C 
HETATM    3  C3  UNL     1     -33.351  17.004  -5.174  1.00 20.00     0.173 C 
HETATM    4  C4  UNL     1     -34.324  16.984  -4.008  1.00 20.00     0.026 C 
HETATM    5  O9  UNL     1     -33.431  18.317  -5.749  1.00 20.00    -0.391 OA
ENDROOT
BRANCH   4   6
HETATM    6  C7  UNL     1     -33.993  15.947  -2.952  1.00 20.00     0.067 C 
HETATM    7 BR10 UNL     1     -34.553  16.647  -1.200  1.00 20.00    -0.090 Br
BRANCH   6   8
HETATM    8  C8  UNL     1     -34.586  14.541  -3.174  1.00 20.00    -0.008 C 
HETATM    9  C5  UNL     1     -33.569  13.631  -3.872  1.00 20.00     0.011 C 
HETATM   10  C6  UNL     1     -35.887  14.536  -3.942  1.00 20.00     0.011 C 
ENDBRANCH   6   8
ENDBRANCH   4   6
TORSDOF 2
ENDMDL
MODEL 9
REMARK VINA RESULT:      -3.7      2.043      2.437
REMARK  2 active torsions:
REMARK  status: ('A' for Active; 'I' for Inactive)
REMARK    1  A    between atoms: C4_4  and  C7_7 
REMARK    2  A    between atoms: C7_7  and  C8_8 
ROOT
HETATM    1  C1  UNL     1     -35.359  14.898  -5.631  1.00 20.00     0.034 C 
HETATM    2  C2  UNL     1     -36.640  15.128  -6.406  1.00 20.00     0.168 C 
HETATM    3  C3  UNL     1     -37.142  15.168  -4.131  1.00 20.00     0.173 C 
HETATM    4  C4  UNL     1     -35.681  15.550  -4.305  1.00 20.00     0.026 C 
HETATM    5  O9  UNL     1     -37.710  15.127  -5.449  1.00 20.00    -0.391 OA
ENDROOT
BRANCH   4   6
HETATM    6  C7  UNL     1     -34.793  15.103  -3.160  1.00 20.00     0.067 C 
HETATM    7 BR10 UNL     1     -33.573  13.711  -3.829  1.00 20.00    -0.090 Br
BRANCH   6   8
HETATM    8  C8  UNL     1     -33.990  16.213  -2.452  1.00 20.00    -0.008 C 
HETATM    9  C5  UNL     1     -34.597  16.527  -1.080  1.00 20.00     0.011 C 
HETATM   10  C6  UNL     1     -33.861  17.486  -3.256  1.00 20.00     0.011 C 
ENDBRANCH   6   8
ENDBRANCH   4   6
TORSDOF 2
ENDMDL
