MODEL 1
REMARK VINA RESULT:      -4.4      0.000      0.000
REMARK  3 active torsions:
REMARK  status: ('A' for Active; 'I' for Inactive)
REMARK    1  A    between atoms: C3_3  and  C9_9 
REMARK    2  A    between atoms: C3_3  and  O10_10 
REMARK    3  A    between atoms: C8_8  and  C9_9 
ROOT
HETATM    1  C1  UNL     1     -32.997  14.211  -3.480  1.00 20.00     0.046 A 
HETATM    2  C2  UNL     1     -33.999  14.001  -4.585  1.00 20.00     0.019 A 
HETATM    3  C3  UNL     1     -33.559  15.401  -4.216  1.00 20.00     0.068 A 
HETATM    4  C4  UNL     1     -35.362  13.485  -4.276  1.00 20.00     0.013 C 
ENDROOT
BRANCH   3   5
HETATM    5  C9  UNL     1     -34.488  16.390  -3.486  1.00 20.00    -0.017 C 
HETATM    6  C6  UNL     1     -33.751  17.730  -3.330  1.00 20.00     0.018 C 
HETATM    7  C7  UNL     1     -35.747  16.602  -4.343  1.00 20.00     0.018 C 
BRANCH   5   8
HETATM    8  C8  UNL     1     -34.847  15.786  -2.104  1.00 20.00     0.007 C 
HETATM    9  C5  UNL     1     -34.554  16.669  -0.897  1.00 20.00     0.006 C 
ENDBRANCH   5   8
ENDBRANCH   3   5
BRANCH   3  10
HETATM   10  O10 UNL     1     -32.670  16.037  -5.151  1.00 20.00    -0.389 OA
HETATM   11  H28 UNL     1     -32.386  15.340  -5.758  1.00 20.00     0.210 HD
ENDBRANCH   3  10
TORSDOF 3
ENDMDL
MODEL 2
REMARK VINA RESULT:      -4.3      1.149      2.754
REMARK  3 active torsions:
REMARK  status: ('A' for Active; 'I' for Inactive)
REMARK    1  A    between atoms: C3_3  and  C9_9 
REMARK    2  A    between atoms: C3_3  and  O10_10 
REMARK    3  A    between atoms: C8_8  and  C9_9 
ROOT
HETATM    1  C1  UNL     1     -34.446  15.141  -6.537  1.00 20.00     0.046 A 
HETATM    2  C2  UNL     1     -35.018  16.324  -5.800  1.00 20.00     0.019 A 
HETATM    3  C3  UNL     1     -33.941  15.477  -5.157  1.00 20.00     0.068 A 
HETATM    4  C4  UNL     1     -36.432  16.307  -5.332  1.00 20.00     0.013 C 
ENDROOT
BRANCH   3   5
HETATM    5  C9  UNL     1     -34.233  14.530  -3.977  1.00 20.00    -0.017 C 
HETATM    6  C6  UNL     1     -35.127  13.384  -4.480  1.00 20.00     0.018 C 
HETATM    7  C7  UNL     1     -32.901  13.949  -3.475  1.00 20.00     0.018 C 
BRANCH   5   8
HETATM    8  C8  UNL     1     -34.943  15.345  -2.866  1.00 20.00     0.007 C 
HETATM    9  C5  UNL     1     -34.063  16.322  -2.095  1.00 20.00     0.006 C 
ENDBRANCH   5   8
ENDBRANCH   3   5
BRANCH   3  10
HETATM   10  O10 UNL     1     -32.635  16.078  -5.097  1.00 20.00    -0.389 OA
HETATM   11  H28 UNL     1     -32.160  15.604  -4.402  1.00 20.00     0.210 HD
ENDBRANCH   3  10
TORSDOF 3
ENDMDL
MODEL 3
REMARK VINA RESULT:      -4.3      1.797      3.175
REMARK  3 active torsions:
REMARK  status: ('A' for Active; 'I' for Inactive)
REMARK    1  A    between atoms: C3_3  and  C9_9 
REMARK    2  A    between atoms: C3_3  and  O10_10 
REMARK    3  A    between atoms: C8_8  and  C9_9 
ROOT
HETATM    1  C1  UNL     1     -34.188  15.312  -3.090  1.00 20.00     0.046 A 
HETATM    2  C2  UNL     1     -33.977  14.022  -3.839  1.00 20.00     0.019 A 
HETATM    3  C3  UNL     1     -33.631  15.343  -4.491  1.00 20.00     0.068 A 
HETATM    4  C4  UNL     1     -35.144  13.201  -4.268  1.00 20.00     0.013 C 
ENDROOT
BRANCH   3   5
HETATM    5  C9  UNL     1     -34.468  15.937  -5.640  1.00 20.00    -0.017 C 
HETATM    6  C6  UNL     1     -35.937  16.006  -5.191  1.00 20.00     0.018 C 
HETATM    7  C7  UNL     1     -33.960  17.360  -5.929  1.00 20.00     0.018 C 
BRANCH   5   8
HETATM    8  C8  UNL     1     -34.306  15.023  -6.881  1.00 20.00     0.007 C 
HETATM    9  C5  UNL     1     -35.582  14.727  -7.659  1.00 20.00     0.006 C 
ENDBRANCH   5   8
ENDBRANCH   3   5
BRANCH   3  10
HETATM   10  O10 UNL     1     -32.225  15.629  -4.600  1.00 20.00    -0.389 OA
HETATM   11  H28 UNL     1     -32.134  16.202  -5.373  1.00 20.00     0.210 HD
ENDBRANCH   3  10
TORSDOF 3
ENDMDL
MODEL 4
REMARK VINA RESULT:      -4.3      1.199      3.090
REMARK  3 active torsions:
REMARK  status: ('A' for Active; 'I' for Inactive)
REMARK    1  A    between atoms: C3_3  and  C9_9 
REMARK    2  A    between atoms: C3_3  and  O10_10 
REMARK    3  A    between atoms: C8_8  and  C9_9 
ROOT
HETATM    1  C1  UNL     1     -34.088  17.428  -3.916  1.00 20.00     0.046 A 
HETATM    2  C2  UNL     1     -33.674  16.545  -2.767  1.00 20.00     0.019 A 
HETATM    3  C3  UNL     1     -33.700  15.994  -4.177  1.00 20.00     0.068 A 
HETATM    4  C4  UNL     1     -34.667  16.140  -1.734  1.00 20.00     0.013 C 
ENDROOT
BRANCH   3   5
HETATM    5  C9  UNL     1     -34.764  14.981  -4.645  1.00 20.00    -0.017 C 
HETATM    6  C6  UNL     1     -34.520  14.668  -6.131  1.00 20.00     0.018 C 
HETATM    7  C7  UNL     1     -34.605  13.692  -3.823  1.00 20.00     0.018 C 
BRANCH   5   8
HETATM    8  C8  UNL     1     -36.162  15.614  -4.429  1.00 20.00     0.007 C 
HETATM    9  C5  UNL     1     -37.259  14.660  -3.971  1.00 20.00     0.006 C 
ENDBRANCH   5   8
ENDBRANCH   3   5
BRANCH   3  10
HETATM   10  O10 UNL     1     -32.413  15.795  -4.787  1.00 20.00    -0.389 OA
HETATM   11  H28 UNL     1     -32.147  16.660  -5.127  1.00 20.00     0.210 HD
ENDBRANCH   3  10
TORSDOF 3
ENDMDL
MODEL 5
REMARK VINA RESULT:      -4.3      1.403      1.744
REMARK  3 active torsions:
REMARK  status: ('A' for Active; 'I' for Inactive)
REMARK    1  A    between atoms: C3_3  and  C9_9 
REMARK    2  A    between atoms: C3_3  and  O10_10 
REMARK    3  A    between atoms: C8_8  and  C9_9 
ROOT
HETATM    1  C1  UNL     1     -35.293  13.509  -4.189  1.00 20.00     0.046 A 
HETATM    2  C2  UNL     1     -34.626  13.694  -5.528  1.00 20.00     0.019 A 
HETATM    3  C3  UNL     1     -34.061  14.373  -4.299  1.00 20.00     0.068 A 
HETATM    4  C4  UNL     1     -35.314  14.449  -6.612  1.00 20.00     0.013 C 
ENDROOT
BRANCH   3   5
HETATM    5  C9  UNL     1     -34.165  15.895  -4.079  1.00 20.00    -0.017 C 
HETATM    6  C6  UNL     1     -33.329  16.604  -5.157  1.00 20.00     0.018 C 
HETATM    7  C7  UNL     1     -35.638  16.310  -4.227  1.00 20.00     0.018 C 
BRANCH   5   8
HETATM    8  C8  UNL     1     -33.634  16.216  -2.658  1.00 20.00     0.007 C 
HETATM    9  C5  UNL     1     -34.683  16.272  -1.554  1.00 20.00     0.006 C 
ENDBRANCH   5   8
ENDBRANCH   3   5
BRANCH   3  10
HETATM   10  O10 UNL     1     -32.847  13.802  -3.780  1.00 20.00    -0.389 OA
HETATM   11  H28 UNL     1     -33.121  13.045  -3.246  1.00 20.00     0.210 HD
ENDBRANCH   3  10
TORSDOF 3
ENDMDL
MODEL 6
REMARK VINA RESULT:      -4.2      1.881      3.066
REMARK  3 active torsions:
REMARK  status: ('A' for Active; 'I' for Inactive)
REMARK    1  A    between atoms: C3_3  and  C9_9 
REMARK    2  A    between atoms: C3_3  and  O10_10 
REMARK    3  A    between atoms: C8_8  and  C9_9 
ROOT
HETATM    1  C1  UNL     1     -33.128  14.053  -3.787  1.00 20.00     0.046 A 
HETATM    2  C2  UNL     1     -34.454  14.365  -3.143  1.00 20.00     0.019 A 
HETATM    3  C3  UNL     1     -34.361  14.192  -4.643  1.00 20.00     0.068 A 
HETATM    4  C4  UNL     1     -34.687  15.691  -2.505  1.00 20.00     0.013 C 
ENDROOT
BRANCH   3   5
HETATM    5  C9  UNL     1     -34.493  15.378  -5.618  1.00 20.00    -0.017 C 
HETATM    6  C6  UNL     1     -34.447  14.837  -7.057  1.00 20.00     0.018 C 
HETATM    7  C7  UNL     1     -35.850  16.060  -5.377  1.00 20.00     0.018 C 
BRANCH   5   8
HETATM    8  C8  UNL     1     -33.320  16.356  -5.351  1.00 20.00     0.007 C 
HETATM    9  C5  UNL     1     -33.645  17.838  -5.497  1.00 20.00     0.006 C 
ENDBRANCH   5   8
ENDBRANCH   3   5
BRANCH   3  10
HETATM   10  O10 UNL     1     -34.906  12.965  -5.160  1.00 20.00    -0.389 OA
HETATM   11  H28 UNL     1     -35.789  12.887  -4.774  1.00 20.00     0.210 HD
ENDBRANCH   3  10
TORSDOF 3
ENDMDL
MODEL 7
REMARK VINA RESULT:      -4.2      1.837      2.209
REMARK  3 active torsions:
REMARK  status: ('A' for Active; 'I' for Inactive)
REMARK    1  A    between atoms: C3_3  and  C9_9 
REMARK    2  A    between atoms: C3_3  and  O10_10 
REMARK    3  A    between atoms: C8_8  and  C9_9 
ROOT
HETATM    1  C1  UNL     1     -35.515  14.348  -5.038  1.00 20.00     0.046 A 
HETATM    2  C2  UNL     1     -34.844  13.737  -3.835  1.00 20.00     0.019 A 
HETATM    3  C3  UNL     1     -35.618  15.031  -3.697  1.00 20.00     0.068 A 
HETATM    4  C4  UNL     1     -33.358  13.684  -3.748  1.00 20.00     0.013 C 
ENDROOT
BRANCH   3   5
HETATM    5  C9  UNL     1     -34.922  16.386  -3.467  1.00 20.00    -0.017 C 
HETATM    6  C6  UNL     1     -34.099  16.732  -4.719  1.00 20.00     0.018 C 
HETATM    7  C7  UNL     1     -36.002  17.460  -3.258  1.00 20.00     0.018 C 
BRANCH   5   8
HETATM    8  C8  UNL     1     -34.012  16.257  -2.218  1.00 20.00     0.007 C 
HETATM    9  C5  UNL     1     -34.661  16.610  -0.885  1.00 20.00     0.006 C 
ENDBRANCH   5   8
ENDBRANCH   3   5
BRANCH   3  10
HETATM   10  O10 UNL     1     -36.892  14.922  -3.036  1.00 20.00    -0.389 OA
HETATM   11  H28 UNL     1     -36.839  15.506  -2.268  1.00 20.00     0.210 HD
ENDBRANCH   3  10
TORSDOF 3
ENDMDL
MODEL 8
REMARK VINA RESULT:      -4.2      1.366      3.383
REMARK  3 active torsions:
REMARK  status: ('A' for Active; 'I' for Inactive)
REMARK    1  A    between atoms: C3_3  and  C9_9 
REMARK    2  A    between atoms: C3_3  and  O10_10 
REMARK    3  A    between atoms: C8_8  and  C9_9 
ROOT
HETATM    1  C1  UNL     1     -33.849  17.376  -3.846  1.00 20.00     0.046 A 
HETATM    2  C2  UNL     1     -33.640  16.433  -2.690  1.00 20.00     0.019 A 
HETATM    3  C3  UNL     1     -33.595  15.913  -4.111  1.00 20.00     0.068 A 
HETATM    4  C4  UNL     1     -34.761  16.120  -1.761  1.00 20.00     0.013 C 
ENDROOT
BRANCH   3   5
HETATM    5  C9  UNL     1     -34.713  15.032  -4.701  1.00 20.00    -0.017 C 
HETATM    6  C6  UNL     1     -34.773  13.719  -3.903  1.00 20.00     0.018 C 
HETATM    7  C7  UNL     1     -36.051  15.775  -4.552  1.00 20.00     0.018 C 
BRANCH   5   8
HETATM    8  C8  UNL     1     -34.384  14.765  -6.192  1.00 20.00     0.007 C 
HETATM    9  C5  UNL     1     -34.707  15.900  -7.156  1.00 20.00     0.006 C 
ENDBRANCH   5   8
ENDBRANCH   3   5
BRANCH   3  10
HETATM   10  O10 UNL     1     -32.286  15.585  -4.610  1.00 20.00    -0.389 OA
HETATM   11  H28 UNL     1     -32.330  15.713  -5.567  1.00 20.00     0.210 HD
ENDBRANCH   3  10
TORSDOF 3
ENDMDL
MODEL 9
REMARK VINA RESULT:      -4.2      1.198      3.038
REMARK  3 active torsions:
REMARK  status: ('A' for Active; 'I' for Inactive)
REMARK    1  A    between atoms: C3_3  and  C9_9 
REMARK    2  A    between atoms: C3_3  and  O10_10 
REMARK    3  A    between atoms: C8_8  and  C9_9 
ROOT
HETATM    1  C1  UNL     1     -33.979  16.610  -5.906  1.00 20.00     0.046 A 
HETATM    2  C2  UNL     1     -33.543  17.618  -4.874  1.00 20.00     0.019 A 
HETATM    3  C3  UNL     1     -33.509  16.139  -4.552  1.00 20.00     0.068 A 
HETATM    4  C4  UNL     1     -34.535  18.545  -4.262  1.00 20.00     0.013 C 
ENDROOT
BRANCH   3   5
HETATM    5  C9  UNL     1     -34.506  15.487  -3.574  1.00 20.00    -0.017 C 
HETATM    6  C6  UNL     1     -34.310  16.114  -2.184  1.00 20.00     0.018 C 
HETATM    7  C7  UNL     1     -35.933  15.779  -4.065  1.00 20.00     0.018 C 
BRANCH   5   8
HETATM    8  C8  UNL     1     -34.226  13.962  -3.544  1.00 20.00     0.007 C 
HETATM    9  C5  UNL     1     -34.812  13.157  -4.698  1.00 20.00     0.006 C 
ENDBRANCH   5   8
ENDBRANCH   3   5
BRANCH   3  10
HETATM   10  O10 UNL     1     -32.200  15.543  -4.516  1.00 20.00    -0.389 OA
HETATM   11  H28 UNL     1     -32.143  15.088  -3.665  1.00 20.00     0.210 HD
ENDBRANCH   3  10
TORSDOF 3
ENDMDL
