MODEL 1
REMARK VINA RESULT:      -4.7      0.000      0.000
REMARK  2 active torsions:
REMARK  status: ('A' for Active; 'I' for Inactive)
REMARK    1  A    between atoms: C3_3  and  C6_6 
REMARK    2  A    between atoms: C6_6  and  O9_9 
ROOT
HETATM    1  C2  UNL     1     -35.678   5.701   3.810  1.00 20.00     0.045 A 
HETATM    2  C5  UNL     1     -34.743   4.975   4.742  1.00 20.00     0.019 A 
HETATM    3  C6  UNL     1     -34.201   5.662   3.507  1.00 20.00     0.066 A 
HETATM    4  C8  UNL     1     -34.490   5.504   6.111  1.00 20.00     0.013 C 
ENDROOT
BRANCH   3   5
HETATM    5  C3  UNL     1     -33.332   6.916   3.536  1.00 20.00     0.024 A 
HETATM    6  C1  UNL     1     -31.841   6.863   3.748  1.00 20.00     0.012 A 
HETATM    7  C4  UNL     1     -32.397   7.277   2.410  1.00 20.00    -0.011 A 
HETATM    8  C7  UNL     1     -32.281   8.690   1.954  1.00 20.00     0.010 C 
ENDBRANCH   3   5
BRANCH   3   9
HETATM    9  O9  UNL     1     -33.838   4.753   2.442  1.00 20.00    -0.389 OA
HETATM   10  H23 UNL     1     -33.912   3.870   2.824  1.00 20.00     0.210 HD
ENDBRANCH   3   9
TORSDOF 2
ENDMDL
MODEL 2
REMARK VINA RESULT:      -4.6      0.952      3.931
REMARK  2 active torsions:
REMARK  status: ('A' for Active; 'I' for Inactive)
REMARK    1  A    between atoms: C3_3  and  C6_6 
REMARK    2  A    between atoms: C6_6  and  O9_9 
ROOT
HETATM    1  C2  UNL     1     -31.323   7.587   3.658  1.00 20.00     0.045 A 
HETATM    2  C5  UNL     1     -32.059   7.812   2.362  1.00 20.00     0.019 A 
HETATM    3  C6  UNL     1     -32.437   6.651   3.257  1.00 20.00     0.066 A 
HETATM    4  C8  UNL     1     -32.943   8.999   2.200  1.00 20.00     0.013 C 
ENDROOT
BRANCH   3   5
HETATM    5  C3  UNL     1     -33.745   6.562   4.038  1.00 20.00     0.024 A 
HETATM    6  C1  UNL     1     -34.836   5.587   3.681  1.00 20.00     0.012 A 
HETATM    7  C4  UNL     1     -34.058   5.411   4.959  1.00 20.00    -0.011 A 
HETATM    8  C7  UNL     1     -34.712   5.658   6.275  1.00 20.00     0.010 C 
ENDBRANCH   3   5
BRANCH   3   9
HETATM    9  O9  UNL     1     -31.985   5.365   2.773  1.00 20.00    -0.389 OA
HETATM   10  H23 UNL     1     -31.457   4.994   3.489  1.00 20.00     0.210 HD
ENDBRANCH   3   9
TORSDOF 2
ENDMDL
MODEL 3
REMARK VINA RESULT:      -4.5     11.165     12.848
REMARK  2 active torsions:
REMARK  status: ('A' for Active; 'I' for Inactive)
REMARK    1  A    between atoms: C3_3  and  C6_6 
REMARK    2  A    between atoms: C6_6  and  O9_9 
ROOT
HETATM    1  C2  UNL     1     -33.729  14.054  -3.745  1.00 20.00     0.045 A 
HETATM    2  C5  UNL     1     -34.062  15.376  -3.103  1.00 20.00     0.019 A 
HETATM    3  C6  UNL     1     -33.681  15.318  -4.567  1.00 20.00     0.066 A 
HETATM    4  C8  UNL     1     -35.455  15.665  -2.664  1.00 20.00     0.013 C 
ENDROOT
BRANCH   3   5
HETATM    5  C3  UNL     1     -34.652  15.579  -5.715  1.00 20.00     0.024 A 
HETATM    6  C1  UNL     1     -34.306  16.467  -6.882  1.00 20.00     0.012 A 
HETATM    7  C4  UNL     1     -34.460  14.982  -7.086  1.00 20.00    -0.011 A 
HETATM    8  C7  UNL     1     -35.625  14.445  -7.842  1.00 20.00     0.010 C 
ENDBRANCH   3   5
BRANCH   3   9
HETATM    9  O9  UNL     1     -32.344  15.795  -4.845  1.00 20.00    -0.389 OA
HETATM   10  H23 UNL     1     -31.830  15.585  -4.056  1.00 20.00     0.210 HD
ENDBRANCH   3   9
TORSDOF 2
ENDMDL
MODEL 4
REMARK VINA RESULT:      -4.3     10.938     12.492
REMARK  2 active torsions:
REMARK  status: ('A' for Active; 'I' for Inactive)
REMARK    1  A    between atoms: C3_3  and  C6_6 
REMARK    2  A    between atoms: C6_6  and  O9_9 
ROOT
HETATM    1  C2  UNL     1     -35.811  14.585  -3.779  1.00 20.00     0.045 A 
HETATM    2  C5  UNL     1     -34.361  14.502  -3.376  1.00 20.00     0.019 A 
HETATM    3  C6  UNL     1     -34.802  13.993  -4.732  1.00 20.00     0.066 A 
HETATM    4  C8  UNL     1     -33.554  15.745  -3.227  1.00 20.00     0.013 C 
ENDROOT
BRANCH   3   5
HETATM    5  C3  UNL     1     -34.444  14.663  -6.056  1.00 20.00     0.024 A 
HETATM    6  C1  UNL     1     -35.235  14.437  -7.317  1.00 20.00     0.012 A 
HETATM    7  C4  UNL     1     -35.263  15.783  -6.641  1.00 20.00    -0.011 A 
HETATM    8  C7  UNL     1     -34.593  16.954  -7.274  1.00 20.00     0.010 C 
ENDBRANCH   3   5
BRANCH   3   9
HETATM    9  O9  UNL     1     -34.852  12.551  -4.829  1.00 20.00    -0.389 OA
HETATM   10  H23 UNL     1     -34.854  12.234  -3.918  1.00 20.00     0.210 HD
ENDBRANCH   3   9
TORSDOF 2
ENDMDL
MODEL 5
REMARK VINA RESULT:      -4.3     11.056     12.045
REMARK  2 active torsions:
REMARK  status: ('A' for Active; 'I' for Inactive)
REMARK    1  A    between atoms: C3_3  and  C6_6 
REMARK    2  A    between atoms: C6_6  and  O9_9 
ROOT
HETATM    1  C2  UNL     1     -34.294  13.313  -4.624  1.00 20.00     0.045 A 
HETATM    2  C5  UNL     1     -35.087  13.932  -5.746  1.00 20.00     0.019 A 
HETATM    3  C6  UNL     1     -35.393  14.298  -4.310  1.00 20.00     0.066 A 
HETATM    4  C8  UNL     1     -34.436  14.893  -6.681  1.00 20.00     0.013 C 
ENDROOT
BRANCH   3   5
HETATM    5  C3  UNL     1     -35.107  15.665  -3.694  1.00 20.00     0.024 A 
HETATM    6  C1  UNL     1     -36.141  16.434  -2.915  1.00 20.00     0.012 A 
HETATM    7  C4  UNL     1     -34.938  15.863  -2.210  1.00 20.00    -0.011 A 
HETATM    8  C7  UNL     1     -33.876  16.766  -1.688  1.00 20.00     0.010 C 
ENDBRANCH   3   5
BRANCH   3   9
HETATM    9  O9  UNL     1     -36.602  13.694  -3.795  1.00 20.00    -0.389 OA
HETATM   10  H23 UNL     1     -37.116  14.424  -3.429  1.00 20.00     0.210 HD
ENDBRANCH   3   9
TORSDOF 2
ENDMDL
MODEL 6
REMARK VINA RESULT:      -4.3     10.854     11.542
REMARK  2 active torsions:
REMARK  status: ('A' for Active; 'I' for Inactive)
REMARK    1  A    between atoms: C3_3  and  C6_6 
REMARK    2  A    between atoms: C6_6  and  O9_9 
ROOT
HETATM    1  C2  UNL     1     -35.823  14.715  -5.345  1.00 20.00     0.045 A 
HETATM    2  C5  UNL     1     -36.790  14.443  -4.221  1.00 20.00     0.019 A 
HETATM    3  C6  UNL     1     -35.347  14.003  -4.102  1.00 20.00     0.066 A 
HETATM    4  C8  UNL     1     -37.337  15.570  -3.416  1.00 20.00     0.013 C 
ENDROOT
BRANCH   3   5
HETATM    5  C3  UNL     1     -34.337  14.628  -3.144  1.00 20.00     0.024 A 
HETATM    6  C1  UNL     1     -32.946  15.015  -3.573  1.00 20.00     0.012 A 
HETATM    7  C4  UNL     1     -33.948  16.082  -3.216  1.00 20.00    -0.011 A 
HETATM    8  C7  UNL     1     -33.783  16.879  -1.969  1.00 20.00     0.010 C 
ENDBRANCH   3   5
BRANCH   3   9
HETATM    9  O9  UNL     1     -35.152  12.580  -4.272  1.00 20.00    -0.389 OA
HETATM   10  H23 UNL     1     -35.172  12.212  -3.381  1.00 20.00     0.210 HD
ENDBRANCH   3   9
TORSDOF 2
ENDMDL
MODEL 7
REMARK VINA RESULT:      -4.2     11.128     12.965
REMARK  2 active torsions:
REMARK  status: ('A' for Active; 'I' for Inactive)
REMARK    1  A    between atoms: C3_3  and  C6_6 
REMARK    2  A    between atoms: C6_6  and  O9_9 
ROOT
HETATM    1  C2  UNL     1     -34.509  16.813  -6.416  1.00 20.00     0.045 A 
HETATM    2  C5  UNL     1     -34.314  15.354  -6.739  1.00 20.00     0.019 A 
HETATM    3  C6  UNL     1     -33.921  15.889  -5.379  1.00 20.00     0.066 A 
HETATM    4  C8  UNL     1     -35.494  14.464  -6.923  1.00 20.00     0.013 C 
ENDROOT
BRANCH   3   5
HETATM    5  C3  UNL     1     -34.652  15.553  -4.082  1.00 20.00     0.024 A 
HETATM    6  C1  UNL     1     -34.330  14.330  -3.264  1.00 20.00     0.012 A 
HETATM    7  C4  UNL     1     -34.006  15.701  -2.729  1.00 20.00    -0.011 A 
HETATM    8  C7  UNL     1     -34.778  16.260  -1.584  1.00 20.00     0.010 C 
ENDBRANCH   3   5
BRANCH   3   9
HETATM    9  O9  UNL     1     -32.494  16.035  -5.195  1.00 20.00    -0.389 OA
HETATM   10  H23 UNL     1     -32.383  16.854  -4.698  1.00 20.00     0.210 HD
ENDBRANCH   3   9
TORSDOF 2
ENDMDL
MODEL 8
REMARK VINA RESULT:      -4.1      1.156      3.488
REMARK  2 active torsions:
REMARK  status: ('A' for Active; 'I' for Inactive)
REMARK    1  A    between atoms: C3_3  and  C6_6 
REMARK    2  A    between atoms: C6_6  and  O9_9 
ROOT
HETATM    1  C2  UNL     1     -32.073   5.489   3.244  1.00 20.00     0.045 A 
HETATM    2  C5  UNL     1     -32.502   6.740   2.522  1.00 20.00     0.019 A 
HETATM    3  C6  UNL     1     -33.526   5.895   3.249  1.00 20.00     0.066 A 
HETATM    4  C8  UNL     1     -32.085   8.077   3.028  1.00 20.00     0.013 C 
ENDROOT
BRANCH   3   5
HETATM    5  C3  UNL     1     -34.245   6.328   4.523  1.00 20.00     0.024 A 
HETATM    6  C1  UNL     1     -34.828   5.340   5.499  1.00 20.00     0.012 A 
HETATM    7  C4  UNL     1     -33.632   6.168   5.890  1.00 20.00    -0.011 A 
HETATM    8  C7  UNL     1     -33.767   7.249   6.907  1.00 20.00     0.010 C 
ENDBRANCH   3   5
BRANCH   3   9
HETATM    9  O9  UNL     1     -34.365   5.107   2.373  1.00 20.00    -0.389 OA
HETATM   10  H23 UNL     1     -35.122   4.846   2.912  1.00 20.00     0.210 HD
ENDBRANCH   3   9
TORSDOF 2
ENDMDL
MODEL 9
REMARK VINA RESULT:      -4.1     11.038     13.034
REMARK  2 active torsions:
REMARK  status: ('A' for Active; 'I' for Inactive)
REMARK    1  A    between atoms: C3_3  and  C6_6 
REMARK    2  A    between atoms: C6_6  and  O9_9 
ROOT
HETATM    1  C2  UNL     1     -33.658  17.279  -3.833  1.00 20.00     0.045 A 
HETATM    2  C5  UNL     1     -33.399  17.293  -5.318  1.00 20.00     0.019 A 
HETATM    3  C6  UNL     1     -33.466  15.978  -4.572  1.00 20.00     0.066 A 
HETATM    4  C8  UNL     1     -34.472  17.718  -6.260  1.00 20.00     0.013 C 
ENDROOT
BRANCH   3   5
HETATM    5  C3  UNL     1     -34.591  14.959  -4.730  1.00 20.00     0.024 A 
HETATM    6  C1  UNL     1     -34.592  13.636  -4.011  1.00 20.00     0.012 A 
HETATM    7  C4  UNL     1     -35.599  14.694  -3.642  1.00 20.00    -0.011 A 
HETATM    8  C7  UNL     1     -37.038  14.510  -3.978  1.00 20.00     0.010 C 
ENDBRANCH   3   5
BRANCH   3   9
HETATM    9  O9  UNL     1     -32.176  15.359  -4.358  1.00 20.00    -0.389 OA
HETATM   10  H23 UNL     1     -31.854  15.130  -5.239  1.00 20.00     0.210 HD
ENDBRANCH   3   9
TORSDOF 2
ENDMDL
