MODEL 1
REMARK VINA RESULT:      -4.3      0.000      0.000
REMARK  3 active torsions:
REMARK  status: ('A' for Active; 'I' for Inactive)
REMARK    1  A    between atoms: C1_1  and  C7_7 
REMARK    2  A    between atoms: C1_1  and  C8_8 
REMARK    3  A    between atoms: C8_8  and  C9_9 
ROOT
HETATM    1  C3  UNL     1     -32.623  15.067  -3.747  1.00 20.00     0.018 C 
HETATM    2  C8  UNL     1     -34.054  14.642  -3.403  1.00 20.00     0.058 C 
ENDROOT
BRANCH   2   3
HETATM    3  C1  UNL     1     -34.584  13.798  -4.569  1.00 20.00     0.131 C 
HETATM    4  O10 UNL     1     -35.110  12.700  -4.387  1.00 20.00    -0.298 OA
BRANCH   3   5
HETATM    5  C7  UNL     1     -34.447  14.405  -5.957  1.00 20.00     0.074 C 
HETATM    6  C2  UNL     1     -35.786  14.606  -6.642  1.00 20.00     0.013 C 
ENDBRANCH   3   5
ENDBRANCH   2   3
BRANCH   2   7
HETATM    7  C9  UNL     1     -35.015  15.808  -3.001  1.00 20.00    -0.041 C 
HETATM    8  C4  UNL     1     -34.753  16.234  -1.541  1.00 20.00     0.015 C 
HETATM    9  C5  UNL     1     -36.504  15.439  -3.139  1.00 20.00     0.015 C 
HETATM   10  C6  UNL     1     -34.745  17.037  -3.897  1.00 20.00     0.015 C 
ENDBRANCH   2   7
TORSDOF 3
ENDMDL
MODEL 2
REMARK VINA RESULT:      -4.1      0.875      2.247
REMARK  3 active torsions:
REMARK  status: ('A' for Active; 'I' for Inactive)
REMARK    1  A    between atoms: C1_1  and  C7_7 
REMARK    2  A    between atoms: C1_1  and  C8_8 
REMARK    3  A    between atoms: C8_8  and  C9_9 
ROOT
HETATM    1  C3  UNL     1     -36.650  15.136  -3.432  1.00 20.00     0.018 C 
HETATM    2  C8  UNL     1     -35.370  15.270  -4.262  1.00 20.00     0.058 C 
ENDROOT
BRANCH   2   3
HETATM    3  C1  UNL     1     -35.104  13.916  -4.932  1.00 20.00     0.131 C 
HETATM    4  O10 UNL     1     -34.977  12.883  -4.275  1.00 20.00    -0.298 OA
BRANCH   3   5
HETATM    5  C7  UNL     1     -35.034  13.918  -6.451  1.00 20.00     0.074 C 
HETATM    6  C2  UNL     1     -34.359  15.161  -7.004  1.00 20.00     0.013 C 
ENDBRANCH   3   5
ENDBRANCH   2   3
BRANCH   2   7
HETATM    7  C9  UNL     1     -34.132  15.829  -3.489  1.00 20.00    -0.041 C 
HETATM    8  C4  UNL     1     -33.774  17.239  -4.004  1.00 20.00     0.015 C 
HETATM    9  C5  UNL     1     -32.884  14.935  -3.618  1.00 20.00     0.015 C 
HETATM   10  C6  UNL     1     -34.471  15.958  -1.988  1.00 20.00     0.015 C 
ENDBRANCH   2   7
TORSDOF 3
ENDMDL
MODEL 3
REMARK VINA RESULT:      -4.1      1.705      3.736
REMARK  3 active torsions:
REMARK  status: ('A' for Active; 'I' for Inactive)
REMARK    1  A    between atoms: C1_1  and  C7_7 
REMARK    2  A    between atoms: C1_1  and  C8_8 
REMARK    3  A    between atoms: C8_8  and  C9_9 
ROOT
HETATM    1  C3  UNL     1     -35.295  13.353  -4.420  1.00 20.00     0.018 C 
HETATM    2  C8  UNL     1     -34.202  14.311  -4.902  1.00 20.00     0.058 C 
ENDROOT
BRANCH   2   3
HETATM    3  C1  UNL     1     -33.515  14.897  -3.662  1.00 20.00     0.131 C 
HETATM    4  O10 UNL     1     -32.289  14.914  -3.549  1.00 20.00    -0.298 OA
BRANCH   3   5
HETATM    5  C7  UNL     1     -34.430  15.478  -2.596  1.00 20.00     0.074 C 
HETATM    6  C2  UNL     1     -33.847  16.715  -1.936  1.00 20.00     0.013 C 
ENDBRANCH   3   5
ENDBRANCH   2   3
BRANCH   2   7
HETATM    7  C9  UNL     1     -34.676  15.403  -5.916  1.00 20.00    -0.041 C 
HETATM    8  C4  UNL     1     -34.576  14.867  -7.361  1.00 20.00     0.015 C 
HETATM    9  C5  UNL     1     -33.861  16.707  -5.826  1.00 20.00     0.015 C 
HETATM   10  C6  UNL     1     -36.158  15.750  -5.654  1.00 20.00     0.015 C 
ENDBRANCH   2   7
TORSDOF 3
ENDMDL
MODEL 4
REMARK VINA RESULT:      -4.1      1.431      2.822
REMARK  3 active torsions:
REMARK  status: ('A' for Active; 'I' for Inactive)
REMARK    1  A    between atoms: C1_1  and  C7_7 
REMARK    2  A    between atoms: C1_1  and  C8_8 
REMARK    3  A    between atoms: C8_8  and  C9_9 
ROOT
HETATM    1  C3  UNL     1     -34.796  14.515  -6.996  1.00 20.00     0.018 C 
HETATM    2  C8  UNL     1     -34.860  14.860  -5.505  1.00 20.00     0.058 C 
ENDROOT
BRANCH   2   3
HETATM    3  C1  UNL     1     -34.430  13.615  -4.719  1.00 20.00     0.131 C 
HETATM    4  O10 UNL     1     -34.950  12.516  -4.913  1.00 20.00    -0.298 OA
BRANCH   3   5
HETATM    5  C7  UNL     1     -33.309  13.809  -3.709  1.00 20.00     0.074 C 
HETATM    6  C2  UNL     1     -32.834  15.249  -3.632  1.00 20.00     0.013 C 
ENDBRANCH   3   5
ENDBRANCH   2   3
BRANCH   2   7
HETATM    7  C9  UNL     1     -36.221  15.456  -5.018  1.00 20.00    -0.041 C 
HETATM    8  C4  UNL     1     -36.077  16.971  -4.759  1.00 20.00     0.015 C 
HETATM    9  C5  UNL     1     -36.747  14.792  -3.731  1.00 20.00     0.015 C 
HETATM   10  C6  UNL     1     -37.291  15.275  -6.117  1.00 20.00     0.015 C 
ENDBRANCH   2   7
TORSDOF 3
ENDMDL
MODEL 5
REMARK VINA RESULT:      -4.0      1.875      4.129
REMARK  3 active torsions:
REMARK  status: ('A' for Active; 'I' for Inactive)
REMARK    1  A    between atoms: C1_1  and  C7_7 
REMARK    2  A    between atoms: C1_1  and  C8_8 
REMARK    3  A    between atoms: C8_8  and  C9_9 
ROOT
HETATM    1  C3  UNL     1     -36.828  15.019  -3.729  1.00 20.00     0.018 C 
HETATM    2  C8  UNL     1     -35.399  15.098  -3.183  1.00 20.00     0.058 C 
ENDROOT
BRANCH   2   3
HETATM    3  C1  UNL     1     -35.221  16.480  -2.539  1.00 20.00     0.131 C 
HETATM    4  O10 UNL     1     -35.529  17.514  -3.132  1.00 20.00    -0.298 OA
BRANCH   3   5
HETATM    5  C7  UNL     1     -34.670  16.496  -1.122  1.00 20.00     0.074 C 
HETATM    6  C2  UNL     1     -33.619  17.572  -0.916  1.00 20.00     0.013 C 
ENDBRANCH   3   5
ENDBRANCH   2   3
BRANCH   2   7
HETATM    7  C9  UNL     1     -34.274  14.748  -4.211  1.00 20.00    -0.041 C 
HETATM    8  C4  UNL     1     -34.309  13.241  -4.545  1.00 20.00     0.015 C 
HETATM    9  C5  UNL     1     -32.862  15.100  -3.706  1.00 20.00     0.015 C 
HETATM   10  C6  UNL     1     -34.514  15.519  -5.527  1.00 20.00     0.015 C 
ENDBRANCH   2   7
TORSDOF 3
ENDMDL
MODEL 6
REMARK VINA RESULT:      -3.9      1.225      3.480
REMARK  3 active torsions:
REMARK  status: ('A' for Active; 'I' for Inactive)
REMARK    1  A    between atoms: C1_1  and  C7_7 
REMARK    2  A    between atoms: C1_1  and  C8_8 
REMARK    3  A    between atoms: C8_8  and  C9_9 
ROOT
HETATM    1  C3  UNL     1     -37.046  15.244  -3.636  1.00 20.00     0.018 C 
HETATM    2  C8  UNL     1     -36.357  14.449  -4.749  1.00 20.00     0.058 C 
ENDROOT
BRANCH   2   3
HETATM    3  C1  UNL     1     -35.110  13.789  -4.148  1.00 20.00     0.131 C 
HETATM    4  O10 UNL     1     -34.762  12.652  -4.466  1.00 20.00    -0.298 OA
BRANCH   3   5
HETATM    5  C7  UNL     1     -34.314  14.627  -3.159  1.00 20.00     0.074 C 
HETATM    6  C2  UNL     1     -32.978  15.080  -3.718  1.00 20.00     0.013 C 
ENDBRANCH   3   5
ENDBRANCH   2   3
BRANCH   2   7
HETATM    7  C9  UNL     1     -36.058  15.255  -6.055  1.00 20.00    -0.041 C 
HETATM    8  C4  UNL     1     -37.284  15.225  -6.992  1.00 20.00     0.015 C 
HETATM    9  C5  UNL     1     -34.840  14.719  -6.832  1.00 20.00     0.015 C 
HETATM   10  C6  UNL     1     -35.783  16.734  -5.702  1.00 20.00     0.015 C 
ENDBRANCH   2   7
TORSDOF 3
ENDMDL
MODEL 7
REMARK VINA RESULT:      -3.9      1.930      3.857
REMARK  3 active torsions:
REMARK  status: ('A' for Active; 'I' for Inactive)
REMARK    1  A    between atoms: C1_1  and  C7_7 
REMARK    2  A    between atoms: C1_1  and  C8_8 
REMARK    3  A    between atoms: C8_8  and  C9_9 
ROOT
HETATM    1  C3  UNL     1     -32.699  14.747  -3.648  1.00 20.00     0.018 C 
HETATM    2  C8  UNL     1     -33.733  15.616  -4.371  1.00 20.00     0.058 C 
ENDROOT
BRANCH   2   3
HETATM    3  C1  UNL     1     -34.380  16.536  -3.328  1.00 20.00     0.131 C 
HETATM    4  O10 UNL     1     -34.593  17.727  -3.558  1.00 20.00    -0.298 OA
BRANCH   3   5
HETATM    5  C7  UNL     1     -34.767  15.890  -2.007  1.00 20.00     0.074 C 
HETATM    6  C2  UNL     1     -34.515  16.797  -0.815  1.00 20.00     0.013 C 
ENDBRANCH   3   5
ENDBRANCH   2   3
BRANCH   2   7
HETATM    7  C9  UNL     1     -34.777  14.831  -5.230  1.00 20.00    -0.041 C 
HETATM    8  C4  UNL     1     -34.406  14.915  -6.727  1.00 20.00     0.015 C 
HETATM    9  C5  UNL     1     -36.217  15.351  -5.058  1.00 20.00     0.015 C 
HETATM   10  C6  UNL     1     -34.760  13.338  -4.834  1.00 20.00     0.015 C 
ENDBRANCH   2   7
TORSDOF 3
ENDMDL
MODEL 8
REMARK VINA RESULT:      -3.8      2.059      4.127
REMARK  3 active torsions:
REMARK  status: ('A' for Active; 'I' for Inactive)
REMARK    1  A    between atoms: C1_1  and  C7_7 
REMARK    2  A    between atoms: C1_1  and  C8_8 
REMARK    3  A    between atoms: C8_8  and  C9_9 
ROOT
HETATM    1  C3  UNL     1     -36.073  16.639  -4.283  1.00 20.00     0.018 C 
HETATM    2  C8  UNL     1     -34.897  16.072  -3.482  1.00 20.00     0.058 C 
ENDROOT
BRANCH   2   3
HETATM    3  C1  UNL     1     -33.991  17.246  -3.087  1.00 20.00     0.131 C 
HETATM    4  O10 UNL     1     -33.541  18.026  -3.926  1.00 20.00    -0.298 OA
BRANCH   3   5
HETATM    5  C7  UNL     1     -33.705  17.406  -1.602  1.00 20.00     0.074 C 
HETATM    6  C2  UNL     1     -34.682  16.635  -0.732  1.00 20.00     0.013 C 
ENDBRANCH   3   5
ENDBRANCH   2   3
BRANCH   2   7
HETATM    7  C9  UNL     1     -34.123  14.903  -4.174  1.00 20.00    -0.041 C 
HETATM    8  C4  UNL     1     -34.859  13.566  -3.942  1.00 20.00     0.015 C 
HETATM    9  C5  UNL     1     -32.675  14.754  -3.670  1.00 20.00     0.015 C 
HETATM   10  C6  UNL     1     -34.073  15.143  -5.699  1.00 20.00     0.015 C 
ENDBRANCH   2   7
TORSDOF 3
ENDMDL
MODEL 9
REMARK VINA RESULT:      -3.8      1.497      3.365
REMARK  3 active torsions:
REMARK  status: ('A' for Active; 'I' for Inactive)
REMARK    1  A    between atoms: C1_1  and  C7_7 
REMARK    2  A    between atoms: C1_1  and  C8_8 
REMARK    3  A    between atoms: C8_8  and  C9_9 
ROOT
HETATM    1  C3  UNL     1     -34.631  13.339  -4.739  1.00 20.00     0.018 C 
HETATM    2  C8  UNL     1     -34.657  14.840  -4.436  1.00 20.00     0.058 C 
ENDROOT
BRANCH   2   3
HETATM    3  C1  UNL     1     -35.820  15.102  -3.471  1.00 20.00     0.131 C 
HETATM    4  O10 UNL     1     -36.870  14.460  -3.533  1.00 20.00    -0.298 OA
BRANCH   3   5
HETATM    5  C7  UNL     1     -35.594  16.176  -2.418  1.00 20.00     0.074 C 
HETATM    6  C2  UNL     1     -34.138  16.292  -2.005  1.00 20.00     0.013 C 
ENDBRANCH   3   5
ENDBRANCH   2   3
BRANCH   2   7
HETATM    7  C9  UNL     1     -34.677  15.771  -5.691  1.00 20.00    -0.041 C 
HETATM    8  C4  UNL     1     -33.549  16.821  -5.593  1.00 20.00     0.015 C 
HETATM    9  C5  UNL     1     -36.014  16.513  -5.873  1.00 20.00     0.015 C 
HETATM   10  C6  UNL     1     -34.420  14.935  -6.964  1.00 20.00     0.015 C 
ENDBRANCH   2   7
TORSDOF 3
ENDMDL
