MODEL 1
REMARK VINA RESULT:      -4.1      0.000      0.000
REMARK  3 active torsions:
REMARK  status: ('A' for Active; 'I' for Inactive)
REMARK    1  A    between atoms: C1_1  and  C8_8 
REMARK    2  A    between atoms: C1_1  and  C9_9 
REMARK    3  A    between atoms: C9_9  and  C10_10 
ROOT
HETATM    1  C4  UNL     1     -36.140  16.593  -4.097  1.00 20.00     0.018 C 
HETATM    2  C9  UNL     1     -34.919  16.015  -3.372  1.00 20.00     0.059 C 
ENDROOT
BRANCH   2   3
HETATM    3  C1  UNL     1     -34.008  17.186  -2.975  1.00 20.00     0.134 C 
HETATM    4  O11 UNL     1     -33.634  18.019  -3.803  1.00 20.00    -0.297 OA
BRANCH   3   5
HETATM    5  C8  UNL     1     -33.619  17.292  -1.501  1.00 20.00     0.048 C 
HETATM    6  C2  UNL     1     -34.715  16.674  -0.640  1.00 20.00     0.017 C 
HETATM    7  C3  UNL     1     -33.368  18.745  -1.106  1.00 20.00     0.017 C 
ENDBRANCH   3   5
ENDBRANCH   2   3
BRANCH   2   8
HETATM    8  C10 UNL     1     -34.160  14.889  -4.150  1.00 20.00    -0.041 C 
HETATM    9  C5  UNL     1     -34.173  15.200  -5.663  1.00 20.00     0.015 C 
HETATM   10  C6  UNL     1     -34.870  13.533  -3.953  1.00 20.00     0.015 C 
HETATM   11  C7  UNL     1     -32.692  14.737  -3.710  1.00 20.00     0.015 C 
ENDBRANCH   2   8
TORSDOF 3
ENDMDL
MODEL 2
REMARK VINA RESULT:      -4.1      1.165      1.433
REMARK  3 active torsions:
REMARK  status: ('A' for Active; 'I' for Inactive)
REMARK    1  A    between atoms: C1_1  and  C8_8 
REMARK    2  A    between atoms: C1_1  and  C9_9 
REMARK    3  A    between atoms: C9_9  and  C10_10 
ROOT
HETATM    1  C4  UNL     1     -36.395  14.976  -3.510  1.00 20.00     0.018 C 
HETATM    2  C9  UNL     1     -34.963  15.321  -3.086  1.00 20.00     0.059 C 
ENDROOT
BRANCH   2   3
HETATM    3  C1  UNL     1     -34.956  16.773  -2.585  1.00 20.00     0.134 C 
HETATM    4  O11 UNL     1     -35.699  17.625  -3.076  1.00 20.00    -0.297 OA
BRANCH   3   5
HETATM    5  C8  UNL     1     -34.016  17.103  -1.427  1.00 20.00     0.048 C 
HETATM    6  C2  UNL     1     -34.783  17.027  -0.112  1.00 20.00     0.017 C 
HETATM    7  C3  UNL     1     -33.384  18.479  -1.612  1.00 20.00     0.017 C 
ENDBRANCH   3   5
ENDBRANCH   2   3
BRANCH   2   8
HETATM    8  C10 UNL     1     -33.868  15.044  -4.167  1.00 20.00    -0.041 C 
HETATM    9  C5  UNL     1     -34.420  14.070  -5.232  1.00 20.00     0.015 C 
HETATM   10  C6  UNL     1     -32.638  14.371  -3.521  1.00 20.00     0.015 C 
HETATM   11  C7  UNL     1     -33.398  16.320  -4.890  1.00 20.00     0.015 C 
ENDBRANCH   2   8
TORSDOF 3
ENDMDL
MODEL 3
REMARK VINA RESULT:      -4.0      0.074      1.300
REMARK  3 active torsions:
REMARK  status: ('A' for Active; 'I' for Inactive)
REMARK    1  A    between atoms: C1_1  and  C8_8 
REMARK    2  A    between atoms: C1_1  and  C9_9 
REMARK    3  A    between atoms: C9_9  and  C10_10 
ROOT
HETATM    1  C4  UNL     1     -36.125  16.682  -4.092  1.00 20.00     0.018 C 
HETATM    2  C9  UNL     1     -34.928  16.063  -3.360  1.00 20.00     0.059 C 
ENDROOT
BRANCH   2   3
HETATM    3  C1  UNL     1     -33.994  17.206  -2.935  1.00 20.00     0.134 C 
HETATM    4  O11 UNL     1     -33.604  18.052  -3.742  1.00 20.00    -0.297 OA
BRANCH   3   5
HETATM    5  C8  UNL     1     -33.604  17.270  -1.459  1.00 20.00     0.048 C 
HETATM    6  C2  UNL     1     -34.737  16.706  -0.608  1.00 20.00     0.017 C 
HETATM    7  C3  UNL     1     -33.269  18.699  -1.044  1.00 20.00     0.017 C 
ENDBRANCH   3   5
ENDBRANCH   2   3
BRANCH   2   8
HETATM    8  C10 UNL     1     -34.187  14.931  -4.144  1.00 20.00    -0.041 C 
HETATM    9  C5  UNL     1     -32.716  14.850  -3.677  1.00 20.00     0.015 C 
HETATM   10  C6  UNL     1     -34.173  15.249  -5.654  1.00 20.00     0.015 C 
HETATM   11  C7  UNL     1     -34.824  13.543  -3.946  1.00 20.00     0.015 C 
ENDBRANCH   2   8
TORSDOF 3
ENDMDL
MODEL 4
REMARK VINA RESULT:      -4.0      2.178      4.500
REMARK  3 active torsions:
REMARK  status: ('A' for Active; 'I' for Inactive)
REMARK    1  A    between atoms: C1_1  and  C8_8 
REMARK    2  A    between atoms: C1_1  and  C9_9 
REMARK    3  A    between atoms: C9_9  and  C10_10 
ROOT
HETATM    1  C4  UNL     1     -36.697  15.062  -3.395  1.00 20.00     0.018 C 
HETATM    2  C9  UNL     1     -35.479  15.337  -4.284  1.00 20.00     0.059 C 
ENDROOT
BRANCH   2   3
HETATM    3  C1  UNL     1     -35.239  14.094  -5.153  1.00 20.00     0.134 C 
HETATM    4  O11 UNL     1     -35.051  12.984  -4.650  1.00 20.00    -0.297 OA
BRANCH   3   5
HETATM    5  C8  UNL     1     -35.283  14.288  -6.668  1.00 20.00     0.048 C 
HETATM    6  C2  UNL     1     -34.117  15.170  -7.102  1.00 20.00     0.017 C 
HETATM    7  C3  UNL     1     -36.615  14.890  -7.103  1.00 20.00     0.017 C 
ENDBRANCH   3   5
ENDBRANCH   2   3
BRANCH   2   8
HETATM    8  C10 UNL     1     -34.196  15.805  -3.522  1.00 20.00    -0.041 C 
HETATM    9  C5  UNL     1     -34.521  16.001  -2.025  1.00 20.00     0.015 C 
HETATM   10  C6  UNL     1     -33.716  17.166  -4.071  1.00 20.00     0.015 C 
HETATM   11  C7  UNL     1     -33.032  14.802  -3.628  1.00 20.00     0.015 C 
ENDBRANCH   2   8
TORSDOF 3
ENDMDL
MODEL 5
REMARK VINA RESULT:      -4.0      1.635      2.346
REMARK  3 active torsions:
REMARK  status: ('A' for Active; 'I' for Inactive)
REMARK    1  A    between atoms: C1_1  and  C8_8 
REMARK    2  A    between atoms: C1_1  and  C9_9 
REMARK    3  A    between atoms: C9_9  and  C10_10 
ROOT
HETATM    1  C4  UNL     1     -33.605  17.156  -5.657  1.00 20.00     0.018 C 
HETATM    2  C9  UNL     1     -34.531  16.167  -4.938  1.00 20.00     0.059 C 
ENDROOT
BRANCH   2   3
HETATM    3  C1  UNL     1     -33.813  15.689  -3.667  1.00 20.00     0.134 C 
HETATM    4  O11 UNL     1     -32.686  15.194  -3.712  1.00 20.00    -0.297 OA
BRANCH   3   5
HETATM    5  C8  UNL     1     -34.545  15.891  -2.341  1.00 20.00     0.048 C 
HETATM    6  C2  UNL     1     -35.981  16.325  -2.613  1.00 20.00     0.017 C 
HETATM    7  C3  UNL     1     -33.822  16.914  -1.468  1.00 20.00     0.017 C 
ENDBRANCH   3   5
ENDBRANCH   2   3
BRANCH   2   8
HETATM    8  C10 UNL     1     -35.053  14.987  -5.822  1.00 20.00    -0.041 C 
HETATM    9  C5  UNL     1     -34.316  14.986  -7.180  1.00 20.00     0.015 C 
HETATM   10  C6  UNL     1     -36.558  15.168  -6.117  1.00 20.00     0.015 C 
HETATM   11  C7  UNL     1     -34.849  13.608  -5.170  1.00 20.00     0.015 C 
ENDBRANCH   2   8
TORSDOF 3
ENDMDL
MODEL 6
REMARK VINA RESULT:      -4.0      1.707      4.318
REMARK  3 active torsions:
REMARK  status: ('A' for Active; 'I' for Inactive)
REMARK    1  A    between atoms: C1_1  and  C8_8 
REMARK    2  A    between atoms: C1_1  and  C9_9 
REMARK    3  A    between atoms: C9_9  and  C10_10 
ROOT
HETATM    1  C4  UNL     1     -33.818  13.888  -3.814  1.00 20.00     0.018 C 
HETATM    2  C9  UNL     1     -34.709  14.915  -4.523  1.00 20.00     0.059 C 
ENDROOT
BRANCH   2   3
HETATM    3  C1  UNL     1     -33.818  15.742  -5.462  1.00 20.00     0.134 C 
HETATM    4  O11 UNL     1     -32.873  16.406  -5.032  1.00 20.00    -0.297 OA
BRANCH   3   5
HETATM    5  C8  UNL     1     -34.133  15.672  -6.955  1.00 20.00     0.048 C 
HETATM    6  C2  UNL     1     -34.602  17.039  -7.441  1.00 20.00     0.017 C 
HETATM    7  C3  UNL     1     -35.181  14.601  -7.243  1.00 20.00     0.017 C 
ENDBRANCH   3   5
ENDBRANCH   2   3
BRANCH   2   8
HETATM    8  C10 UNL     1     -35.581  15.801  -3.574  1.00 20.00    -0.041 C 
HETATM    9  C5  UNL     1     -34.920  15.881  -2.180  1.00 20.00     0.015 C 
HETATM   10  C6  UNL     1     -36.976  15.166  -3.385  1.00 20.00     0.015 C 
HETATM   11  C7  UNL     1     -35.769  17.238  -4.094  1.00 20.00     0.015 C 
ENDBRANCH   2   8
TORSDOF 3
ENDMDL
MODEL 7
REMARK VINA RESULT:      -3.9      2.100      3.163
REMARK  3 active torsions:
REMARK  status: ('A' for Active; 'I' for Inactive)
REMARK    1  A    between atoms: C1_1  and  C8_8 
REMARK    2  A    between atoms: C1_1  and  C9_9 
REMARK    3  A    between atoms: C9_9  and  C10_10 
ROOT
HETATM    1  C4  UNL     1     -34.607  13.264  -4.827  1.00 20.00     0.018 C 
HETATM    2  C9  UNL     1     -34.664  14.779  -4.597  1.00 20.00     0.059 C 
ENDROOT
BRANCH   2   3
HETATM    3  C1  UNL     1     -35.717  15.051  -3.513  1.00 20.00     0.134 C 
HETATM    4  O11 UNL     1     -36.807  14.476  -3.516  1.00 20.00    -0.297 OA
BRANCH   3   5
HETATM    5  C8  UNL     1     -35.337  16.038  -2.409  1.00 20.00     0.048 C 
HETATM    6  C2  UNL     1     -36.052  17.364  -2.644  1.00 20.00     0.017 C 
HETATM    7  C3  UNL     1     -33.825  16.235  -2.351  1.00 20.00     0.017 C 
ENDBRANCH   3   5
ENDBRANCH   2   3
BRANCH   2   8
HETATM    8  C10 UNL     1     -34.883  15.636  -5.887  1.00 20.00    -0.041 C 
HETATM    9  C5  UNL     1     -34.517  14.802  -7.135  1.00 20.00     0.015 C 
HETATM   10  C6  UNL     1     -33.955  16.870  -5.871  1.00 20.00     0.015 C 
HETATM   11  C7  UNL     1     -36.335  16.122  -6.050  1.00 20.00     0.015 C 
ENDBRANCH   2   8
TORSDOF 3
ENDMDL
MODEL 8
REMARK VINA RESULT:      -3.9      1.675      4.078
REMARK  3 active torsions:
REMARK  status: ('A' for Active; 'I' for Inactive)
REMARK    1  A    between atoms: C1_1  and  C8_8 
REMARK    2  A    between atoms: C1_1  and  C9_9 
REMARK    3  A    between atoms: C9_9  and  C10_10 
ROOT
HETATM    1  C4  UNL     1     -35.596  17.365  -4.638  1.00 20.00     0.018 C 
HETATM    2  C9  UNL     1     -34.811  16.692  -3.507  1.00 20.00     0.059 C 
ENDROOT
BRANCH   2   3
HETATM    3  C1  UNL     1     -35.309  15.244  -3.385  1.00 20.00     0.134 C 
HETATM    4  O11 UNL     1     -36.500  14.986  -3.202  1.00 20.00    -0.297 OA
BRANCH   3   5
HETATM    5  C8  UNL     1     -34.266  14.137  -3.540  1.00 20.00     0.048 C 
HETATM    6  C2  UNL     1     -32.883  14.759  -3.696  1.00 20.00     0.017 C 
HETATM    7  C3  UNL     1     -34.597  13.238  -4.727  1.00 20.00     0.017 C 
ENDBRANCH   3   5
ENDBRANCH   2   3
BRANCH   2   8
HETATM    8  C10 UNL     1     -34.827  17.458  -2.143  1.00 20.00    -0.041 C 
HETATM    9  C5  UNL     1     -36.171  18.203  -1.979  1.00 20.00     0.015 C 
HETATM   10  C6  UNL     1     -33.706  18.518  -2.114  1.00 20.00     0.015 C 
HETATM   11  C7  UNL     1     -34.649  16.530  -0.927  1.00 20.00     0.015 C 
ENDBRANCH   2   8
TORSDOF 3
ENDMDL
MODEL 9
REMARK VINA RESULT:      -3.9      1.399      1.637
REMARK  3 active torsions:
REMARK  status: ('A' for Active; 'I' for Inactive)
REMARK    1  A    between atoms: C1_1  and  C8_8 
REMARK    2  A    between atoms: C1_1  and  C9_9 
REMARK    3  A    between atoms: C9_9  and  C10_10 
ROOT
HETATM    1  C4  UNL     1     -33.229  16.614  -5.120  1.00 20.00     0.018 C 
HETATM    2  C9  UNL     1     -34.670  16.255  -4.737  1.00 20.00     0.059 C 
ENDROOT
BRANCH   2   3
HETATM    3  C1  UNL     1     -35.043  17.070  -3.490  1.00 20.00     0.134 C 
HETATM    4  O11 UNL     1     -36.129  17.645  -3.399  1.00 20.00    -0.297 OA
BRANCH   3   5
HETATM    5  C8  UNL     1     -34.022  17.104  -2.354  1.00 20.00     0.048 C 
HETATM    6  C2  UNL     1     -34.630  16.476  -1.105  1.00 20.00     0.017 C 
HETATM    7  C3  UNL     1     -33.561  18.532  -2.077  1.00 20.00     0.017 C 
ENDBRANCH   3   5
ENDBRANCH   2   3
BRANCH   2   8
HETATM    8  C10 UNL     1     -34.949  14.725  -4.571  1.00 20.00    -0.041 C 
HETATM    9  C5  UNL     1     -35.045  14.057  -5.960  1.00 20.00     0.015 C 
HETATM   10  C6  UNL     1     -36.301  14.504  -3.860  1.00 20.00     0.015 C 
HETATM   11  C7  UNL     1     -33.855  13.996  -3.768  1.00 20.00     0.015 C 
ENDBRANCH   2   8
TORSDOF 3
ENDMDL
