MODEL 1
REMARK VINA RESULT:      -3.8      0.000      0.000
REMARK  4 active torsions:
REMARK  status: ('A' for Active; 'I' for Inactive)
REMARK    1  A    between atoms: C5_5  and  C8_8 
REMARK    2  A    between atoms: C6_6  and  C8_8 
REMARK    3  A    between atoms: C7_7  and  N9_9 
REMARK    4  A    between atoms: C8_8  and  N9_9 
ROOT
HETATM    1  C8  UNL     1     -34.308  15.955  -3.999  1.00 20.00     0.237 C 
ENDROOT
BRANCH   1   2
HETATM    2  C5  UNL     1     -33.795  16.839  -2.857  1.00 20.00     0.150 C 
HETATM    3 CL10 UNL     1     -34.518  16.365  -1.295  1.00 20.00    -0.128 Cl
ENDBRANCH   1   2
BRANCH   1   4
HETATM    4  C6  UNL     1     -34.641  14.520  -3.516  1.00 20.00     0.011 C 
HETATM    5  C1  UNL     1     -33.561  13.491  -3.860  1.00 20.00     0.012 C 
HETATM    6  C2  UNL     1     -35.995  14.050  -4.059  1.00 20.00     0.012 C 
ENDBRANCH   1   4
BRANCH   1   7
HETATM    7  N9  UNL     1     -33.367  15.943  -5.097  1.00 20.00     0.093 N 
HETATM    8  H28 UNL     1     -32.596  16.584  -4.899  1.00 20.00     0.316 HD
BRANCH   7   9
HETATM    9  C7  UNL     1     -34.005  16.350  -6.347  1.00 20.00     0.213 C 
HETATM   10  C3  UNL     1     -35.254  17.160  -6.028  1.00 20.00     0.042 C 
HETATM   11  C4  UNL     1     -34.333  15.107  -7.160  1.00 20.00     0.042 C 
ENDBRANCH   7   9
ENDBRANCH   1   7
TORSDOF 4
ENDMDL
MODEL 2
REMARK VINA RESULT:      -3.7     11.256     12.861
REMARK  4 active torsions:
REMARK  status: ('A' for Active; 'I' for Inactive)
REMARK    1  A    between atoms: C5_5  and  C8_8 
REMARK    2  A    between atoms: C6_6  and  C8_8 
REMARK    3  A    between atoms: C7_7  and  N9_9 
REMARK    4  A    between atoms: C8_8  and  N9_9 
ROOT
HETATM    1  C8  UNL     1     -33.700   5.970   4.249  1.00 20.00     0.237 C 
ENDROOT
BRANCH   1   2
HETATM    2  C5  UNL     1     -34.587   5.200   3.263  1.00 20.00     0.150 C 
HETATM    3 CL10 UNL     1     -36.274   5.783   3.316  1.00 20.00    -0.128 Cl
ENDBRANCH   1   2
BRANCH   1   4
HETATM    4  C6  UNL     1     -34.340   6.056   5.659  1.00 20.00     0.011 C 
HETATM    5  C1  UNL     1     -33.574   6.964   6.625  1.00 20.00     0.012 C 
HETATM    6  C2  UNL     1     -34.508   4.665   6.280  1.00 20.00     0.012 C 
ENDBRANCH   1   4
BRANCH   1   7
HETATM    7  N9  UNL     1     -33.377   7.281   3.729  1.00 20.00     0.093 N 
HETATM    8  H28 UNL     1     -34.089   7.571   3.055  1.00 20.00     0.316 HD
BRANCH   7   9
HETATM    9  C7  UNL     1     -32.076   7.282   3.066  1.00 20.00     0.213 C 
HETATM   10  C3  UNL     1     -31.008   7.708   4.065  1.00 20.00     0.042 C 
HETATM   11  C4  UNL     1     -32.133   8.220   1.870  1.00 20.00     0.042 C 
ENDBRANCH   7   9
ENDBRANCH   1   7
TORSDOF 4
ENDMDL
MODEL 3
REMARK VINA RESULT:      -3.7      2.597      3.814
REMARK  4 active torsions:
REMARK  status: ('A' for Active; 'I' for Inactive)
REMARK    1  A    between atoms: C5_5  and  C8_8 
REMARK    2  A    between atoms: C6_6  and  C8_8 
REMARK    3  A    between atoms: C7_7  and  N9_9 
REMARK    4  A    between atoms: C8_8  and  N9_9 
ROOT
HETATM    1  C8  UNL     1     -35.056  15.691  -3.312  1.00 20.00     0.237 C 
ENDROOT
BRANCH   1   2
HETATM    2  C5  UNL     1     -36.227  15.814  -4.293  1.00 20.00     0.150 C 
HETATM    3 CL10 UNL     1     -35.790  16.815  -5.704  1.00 20.00    -0.128 Cl
ENDBRANCH   1   2
BRANCH   1   4
HETATM    4  C6  UNL     1     -34.412  14.281  -3.352  1.00 20.00     0.011 C 
HETATM    5  C1  UNL     1     -32.914  14.301  -3.670  1.00 20.00     0.012 C 
HETATM    6  C2  UNL     1     -35.139  13.364  -4.341  1.00 20.00     0.012 C 
ENDBRANCH   1   4
BRANCH   1   7
HETATM    7  N9  UNL     1     -35.470  16.050  -1.973  1.00 20.00     0.093 N 
HETATM    8  H28 UNL     1     -36.248  16.712  -2.018  1.00 20.00     0.316 HD
BRANCH   7   9
HETATM    9  C7  UNL     1     -34.375  16.665  -1.227  1.00 20.00     0.213 C 
HETATM   10  C3  UNL     1     -34.912  17.200   0.094  1.00 20.00     0.042 C 
HETATM   11  C4  UNL     1     -33.760  17.769  -2.073  1.00 20.00     0.042 C 
ENDBRANCH   7   9
ENDBRANCH   1   7
TORSDOF 4
ENDMDL
MODEL 4
REMARK VINA RESULT:      -3.6      2.200      3.783
REMARK  4 active torsions:
REMARK  status: ('A' for Active; 'I' for Inactive)
REMARK    1  A    between atoms: C5_5  and  C8_8 
REMARK    2  A    between atoms: C6_6  and  C8_8 
REMARK    3  A    between atoms: C7_7  and  N9_9 
REMARK    4  A    between atoms: C8_8  and  N9_9 
ROOT
HETATM    1  C8  UNL     1     -33.570  16.003  -3.330  1.00 20.00     0.237 C 
ENDROOT
BRANCH   1   2
HETATM    2  C5  UNL     1     -33.209  16.346  -4.779  1.00 20.00     0.150 C 
HETATM    3 CL10 UNL     1     -33.473  18.079  -5.121  1.00 20.00    -0.128 Cl
ENDBRANCH   1   2
BRANCH   1   4
HETATM    4  C6  UNL     1     -34.441  14.723  -3.237  1.00 20.00     0.011 C 
HETATM    5  C1  UNL     1     -34.005  13.614  -4.199  1.00 20.00     0.012 C 
HETATM    6  C2  UNL     1     -35.924  15.041  -3.452  1.00 20.00     0.012 C 
ENDBRANCH   1   4
BRANCH   1   7
HETATM    7  N9  UNL     1     -34.206  17.128  -2.681  1.00 20.00     0.093 N 
HETATM    8  H28 UNL     1     -34.048  17.977  -3.228  1.00 20.00     0.316 HD
BRANCH   7   9
HETATM    9  C7  UNL     1     -33.677  17.332  -1.335  1.00 20.00     0.213 C 
HETATM   10  C3  UNL     1     -34.751  16.973  -0.317  1.00 20.00     0.042 C 
HETATM   11  C4  UNL     1     -33.231  18.779  -1.195  1.00 20.00     0.042 C 
ENDBRANCH   7   9
ENDBRANCH   1   7
TORSDOF 4
ENDMDL
MODEL 5
REMARK VINA RESULT:      -3.6      2.129      3.979
REMARK  4 active torsions:
REMARK  status: ('A' for Active; 'I' for Inactive)
REMARK    1  A    between atoms: C5_5  and  C8_8 
REMARK    2  A    between atoms: C6_6  and  C8_8 
REMARK    3  A    between atoms: C7_7  and  N9_9 
REMARK    4  A    between atoms: C8_8  and  N9_9 
ROOT
HETATM    1  C8  UNL     1     -34.035  15.623  -3.987  1.00 20.00     0.237 C 
ENDROOT
BRANCH   1   2
HETATM    2  C5  UNL     1     -33.692  14.129  -4.007  1.00 20.00     0.150 C 
HETATM    3 CL10 UNL     1     -35.147  13.133  -4.284  1.00 20.00    -0.128 Cl
ENDBRANCH   1   2
BRANCH   1   4
HETATM    4  C6  UNL     1     -33.415  16.376  -5.193  1.00 20.00     0.011 C 
HETATM    5  C1  UNL     1     -33.505  17.900  -5.076  1.00 20.00     0.012 C 
HETATM    6  C2  UNL     1     -34.041  15.921  -6.516  1.00 20.00     0.012 C 
ENDBRANCH   1   4
BRANCH   1   7
HETATM    7  N9  UNL     1     -33.646  16.220  -2.729  1.00 20.00     0.093 N 
HETATM    8  H28 UNL     1     -32.879  15.685  -2.315  1.00 20.00     0.316 HD
BRANCH   7   9
HETATM    9  C7  UNL     1     -34.762  16.244  -1.787  1.00 20.00     0.213 C 
HETATM   10  C3  UNL     1     -35.989  16.819  -2.482  1.00 20.00     0.042 C 
HETATM   11  C4  UNL     1     -34.364  17.070  -0.573  1.00 20.00     0.042 C 
ENDBRANCH   7   9
ENDBRANCH   1   7
TORSDOF 4
ENDMDL
MODEL 6
REMARK VINA RESULT:      -3.6      2.247      3.595
REMARK  4 active torsions:
REMARK  status: ('A' for Active; 'I' for Inactive)
REMARK    1  A    between atoms: C5_5  and  C8_8 
REMARK    2  A    between atoms: C6_6  and  C8_8 
REMARK    3  A    between atoms: C7_7  and  N9_9 
REMARK    4  A    between atoms: C8_8  and  N9_9 
ROOT
HETATM    1  C8  UNL     1     -34.054  15.985  -3.556  1.00 20.00     0.237 C 
ENDROOT
BRANCH   1   2
HETATM    2  C5  UNL     1     -33.222  16.457  -4.754  1.00 20.00     0.150 C 
HETATM    3 CL10 UNL     1     -34.246  16.722  -6.192  1.00 20.00    -0.128 Cl
ENDBRANCH   1   2
BRANCH   1   4
HETATM    4  C6  UNL     1     -33.737  16.797  -2.274  1.00 20.00     0.011 C 
HETATM    5  C1  UNL     1     -34.662  16.471  -1.098  1.00 20.00     0.012 C 
HETATM    6  C2  UNL     1     -33.760  18.304  -2.549  1.00 20.00     0.012 C 
ENDBRANCH   1   4
BRANCH   1   7
HETATM    7  N9  UNL     1     -33.883  14.564  -3.343  1.00 20.00     0.093 N 
HETATM    8  H28 UNL     1     -33.049  14.238  -3.838  1.00 20.00     0.316 HD
BRANCH   7   9
HETATM    9  C7  UNL     1     -35.038  13.813  -3.827  1.00 20.00     0.213 C 
HETATM   10  C3  UNL     1     -34.723  13.247  -5.205  1.00 20.00     0.042 C 
HETATM   11  C4  UNL     1     -36.247  14.735  -3.861  1.00 20.00     0.042 C 
ENDBRANCH   7   9
ENDBRANCH   1   7
TORSDOF 4
ENDMDL
MODEL 7
REMARK VINA RESULT:      -3.5      2.542      3.694
REMARK  4 active torsions:
REMARK  status: ('A' for Active; 'I' for Inactive)
REMARK    1  A    between atoms: C5_5  and  C8_8 
REMARK    2  A    between atoms: C6_6  and  C8_8 
REMARK    3  A    between atoms: C7_7  and  N9_9 
REMARK    4  A    between atoms: C8_8  and  N9_9 
ROOT
HETATM    1  C8  UNL     1     -35.357  15.340  -3.503  1.00 20.00     0.237 C 
ENDROOT
BRANCH   1   2
HETATM    2  C5  UNL     1     -34.980  13.900  -3.869  1.00 20.00     0.150 C 
HETATM    3 CL10 UNL     1     -33.218  13.640  -3.747  1.00 20.00    -0.128 Cl
ENDBRANCH   1   2
BRANCH   1   4
HETATM    4  C6  UNL     1     -34.239  16.044  -2.691  1.00 20.00     0.011 C 
HETATM    5  C1  UNL     1     -34.659  16.417  -1.267  1.00 20.00     0.012 C 
HETATM    6  C2  UNL     1     -33.719  17.287  -3.420  1.00 20.00     0.012 C 
ENDBRANCH   1   4
BRANCH   1   7
HETATM    7  N9  UNL     1     -36.624  15.375  -2.808  1.00 20.00     0.093 N 
HETATM    8  H28 UNL     1     -36.880  14.432  -2.507  1.00 20.00     0.316 HD
BRANCH   7   9
HETATM    9  C7  UNL     1     -37.686  15.897  -3.665  1.00 20.00     0.213 C 
HETATM   10  C3  UNL     1     -38.639  14.765  -4.023  1.00 20.00     0.042 C 
HETATM   11  C4  UNL     1     -37.058  16.517  -4.904  1.00 20.00     0.042 C 
ENDBRANCH   7   9
ENDBRANCH   1   7
TORSDOF 4
ENDMDL
MODEL 8
REMARK VINA RESULT:      -3.5      2.437      4.304
REMARK  4 active torsions:
REMARK  status: ('A' for Active; 'I' for Inactive)
REMARK    1  A    between atoms: C5_5  and  C8_8 
REMARK    2  A    between atoms: C6_6  and  C8_8 
REMARK    3  A    between atoms: C7_7  and  N9_9 
REMARK    4  A    between atoms: C8_8  and  N9_9 
ROOT
HETATM    1  C8  UNL     1     -33.998  16.738  -5.148  1.00 20.00     0.237 C 
ENDROOT
BRANCH   1   2
HETATM    2  C5  UNL     1     -35.050  16.170  -6.108  1.00 20.00     0.150 C 
HETATM    3 CL10 UNL     1     -34.342  14.942  -7.193  1.00 20.00    -0.128 Cl
ENDBRANCH   1   2
BRANCH   1   4
HETATM    4  C6  UNL     1     -33.483  18.126  -5.607  1.00 20.00     0.011 C 
HETATM    5  C1  UNL     1     -33.604  19.211  -4.533  1.00 20.00     0.012 C 
HETATM    6  C2  UNL     1     -34.185  18.586  -6.889  1.00 20.00     0.012 C 
ENDBRANCH   1   4
BRANCH   1   7
HETATM    7  N9  UNL     1     -32.912  15.800  -4.967  1.00 20.00     0.093 N 
HETATM    8  H28 UNL     1     -32.955  15.077  -5.690  1.00 20.00     0.316 HD
BRANCH   7   9
HETATM    9  C7  UNL     1     -32.980  15.156  -3.657  1.00 20.00     0.213 C 
HETATM   10  C3  UNL     1     -33.520  13.742  -3.824  1.00 20.00     0.042 C 
HETATM   11  C4  UNL     1     -33.863  15.991  -2.743  1.00 20.00     0.042 C 
ENDBRANCH   7   9
ENDBRANCH   1   7
TORSDOF 4
ENDMDL
MODEL 9
REMARK VINA RESULT:      -3.5      2.039      2.864
REMARK  4 active torsions:
REMARK  status: ('A' for Active; 'I' for Inactive)
REMARK    1  A    between atoms: C5_5  and  C8_8 
REMARK    2  A    between atoms: C6_6  and  C8_8 
REMARK    3  A    between atoms: C7_7  and  N9_9 
REMARK    4  A    between atoms: C8_8  and  N9_9 
ROOT
HETATM    1  C8  UNL     1     -35.615  14.019  -4.374  1.00 20.00     0.237 C 
ENDROOT
BRANCH   1   2
HETATM    2  C5  UNL     1     -36.617  15.179  -4.380  1.00 20.00     0.150 C 
HETATM    3 CL10 UNL     1     -38.283  14.599  -4.103  1.00 20.00    -0.128 Cl
ENDBRANCH   1   2
BRANCH   1   4
HETATM    4  C6  UNL     1     -34.525  14.201  -3.287  1.00 20.00     0.011 C 
HETATM    5  C1  UNL     1     -34.387  15.643  -2.792  1.00 20.00     0.012 C 
HETATM    6  C2  UNL     1     -33.164  13.687  -3.771  1.00 20.00     0.012 C 
ENDBRANCH   1   4
BRANCH   1   7
HETATM    7  N9  UNL     1     -35.035  13.838  -5.687  1.00 20.00     0.093 N 
HETATM    8  H28 UNL     1     -34.019  13.748  -5.606  1.00 20.00     0.316 HD
BRANCH   7   9
HETATM    9  C7  UNL     1     -35.336  14.970  -6.560  1.00 20.00     0.213 C 
HETATM   10  C3  UNL     1     -35.789  14.445  -7.916  1.00 20.00     0.042 C 
HETATM   11  C4  UNL     1     -34.098  15.844  -6.680  1.00 20.00     0.042 C 
ENDBRANCH   7   9
ENDBRANCH   1   7
TORSDOF 4
ENDMDL
