MODEL 1
REMARK VINA RESULT:      -4.6      0.000      0.000
REMARK  3 active torsions:
REMARK  status: ('A' for Active; 'I' for Inactive)
REMARK    1  A    between atoms: C2_2  and  C6_6 
REMARK    2  A    between atoms: C3_3  and  C7_7 
REMARK    3  A    between atoms: C3_3  and  O8_8 
ROOT
HETATM    1  C1  UNL     1     -35.148   6.128   3.886  1.00 20.00     0.045 A 
HETATM    2  C2  UNL     1     -34.007   5.275   3.396  1.00 20.00     0.022 A 
HETATM    3  C3  UNL     1     -34.683   4.953   4.710  1.00 20.00     0.062 A 
ENDROOT
BRANCH   3   4
HETATM    4  C7  UNL     1     -34.018   5.182   6.026  1.00 20.00     0.034 C 
HETATM    5  C5  UNL     1     -34.132   6.608   6.502  1.00 20.00     0.008 C 
ENDBRANCH   3   4
BRANCH   3   6
HETATM    6  O8  UNL     1     -35.543   3.799   4.697  1.00 20.00    -0.389 OA
HETATM    7  H22 UNL     1     -36.445   4.145   4.687  1.00 20.00     0.210 HD
ENDBRANCH   3   6
BRANCH   2   8
HETATM    8  C6  UNL     1     -32.627   5.834   3.324  1.00 20.00     0.003 C 
HETATM    9  C4  UNL     1     -32.594   7.255   2.821  1.00 20.00     0.005 C 
ENDBRANCH   2   8
TORSDOF 3
ENDMDL
MODEL 2
REMARK VINA RESULT:      -4.4     11.762     12.697
REMARK  3 active torsions:
REMARK  status: ('A' for Active; 'I' for Inactive)
REMARK    1  A    between atoms: C2_2  and  C6_6 
REMARK    2  A    between atoms: C3_3  and  C7_7 
REMARK    3  A    between atoms: C3_3  and  O8_8 
ROOT
HETATM    1  C1  UNL     1     -33.789  16.270  -4.160  1.00 20.00     0.045 A 
HETATM    2  C2  UNL     1     -33.628  16.145  -2.667  1.00 20.00     0.022 A 
HETATM    3  C3  UNL     1     -33.326  14.965  -3.563  1.00 20.00     0.062 A 
ENDROOT
BRANCH   3   4
HETATM    4  C7  UNL     1     -34.208  13.762  -3.623  1.00 20.00     0.034 C 
HETATM    5  C5  UNL     1     -34.596  13.388  -5.030  1.00 20.00     0.008 C 
ENDBRANCH   3   4
BRANCH   3   6
HETATM    6  O8  UNL     1     -31.930  14.658  -3.733  1.00 20.00    -0.389 OA
HETATM    7  H22 UNL     1     -31.891  13.711  -3.918  1.00 20.00     0.210 HD
ENDBRANCH   3   6
BRANCH   2   8
HETATM    8  C6  UNL     1     -34.822  16.187  -1.777  1.00 20.00     0.003 C 
HETATM    9  C4  UNL     1     -34.575  16.941  -0.495  1.00 20.00     0.005 C 
ENDBRANCH   2   8
TORSDOF 3
ENDMDL
MODEL 3
REMARK VINA RESULT:      -4.2     11.657     12.662
REMARK  3 active torsions:
REMARK  status: ('A' for Active; 'I' for Inactive)
REMARK    1  A    between atoms: C2_2  and  C6_6 
REMARK    2  A    between atoms: C3_3  and  C7_7 
REMARK    3  A    between atoms: C3_3  and  O8_8 
ROOT
HETATM    1  C1  UNL     1     -33.439  14.094  -3.925  1.00 20.00     0.045 A 
HETATM    2  C2  UNL     1     -34.515  14.572  -2.986  1.00 20.00     0.022 A 
HETATM    3  C3  UNL     1     -34.890  13.896  -4.286  1.00 20.00     0.062 A 
ENDROOT
BRANCH   3   4
HETATM    4  C7  UNL     1     -35.483  14.646  -5.432  1.00 20.00     0.034 C 
HETATM    5  C5  UNL     1     -34.550  14.748  -6.612  1.00 20.00     0.008 C 
ENDBRANCH   3   4
BRANCH   3   6
HETATM    6  O8  UNL     1     -35.388  12.551  -4.164  1.00 20.00    -0.389 OA
HETATM    7  H22 UNL     1     -36.049  12.453  -4.861  1.00 20.00     0.210 HD
ENDBRANCH   3   6
BRANCH   2   8
HETATM    8  C6  UNL     1     -34.720  16.030  -2.756  1.00 20.00     0.003 C 
HETATM    9  C4  UNL     1     -34.628  16.415  -1.301  1.00 20.00     0.005 C 
ENDBRANCH   2   8
TORSDOF 3
ENDMDL
MODEL 4
REMARK VINA RESULT:      -4.1      1.158      2.879
REMARK  3 active torsions:
REMARK  status: ('A' for Active; 'I' for Inactive)
REMARK    1  A    between atoms: C2_2  and  C6_6 
REMARK    2  A    between atoms: C3_3  and  C7_7 
REMARK    3  A    between atoms: C3_3  and  O8_8 
ROOT
HETATM    1  C1  UNL     1     -35.039   4.050   4.842  1.00 20.00     0.045 A 
HETATM    2  C2  UNL     1     -34.995   5.394   5.523  1.00 20.00     0.022 A 
HETATM    3  C3  UNL     1     -34.684   5.281   4.047  1.00 20.00     0.062 A 
ENDROOT
BRANCH   3   4
HETATM    4  C7  UNL     1     -33.302   5.449   3.508  1.00 20.00     0.034 C 
HETATM    5  C5  UNL     1     -33.001   6.866   3.095  1.00 20.00     0.008 C 
ENDBRANCH   3   4
BRANCH   3   6
HETATM    6  O8  UNL     1     -35.707   5.771   3.160  1.00 20.00    -0.389 OA
HETATM    7  H22 UNL     1     -35.242   6.270   2.475  1.00 20.00     0.210 HD
ENDBRANCH   3   6
BRANCH   2   8
HETATM    8  C6  UNL     1     -33.946   5.687   6.539  1.00 20.00     0.003 C 
HETATM    9  C4  UNL     1     -33.728   7.164   6.751  1.00 20.00     0.005 C 
ENDBRANCH   2   8
TORSDOF 3
ENDMDL
MODEL 5
REMARK VINA RESULT:      -4.0     11.797     12.788
REMARK  3 active torsions:
REMARK  status: ('A' for Active; 'I' for Inactive)
REMARK    1  A    between atoms: C2_2  and  C6_6 
REMARK    2  A    between atoms: C3_3  and  C7_7 
REMARK    3  A    between atoms: C3_3  and  O8_8 
ROOT
HETATM    1  C1  UNL     1     -35.276  13.538  -4.098  1.00 20.00     0.045 A 
HETATM    2  C2  UNL     1     -34.586  13.880  -5.393  1.00 20.00     0.022 A 
HETATM    3  C3  UNL     1     -33.856  14.047  -4.079  1.00 20.00     0.062 A 
ENDROOT
BRANCH   3   4
HETATM    4  C7  UNL     1     -33.553  15.389  -3.500  1.00 20.00     0.034 C 
HETATM    5  C5  UNL     1     -34.464  15.754  -2.356  1.00 20.00     0.008 C 
ENDBRANCH   3   4
BRANCH   3   6
HETATM    6  O8  UNL     1     -32.841  13.064  -3.805  1.00 20.00    -0.389 OA
HETATM    7  H22 UNL     1     -32.466  12.830  -4.664  1.00 20.00     0.210 HD
ENDBRANCH   3   6
BRANCH   2   8
HETATM    8  C6  UNL     1     -35.045  15.042  -6.205  1.00 20.00     0.003 C 
HETATM    9  C4  UNL     1     -34.838  14.845  -7.685  1.00 20.00     0.005 C 
ENDBRANCH   2   8
TORSDOF 3
ENDMDL
MODEL 6
REMARK VINA RESULT:      -3.9     12.103     13.167
REMARK  3 active torsions:
REMARK  status: ('A' for Active; 'I' for Inactive)
REMARK    1  A    between atoms: C2_2  and  C6_6 
REMARK    2  A    between atoms: C3_3  and  C7_7 
REMARK    3  A    between atoms: C3_3  and  O8_8 
ROOT
HETATM    1  C1  UNL     1     -35.929  14.830  -4.957  1.00 20.00     0.045 A 
HETATM    2  C2  UNL     1     -35.117  14.214  -6.066  1.00 20.00     0.022 A 
HETATM    3  C3  UNL     1     -34.796  13.892  -4.624  1.00 20.00     0.062 A 
ENDROOT
BRANCH   3   4
HETATM    4  C7  UNL     1     -33.573  14.411  -3.944  1.00 20.00     0.034 C 
HETATM    5  C5  UNL     1     -33.859  15.574  -3.029  1.00 20.00     0.008 C 
ENDBRANCH   3   4
BRANCH   3   6
HETATM    6  O8  UNL     1     -35.180  12.577  -4.183  1.00 20.00    -0.389 OA
HETATM    7  H22 UNL     1     -35.340  12.067  -4.988  1.00 20.00     0.210 HD
ENDBRANCH   3   6
BRANCH   2   8
HETATM    8  C6  UNL     1     -34.232  15.064  -6.911  1.00 20.00     0.003 C 
HETATM    9  C4  UNL     1     -34.844  16.399  -7.248  1.00 20.00     0.005 C 
ENDBRANCH   2   8
TORSDOF 3
ENDMDL
MODEL 7
REMARK VINA RESULT:      -3.8     12.083     12.782
REMARK  3 active torsions:
REMARK  status: ('A' for Active; 'I' for Inactive)
REMARK    1  A    between atoms: C2_2  and  C6_6 
REMARK    2  A    between atoms: C3_3  and  C7_7 
REMARK    3  A    between atoms: C3_3  and  O8_8 
ROOT
HETATM    1  C1  UNL     1     -34.850  14.363  -5.661  1.00 20.00     0.045 A 
HETATM    2  C2  UNL     1     -33.862  14.422  -4.525  1.00 20.00     0.022 A 
HETATM    3  C3  UNL     1     -35.279  13.954  -4.275  1.00 20.00     0.062 A 
ENDROOT
BRANCH   3   4
HETATM    4  C7  UNL     1     -36.271  14.781  -3.526  1.00 20.00     0.034 C 
HETATM    5  C5  UNL     1     -37.656  14.713  -4.117  1.00 20.00     0.008 C 
ENDBRANCH   3   4
BRANCH   3   6
HETATM    6  O8  UNL     1     -35.434  12.539  -4.058  1.00 20.00    -0.389 OA
HETATM    7  H22 UNL     1     -36.172  12.449  -3.441  1.00 20.00     0.210 HD
ENDBRANCH   3   6
BRANCH   2   8
HETATM    8  C6  UNL     1     -33.357  15.735  -4.035  1.00 20.00     0.003 C 
HETATM    9  C4  UNL     1     -33.286  16.780  -5.120  1.00 20.00     0.005 C 
ENDBRANCH   2   8
TORSDOF 3
ENDMDL
MODEL 8
REMARK VINA RESULT:      -3.8     12.013     13.217
REMARK  3 active torsions:
REMARK  status: ('A' for Active; 'I' for Inactive)
REMARK    1  A    between atoms: C2_2  and  C6_6 
REMARK    2  A    between atoms: C3_3  and  C7_7 
REMARK    3  A    between atoms: C3_3  and  O8_8 
ROOT
HETATM    1  C1  UNL     1     -34.140  15.536  -2.771  1.00 20.00     0.045 A 
HETATM    2  C2  UNL     1     -34.395  14.251  -3.515  1.00 20.00     0.022 A 
HETATM    3  C3  UNL     1     -33.328  15.208  -3.999  1.00 20.00     0.062 A 
ENDROOT
BRANCH   3   4
HETATM    4  C7  UNL     1     -33.490  16.022  -5.240  1.00 20.00     0.034 C 
HETATM    5  C5  UNL     1     -33.506  17.504  -4.971  1.00 20.00     0.008 C 
ENDBRANCH   3   4
BRANCH   3   6
HETATM    6  O8  UNL     1     -31.970  14.793  -3.761  1.00 20.00    -0.389 OA
HETATM    7  H22 UNL     1     -31.621  14.534  -4.624  1.00 20.00     0.210 HD
ENDBRANCH   3   6
BRANCH   2   8
HETATM    8  C6  UNL     1     -35.677  14.049  -4.247  1.00 20.00     0.003 C 
HETATM    9  C4  UNL     1     -36.818  14.845  -3.667  1.00 20.00     0.005 C 
ENDBRANCH   2   8
TORSDOF 3
ENDMDL
MODEL 9
REMARK VINA RESULT:      -3.7      1.961      2.967
REMARK  3 active torsions:
REMARK  status: ('A' for Active; 'I' for Inactive)
REMARK    1  A    between atoms: C2_2  and  C6_6 
REMARK    2  A    between atoms: C3_3  and  C7_7 
REMARK    3  A    between atoms: C3_3  and  O8_8 
ROOT
HETATM    1  C1  UNL     1     -31.805   6.008   3.317  1.00 20.00     0.045 A 
HETATM    2  C2  UNL     1     -32.222   7.442   3.118  1.00 20.00     0.022 A 
HETATM    3  C3  UNL     1     -33.170   6.461   3.771  1.00 20.00     0.062 A 
ENDROOT
BRANCH   3   4
HETATM    4  C7  UNL     1     -34.392   5.953   3.080  1.00 20.00     0.034 C 
HETATM    5  C5  UNL     1     -35.312   5.192   3.999  1.00 20.00     0.008 C 
ENDBRANCH   3   4
BRANCH   3   6
HETATM    6  O8  UNL     1     -33.339   6.616   5.192  1.00 20.00    -0.389 OA
HETATM    7  H22 UNL     1     -33.193   5.739   5.570  1.00 20.00     0.210 HD
ENDBRANCH   3   6
BRANCH   2   8
HETATM    8  C6  UNL     1     -32.446   7.975   1.745  1.00 20.00     0.003 C 
HETATM    9  C4  UNL     1     -32.396   9.481   1.683  1.00 20.00     0.005 C 
ENDBRANCH   2   8
TORSDOF 3
ENDMDL
