MODEL 1
REMARK VINA RESULT:      -4.6      0.000      0.000
REMARK  4 active torsions:
REMARK  status: ('A' for Active; 'I' for Inactive)
REMARK    1  A    between atoms: C2_2  and  C7_7 
REMARK    2  A    between atoms: C3_3  and  C8_8 
REMARK    3  A    between atoms: C3_3  and  O10_10 
REMARK    4  A    between atoms: C8_8  and  C9_9 
ROOT
HETATM    1  C1  UNL     1     -32.146   6.030   2.842  1.00 20.00     0.045 A 
HETATM    2  C2  UNL     1     -32.688   7.376   2.438  1.00 20.00     0.022 A 
HETATM    3  C3  UNL     1     -32.470   7.057   3.897  1.00 20.00     0.062 A 
ENDROOT
BRANCH   3   4
HETATM    4  C8  UNL     1     -33.666   6.849   4.816  1.00 20.00     0.042 C 
BRANCH   4   5
HETATM    5  C9  UNL     1     -34.206   5.409   4.808  1.00 20.00    -0.020 C 
HETATM    6  C5  UNL     1     -34.538   4.903   6.213  1.00 20.00     0.009 C 
HETATM    7  C6  UNL     1     -35.450   5.325   3.921  1.00 20.00     0.009 C 
ENDBRANCH   4   5
ENDBRANCH   3   4
BRANCH   3   8
HETATM    8  O10 UNL     1     -31.341   7.667   4.545  1.00 20.00    -0.389 OA
HETATM    9  H28 UNL     1     -31.601   8.581   4.722  1.00 20.00     0.210 HD
ENDBRANCH   3   8
BRANCH   2  10
HETATM   10  C7  UNL     1     -31.818   8.345   1.713  1.00 20.00     0.003 C 
HETATM   11  C4  UNL     1     -32.520   9.638   1.387  1.00 20.00     0.005 C 
ENDBRANCH   2  10
TORSDOF 4
ENDMDL
MODEL 2
REMARK VINA RESULT:      -4.5     10.878     11.939
REMARK  4 active torsions:
REMARK  status: ('A' for Active; 'I' for Inactive)
REMARK    1  A    between atoms: C2_2  and  C7_7 
REMARK    2  A    between atoms: C3_3  and  C8_8 
REMARK    3  A    between atoms: C3_3  and  O10_10 
REMARK    4  A    between atoms: C8_8  and  C9_9 
ROOT
HETATM    1  C1  UNL     1     -34.704  13.340  -4.606  1.00 20.00     0.045 A 
HETATM    2  C2  UNL     1     -34.982  14.631  -5.330  1.00 20.00     0.022 A 
HETATM    3  C3  UNL     1     -34.186  14.642  -4.049  1.00 20.00     0.062 A 
ENDROOT
BRANCH   3   4
HETATM    4  C8  UNL     1     -34.796  15.220  -2.780  1.00 20.00     0.042 C 
BRANCH   4   5
HETATM    5  C9  UNL     1     -34.015  16.418  -2.211  1.00 20.00    -0.020 C 
HETATM    6  C5  UNL     1     -34.151  17.669  -3.080  1.00 20.00     0.009 C 
HETATM    7  C6  UNL     1     -34.493  16.722  -0.789  1.00 20.00     0.009 C 
ENDBRANCH   4   5
ENDBRANCH   3   4
BRANCH   3   8
HETATM    8  O10 UNL     1     -32.767  14.848  -4.154  1.00 20.00    -0.389 OA
HETATM    9  H28 UNL     1     -32.363  14.224  -3.535  1.00 20.00     0.210 HD
ENDBRANCH   3   8
BRANCH   2  10
HETATM   10  C7  UNL     1     -34.342  14.901  -6.648  1.00 20.00     0.003 C 
HETATM   11  C4  UNL     1     -35.271  14.673  -7.813  1.00 20.00     0.005 C 
ENDBRANCH   2  10
TORSDOF 4
ENDMDL
MODEL 3
REMARK VINA RESULT:      -4.3     11.326     12.933
REMARK  4 active torsions:
REMARK  status: ('A' for Active; 'I' for Inactive)
REMARK    1  A    between atoms: C2_2  and  C7_7 
REMARK    2  A    between atoms: C3_3  and  C8_8 
REMARK    3  A    between atoms: C3_3  and  O10_10 
REMARK    4  A    between atoms: C8_8  and  C9_9 
ROOT
HETATM    1  C1  UNL     1     -33.662  18.045  -4.459  1.00 20.00     0.045 A 
HETATM    2  C2  UNL     1     -34.307  16.974  -3.619  1.00 20.00     0.022 A 
HETATM    3  C3  UNL     1     -33.707  16.623  -4.958  1.00 20.00     0.062 A 
ENDROOT
BRANCH   3   4
HETATM    4  C8  UNL     1     -34.614  16.257  -6.125  1.00 20.00     0.042 C 
BRANCH   4   5
HETATM    5  C9  UNL     1     -34.524  14.777  -6.534  1.00 20.00    -0.020 C 
HETATM    6  C5  UNL     1     -35.045  13.838  -5.444  1.00 20.00     0.009 C 
HETATM    7  C6  UNL     1     -35.305  14.548  -7.830  1.00 20.00     0.009 C 
ENDBRANCH   4   5
ENDBRANCH   3   4
BRANCH   3   8
HETATM    8  O10 UNL     1     -32.454  15.918  -4.957  1.00 20.00    -0.389 OA
HETATM    9  H28 UNL     1     -32.487  15.323  -4.196  1.00 20.00     0.210 HD
ENDBRANCH   3   8
BRANCH   2  10
HETATM   10  C7  UNL     1     -33.672  16.541  -2.342  1.00 20.00     0.003 C 
HETATM   11  C4  UNL     1     -34.638  16.500  -1.186  1.00 20.00     0.005 C 
ENDBRANCH   2  10
TORSDOF 4
ENDMDL
MODEL 4
REMARK VINA RESULT:      -4.3      1.073      1.431
REMARK  4 active torsions:
REMARK  status: ('A' for Active; 'I' for Inactive)
REMARK    1  A    between atoms: C2_2  and  C7_7 
REMARK    2  A    between atoms: C3_3  and  C8_8 
REMARK    3  A    between atoms: C3_3  and  O10_10 
REMARK    4  A    between atoms: C8_8  and  C9_9 
ROOT
HETATM    1  C1  UNL     1     -32.269   5.557   3.161  1.00 20.00     0.045 A 
HETATM    2  C2  UNL     1     -32.759   6.841   2.545  1.00 20.00     0.022 A 
HETATM    3  C3  UNL     1     -33.331   6.367   3.859  1.00 20.00     0.062 A 
ENDROOT
BRANCH   3   4
HETATM    4  C8  UNL     1     -34.761   5.849   3.923  1.00 20.00     0.042 C 
BRANCH   4   5
HETATM    5  C9  UNL     1     -35.085   5.096   5.225  1.00 20.00    -0.020 C 
HETATM    6  C5  UNL     1     -34.590   3.649   5.200  1.00 20.00     0.009 C 
HETATM    7  C6  UNL     1     -34.470   5.833   6.418  1.00 20.00     0.009 C 
ENDBRANCH   4   5
ENDBRANCH   3   4
BRANCH   3   8
HETATM    8  O10 UNL     1     -32.912   7.057   5.049  1.00 20.00    -0.389 OA
HETATM    9  H28 UNL     1     -32.370   7.799   4.747  1.00 20.00     0.210 HD
ENDBRANCH   3   8
BRANCH   2  10
HETATM   10  C7  UNL     1     -31.858   8.025   2.468  1.00 20.00     0.003 C 
HETATM   11  C4  UNL     1     -32.108   8.878   1.250  1.00 20.00     0.005 C 
ENDBRANCH   2  10
TORSDOF 4
ENDMDL
MODEL 5
REMARK VINA RESULT:      -4.1     11.157     12.120
REMARK  4 active torsions:
REMARK  status: ('A' for Active; 'I' for Inactive)
REMARK    1  A    between atoms: C2_2  and  C7_7 
REMARK    2  A    between atoms: C3_3  and  C8_8 
REMARK    3  A    between atoms: C3_3  and  O10_10 
REMARK    4  A    between atoms: C8_8  and  C9_9 
ROOT
HETATM    1  C1  UNL     1     -35.479  16.395  -2.718  1.00 20.00     0.045 A 
HETATM    2  C2  UNL     1     -34.280  16.259  -1.816  1.00 20.00     0.022 A 
HETATM    3  C3  UNL     1     -34.090  16.504  -3.293  1.00 20.00     0.062 A 
ENDROOT
BRANCH   3   4
HETATM    4  C8  UNL     1     -33.547  15.395  -4.184  1.00 20.00     0.042 C 
BRANCH   4   5
HETATM    5  C9  UNL     1     -34.622  14.731  -5.063  1.00 20.00    -0.020 C 
HETATM    6  C5  UNL     1     -34.392  14.983  -6.554  1.00 20.00     0.009 C 
HETATM    7  C6  UNL     1     -34.656  13.225  -4.792  1.00 20.00     0.009 C 
ENDBRANCH   4   5
ENDBRANCH   3   4
BRANCH   3   8
HETATM    8  O10 UNL     1     -33.681  17.822  -3.697  1.00 20.00    -0.389 OA
HETATM    9  H28 UNL     1     -34.493  18.286  -3.944  1.00 20.00     0.210 HD
ENDBRANCH   3   8
BRANCH   2  10
HETATM   10  C7  UNL     1     -33.981  17.313  -0.806  1.00 20.00     0.003 C 
HETATM   11  C4  UNL     1     -34.967  17.334   0.334  1.00 20.00     0.005 C 
ENDBRANCH   2  10
TORSDOF 4
ENDMDL
MODEL 6
REMARK VINA RESULT:      -4.1     10.757     11.893
REMARK  4 active torsions:
REMARK  status: ('A' for Active; 'I' for Inactive)
REMARK    1  A    between atoms: C2_2  and  C7_7 
REMARK    2  A    between atoms: C3_3  and  C8_8 
REMARK    3  A    between atoms: C3_3  and  O10_10 
REMARK    4  A    between atoms: C8_8  and  C9_9 
ROOT
HETATM    1  C1  UNL     1     -34.649  16.658  -0.804  1.00 20.00     0.045 A 
HETATM    2  C2  UNL     1     -33.419  17.507  -0.993  1.00 20.00     0.022 A 
HETATM    3  C3  UNL     1     -34.276  17.143  -2.181  1.00 20.00     0.062 A 
ENDROOT
BRANCH   3   4
HETATM    4  C8  UNL     1     -33.757  16.157  -3.219  1.00 20.00     0.042 C 
BRANCH   4   5
HETATM    5  C9  UNL     1     -34.425  14.773  -3.140  1.00 20.00    -0.020 C 
HETATM    6  C5  UNL     1     -35.820  14.763  -3.768  1.00 20.00     0.009 C 
HETATM    7  C6  UNL     1     -33.541  13.730  -3.828  1.00 20.00     0.009 C 
ENDBRANCH   4   5
ENDBRANCH   3   4
BRANCH   3   8
HETATM    8  O10 UNL     1     -35.114  18.174  -2.732  1.00 20.00    -0.389 OA
HETATM    9  H28 UNL     1     -35.899  18.204  -2.168  1.00 20.00     0.210 HD
ENDBRANCH   3   8
BRANCH   2  10
HETATM   10  C7  UNL     1     -33.380  18.896  -0.456  1.00 20.00     0.003 C 
HETATM   11  C4  UNL     1     -32.058  19.247   0.177  1.00 20.00     0.005 C 
ENDBRANCH   2  10
TORSDOF 4
ENDMDL
MODEL 7
REMARK VINA RESULT:      -4.1      1.320      4.399
REMARK  4 active torsions:
REMARK  status: ('A' for Active; 'I' for Inactive)
REMARK    1  A    between atoms: C2_2  and  C7_7 
REMARK    2  A    between atoms: C3_3  and  C8_8 
REMARK    3  A    between atoms: C3_3  and  O10_10 
REMARK    4  A    between atoms: C8_8  and  C9_9 
ROOT
HETATM    1  C1  UNL     1     -33.049   6.539   4.961  1.00 20.00     0.045 A 
HETATM    2  C2  UNL     1     -34.033   6.668   3.827  1.00 20.00     0.022 A 
HETATM    3  C3  UNL     1     -32.551   6.651   3.542  1.00 20.00     0.062 A 
ENDROOT
BRANCH   3   4
HETATM    4  C8  UNL     1     -31.851   7.922   3.082  1.00 20.00     0.042 C 
BRANCH   4   5
HETATM    5  C9  UNL     1     -32.460   8.534   1.809  1.00 20.00    -0.020 C 
HETATM    6  C5  UNL     1     -32.801  10.015   1.979  1.00 20.00     0.009 C 
HETATM    7  C6  UNL     1     -31.494   8.357   0.634  1.00 20.00     0.009 C 
ENDBRANCH   4   5
ENDBRANCH   3   4
BRANCH   3   8
HETATM    8  O10 UNL     1     -32.001   5.450   2.975  1.00 20.00    -0.389 OA
HETATM    9  H28 UNL     1     -32.021   5.578   2.016  1.00 20.00     0.210 HD
ENDBRANCH   3   8
BRANCH   2  10
HETATM   10  C7  UNL     1     -34.910   5.520   3.464  1.00 20.00     0.003 C 
HETATM   11  C4  UNL     1     -35.283   4.665   4.649  1.00 20.00     0.005 C 
ENDBRANCH   2  10
TORSDOF 4
ENDMDL
MODEL 8
REMARK VINA RESULT:      -4.1     11.018     12.285
REMARK  4 active torsions:
REMARK  status: ('A' for Active; 'I' for Inactive)
REMARK    1  A    between atoms: C2_2  and  C7_7 
REMARK    2  A    between atoms: C3_3  and  C8_8 
REMARK    3  A    between atoms: C3_3  and  O10_10 
REMARK    4  A    between atoms: C8_8  and  C9_9 
ROOT
HETATM    1  C1  UNL     1     -32.875  15.171  -3.625  1.00 20.00     0.045 A 
HETATM    2  C2  UNL     1     -34.125  15.966  -3.357  1.00 20.00     0.022 A 
HETATM    3  C3  UNL     1     -34.160  14.809  -4.325  1.00 20.00     0.062 A 
ENDROOT
BRANCH   3   4
HETATM    4  C8  UNL     1     -34.311  15.072  -5.817  1.00 20.00     0.042 C 
BRANCH   4   5
HETATM    5  C9  UNL     1     -35.653  14.590  -6.394  1.00 20.00    -0.020 C 
HETATM    6  C5  UNL     1     -36.814  15.513  -6.019  1.00 20.00     0.009 C 
HETATM    7  C6  UNL     1     -35.554  14.478  -7.917  1.00 20.00     0.009 C 
ENDBRANCH   4   5
ENDBRANCH   3   4
BRANCH   3   8
HETATM    8  O10 UNL     1     -34.794  13.597  -3.884  1.00 20.00    -0.389 OA
HETATM    9  H28 UNL     1     -35.233  13.231  -4.664  1.00 20.00     0.210 HD
ENDBRANCH   3   8
BRANCH   2  10
HETATM   10  C7  UNL     1     -34.789  15.888  -2.025  1.00 20.00     0.003 C 
HETATM   11  C4  UNL     1     -34.236  16.877  -1.031  1.00 20.00     0.005 C 
ENDBRANCH   2  10
TORSDOF 4
ENDMDL
MODEL 9
REMARK VINA RESULT:      -4.0     10.885     12.453
REMARK  4 active torsions:
REMARK  status: ('A' for Active; 'I' for Inactive)
REMARK    1  A    between atoms: C2_2  and  C7_7 
REMARK    2  A    between atoms: C3_3  and  C8_8 
REMARK    3  A    between atoms: C3_3  and  O10_10 
REMARK    4  A    between atoms: C8_8  and  C9_9 
ROOT
HETATM    1  C1  UNL     1     -34.315  14.763  -3.144  1.00 20.00     0.045 A 
HETATM    2  C2  UNL     1     -34.373  16.176  -2.625  1.00 20.00     0.022 A 
HETATM    3  C3  UNL     1     -35.462  15.660  -3.534  1.00 20.00     0.062 A 
ENDROOT
BRANCH   3   4
HETATM    4  C8  UNL     1     -35.569  16.178  -4.961  1.00 20.00     0.042 C 
BRANCH   4   5
HETATM    5  C9  UNL     1     -35.615  15.062  -6.019  1.00 20.00    -0.020 C 
HETATM    6  C5  UNL     1     -36.885  15.115  -6.870  1.00 20.00     0.009 C 
HETATM    7  C6  UNL     1     -34.383  15.153  -6.924  1.00 20.00     0.009 C 
ENDBRANCH   4   5
ENDBRANCH   3   4
BRANCH   3   8
HETATM    8  O10 UNL     1     -36.732  15.351  -2.934  1.00 20.00    -0.389 OA
HETATM    9  H28 UNL     1     -36.545  14.705  -2.239  1.00 20.00     0.210 HD
ENDBRANCH   3   8
BRANCH   2  10
HETATM   10  C7  UNL     1     -34.621  16.431  -1.178  1.00 20.00     0.003 C 
HETATM   11  C4  UNL     1     -33.829  17.596  -0.641  1.00 20.00     0.005 C 
ENDBRANCH   2  10
TORSDOF 4
ENDMDL
