MODEL 1
REMARK VINA RESULT:      -4.4      0.000      0.000
REMARK  3 active torsions:
REMARK  status: ('A' for Active; 'I' for Inactive)
REMARK    1  A    between atoms: C2_2  and  C6_6 
REMARK    2  A    between atoms: C3_3  and  C7_7 
REMARK    3  A    between atoms: C3_3  and  O8_8 
ROOT
HETATM    1  C1  UNL     1     -34.676   6.595   3.422  1.00 20.00     0.045 A 
HETATM    2  C2  UNL     1     -33.323   5.934   3.372  1.00 20.00     0.022 A 
HETATM    3  C3  UNL     1     -34.192   5.784   4.597  1.00 20.00     0.062 A 
ENDROOT
BRANCH   3   4
HETATM    4  C7  UNL     1     -34.826   4.468   4.905  1.00 20.00     0.034 C 
HETATM    5  C5  UNL     1     -35.154   4.302   6.366  1.00 20.00     0.008 C 
ENDBRANCH   3   4
BRANCH   3   6
HETATM    6  O8  UNL     1     -33.821   6.534   5.767  1.00 20.00    -0.389 OA
HETATM    7  H22 UNL     1     -34.402   6.223   6.474  1.00 20.00     0.210 HD
ENDBRANCH   3   6
BRANCH   2   8
HETATM    8  C6  UNL     1     -32.085   6.762   3.390  1.00 20.00     0.003 C 
HETATM    9  C4  UNL     1     -32.099   7.866   2.363  1.00 20.00     0.005 C 
ENDBRANCH   2   8
TORSDOF 3
ENDMDL
MODEL 2
REMARK VINA RESULT:      -4.1      1.351      3.960
REMARK  3 active torsions:
REMARK  status: ('A' for Active; 'I' for Inactive)
REMARK    1  A    between atoms: C2_2  and  C6_6 
REMARK    2  A    between atoms: C3_3  and  C7_7 
REMARK    3  A    between atoms: C3_3  and  O8_8 
ROOT
HETATM    1  C1  UNL     1     -34.573   6.906   4.023  1.00 20.00     0.045 A 
HETATM    2  C2  UNL     1     -34.055   5.702   4.767  1.00 20.00     0.022 A 
HETATM    3  C3  UNL     1     -33.540   6.014   3.382  1.00 20.00     0.062 A 
ENDROOT
BRANCH   3   4
HETATM    4  C7  UNL     1     -32.143   6.505   3.199  1.00 20.00     0.034 C 
HETATM    5  C5  UNL     1     -32.073   7.797   2.426  1.00 20.00     0.008 C 
ENDBRANCH   3   4
BRANCH   3   6
HETATM    6  O8  UNL     1     -34.008   5.188   2.302  1.00 20.00    -0.389 OA
HETATM    7  H22 UNL     1     -34.267   5.797   1.598  1.00 20.00     0.210 HD
ENDBRANCH   3   6
BRANCH   2   8
HETATM    8  C6  UNL     1     -34.950   4.539   5.024  1.00 20.00     0.003 C 
HETATM    9  C4  UNL     1     -35.171   4.279   6.493  1.00 20.00     0.005 C 
ENDBRANCH   2   8
TORSDOF 3
ENDMDL
MODEL 3
REMARK VINA RESULT:      -4.0      1.480      4.150
REMARK  3 active torsions:
REMARK  status: ('A' for Active; 'I' for Inactive)
REMARK    1  A    between atoms: C2_2  and  C6_6 
REMARK    2  A    between atoms: C3_3  and  C7_7 
REMARK    3  A    between atoms: C3_3  and  O8_8 
ROOT
HETATM    1  C1  UNL     1     -32.155   5.758   2.984  1.00 20.00     0.045 A 
HETATM    2  C2  UNL     1     -33.381   6.512   3.432  1.00 20.00     0.022 A 
HETATM    3  C3  UNL     1     -32.139   7.265   3.018  1.00 20.00     0.062 A 
ENDROOT
BRANCH   3   4
HETATM    4  C7  UNL     1     -32.127   8.038   1.742  1.00 20.00     0.034 C 
HETATM    5  C5  UNL     1     -32.452   9.497   1.936  1.00 20.00     0.008 C 
ENDBRANCH   3   4
BRANCH   3   6
HETATM    6  O8  UNL     1     -31.349   7.861   4.062  1.00 20.00    -0.389 OA
HETATM    7  H22 UNL     1     -31.951   8.437   4.552  1.00 20.00     0.210 HD
ENDBRANCH   3   6
BRANCH   2   8
HETATM    8  C6  UNL     1     -33.818   6.450   4.854  1.00 20.00     0.003 C 
HETATM    9  C4  UNL     1     -34.657   5.235   5.160  1.00 20.00     0.005 C 
ENDBRANCH   2   8
TORSDOF 3
ENDMDL
MODEL 4
REMARK VINA RESULT:      -4.0     11.766     13.080
REMARK  3 active torsions:
REMARK  status: ('A' for Active; 'I' for Inactive)
REMARK    1  A    between atoms: C2_2  and  C6_6 
REMARK    2  A    between atoms: C3_3  and  C7_7 
REMARK    3  A    between atoms: C3_3  and  O8_8 
ROOT
HETATM    1  C1  UNL     1     -33.506  14.114  -3.554  1.00 20.00     0.045 A 
HETATM    2  C2  UNL     1     -34.334  15.336  -3.248  1.00 20.00     0.022 A 
HETATM    3  C3  UNL     1     -33.743  15.149  -4.625  1.00 20.00     0.062 A 
ENDROOT
BRANCH   3   4
HETATM    4  C7  UNL     1     -34.632  14.832  -5.781  1.00 20.00     0.034 C 
HETATM    5  C5  UNL     1     -34.278  15.609  -7.023  1.00 20.00     0.008 C 
ENDBRANCH   3   4
BRANCH   3   6
HETATM    6  O8  UNL     1     -32.609  15.961  -4.974  1.00 20.00    -0.389 OA
HETATM    7  H22 UNL     1     -32.050  15.986  -4.186  1.00 20.00     0.210 HD
ENDBRANCH   3   6
BRANCH   2   8
HETATM    8  C6  UNL     1     -33.818  16.374  -2.312  1.00 20.00     0.003 C 
HETATM    9  C4  UNL     1     -34.648  16.504  -1.061  1.00 20.00     0.005 C 
ENDBRANCH   2   8
TORSDOF 3
ENDMDL
MODEL 5
REMARK VINA RESULT:      -3.8      1.489      2.188
REMARK  3 active torsions:
REMARK  status: ('A' for Active; 'I' for Inactive)
REMARK    1  A    between atoms: C2_2  and  C6_6 
REMARK    2  A    between atoms: C3_3  and  C7_7 
REMARK    3  A    between atoms: C3_3  and  O8_8 
ROOT
HETATM    1  C1  UNL     1     -31.836   5.935   3.413  1.00 20.00     0.045 A 
HETATM    2  C2  UNL     1     -32.354   7.323   3.139  1.00 20.00     0.022 A 
HETATM    3  C3  UNL     1     -33.314   6.218   3.509  1.00 20.00     0.062 A 
ENDROOT
BRANCH   3   4
HETATM    4  C7  UNL     1     -33.984   6.228   4.842  1.00 20.00     0.034 C 
HETATM    5  C5  UNL     1     -34.888   5.041   5.053  1.00 20.00     0.008 C 
ENDBRANCH   3   4
BRANCH   3   6
HETATM    6  O8  UNL     1     -34.127   5.670   2.457  1.00 20.00    -0.389 OA
HETATM    7  H22 UNL     1     -35.025   5.983   2.628  1.00 20.00     0.210 HD
ENDBRANCH   3   6
BRANCH   2   8
HETATM    8  C6  UNL     1     -32.301   7.882   1.760  1.00 20.00     0.003 C 
HETATM    9  C4  UNL     1     -32.421   9.385   1.728  1.00 20.00     0.005 C 
ENDBRANCH   2   8
TORSDOF 3
ENDMDL
MODEL 6
REMARK VINA RESULT:      -3.7     11.440     12.240
REMARK  3 active torsions:
REMARK  status: ('A' for Active; 'I' for Inactive)
REMARK    1  A    between atoms: C2_2  and  C6_6 
REMARK    2  A    between atoms: C3_3  and  C7_7 
REMARK    3  A    between atoms: C3_3  and  O8_8 
ROOT
HETATM    1  C1  UNL     1     -34.381  16.396  -3.643  1.00 20.00     0.045 A 
HETATM    2  C2  UNL     1     -34.137  15.900  -2.241  1.00 20.00     0.022 A 
HETATM    3  C3  UNL     1     -35.028  15.117  -3.175  1.00 20.00     0.062 A 
ENDROOT
BRANCH   3   4
HETATM    4  C7  UNL     1     -34.568  13.807  -3.722  1.00 20.00     0.034 C 
HETATM    5  C5  UNL     1     -34.864  13.648  -5.191  1.00 20.00     0.008 C 
ENDBRANCH   3   4
BRANCH   3   6
HETATM    6  O8  UNL     1     -36.446  15.180  -2.942  1.00 20.00    -0.389 OA
HETATM    7  H22 UNL     1     -36.765  14.270  -3.014  1.00 20.00     0.210 HD
ENDBRANCH   3   6
BRANCH   2   8
HETATM    8  C6  UNL     1     -34.690  16.646  -1.077  1.00 20.00     0.003 C 
HETATM    9  C4  UNL     1     -33.754  17.709  -0.560  1.00 20.00     0.005 C 
ENDBRANCH   2   8
TORSDOF 3
ENDMDL
MODEL 7
REMARK VINA RESULT:      -3.7     11.291     12.500
REMARK  3 active torsions:
REMARK  status: ('A' for Active; 'I' for Inactive)
REMARK    1  A    between atoms: C2_2  and  C6_6 
REMARK    2  A    between atoms: C3_3  and  C7_7 
REMARK    3  A    between atoms: C3_3  and  O8_8 
ROOT
HETATM    1  C1  UNL     1     -33.981  13.726  -3.578  1.00 20.00     0.045 A 
HETATM    2  C2  UNL     1     -34.075  14.684  -4.738  1.00 20.00     0.022 A 
HETATM    3  C3  UNL     1     -34.626  15.076  -3.388  1.00 20.00     0.062 A 
ENDROOT
BRANCH   3   4
HETATM    4  C7  UNL     1     -33.938  16.122  -2.577  1.00 20.00     0.034 C 
HETATM    5  C5  UNL     1     -34.642  16.414  -1.277  1.00 20.00     0.008 C 
ENDBRANCH   3   4
BRANCH   3   6
HETATM    6  O8  UNL     1     -36.056  15.071  -3.232  1.00 20.00    -0.389 OA
HETATM    7  H22 UNL     1     -36.220  15.277  -2.302  1.00 20.00     0.210 HD
ENDBRANCH   3   6
BRANCH   2   8
HETATM    8  C6  UNL     1     -34.970  14.378  -5.888  1.00 20.00     0.003 C 
HETATM    9  C4  UNL     1     -34.478  14.961  -7.189  1.00 20.00     0.005 C 
ENDBRANCH   2   8
TORSDOF 3
ENDMDL
MODEL 8
REMARK VINA RESULT:      -3.5     11.728     12.286
REMARK  3 active torsions:
REMARK  status: ('A' for Active; 'I' for Inactive)
REMARK    1  A    between atoms: C2_2  and  C6_6 
REMARK    2  A    between atoms: C3_3  and  C7_7 
REMARK    3  A    between atoms: C3_3  and  O8_8 
ROOT
HETATM    1  C1  UNL     1     -35.726  15.640  -3.193  1.00 20.00     0.045 A 
HETATM    2  C2  UNL     1     -34.579  14.715  -2.879  1.00 20.00     0.022 A 
HETATM    3  C3  UNL     1     -34.498  16.173  -2.499  1.00 20.00     0.062 A 
ENDROOT
BRANCH   3   4
HETATM    4  C7  UNL     1     -34.570  16.574  -1.063  1.00 20.00     0.034 C 
HETATM    5  C5  UNL     1     -33.618  17.690  -0.717  1.00 20.00     0.008 C 
ENDBRANCH   3   4
BRANCH   3   6
HETATM    6  O8  UNL     1     -33.645  17.017  -3.292  1.00 20.00    -0.389 OA
HETATM    7  H22 UNL     1     -32.818  16.528  -3.400  1.00 20.00     0.210 HD
ENDBRANCH   3   6
BRANCH   2   8
HETATM    8  C6  UNL     1     -33.752  14.148  -3.981  1.00 20.00     0.003 C 
HETATM    9  C4  UNL     1     -34.528  13.223  -4.885  1.00 20.00     0.005 C 
ENDBRANCH   2   8
TORSDOF 3
ENDMDL
MODEL 9
REMARK VINA RESULT:      -3.5     12.158     13.505
REMARK  3 active torsions:
REMARK  status: ('A' for Active; 'I' for Inactive)
REMARK    1  A    between atoms: C2_2  and  C6_6 
REMARK    2  A    between atoms: C3_3  and  C7_7 
REMARK    3  A    between atoms: C3_3  and  O8_8 
ROOT
HETATM    1  C1  UNL     1     -34.953  16.589  -5.045  1.00 20.00     0.045 A 
HETATM    2  C2  UNL     1     -34.851  15.192  -5.601  1.00 20.00     0.022 A 
HETATM    3  C3  UNL     1     -33.894  15.649  -4.527  1.00 20.00     0.062 A 
ENDROOT
BRANCH   3   4
HETATM    4  C7  UNL     1     -34.003  15.093  -3.146  1.00 20.00     0.034 C 
HETATM    5  C5  UNL     1     -34.392  16.131  -2.125  1.00 20.00     0.008 C 
ENDBRANCH   3   4
BRANCH   3   6
HETATM    6  O8  UNL     1     -32.544  15.943  -4.926  1.00 20.00    -0.389 OA
HETATM    7  H22 UNL     1     -32.420  15.505  -5.778  1.00 20.00     0.210 HD
ENDBRANCH   3   6
BRANCH   2   8
HETATM    8  C6  UNL     1     -34.403  14.978  -7.006  1.00 20.00     0.003 C 
HETATM    9  C4  UNL     1     -35.518  14.531  -7.918  1.00 20.00     0.005 C 
ENDBRANCH   2   8
TORSDOF 3
ENDMDL
