MODEL 1
REMARK VINA RESULT:      -4.2      0.000      0.000
REMARK  2 active torsions:
REMARK  status: ('A' for Active; 'I' for Inactive)
REMARK    1  A    between atoms: C4_4  and  C7_7 
REMARK    2  A    between atoms: C6_6  and  C7_7 
ROOT
HETATM    1  C1  UNL     1     -35.621  14.527  -4.129  1.00 20.00     0.034 C 
HETATM    2  C2  UNL     1     -35.121  13.125  -4.414  1.00 20.00     0.168 C 
HETATM    3  C3  UNL     1     -33.324  14.405  -3.666  1.00 20.00     0.173 C 
HETATM    4  C4  UNL     1     -34.604  15.016  -3.120  1.00 20.00     0.026 C 
HETATM    5  O8  UNL     1     -33.694  13.155  -4.267  1.00 20.00    -0.391 OA
ENDROOT
BRANCH   4   6
HETATM    6  C7  UNL     1     -34.548  16.524  -2.974  1.00 20.00     0.063 C 
HETATM    7 BR9  UNL     1     -33.634  17.253  -4.551  1.00 20.00    -0.091 Br
BRANCH   6   8
HETATM    8  C6  UNL     1     -33.808  16.946  -1.701  1.00 20.00     0.012 C 
HETATM    9  C5  UNL     1     -34.676  16.897  -0.450  1.00 20.00     0.006 C 
ENDBRANCH   6   8
ENDBRANCH   4   6
TORSDOF 2
ENDMDL
MODEL 2
REMARK VINA RESULT:      -4.0      1.581      2.137
REMARK  2 active torsions:
REMARK  status: ('A' for Active; 'I' for Inactive)
REMARK    1  A    between atoms: C4_4  and  C7_7 
REMARK    2  A    between atoms: C6_6  and  C7_7 
ROOT
HETATM    1  C1  UNL     1     -35.478  14.712  -3.889  1.00 20.00     0.034 C 
HETATM    2  C2  UNL     1     -35.285  13.282  -4.349  1.00 20.00     0.168 C 
HETATM    3  C3  UNL     1     -33.205  14.147  -3.757  1.00 20.00     0.173 C 
HETATM    4  C4  UNL     1     -34.274  14.910  -2.993  1.00 20.00     0.026 C 
HETATM    5  O8  UNL     1     -33.870  13.048  -4.399  1.00 20.00    -0.391 OA
ENDROOT
BRANCH   4   6
HETATM    6  C7  UNL     1     -33.922  16.363  -2.737  1.00 20.00     0.063 C 
HETATM    7 BR9  UNL     1     -34.557  16.833  -0.940  1.00 20.00    -0.091 Br
BRANCH   6   8
HETATM    8  C6  UNL     1     -34.558  17.294  -3.775  1.00 20.00     0.012 C 
HETATM    9  C5  UNL     1     -33.571  17.804  -4.818  1.00 20.00     0.006 C 
ENDBRANCH   6   8
ENDBRANCH   4   6
TORSDOF 2
ENDMDL
MODEL 3
REMARK VINA RESULT:      -3.7      2.017      3.837
REMARK  2 active torsions:
REMARK  status: ('A' for Active; 'I' for Inactive)
REMARK    1  A    between atoms: C4_4  and  C7_7 
REMARK    2  A    between atoms: C6_6  and  C7_7 
ROOT
HETATM    1  C1  UNL     1     -33.997  16.791  -1.491  1.00 20.00     0.034 C 
HETATM    2  C2  UNL     1     -35.314  17.417  -1.080  1.00 20.00     0.168 C 
HETATM    3  C3  UNL     1     -35.540  16.594  -3.248  1.00 20.00     0.173 C 
HETATM    4  C4  UNL     1     -34.444  15.806  -2.550  1.00 20.00     0.026 C 
HETATM    5  O8  UNL     1     -36.158  17.410  -2.240  1.00 20.00    -0.391 OA
ENDROOT
BRANCH   4   6
HETATM    6  C7  UNL     1     -33.336  15.347  -3.478  1.00 20.00     0.063 C 
HETATM    7 BR9  UNL     1     -33.543  16.293  -5.186  1.00 20.00    -0.091 Br
BRANCH   6   8
HETATM    8  C6  UNL     1     -33.380  13.834  -3.712  1.00 20.00     0.012 C 
HETATM    9  C5  UNL     1     -34.411  13.409  -4.751  1.00 20.00     0.006 C 
ENDBRANCH   6   8
ENDBRANCH   4   6
TORSDOF 2
ENDMDL
MODEL 4
REMARK VINA RESULT:      -3.7      1.925      2.273
REMARK  2 active torsions:
REMARK  status: ('A' for Active; 'I' for Inactive)
REMARK    1  A    between atoms: C4_4  and  C7_7 
REMARK    2  A    between atoms: C6_6  and  C7_7 
ROOT
HETATM    1  C1  UNL     1     -36.931  16.416  -3.551  1.00 20.00     0.034 C 
HETATM    2  C2  UNL     1     -37.952  15.301  -3.638  1.00 20.00     0.168 C 
HETATM    3  C3  UNL     1     -35.825  14.358  -3.765  1.00 20.00     0.173 C 
HETATM    4  C4  UNL     1     -35.717  15.680  -3.024  1.00 20.00     0.026 C 
HETATM    5  O8  UNL     1     -37.228  14.096  -3.926  1.00 20.00    -0.391 OA
ENDROOT
BRANCH   4   6
HETATM    6  C7  UNL     1     -34.404  16.403  -3.252  1.00 20.00     0.063 C 
HETATM    7 BR9  UNL     1     -33.060  15.070  -3.771  1.00 20.00    -0.091 Br
BRANCH   6   8
HETATM    8  C6  UNL     1     -33.940  17.151  -1.998  1.00 20.00     0.012 C 
HETATM    9  C5  UNL     1     -34.616  16.670  -0.720  1.00 20.00     0.006 C 
ENDBRANCH   6   8
ENDBRANCH   4   6
TORSDOF 2
ENDMDL
MODEL 5
REMARK VINA RESULT:      -3.7      1.235      1.666
REMARK  2 active torsions:
REMARK  status: ('A' for Active; 'I' for Inactive)
REMARK    1  A    between atoms: C4_4  and  C7_7 
REMARK    2  A    between atoms: C6_6  and  C7_7 
ROOT
HETATM    1  C1  UNL     1     -33.881  14.772  -3.371  1.00 20.00     0.034 C 
HETATM    2  C2  UNL     1     -34.153  13.563  -4.241  1.00 20.00     0.168 C 
HETATM    3  C3  UNL     1     -36.188  14.587  -3.755  1.00 20.00     0.173 C 
HETATM    4  C4  UNL     1     -35.092  15.634  -3.657  1.00 20.00     0.026 C 
HETATM    5  O8  UNL     1     -35.578  13.410  -4.308  1.00 20.00    -0.391 OA
ENDROOT
BRANCH   4   6
HETATM    6  C7  UNL     1     -35.357  16.701  -2.613  1.00 20.00     0.063 C 
HETATM    7 BR9  UNL     1     -34.733  18.419  -3.328  1.00 20.00    -0.091 Br
BRANCH   6   8
HETATM    8  C6  UNL     1     -34.643  16.395  -1.293  1.00 20.00     0.012 C 
HETATM    9  C5  UNL     1     -33.787  17.549  -0.784  1.00 20.00     0.006 C 
ENDBRANCH   6   8
ENDBRANCH   4   6
TORSDOF 2
ENDMDL
MODEL 6
REMARK VINA RESULT:      -3.6      2.410      4.001
REMARK  2 active torsions:
REMARK  status: ('A' for Active; 'I' for Inactive)
REMARK    1  A    between atoms: C4_4  and  C7_7 
REMARK    2  A    between atoms: C6_6  and  C7_7 
ROOT
HETATM    1  C1  UNL     1     -33.635  15.568  -4.141  1.00 20.00     0.034 C 
HETATM    2  C2  UNL     1     -32.650  14.533  -3.638  1.00 20.00     0.168 C 
HETATM    3  C3  UNL     1     -34.575  13.428  -4.346  1.00 20.00     0.173 C 
HETATM    4  C4  UNL     1     -34.481  14.749  -5.092  1.00 20.00     0.026 C 
HETATM    5  O8  UNL     1     -33.336  13.272  -3.639  1.00 20.00    -0.391 OA
ENDROOT
BRANCH   4   6
HETATM    6  C7  UNL     1     -35.828  15.366  -5.414  1.00 20.00     0.063 C 
HETATM    7 BR9  UNL     1     -37.125  14.716  -4.091  1.00 20.00    -0.091 Br
BRANCH   6   8
HETATM    8  C6  UNL     1     -36.298  15.003  -6.826  1.00 20.00     0.012 C 
HETATM    9  C5  UNL     1     -35.154  14.738  -7.797  1.00 20.00     0.006 C 
ENDBRANCH   6   8
ENDBRANCH   4   6
TORSDOF 2
ENDMDL
MODEL 7
REMARK VINA RESULT:      -3.6      2.911      3.241
REMARK  2 active torsions:
REMARK  status: ('A' for Active; 'I' for Inactive)
REMARK    1  A    between atoms: C4_4  and  C7_7 
REMARK    2  A    between atoms: C6_6  and  C7_7 
ROOT
HETATM    1  C1  UNL     1     -34.331  15.870  -5.837  1.00 20.00     0.034 C 
HETATM    2  C2  UNL     1     -34.237  17.042  -6.792  1.00 20.00     0.168 C 
HETATM    3  C3  UNL     1     -33.594  17.770  -4.674  1.00 20.00     0.173 C 
HETATM    4  C4  UNL     1     -33.347  16.273  -4.760  1.00 20.00     0.026 C 
HETATM    5  O8  UNL     1     -33.940  18.201  -6.000  1.00 20.00    -0.391 OA
ENDROOT
BRANCH   4   6
HETATM    6  C7  UNL     1     -33.536  15.546  -3.442  1.00 20.00     0.063 C 
HETATM    7 BR9  UNL     1     -33.669  13.625  -3.823  1.00 20.00    -0.091 Br
BRANCH   6   8
HETATM    8  C6  UNL     1     -34.793  16.020  -2.706  1.00 20.00     0.012 C 
HETATM    9  C5  UNL     1     -34.528  16.454  -1.269  1.00 20.00     0.006 C 
ENDBRANCH   6   8
ENDBRANCH   4   6
TORSDOF 2
ENDMDL
MODEL 8
REMARK VINA RESULT:      -3.5      2.644      4.087
REMARK  2 active torsions:
REMARK  status: ('A' for Active; 'I' for Inactive)
REMARK    1  A    between atoms: C4_4  and  C7_7 
REMARK    2  A    between atoms: C6_6  and  C7_7 
ROOT
HETATM    1  C1  UNL     1     -34.597  16.359  -1.233  1.00 20.00     0.034 C 
HETATM    2  C2  UNL     1     -34.327  17.543  -0.327  1.00 20.00     0.168 C 
HETATM    3  C3  UNL     1     -33.729  18.131  -2.501  1.00 20.00     0.173 C 
HETATM    4  C4  UNL     1     -34.778  17.034  -2.575  1.00 20.00     0.026 C 
HETATM    5  O8  UNL     1     -33.654  18.529  -1.123  1.00 20.00    -0.391 OA
ENDROOT
BRANCH   4   6
HETATM    6  C7  UNL     1     -34.611  16.108  -3.764  1.00 20.00     0.063 C 
HETATM    7 BR9  UNL     1     -36.106  14.836  -3.756  1.00 20.00    -0.091 Br
BRANCH   6   8
HETATM    8  C6  UNL     1     -33.281  15.350  -3.713  1.00 20.00     0.012 C 
HETATM    9  C5  UNL     1     -33.442  13.836  -3.761  1.00 20.00     0.006 C 
ENDBRANCH   6   8
ENDBRANCH   4   6
TORSDOF 2
ENDMDL
MODEL 9
REMARK VINA RESULT:      -3.5      2.689      4.035
REMARK  2 active torsions:
REMARK  status: ('A' for Active; 'I' for Inactive)
REMARK    1  A    between atoms: C4_4  and  C7_7 
REMARK    2  A    between atoms: C6_6  and  C7_7 
ROOT
HETATM    1  C1  UNL     1     -33.866  16.555  -1.750  1.00 20.00     0.034 C 
HETATM    2  C2  UNL     1     -34.606  17.253  -0.627  1.00 20.00     0.168 C 
HETATM    3  C3  UNL     1     -36.048  17.064  -2.448  1.00 20.00     0.173 C 
HETATM    4  C4  UNL     1     -35.008  15.960  -2.546  1.00 20.00     0.026 C 
HETATM    5  O8  UNL     1     -35.868  17.678  -1.162  1.00 20.00    -0.391 OA
ENDROOT
BRANCH   4   6
HETATM    6  C7  UNL     1     -34.644  15.588  -3.970  1.00 20.00     0.063 C 
HETATM    7 BR9  UNL     1     -34.521  13.632  -4.073  1.00 20.00    -0.091 Br
BRANCH   6   8
HETATM    8  C6  UNL     1     -33.316  16.218  -4.402  1.00 20.00     0.012 C 
HETATM    9  C5  UNL     1     -33.484  17.391  -5.360  1.00 20.00     0.006 C 
ENDBRANCH   6   8
ENDBRANCH   4   6
TORSDOF 2
ENDMDL
