MODEL 1
REMARK VINA RESULT:      -4.4      0.000      0.000
REMARK  2 active torsions:
REMARK  status: ('A' for Active; 'I' for Inactive)
REMARK    1  A    between atoms: C3_3  and  C7_7 
REMARK    2  A    between atoms: C3_3  and  O8_8 
ROOT
HETATM    1  C1  UNL     1     -33.649   5.339   2.697  1.00 20.00     0.045 A 
HETATM    2  C2  UNL     1     -32.571   6.179   3.331  1.00 20.00     0.019 A 
HETATM    3  C3  UNL     1     -33.913   6.035   4.008  1.00 20.00     0.065 A 
HETATM    4  C4  UNL     1     -32.151   7.460   2.697  1.00 20.00     0.013 C 
ENDROOT
BRANCH   3   5
HETATM    5  C7  UNL     1     -34.032   5.235   5.262  1.00 20.00     0.012 C 
HETATM    6  C5  UNL     1     -34.289   6.129   6.489  1.00 20.00     0.012 C 
HETATM    7  C6  UNL     1     -35.146   4.176   5.163  1.00 20.00     0.012 C 
ENDBRANCH   3   5
BRANCH   3   8
HETATM    8  O8  UNL     1     -34.805   7.161   3.953  1.00 20.00    -0.389 OA
HETATM    9  H22 UNL     1     -34.375   7.810   3.382  1.00 20.00     0.210 HD
ENDBRANCH   3   8
TORSDOF 2
ENDMDL
MODEL 2
REMARK VINA RESULT:      -3.9      1.602      2.499
REMARK  2 active torsions:
REMARK  status: ('A' for Active; 'I' for Inactive)
REMARK    1  A    between atoms: C3_3  and  C7_7 
REMARK    2  A    between atoms: C3_3  and  O8_8 
ROOT
HETATM    1  C1  UNL     1     -31.642   7.607   3.863  1.00 20.00     0.045 A 
HETATM    2  C2  UNL     1     -32.437   8.083   2.675  1.00 20.00     0.019 A 
HETATM    3  C3  UNL     1     -32.731   6.736   3.290  1.00 20.00     0.065 A 
HETATM    4  C4  UNL     1     -31.786   8.206   1.340  1.00 20.00     0.013 C 
ENDROOT
BRANCH   3   5
HETATM    5  C7  UNL     1     -33.995   6.527   4.055  1.00 20.00     0.012 C 
HETATM    6  C5  UNL     1     -34.785   5.312   3.534  1.00 20.00     0.012 C 
HETATM    7  C6  UNL     1     -33.730   6.351   5.562  1.00 20.00     0.012 C 
ENDBRANCH   3   5
BRANCH   3   8
HETATM    8  O8  UNL     1     -32.290   5.571   2.571  1.00 20.00    -0.389 OA
HETATM    9  H22 UNL     1     -31.456   5.820   2.153  1.00 20.00     0.210 HD
ENDBRANCH   3   8
TORSDOF 2
ENDMDL
MODEL 3
REMARK VINA RESULT:      -3.9      0.926      3.551
REMARK  2 active torsions:
REMARK  status: ('A' for Active; 'I' for Inactive)
REMARK    1  A    between atoms: C3_3  and  C7_7 
REMARK    2  A    between atoms: C3_3  and  O8_8 
ROOT
HETATM    1  C1  UNL     1     -34.068   6.466   5.761  1.00 20.00     0.045 A 
HETATM    2  C2  UNL     1     -34.099   4.959   5.754  1.00 20.00     0.019 A 
HETATM    3  C3  UNL     1     -34.234   5.724   4.459  1.00 20.00     0.065 A 
HETATM    4  C4  UNL     1     -35.252   4.233   6.355  1.00 20.00     0.013 C 
ENDROOT
BRANCH   3   5
HETATM    5  C7  UNL     1     -33.121   5.709   3.465  1.00 20.00     0.012 C 
HETATM    6  C5  UNL     1     -33.598   5.238   2.079  1.00 20.00     0.012 C 
HETATM    7  C6  UNL     1     -32.454   7.090   3.331  1.00 20.00     0.012 C 
ENDBRANCH   3   5
BRANCH   3   8
HETATM    8  O8  UNL     1     -35.541   5.787   3.863  1.00 20.00    -0.389 OA
HETATM    9  H22 UNL     1     -35.543   5.125   3.160  1.00 20.00     0.210 HD
ENDBRANCH   3   8
TORSDOF 2
ENDMDL
MODEL 4
REMARK VINA RESULT:      -3.8     11.422     12.601
REMARK  2 active torsions:
REMARK  status: ('A' for Active; 'I' for Inactive)
REMARK    1  A    between atoms: C3_3  and  C7_7 
REMARK    2  A    between atoms: C3_3  and  O8_8 
ROOT
HETATM    1  C1  UNL     1     -34.310  17.778  -2.427  1.00 20.00     0.045 A 
HETATM    2  C2  UNL     1     -34.000  16.980  -1.186  1.00 20.00     0.019 A 
HETATM    3  C3  UNL     1     -34.520  16.284  -2.421  1.00 20.00     0.065 A 
HETATM    4  C4  UNL     1     -34.842  17.139   0.033  1.00 20.00     0.013 C 
ENDROOT
BRANCH   3   5
HETATM    5  C7  UNL     1     -33.615  15.403  -3.216  1.00 20.00     0.012 C 
HETATM    6  C5  UNL     1     -34.270  14.046  -3.532  1.00 20.00     0.012 C 
HETATM    7  C6  UNL     1     -33.175  16.073  -4.531  1.00 20.00     0.012 C 
ENDBRANCH   3   5
BRANCH   3   8
HETATM    8  O8  UNL     1     -35.888  15.844  -2.404  1.00 20.00    -0.389 OA
HETATM    9  H22 UNL     1     -35.862  14.895  -2.584  1.00 20.00     0.210 HD
ENDBRANCH   3   8
TORSDOF 2
ENDMDL
MODEL 5
REMARK VINA RESULT:      -3.7      1.220      1.272
REMARK  2 active torsions:
REMARK  status: ('A' for Active; 'I' for Inactive)
REMARK    1  A    between atoms: C3_3  and  C7_7 
REMARK    2  A    between atoms: C3_3  and  O8_8 
ROOT
HETATM    1  C1  UNL     1     -34.313   6.737   3.508  1.00 20.00     0.045 A 
HETATM    2  C2  UNL     1     -32.902   6.209   3.541  1.00 20.00     0.019 A 
HETATM    3  C3  UNL     1     -33.771   6.118   4.772  1.00 20.00     0.065 A 
HETATM    4  C4  UNL     1     -31.749   7.150   3.467  1.00 20.00     0.013 C 
ENDROOT
BRANCH   3   5
HETATM    5  C7  UNL     1     -34.281   4.791   5.227  1.00 20.00     0.012 C 
HETATM    6  C5  UNL     1     -34.649   4.801   6.722  1.00 20.00     0.012 C 
HETATM    7  C6  UNL     1     -35.503   4.336   4.407  1.00 20.00     0.012 C 
ENDBRANCH   3   5
BRANCH   3   8
HETATM    8  O8  UNL     1     -33.490   7.029   5.847  1.00 20.00    -0.389 OA
HETATM    9  H22 UNL     1     -32.765   7.587   5.538  1.00 20.00     0.210 HD
ENDBRANCH   3   8
TORSDOF 2
ENDMDL
MODEL 6
REMARK VINA RESULT:      -3.7     11.773     13.302
REMARK  2 active torsions:
REMARK  status: ('A' for Active; 'I' for Inactive)
REMARK    1  A    between atoms: C3_3  and  C7_7 
REMARK    2  A    between atoms: C3_3  and  O8_8 
ROOT
HETATM    1  C1  UNL     1     -34.090  14.345  -3.457  1.00 20.00     0.045 A 
HETATM    2  C2  UNL     1     -34.536  15.742  -3.113  1.00 20.00     0.019 A 
HETATM    3  C3  UNL     1     -33.943  15.451  -4.471  1.00 20.00     0.065 A 
HETATM    4  C4  UNL     1     -33.793  16.534  -2.091  1.00 20.00     0.013 C 
ENDROOT
BRANCH   3   5
HETATM    5  C7  UNL     1     -34.814  15.468  -5.683  1.00 20.00     0.012 C 
HETATM    6  C5  UNL     1     -34.249  16.388  -6.780  1.00 20.00     0.012 C 
HETATM    7  C6  UNL     1     -35.019  14.055  -6.260  1.00 20.00     0.012 C 
ENDBRANCH   3   5
BRANCH   3   8
HETATM    8  O8  UNL     1     -32.601  15.903  -4.716  1.00 20.00    -0.389 OA
HETATM    9  H22 UNL     1     -32.686  16.718  -5.227  1.00 20.00     0.210 HD
ENDBRANCH   3   8
TORSDOF 2
ENDMDL
MODEL 7
REMARK VINA RESULT:      -3.6     11.986     13.365
REMARK  2 active torsions:
REMARK  status: ('A' for Active; 'I' for Inactive)
REMARK    1  A    between atoms: C3_3  and  C7_7 
REMARK    2  A    between atoms: C3_3  and  O8_8 
ROOT
HETATM    1  C1  UNL     1     -33.911  15.795  -2.899  1.00 20.00     0.045 A 
HETATM    2  C2  UNL     1     -34.457  16.928  -3.729  1.00 20.00     0.019 A 
HETATM    3  C3  UNL     1     -33.813  15.740  -4.403  1.00 20.00     0.065 A 
HETATM    4  C4  UNL     1     -33.794  18.262  -3.699  1.00 20.00     0.013 C 
ENDROOT
BRANCH   3   5
HETATM    5  C7  UNL     1     -34.653  14.772  -5.168  1.00 20.00     0.012 C 
HETATM    6  C5  UNL     1     -34.428  14.894  -6.686  1.00 20.00     0.012 C 
HETATM    7  C6  UNL     1     -34.392  13.319  -4.731  1.00 20.00     0.012 C 
ENDBRANCH   3   5
BRANCH   3   8
HETATM    8  O8  UNL     1     -32.498  15.926  -4.953  1.00 20.00    -0.389 OA
HETATM    9  H22 UNL     1     -32.579  16.645  -5.593  1.00 20.00     0.210 HD
ENDBRANCH   3   8
TORSDOF 2
ENDMDL
MODEL 8
REMARK VINA RESULT:      -3.5      9.721     10.430
REMARK  2 active torsions:
REMARK  status: ('A' for Active; 'I' for Inactive)
REMARK    1  A    between atoms: C3_3  and  C7_7 
REMARK    2  A    between atoms: C3_3  and  O8_8 
ROOT
HETATM    1  C1  UNL     1     -43.129   7.682  -1.417  1.00 20.00     0.045 A 
HETATM    2  C2  UNL     1     -43.072   7.009  -2.764  1.00 20.00     0.019 A 
HETATM    3  C3  UNL     1     -42.060   6.657  -1.700  1.00 20.00     0.065 A 
HETATM    4  C4  UNL     1     -42.690   7.790  -3.974  1.00 20.00     0.013 C 
ENDROOT
BRANCH   3   5
HETATM    5  C7  UNL     1     -42.116   5.323  -1.032  1.00 20.00     0.012 C 
HETATM    6  C5  UNL     1     -40.799   4.543  -1.202  1.00 20.00     0.012 C 
HETATM    7  C6  UNL     1     -42.444   5.446   0.467  1.00 20.00     0.012 C 
ENDBRANCH   3   5
BRANCH   3   8
HETATM    8  O8  UNL     1     -40.727   7.168  -1.860  1.00 20.00    -0.389 OA
HETATM    9  H22 UNL     1     -40.686   7.520  -2.759  1.00 20.00     0.210 HD
ENDBRANCH   3   8
TORSDOF 2
ENDMDL
MODEL 9
REMARK VINA RESULT:      -3.5      9.561     10.465
REMARK  2 active torsions:
REMARK  status: ('A' for Active; 'I' for Inactive)
REMARK    1  A    between atoms: C3_3  and  C7_7 
REMARK    2  A    between atoms: C3_3  and  O8_8 
ROOT
HETATM    1  C1  UNL     1     -42.438   4.722  -0.453  1.00 20.00     0.045 A 
HETATM    2  C2  UNL     1     -42.037   5.690  -1.536  1.00 20.00     0.019 A 
HETATM    3  C3  UNL     1     -41.640   4.237  -1.637  1.00 20.00     0.065 A 
HETATM    4  C4  UNL     1     -41.034   6.755  -1.252  1.00 20.00     0.013 C 
ENDROOT
BRANCH   3   5
HETATM    5  C7  UNL     1     -42.284   3.359  -2.657  1.00 20.00     0.012 C 
HETATM    6  C5  UNL     1     -41.263   2.428  -3.337  1.00 20.00     0.012 C 
HETATM    7  C6  UNL     1     -43.417   2.511  -2.050  1.00 20.00     0.012 C 
ENDBRANCH   3   5
BRANCH   3   8
HETATM    8  O8  UNL     1     -40.266   3.908  -1.374  1.00 20.00    -0.389 OA
HETATM    9  H22 UNL     1     -39.760   4.287  -2.104  1.00 20.00     0.210 HD
ENDBRANCH   3   8
TORSDOF 2
ENDMDL
