MODEL 1
REMARK VINA RESULT:      -4.5      0.000      0.000
REMARK  2 active torsions:
REMARK  status: ('A' for Active; 'I' for Inactive)
REMARK    1  A    between atoms: C6_6  and  C9_9 
REMARK    2  A    between atoms: C8_8  and  C9_9 
ROOT
HETATM    1  C1  UNL     1     -33.914  16.051  -5.541  1.00 20.00     0.027 C 
HETATM    2  C2  UNL     1     -33.259  15.833  -4.176  1.00 20.00     0.008 C 
HETATM    3  C3  UNL     1     -35.465  14.686  -3.444  1.00 20.00     0.032 C 
HETATM    4  C4  UNL     1     -34.577  14.807  -6.144  1.00 20.00     0.167 C 
HETATM    5  C5  UNL     1     -35.150  13.437  -4.265  1.00 20.00     0.168 C 
HETATM    6  C6  UNL     1     -34.237  15.512  -3.029  1.00 20.00     0.006 C 
HETATM    7  O10 UNL     1     -34.294  13.637  -5.386  1.00 20.00    -0.391 OA
ENDROOT
BRANCH   6   8
HETATM    8  C9  UNL     1     -34.704  16.805  -2.349  1.00 20.00     0.086 C 
HETATM    9 CL11 UNL     1     -33.608  18.107  -2.873  1.00 20.00    -0.125 Cl
BRANCH   8  10
HETATM   10  C8  UNL     1     -34.712  16.636  -0.837  1.00 20.00     0.016 C 
HETATM   11  C7  UNL     1     -33.996  17.773  -0.121  1.00 20.00     0.006 C 
ENDBRANCH   8  10
ENDBRANCH   6   8
TORSDOF 2
ENDMDL
MODEL 2
REMARK VINA RESULT:      -4.4      1.276      1.705
REMARK  2 active torsions:
REMARK  status: ('A' for Active; 'I' for Inactive)
REMARK    1  A    between atoms: C6_6  and  C9_9 
REMARK    2  A    between atoms: C8_8  and  C9_9 
ROOT
HETATM    1  C1  UNL     1     -33.705  16.026  -5.393  1.00 20.00     0.027 C 
HETATM    2  C2  UNL     1     -33.225  15.728  -3.971  1.00 20.00     0.008 C 
HETATM    3  C3  UNL     1     -35.616  14.855  -3.483  1.00 20.00     0.032 C 
HETATM    4  C4  UNL     1     -34.448  14.873  -6.077  1.00 20.00     0.167 C 
HETATM    5  C5  UNL     1     -35.371  13.579  -4.285  1.00 20.00     0.168 C 
HETATM    6  C6  UNL     1     -34.346  15.526  -2.934  1.00 20.00     0.006 C 
HETATM    7  O10 UNL     1     -34.387  13.676  -5.311  1.00 20.00    -0.391 OA
ENDROOT
BRANCH   6   8
HETATM    8  C9  UNL     1     -34.722  16.865  -2.287  1.00 20.00     0.086 C 
HETATM    9 CL11 UNL     1     -34.637  16.643  -0.522  1.00 20.00    -0.125 Cl
BRANCH   8  10
HETATM   10  C8  UNL     1     -36.105  17.305  -2.744  1.00 20.00     0.016 C 
HETATM   11  C7  UNL     1     -36.062  18.572  -3.588  1.00 20.00     0.006 C 
ENDBRANCH   8  10
ENDBRANCH   6   8
TORSDOF 2
ENDMDL
MODEL 3
REMARK VINA RESULT:      -4.4      1.041      1.045
REMARK  2 active torsions:
REMARK  status: ('A' for Active; 'I' for Inactive)
REMARK    1  A    between atoms: C6_6  and  C9_9 
REMARK    2  A    between atoms: C8_8  and  C9_9 
ROOT
HETATM    1  C1  UNL     1     -33.667  16.485  -4.953  1.00 20.00     0.027 C 
HETATM    2  C2  UNL     1     -33.279  15.779  -3.652  1.00 20.00     0.008 C 
HETATM    3  C3  UNL     1     -35.656  14.747  -3.651  1.00 20.00     0.032 C 
HETATM    4  C4  UNL     1     -34.304  15.578  -6.012  1.00 20.00     0.167 C 
HETATM    5  C5  UNL     1     -35.294  13.781  -4.778  1.00 20.00     0.168 C 
HETATM    6  C6  UNL     1     -34.462  15.246  -2.822  1.00 20.00     0.006 C 
HETATM    7  O10 UNL     1     -34.243  14.207  -5.641  1.00 20.00    -0.391 OA
ENDROOT
BRANCH   6   8
HETATM    8  C9  UNL     1     -34.945  16.316  -1.835  1.00 20.00     0.086 C 
HETATM    9 CL11 UNL     1     -36.191  17.281  -2.664  1.00 20.00    -0.125 Cl
BRANCH   8  10
HETATM   10  C8  UNL     1     -33.777  17.170  -1.364  1.00 20.00     0.016 C 
HETATM   11  C7  UNL     1     -34.039  17.819  -0.012  1.00 20.00     0.006 C 
ENDBRANCH   8  10
ENDBRANCH   6   8
TORSDOF 2
ENDMDL
MODEL 4
REMARK VINA RESULT:      -4.2      1.714      2.557
REMARK  2 active torsions:
REMARK  status: ('A' for Active; 'I' for Inactive)
REMARK    1  A    between atoms: C6_6  and  C9_9 
REMARK    2  A    between atoms: C8_8  and  C9_9 
ROOT
HETATM    1  C1  UNL     1     -35.693  14.378  -5.137  1.00 20.00     0.027 C 
HETATM    2  C2  UNL     1     -35.835  15.733  -4.440  1.00 20.00     0.008 C 
HETATM    3  C3  UNL     1     -33.636  16.428  -5.622  1.00 20.00     0.032 C 
HETATM    4  C4  UNL     1     -35.413  14.455  -6.642  1.00 20.00     0.167 C 
HETATM    5  C5  UNL     1     -34.342  16.573  -6.968  1.00 20.00     0.168 C 
HETATM    6  C6  UNL     1     -34.548  16.579  -4.395  1.00 20.00     0.006 C 
HETATM    7  O10 UNL     1     -35.519  15.785  -7.134  1.00 20.00    -0.391 OA
ENDROOT
BRANCH   6   8
HETATM    8  C9  UNL     1     -33.746  16.263  -3.126  1.00 20.00     0.086 C 
HETATM    9 CL11 UNL     1     -32.596  14.966  -3.535  1.00 20.00    -0.125 Cl
BRANCH   8  10
HETATM   10  C8  UNL     1     -34.681  15.864  -1.993  1.00 20.00     0.016 C 
HETATM   11  C7  UNL     1     -34.535  16.767  -0.776  1.00 20.00     0.006 C 
ENDBRANCH   8  10
ENDBRANCH   6   8
TORSDOF 2
ENDMDL
MODEL 5
REMARK VINA RESULT:      -4.2      2.559      4.831
REMARK  2 active torsions:
REMARK  status: ('A' for Active; 'I' for Inactive)
REMARK    1  A    between atoms: C6_6  and  C9_9 
REMARK    2  A    between atoms: C8_8  and  C9_9 
ROOT
HETATM    1  C1  UNL     1     -34.708  15.952  -2.214  1.00 20.00     0.027 C 
HETATM    2  C2  UNL     1     -33.632  15.439  -3.173  1.00 20.00     0.008 C 
HETATM    3  C3  UNL     1     -34.384  17.301  -4.811  1.00 20.00     0.032 C 
HETATM    4  C4  UNL     1     -34.701  17.468  -1.989  1.00 20.00     0.167 C 
HETATM    5  C5  UNL     1     -33.715  18.386  -3.970  1.00 20.00     0.168 C 
HETATM    6  C6  UNL     1     -33.794  15.893  -4.636  1.00 20.00     0.006 C 
HETATM    7  O10 UNL     1     -33.566  18.086  -2.584  1.00 20.00    -0.391 OA
ENDROOT
BRANCH   6   8
HETATM    8  C9  UNL     1     -34.650  14.886  -5.415  1.00 20.00     0.086 C 
HETATM    9 CL11 UNL     1     -34.264  13.264  -4.789  1.00 20.00    -0.125 Cl
BRANCH   8  10
HETATM   10  C8  UNL     1     -34.380  15.004  -6.908  1.00 20.00     0.016 C 
HETATM   11  C7  UNL     1     -35.527  14.460  -7.750  1.00 20.00     0.006 C 
ENDBRANCH   8  10
ENDBRANCH   6   8
TORSDOF 2
ENDMDL
MODEL 6
REMARK VINA RESULT:      -4.2      2.028      3.322
REMARK  2 active torsions:
REMARK  status: ('A' for Active; 'I' for Inactive)
REMARK    1  A    between atoms: C6_6  and  C9_9 
REMARK    2  A    between atoms: C8_8  and  C9_9 
ROOT
HETATM    1  C1  UNL     1     -35.558  14.659  -5.318  1.00 20.00     0.027 C 
HETATM    2  C2  UNL     1     -34.309  15.204  -6.012  1.00 20.00     0.008 C 
HETATM    3  C3  UNL     1     -33.221  15.348  -3.664  1.00 20.00     0.032 C 
HETATM    4  C4  UNL     1     -35.297  13.519  -4.326  1.00 20.00     0.167 C 
HETATM    5  C5  UNL     1     -33.037  13.833  -3.598  1.00 20.00     0.168 C 
HETATM    6  C6  UNL     1     -33.312  15.926  -5.085  1.00 20.00     0.006 C 
HETATM    7  O10 UNL     1     -33.950  13.067  -4.381  1.00 20.00    -0.391 OA
ENDROOT
BRANCH   6   8
HETATM    8  C9  UNL     1     -33.646  17.420  -5.002  1.00 20.00     0.086 C 
HETATM    9 CL11 UNL     1     -34.676  17.656  -3.569  1.00 20.00    -0.125 Cl
BRANCH   8  10
HETATM   10  C8  UNL     1     -34.328  17.883  -6.282  1.00 20.00     0.016 C 
HETATM   11  C7  UNL     1     -33.689  19.139  -6.860  1.00 20.00     0.006 C 
ENDBRANCH   8  10
ENDBRANCH   6   8
TORSDOF 2
ENDMDL
MODEL 7
REMARK VINA RESULT:      -4.2      2.197      4.289
REMARK  2 active torsions:
REMARK  status: ('A' for Active; 'I' for Inactive)
REMARK    1  A    between atoms: C6_6  and  C9_9 
REMARK    2  A    between atoms: C8_8  and  C9_9 
ROOT
HETATM    1  C1  UNL     1     -36.327  16.901  -3.553  1.00 20.00     0.027 C 
HETATM    2  C2  UNL     1     -35.952  15.456  -3.219  1.00 20.00     0.008 C 
HETATM    3  C3  UNL     1     -33.704  16.379  -2.322  1.00 20.00     0.032 C 
HETATM    4  C4  UNL     1     -36.104  17.903  -2.414  1.00 20.00     0.167 C 
HETATM    5  C5  UNL     1     -34.373  16.939  -1.068  1.00 20.00     0.168 C 
HETATM    6  C6  UNL     1     -34.450  15.210  -2.984  1.00 20.00     0.006 C 
HETATM    7  O10 UNL     1     -35.757  17.253  -1.197  1.00 20.00    -0.391 OA
ENDROOT
BRANCH   6   8
HETATM    8  C9  UNL     1     -33.756  14.850  -4.303  1.00 20.00     0.086 C 
HETATM    9 CL11 UNL     1     -33.118  16.360  -4.998  1.00 20.00    -0.125 Cl
BRANCH   8  10
HETATM   10  C8  UNL     1     -34.729  14.152  -5.242  1.00 20.00     0.016 C 
HETATM   11  C7  UNL     1     -34.675  14.712  -6.657  1.00 20.00     0.006 C 
ENDBRANCH   8  10
ENDBRANCH   6   8
TORSDOF 2
ENDMDL
MODEL 8
REMARK VINA RESULT:      -4.2      2.635      4.628
REMARK  2 active torsions:
REMARK  status: ('A' for Active; 'I' for Inactive)
REMARK    1  A    between atoms: C6_6  and  C9_9 
REMARK    2  A    between atoms: C8_8  and  C9_9 
ROOT
HETATM    1  C1  UNL     1     -34.775  17.054  -0.280  1.00 20.00     0.027 C 
HETATM    2  C2  UNL     1     -33.810  17.026  -1.467  1.00 20.00     0.008 C 
HETATM    3  C3  UNL     1     -35.898  16.911  -2.998  1.00 20.00     0.032 C 
HETATM    4  C4  UNL     1     -35.915  18.071  -0.400  1.00 20.00     0.167 C 
HETATM    5  C5  UNL     1     -36.224  18.383  -2.755  1.00 20.00     0.168 C 
HETATM    6  C6  UNL     1     -34.423  16.533  -2.792  1.00 20.00     0.006 C 
HETATM    7  O10 UNL     1     -35.747  18.925  -1.526  1.00 20.00    -0.391 OA
ENDROOT
BRANCH   6   8
HETATM    8  C9  UNL     1     -34.268  15.012  -2.918  1.00 20.00     0.086 C 
HETATM    9 CL11 UNL     1     -32.654  14.697  -3.599  1.00 20.00    -0.125 Cl
BRANCH   8  10
HETATM   10  C8  UNL     1     -35.379  14.437  -3.785  1.00 20.00     0.016 C 
HETATM   11  C7  UNL     1     -34.893  13.296  -4.669  1.00 20.00     0.006 C 
ENDBRANCH   8  10
ENDBRANCH   6   8
TORSDOF 2
ENDMDL
MODEL 9
REMARK VINA RESULT:      -4.1      1.484      2.422
REMARK  2 active torsions:
REMARK  status: ('A' for Active; 'I' for Inactive)
REMARK    1  A    between atoms: C6_6  and  C9_9 
REMARK    2  A    between atoms: C8_8  and  C9_9 
ROOT
HETATM    1  C1  UNL     1     -34.585  13.669  -3.548  1.00 20.00     0.027 C 
HETATM    2  C2  UNL     1     -35.377  14.964  -3.349  1.00 20.00     0.008 C 
HETATM    3  C3  UNL     1     -33.729  16.078  -5.009  1.00 20.00     0.032 C 
HETATM    4  C4  UNL     1     -34.322  13.296  -5.012  1.00 20.00     0.167 C 
HETATM    5  C5  UNL     1     -34.372  15.373  -6.203  1.00 20.00     0.168 C 
HETATM    6  C6  UNL     1     -34.647  16.247  -3.789  1.00 20.00     0.006 C 
HETATM    7  O10 UNL     1     -35.028  14.142  -5.910  1.00 20.00    -0.391 OA
ENDROOT
BRANCH   6   8
HETATM    8  C9  UNL     1     -33.836  16.826  -2.623  1.00 20.00     0.086 C 
HETATM    9 CL11 UNL     1     -34.667  16.367  -1.117  1.00 20.00    -0.125 Cl
BRANCH   8  10
HETATM   10  C8  UNL     1     -33.704  18.335  -2.768  1.00 20.00     0.016 C 
HETATM   11  C7  UNL     1     -35.036  19.009  -3.069  1.00 20.00     0.006 C 
ENDBRANCH   8  10
ENDBRANCH   6   8
TORSDOF 2
ENDMDL
