MODEL 1
REMARK VINA RESULT:      -4.4      0.000      0.000
REMARK  3 active torsions:
REMARK  status: ('A' for Active; 'I' for Inactive)
REMARK    1  A    between atoms: C1_1  and  C6_6 
REMARK    2  A    between atoms: C2_2  and  C3_3 
REMARK    3  A    between atoms: C3_3  and  C8_8 
ROOT
HETATM    1  C1  UNL     1     -35.484  15.911  -2.543  1.00 20.00    -0.012 C 
HETATM    2  C3  UNL     1     -35.544  14.885  -3.410  1.00 20.00    -0.024 C 
ENDROOT
BRANCH   2   3
HETATM    3  C2  UNL     1     -36.806  14.749  -4.186  1.00 20.00     0.265 C 
HETATM    4  O9  UNL     1     -37.807  14.194  -3.746  1.00 20.00    -0.302 OA
ENDBRANCH   2   3
BRANCH   2   5
HETATM    5  C8  UNL     1     -34.465  13.860  -3.624  1.00 20.00     0.037 C 
HETATM    6  C7  UNL     1     -34.608  13.148  -4.962  1.00 20.00     0.010 C 
ENDBRANCH   2   5
BRANCH   1   7
HETATM    7  C6  UNL     1     -34.356  16.257  -1.654  1.00 20.00     0.009 A 
HETATM    8  C4  UNL     1     -33.986  17.697  -1.511  1.00 20.00     0.009 A 
HETATM    9  C5  UNL     1     -34.655  16.975  -0.380  1.00 20.00     0.009 A 
ENDBRANCH   1   7
TORSDOF 3
ENDMDL
MODEL 2
REMARK VINA RESULT:      -4.4      1.884      2.266
REMARK  3 active torsions:
REMARK  status: ('A' for Active; 'I' for Inactive)
REMARK    1  A    between atoms: C1_1  and  C6_6 
REMARK    2  A    between atoms: C2_2  and  C3_3 
REMARK    3  A    between atoms: C3_3  and  C8_8 
ROOT
HETATM    1  C1  UNL     1     -34.581  15.287  -2.649  1.00 20.00    -0.012 C 
HETATM    2  C3  UNL     1     -33.989  15.006  -3.823  1.00 20.00    -0.024 C 
ENDROOT
BRANCH   2   3
HETATM    3  C2  UNL     1     -33.905  13.568  -4.192  1.00 20.00     0.265 C 
HETATM    4  O9  UNL     1     -34.880  12.825  -4.221  1.00 20.00    -0.302 OA
ENDBRANCH   2   3
BRANCH   2   5
HETATM    5  C8  UNL     1     -33.381  16.017  -4.757  1.00 20.00     0.037 C 
HETATM    6  C7  UNL     1     -34.031  15.987  -6.133  1.00 20.00     0.010 C 
ENDBRANCH   2   5
BRANCH   1   7
HETATM    7  C6  UNL     1     -34.781  16.624  -2.053  1.00 20.00     0.009 A 
HETATM    8  C4  UNL     1     -34.763  16.744  -0.564  1.00 20.00     0.009 A 
HETATM    9  C5  UNL     1     -33.621  17.277  -1.377  1.00 20.00     0.009 A 
ENDBRANCH   1   7
TORSDOF 3
ENDMDL
MODEL 3
REMARK VINA RESULT:      -4.3     11.281     12.039
REMARK  3 active torsions:
REMARK  status: ('A' for Active; 'I' for Inactive)
REMARK    1  A    between atoms: C1_1  and  C6_6 
REMARK    2  A    between atoms: C2_2  and  C3_3 
REMARK    3  A    between atoms: C3_3  and  C8_8 
ROOT
HETATM    1  C1  UNL     1     -33.347   5.803   3.101  1.00 20.00    -0.012 C 
HETATM    2  C3  UNL     1     -34.035   5.782   4.255  1.00 20.00    -0.024 C 
ENDROOT
BRANCH   2   3
HETATM    3  C2  UNL     1     -35.293   4.987   4.260  1.00 20.00     0.265 C 
HETATM    4  O9  UNL     1     -35.330   3.793   4.534  1.00 20.00    -0.302 OA
ENDBRANCH   2   3
BRANCH   2   5
HETATM    5  C8  UNL     1     -33.655   6.519   5.510  1.00 20.00     0.037 C 
HETATM    6  C7  UNL     1     -34.429   6.021   6.723  1.00 20.00     0.010 C 
ENDBRANCH   2   5
BRANCH   1   7
HETATM    7  C6  UNL     1     -32.083   6.519   2.833  1.00 20.00     0.009 A 
HETATM    8  C4  UNL     1     -32.158   7.893   2.252  1.00 20.00     0.009 A 
HETATM    9  C5  UNL     1     -31.747   7.701   3.681  1.00 20.00     0.009 A 
ENDBRANCH   1   7
TORSDOF 3
ENDMDL
MODEL 4
REMARK VINA RESULT:      -4.2     10.352     11.148
REMARK  3 active torsions:
REMARK  status: ('A' for Active; 'I' for Inactive)
REMARK    1  A    between atoms: C1_1  and  C6_6 
REMARK    2  A    between atoms: C2_2  and  C3_3 
REMARK    3  A    between atoms: C3_3  and  C8_8 
ROOT
HETATM    1  C1  UNL     1     -33.114   6.720   2.766  1.00 20.00    -0.012 C 
HETATM    2  C3  UNL     1     -33.690   6.306   3.908  1.00 20.00    -0.024 C 
ENDROOT
BRANCH   2   3
HETATM    3  C2  UNL     1     -34.715   5.236   3.780  1.00 20.00     0.265 C 
HETATM    4  O9  UNL     1     -35.904   5.466   3.594  1.00 20.00    -0.302 OA
ENDBRANCH   2   3
BRANCH   2   5
HETATM    5  C8  UNL     1     -33.407   6.859   5.278  1.00 20.00     0.037 C 
HETATM    6  C7  UNL     1     -34.171   6.116   6.364  1.00 20.00     0.010 C 
ENDBRANCH   2   5
BRANCH   1   7
HETATM    7  C6  UNL     1     -32.082   7.768   2.621  1.00 20.00     0.009 A 
HETATM    8  C4  UNL     1     -31.744   8.240   1.245  1.00 20.00     0.009 A 
HETATM    9  C5  UNL     1     -32.512   9.127   2.178  1.00 20.00     0.009 A 
ENDBRANCH   1   7
TORSDOF 3
ENDMDL
MODEL 5
REMARK VINA RESULT:      -4.1     11.303     12.044
REMARK  3 active torsions:
REMARK  status: ('A' for Active; 'I' for Inactive)
REMARK    1  A    between atoms: C1_1  and  C6_6 
REMARK    2  A    between atoms: C2_2  and  C3_3 
REMARK    3  A    between atoms: C3_3  and  C8_8 
ROOT
HETATM    1  C1  UNL     1     -33.040   6.913   4.345  1.00 20.00    -0.012 C 
HETATM    2  C3  UNL     1     -33.990   6.189   4.962  1.00 20.00    -0.024 C 
ENDROOT
BRANCH   2   3
HETATM    3  C2  UNL     1     -34.132   6.401   6.428  1.00 20.00     0.265 C 
HETATM    4  O9  UNL     1     -33.598   7.327   7.027  1.00 20.00    -0.302 OA
ENDBRANCH   2   3
BRANCH   2   5
HETATM    5  C8  UNL     1     -34.879   5.173   4.301  1.00 20.00     0.037 C 
HETATM    6  C7  UNL     1     -35.121   3.960   5.189  1.00 20.00     0.010 C 
ENDBRANCH   2   5
BRANCH   1   7
HETATM    7  C6  UNL     1     -32.694   6.883   2.909  1.00 20.00     0.009 A 
HETATM    8  C4  UNL     1     -32.681   8.175   2.158  1.00 20.00     0.009 A 
HETATM    9  C5  UNL     1     -31.393   7.479   2.483  1.00 20.00     0.009 A 
ENDBRANCH   1   7
TORSDOF 3
ENDMDL
MODEL 6
REMARK VINA RESULT:      -4.1      2.217      2.610
REMARK  3 active torsions:
REMARK  status: ('A' for Active; 'I' for Inactive)
REMARK    1  A    between atoms: C1_1  and  C6_6 
REMARK    2  A    between atoms: C2_2  and  C3_3 
REMARK    3  A    between atoms: C3_3  and  C8_8 
ROOT
HETATM    1  C1  UNL     1     -33.811  16.489  -2.082  1.00 20.00    -0.012 C 
HETATM    2  C3  UNL     1     -34.039  15.718  -3.159  1.00 20.00    -0.024 C 
ENDROOT
BRANCH   2   3
HETATM    3  C2  UNL     1     -33.027  15.788  -4.247  1.00 20.00     0.265 C 
HETATM    4  O9  UNL     1     -32.950  16.725  -5.033  1.00 20.00    -0.302 OA
ENDBRANCH   2   3
BRANCH   2   5
HETATM    5  C8  UNL     1     -35.239  14.834  -3.360  1.00 20.00     0.037 C 
HETATM    6  C7  UNL     1     -34.872  13.513  -4.020  1.00 20.00     0.010 C 
ENDBRANCH   2   5
BRANCH   1   7
HETATM    7  C6  UNL     1     -34.660  16.608  -0.879  1.00 20.00     0.009 A 
HETATM    8  C4  UNL     1     -34.333  17.675   0.115  1.00 20.00     0.009 A 
HETATM    9  C5  UNL     1     -35.547  17.803  -0.755  1.00 20.00     0.009 A 
ENDBRANCH   1   7
TORSDOF 3
ENDMDL
MODEL 7
REMARK VINA RESULT:      -3.8      2.785      4.072
REMARK  3 active torsions:
REMARK  status: ('A' for Active; 'I' for Inactive)
REMARK    1  A    between atoms: C1_1  and  C6_6 
REMARK    2  A    between atoms: C2_2  and  C3_3 
REMARK    3  A    between atoms: C3_3  and  C8_8 
ROOT
HETATM    1  C1  UNL     1     -34.375  15.084  -5.632  1.00 20.00    -0.012 C 
HETATM    2  C3  UNL     1     -34.098  14.776  -4.353  1.00 20.00    -0.024 C 
ENDROOT
BRANCH   2   3
HETATM    3  C2  UNL     1     -34.672  13.503  -3.841  1.00 20.00     0.265 C 
HETATM    4  O9  UNL     1     -34.985  12.568  -4.569  1.00 20.00    -0.302 OA
ENDBRANCH   2   3
BRANCH   2   5
HETATM    5  C8  UNL     1     -33.297  15.627  -3.406  1.00 20.00     0.037 C 
HETATM    6  C7  UNL     1     -34.151  16.190  -2.279  1.00 20.00     0.010 C 
ENDBRANCH   2   5
BRANCH   1   7
HETATM    7  C6  UNL     1     -33.937  16.285  -6.371  1.00 20.00     0.009 A 
HETATM    8  C4  UNL     1     -34.725  16.704  -7.570  1.00 20.00     0.009 A 
HETATM    9  C5  UNL     1     -34.794  17.507  -6.305  1.00 20.00     0.009 A 
ENDBRANCH   1   7
TORSDOF 3
ENDMDL
MODEL 8
REMARK VINA RESULT:      -3.8      1.923      4.036
REMARK  3 active torsions:
REMARK  status: ('A' for Active; 'I' for Inactive)
REMARK    1  A    between atoms: C1_1  and  C6_6 
REMARK    2  A    between atoms: C2_2  and  C3_3 
REMARK    3  A    between atoms: C3_3  and  C8_8 
ROOT
HETATM    1  C1  UNL     1     -36.025  14.671  -5.585  1.00 20.00    -0.012 C 
HETATM    2  C3  UNL     1     -36.000  14.632  -4.242  1.00 20.00    -0.024 C 
ENDROOT
BRANCH   2   3
HETATM    3  C2  UNL     1     -37.291  14.894  -3.550  1.00 20.00     0.265 C 
HETATM    4  O9  UNL     1     -38.300  14.224  -3.738  1.00 20.00    -0.302 OA
ENDBRANCH   2   3
BRANCH   2   5
HETATM    5  C8  UNL     1     -34.780  14.385  -3.399  1.00 20.00     0.037 C 
HETATM    6  C7  UNL     1     -34.133  15.682  -2.934  1.00 20.00     0.010 C 
ENDBRANCH   2   5
BRANCH   1   7
HETATM    7  C6  UNL     1     -34.885  14.456  -6.501  1.00 20.00     0.009 A 
HETATM    8  C4  UNL     1     -35.023  14.908  -7.918  1.00 20.00     0.009 A 
HETATM    9  C5  UNL     1     -34.125  15.651  -6.975  1.00 20.00     0.009 A 
ENDBRANCH   1   7
TORSDOF 3
ENDMDL
MODEL 9
REMARK VINA RESULT:      -3.8      2.763      5.194
REMARK  3 active torsions:
REMARK  status: ('A' for Active; 'I' for Inactive)
REMARK    1  A    between atoms: C1_1  and  C6_6 
REMARK    2  A    between atoms: C2_2  and  C3_3 
REMARK    3  A    between atoms: C3_3  and  C8_8 
ROOT
HETATM    1  C1  UNL     1     -34.529  16.782  -0.759  1.00 20.00    -0.012 C 
HETATM    2  C3  UNL     1     -34.045  17.827  -0.065  1.00 20.00    -0.024 C 
ENDROOT
BRANCH   2   3
HETATM    3  C2  UNL     1     -34.700  18.113   1.240  1.00 20.00     0.265 C 
HETATM    4  O9  UNL     1     -35.388  17.294   1.838  1.00 20.00    -0.302 OA
ENDBRANCH   2   3
BRANCH   2   5
HETATM    5  C8  UNL     1     -32.934  18.735  -0.517  1.00 20.00     0.037 C 
HETATM    6  C7  UNL     1     -31.874  18.922   0.558  1.00 20.00     0.010 C 
ENDBRANCH   2   5
BRANCH   1   7
HETATM    7  C6  UNL     1     -34.064  16.299  -2.076  1.00 20.00     0.009 A 
HETATM    8  C4  UNL     1     -34.947  15.366  -2.838  1.00 20.00     0.009 A 
HETATM    9  C5  UNL     1     -34.773  16.783  -3.297  1.00 20.00     0.009 A 
ENDBRANCH   1   7
TORSDOF 3
ENDMDL
