MODEL 1
REMARK VINA RESULT:      -4.7      0.000      0.000
REMARK  4 active torsions:
REMARK  status: ('A' for Active; 'I' for Inactive)
REMARK    1  A    between atoms: C2_2  and  C8_8 
REMARK    2  A    between atoms: C3_3  and  C10_10 
REMARK    3  A    between atoms: C3_3  and  O11_11 
REMARK    4  A    between atoms: C9_9  and  C10_10 
ROOT
HETATM    1  C1  UNL     1     -33.975  17.345  -3.874  1.00 20.00     0.046 A 
HETATM    2  C2  UNL     1     -33.644  16.444  -2.712  1.00 20.00     0.023 A 
HETATM    3  C3  UNL     1     -33.640  15.896  -4.122  1.00 20.00     0.069 A 
ENDROOT
BRANCH   3   4
HETATM    4  C10 UNL     1     -34.729  14.932  -4.634  1.00 20.00    -0.017 C 
HETATM    5  C6  UNL     1     -34.480  14.664  -6.128  1.00 20.00     0.018 C 
HETATM    6  C7  UNL     1     -34.616  13.610  -3.857  1.00 20.00     0.018 C 
BRANCH   4   7
HETATM    7  C9  UNL     1     -36.111  15.597  -4.408  1.00 20.00     0.007 C 
HETATM    8  C5  UNL     1     -37.245  14.658  -4.019  1.00 20.00     0.006 C 
ENDBRANCH   4   7
ENDBRANCH   3   4
BRANCH   3   9
HETATM    9  O11 UNL     1     -32.340  15.640  -4.684  1.00 20.00    -0.389 OA
HETATM   10  H31 UNL     1     -31.718  15.713  -3.948  1.00 20.00     0.210 HD
ENDBRANCH   3   9
BRANCH   2  11
HETATM   11  C8  UNL     1     -34.693  16.083  -1.719  1.00 20.00     0.003 C 
HETATM   12  C4  UNL     1     -34.651  16.940  -0.479  1.00 20.00     0.005 C 
ENDBRANCH   2  11
TORSDOF 4
ENDMDL
MODEL 2
REMARK VINA RESULT:      -4.6      0.854      1.696
REMARK  4 active torsions:
REMARK  status: ('A' for Active; 'I' for Inactive)
REMARK    1  A    between atoms: C2_2  and  C8_8 
REMARK    2  A    between atoms: C3_3  and  C10_10 
REMARK    3  A    between atoms: C3_3  and  O11_11 
REMARK    4  A    between atoms: C9_9  and  C10_10 
ROOT
HETATM    1  C1  UNL     1     -33.699  17.630  -3.647  1.00 20.00     0.046 A 
HETATM    2  C2  UNL     1     -33.606  16.443  -2.723  1.00 20.00     0.023 A 
HETATM    3  C3  UNL     1     -33.668  16.235  -4.221  1.00 20.00     0.069 A 
ENDROOT
BRANCH   3   4
HETATM    4  C10 UNL     1     -34.916  15.664  -4.922  1.00 20.00    -0.017 C 
HETATM    5  C6  UNL     1     -36.051  16.697  -4.815  1.00 20.00     0.018 C 
HETATM    6  C7  UNL     1     -34.581  15.431  -6.403  1.00 20.00     0.018 C 
BRANCH   4   7
HETATM    7  C9  UNL     1     -35.301  14.336  -4.219  1.00 20.00     0.007 C 
HETATM    8  C5  UNL     1     -34.549  13.096  -4.685  1.00 20.00     0.006 C 
ENDBRANCH   4   7
ENDBRANCH   3   4
BRANCH   3   9
HETATM    9  O11 UNL     1     -32.431  15.841  -4.842  1.00 20.00    -0.389 OA
HETATM   10  H31 UNL     1     -32.003  16.661  -5.117  1.00 20.00     0.210 HD
ENDBRANCH   3   9
BRANCH   2  11
HETATM   11  C8  UNL     1     -34.742  16.102  -1.822  1.00 20.00     0.003 C 
HETATM   12  C4  UNL     1     -34.703  16.850  -0.514  1.00 20.00     0.005 C 
ENDBRANCH   2  11
TORSDOF 4
ENDMDL
MODEL 3
REMARK VINA RESULT:      -4.6      1.722      2.627
REMARK  4 active torsions:
REMARK  status: ('A' for Active; 'I' for Inactive)
REMARK    1  A    between atoms: C2_2  and  C8_8 
REMARK    2  A    between atoms: C3_3  and  C10_10 
REMARK    3  A    between atoms: C3_3  and  O11_11 
REMARK    4  A    between atoms: C9_9  and  C10_10 
ROOT
HETATM    1  C1  UNL     1     -33.126  14.117  -3.735  1.00 20.00     0.046 A 
HETATM    2  C2  UNL     1     -34.232  14.684  -2.884  1.00 20.00     0.023 A 
HETATM    3  C3  UNL     1     -34.545  14.106  -4.247  1.00 20.00     0.069 A 
ENDROOT
BRANCH   3   4
HETATM    4  C10 UNL     1     -34.937  14.992  -5.446  1.00 20.00    -0.017 C 
HETATM    5  C6  UNL     1     -35.180  14.083  -6.663  1.00 20.00     0.018 C 
HETATM    6  C7  UNL     1     -36.238  15.734  -5.101  1.00 20.00     0.018 C 
BRANCH   4   7
HETATM    7  C9  UNL     1     -33.779  15.987  -5.713  1.00 20.00     0.007 C 
HETATM    8  C5  UNL     1     -34.191  17.372  -6.196  1.00 20.00     0.006 C 
ENDBRANCH   4   7
ENDBRANCH   3   4
BRANCH   3   9
HETATM    9  O11 UNL     1     -35.204  12.827  -4.240  1.00 20.00    -0.389 OA
HETATM   10  H31 UNL     1     -34.774  12.314  -3.544  1.00 20.00     0.210 HD
ENDBRANCH   3   9
BRANCH   2  11
HETATM   11  C8  UNL     1     -34.290  16.146  -2.604  1.00 20.00     0.003 C 
HETATM   12  C4  UNL     1     -34.639  16.459  -1.172  1.00 20.00     0.005 C 
ENDBRANCH   2  11
TORSDOF 4
ENDMDL
MODEL 4
REMARK VINA RESULT:      -4.5      1.093      3.784
REMARK  4 active torsions:
REMARK  status: ('A' for Active; 'I' for Inactive)
REMARK    1  A    between atoms: C2_2  and  C8_8 
REMARK    2  A    between atoms: C3_3  and  C10_10 
REMARK    3  A    between atoms: C3_3  and  O11_11 
REMARK    4  A    between atoms: C9_9  and  C10_10 
ROOT
HETATM    1  C1  UNL     1     -34.743  13.602  -3.845  1.00 20.00     0.046 A 
HETATM    2  C2  UNL     1     -34.340  14.008  -5.239  1.00 20.00     0.023 A 
HETATM    3  C3  UNL     1     -33.780  14.746  -4.042  1.00 20.00     0.069 A 
ENDROOT
BRANCH   3   4
HETATM    4  C10 UNL     1     -34.208  16.183  -3.687  1.00 20.00    -0.017 C 
HETATM    5  C6  UNL     1     -33.636  17.138  -4.748  1.00 20.00     0.018 C 
HETATM    6  C7  UNL     1     -35.743  16.257  -3.714  1.00 20.00     0.018 C 
BRANCH   4   7
HETATM    7  C9  UNL     1     -33.656  16.518  -2.277  1.00 20.00     0.007 C 
HETATM    8  C5  UNL     1     -34.673  16.498  -1.143  1.00 20.00     0.006 C 
ENDBRANCH   4   7
ENDBRANCH   3   4
BRANCH   3   9
HETATM    9  O11 UNL     1     -32.402  14.465  -3.732  1.00 20.00    -0.389 OA
HETATM   10  H31 UNL     1     -31.897  14.745  -4.506  1.00 20.00     0.210 HD
ENDBRANCH   3   9
BRANCH   2  11
HETATM   11  C8  UNL     1     -35.336  14.623  -6.160  1.00 20.00     0.003 C 
HETATM   12  C4  UNL     1     -34.807  14.812  -7.559  1.00 20.00     0.005 C 
ENDBRANCH   2  11
TORSDOF 4
ENDMDL
MODEL 5
REMARK VINA RESULT:      -4.3      1.382      3.347
REMARK  4 active torsions:
REMARK  status: ('A' for Active; 'I' for Inactive)
REMARK    1  A    between atoms: C2_2  and  C8_8 
REMARK    2  A    between atoms: C3_3  and  C10_10 
REMARK    3  A    between atoms: C3_3  and  O11_11 
REMARK    4  A    between atoms: C9_9  and  C10_10 
ROOT
HETATM    1  C1  UNL     1     -34.418  14.967  -6.647  1.00 20.00     0.046 A 
HETATM    2  C2  UNL     1     -35.137  16.120  -5.995  1.00 20.00     0.023 A 
HETATM    3  C3  UNL     1     -33.998  15.431  -5.275  1.00 20.00     0.069 A 
ENDROOT
BRANCH   3   4
HETATM    4  C10 UNL     1     -34.228  14.523  -4.051  1.00 20.00    -0.017 C 
HETATM    5  C6  UNL     1     -34.998  13.273  -4.510  1.00 20.00     0.018 C 
HETATM    6  C7  UNL     1     -32.860  14.099  -3.493  1.00 20.00     0.018 C 
BRANCH   4   7
HETATM    7  C9  UNL     1     -35.039  15.323  -2.999  1.00 20.00     0.007 C 
HETATM    8  C5  UNL     1     -34.221  16.188  -2.048  1.00 20.00     0.006 C 
ENDBRANCH   4   7
ENDBRANCH   3   4
BRANCH   3   9
HETATM    9  O11 UNL     1     -32.766  16.173  -5.214  1.00 20.00    -0.389 OA
HETATM   10  H31 UNL     1     -32.252  15.768  -4.504  1.00 20.00     0.210 HD
ENDBRANCH   3   9
BRANCH   2  11
HETATM   11  C8  UNL     1     -36.556  15.975  -5.567  1.00 20.00     0.003 C 
HETATM   12  C4  UNL     1     -37.448  15.433  -6.655  1.00 20.00     0.005 C 
ENDBRANCH   2  11
TORSDOF 4
ENDMDL
MODEL 6
REMARK VINA RESULT:      -4.2      1.260      3.937
REMARK  4 active torsions:
REMARK  status: ('A' for Active; 'I' for Inactive)
REMARK    1  A    between atoms: C2_2  and  C8_8 
REMARK    2  A    between atoms: C3_3  and  C10_10 
REMARK    3  A    between atoms: C3_3  and  O11_11 
REMARK    4  A    between atoms: C9_9  and  C10_10 
ROOT
HETATM    1  C1  UNL     1     -34.788  13.324  -4.157  1.00 20.00     0.046 A 
HETATM    2  C2  UNL     1     -34.486  13.999  -5.470  1.00 20.00     0.023 A 
HETATM    3  C3  UNL     1     -34.037  14.631  -4.171  1.00 20.00     0.069 A 
ENDROOT
BRANCH   3   4
HETATM    4  C10 UNL     1     -34.696  15.903  -3.603  1.00 20.00    -0.017 C 
HETATM    5  C6  UNL     1     -36.102  15.539  -3.097  1.00 20.00     0.018 C 
HETATM    6  C7  UNL     1     -33.849  16.408  -2.424  1.00 20.00     0.018 C 
BRANCH   4   7
HETATM    7  C9  UNL     1     -34.766  16.960  -4.736  1.00 20.00     0.007 C 
HETATM    8  C5  UNL     1     -33.453  17.649  -5.083  1.00 20.00     0.006 C 
ENDBRANCH   4   7
ENDBRANCH   3   4
BRANCH   3   9
HETATM    9  O11 UNL     1     -32.626  14.546  -3.896  1.00 20.00    -0.389 OA
HETATM   10  H31 UNL     1     -32.224  15.292  -4.359  1.00 20.00     0.210 HD
ENDBRANCH   3   9
BRANCH   2  11
HETATM   11  C8  UNL     1     -35.589  14.567  -6.294  1.00 20.00     0.003 C 
HETATM   12  C4  UNL     1     -35.229  14.696  -7.752  1.00 20.00     0.005 C 
ENDBRANCH   2  11
TORSDOF 4
ENDMDL
MODEL 7
REMARK VINA RESULT:      -4.1      1.790      4.073
REMARK  4 active torsions:
REMARK  status: ('A' for Active; 'I' for Inactive)
REMARK    1  A    between atoms: C2_2  and  C8_8 
REMARK    2  A    between atoms: C3_3  and  C10_10 
REMARK    3  A    between atoms: C3_3  and  O11_11 
REMARK    4  A    between atoms: C9_9  and  C10_10 
ROOT
HETATM    1  C1  UNL     1     -36.246  16.259  -5.109  1.00 20.00     0.046 A 
HETATM    2  C2  UNL     1     -36.135  14.786  -5.403  1.00 20.00     0.023 A 
HETATM    3  C3  UNL     1     -35.893  15.299  -4.000  1.00 20.00     0.069 A 
ENDROOT
BRANCH   3   4
HETATM    4  C10 UNL     1     -34.488  15.337  -3.368  1.00 20.00    -0.017 C 
HETATM    5  C6  UNL     1     -33.907  13.913  -3.388  1.00 20.00     0.018 C 
HETATM    6  C7  UNL     1     -33.596  16.259  -4.214  1.00 20.00     0.018 C 
BRANCH   4   7
HETATM    7  C9  UNL     1     -34.624  15.865  -1.917  1.00 20.00     0.007 C 
HETATM    8  C5  UNL     1     -33.844  17.134  -1.596  1.00 20.00     0.006 C 
ENDBRANCH   4   7
ENDBRANCH   3   4
BRANCH   3   9
HETATM    9  O11 UNL     1     -36.941  15.026  -3.052  1.00 20.00    -0.389 OA
HETATM   10  H31 UNL     1     -37.737  15.435  -3.415  1.00 20.00     0.210 HD
ENDBRANCH   3   9
BRANCH   2  11
HETATM   11  C8  UNL     1     -35.035  14.272  -6.265  1.00 20.00     0.003 C 
HETATM   12  C4  UNL     1     -34.921  15.007  -7.577  1.00 20.00     0.005 C 
ENDBRANCH   2  11
TORSDOF 4
ENDMDL
MODEL 8
REMARK VINA RESULT:      -4.1      2.278      3.551
REMARK  4 active torsions:
REMARK  status: ('A' for Active; 'I' for Inactive)
REMARK    1  A    between atoms: C2_2  and  C8_8 
REMARK    2  A    between atoms: C3_3  and  C10_10 
REMARK    3  A    between atoms: C3_3  and  O11_11 
REMARK    4  A    between atoms: C9_9  and  C10_10 
ROOT
HETATM    1  C1  UNL     1     -35.167  13.343  -4.272  1.00 20.00     0.046 A 
HETATM    2  C2  UNL     1     -35.043  14.504  -3.319  1.00 20.00     0.023 A 
HETATM    3  C3  UNL     1     -36.197  14.445  -4.296  1.00 20.00     0.069 A 
ENDROOT
BRANCH   3   4
HETATM    4  C10 UNL     1     -36.292  15.383  -5.516  1.00 20.00    -0.017 C 
HETATM    5  C6  UNL     1     -37.726  15.318  -6.069  1.00 20.00     0.018 C 
HETATM    6  C7  UNL     1     -35.992  16.818  -5.054  1.00 20.00     0.018 C 
BRANCH   4   7
HETATM    7  C9  UNL     1     -35.262  14.908  -6.574  1.00 20.00     0.007 C 
HETATM    8  C5  UNL     1     -34.283  15.965  -7.068  1.00 20.00     0.006 C 
ENDBRANCH   4   7
ENDBRANCH   3   4
BRANCH   3   9
HETATM    9  O11 UNL     1     -37.477  14.120  -3.723  1.00 20.00    -0.389 OA
HETATM   10  H31 UNL     1     -37.303  13.914  -2.796  1.00 20.00     0.210 HD
ENDBRANCH   3   9
BRANCH   2  11
HETATM   11  C8  UNL     1     -33.924  15.477  -3.464  1.00 20.00     0.003 C 
HETATM   12  C4  UNL     1     -32.590  14.813  -3.687  1.00 20.00     0.005 C 
ENDBRANCH   2  11
TORSDOF 4
ENDMDL
MODEL 9
REMARK VINA RESULT:      -4.1      1.569      2.839
REMARK  4 active torsions:
REMARK  status: ('A' for Active; 'I' for Inactive)
REMARK    1  A    between atoms: C2_2  and  C8_8 
REMARK    2  A    between atoms: C3_3  and  C10_10 
REMARK    3  A    between atoms: C3_3  and  O11_11 
REMARK    4  A    between atoms: C9_9  and  C10_10 
ROOT
HETATM    1  C1  UNL     1     -36.497  14.786  -3.565  1.00 20.00     0.046 A 
HETATM    2  C2  UNL     1     -35.803  16.008  -3.023  1.00 20.00     0.023 A 
HETATM    3  C3  UNL     1     -35.715  15.677  -4.497  1.00 20.00     0.069 A 
ENDROOT
BRANCH   3   4
HETATM    4  C10 UNL     1     -34.417  15.159  -5.148  1.00 20.00    -0.017 C 
HETATM    5  C6  UNL     1     -34.126  13.752  -4.601  1.00 20.00     0.018 C 
HETATM    6  C7  UNL     1     -34.631  15.078  -6.667  1.00 20.00     0.018 C 
BRANCH   4   7
HETATM    7  C9  UNL     1     -33.272  16.144  -4.795  1.00 20.00     0.007 C 
HETATM    8  C5  UNL     1     -33.397  17.544  -5.381  1.00 20.00     0.006 C 
ENDBRANCH   4   7
ENDBRANCH   3   4
BRANCH   3   9
HETATM    9  O11 UNL     1     -36.497  16.514  -5.367  1.00 20.00    -0.389 OA
HETATM   10  H31 UNL     1     -36.965  17.129  -4.789  1.00 20.00     0.210 HD
ENDBRANCH   3   9
BRANCH   2  11
HETATM   11  C8  UNL     1     -34.641  15.866  -2.102  1.00 20.00     0.003 C 
HETATM   12  C4  UNL     1     -34.747  16.743  -0.880  1.00 20.00     0.005 C 
ENDBRANCH   2  11
TORSDOF 4
ENDMDL
