MODEL 1
REMARK VINA RESULT:      -4.9      0.000      0.000
REMARK  2 active torsions:
REMARK  status: ('A' for Active; 'I' for Inactive)
REMARK    1  A    between atoms: C1_1  and  C6_6 
REMARK    2  A    between atoms: C2_2  and  C7_7 
ROOT
HETATM    1  C3  UNL     1     -33.711   6.589   5.449  1.00 20.00     0.037 C 
HETATM    2  C4  UNL     1     -34.508   5.660   6.337  1.00 20.00     0.168 C 
HETATM    3  C5  UNL     1     -34.902   5.054   4.123  1.00 20.00     0.176 C 
HETATM    4  C6  UNL     1     -33.555   5.760   4.191  1.00 20.00     0.034 C 
HETATM    5  O8  UNL     1     -35.375   4.916   5.472  1.00 20.00    -0.390 OA
ENDROOT
BRANCH   4   6
HETATM    6  C1  UNL     1     -33.232   6.563   2.977  1.00 20.00    -0.023 C 
HETATM    7  C2  UNL     1     -32.239   7.461   2.919  1.00 20.00    -0.015 C 
BRANCH   7   8
HETATM    8  C7  UNL     1     -31.912   8.255   1.697  1.00 20.00     0.141 C 
HETATM    9 CL9  UNL     1     -32.641   9.871   1.813  1.00 20.00    -0.126 Cl
ENDBRANCH   7   8
ENDBRANCH   4   6
TORSDOF 2
ENDMDL
MODEL 2
REMARK VINA RESULT:      -4.6      1.000      1.471
REMARK  2 active torsions:
REMARK  status: ('A' for Active; 'I' for Inactive)
REMARK    1  A    between atoms: C1_1  and  C6_6 
REMARK    2  A    between atoms: C2_2  and  C7_7 
ROOT
HETATM    1  C3  UNL     1     -34.594   4.315   4.597  1.00 20.00     0.037 C 
HETATM    2  C4  UNL     1     -35.168   4.263   5.996  1.00 20.00     0.168 C 
HETATM    3  C5  UNL     1     -34.040   6.287   5.754  1.00 20.00     0.176 C 
HETATM    4  C6  UNL     1     -34.458   5.806   4.372  1.00 20.00     0.034 C 
HETATM    5  O8  UNL     1     -34.604   5.371   6.707  1.00 20.00    -0.390 OA
ENDROOT
BRANCH   4   6
HETATM    6  C1  UNL     1     -33.497   6.167   3.291  1.00 20.00    -0.023 C 
HETATM    7  C2  UNL     1     -32.762   7.287   3.288  1.00 20.00    -0.015 C 
BRANCH   7   8
HETATM    8  C7  UNL     1     -31.792   7.638   2.207  1.00 20.00     0.141 C 
HETATM    9 CL9  UNL     1     -32.269   9.168   1.441  1.00 20.00    -0.126 Cl
ENDBRANCH   7   8
ENDBRANCH   4   6
TORSDOF 2
ENDMDL
MODEL 3
REMARK VINA RESULT:      -4.1     11.114     11.923
REMARK  2 active torsions:
REMARK  status: ('A' for Active; 'I' for Inactive)
REMARK    1  A    between atoms: C1_1  and  C6_6 
REMARK    2  A    between atoms: C2_2  and  C7_7 
ROOT
HETATM    1  C3  UNL     1     -34.440  13.926  -3.545  1.00 20.00     0.037 C 
HETATM    2  C4  UNL     1     -34.479  13.344  -4.941  1.00 20.00     0.168 C 
HETATM    3  C5  UNL     1     -34.008  15.618  -5.122  1.00 20.00     0.176 C 
HETATM    4  C6  UNL     1     -33.568  15.149  -3.742  1.00 20.00     0.034 C 
HETATM    5  O8  UNL     1     -34.441  14.454  -5.845  1.00 20.00    -0.390 OA
ENDROOT
BRANCH   4   6
HETATM    6  C1  UNL     1     -33.724  16.178  -2.675  1.00 20.00    -0.023 C 
HETATM    7  C2  UNL     1     -34.582  16.068  -1.652  1.00 20.00    -0.015 C 
BRANCH   7   8
HETATM    8  C7  UNL     1     -34.727  17.098  -0.580  1.00 20.00     0.141 C 
HETATM    9 CL9  UNL     1     -33.242  18.065  -0.465  1.00 20.00    -0.126 Cl
ENDBRANCH   7   8
ENDBRANCH   4   6
TORSDOF 2
ENDMDL
MODEL 4
REMARK VINA RESULT:      -4.1     10.571     11.678
REMARK  2 active torsions:
REMARK  status: ('A' for Active; 'I' for Inactive)
REMARK    1  A    between atoms: C1_1  and  C6_6 
REMARK    2  A    between atoms: C2_2  and  C7_7 
ROOT
HETATM    1  C3  UNL     1     -34.625  15.158  -5.164  1.00 20.00     0.037 C 
HETATM    2  C4  UNL     1     -34.894  13.796  -5.766  1.00 20.00     0.168 C 
HETATM    3  C5  UNL     1     -34.295  13.492  -3.536  1.00 20.00     0.176 C 
HETATM    4  C6  UNL     1     -34.858  14.898  -3.691  1.00 20.00     0.034 C 
HETATM    5  O8  UNL     1     -34.456  12.832  -4.802  1.00 20.00    -0.390 OA
ENDROOT
BRANCH   4   6
HETATM    6  C1  UNL     1     -34.223  15.905  -2.794  1.00 20.00    -0.023 C 
HETATM    7  C2  UNL     1     -34.709  16.248  -1.593  1.00 20.00    -0.015 C 
BRANCH   7   8
HETATM    8  C7  UNL     1     -34.062  17.251  -0.694  1.00 20.00     0.141 C 
HETATM    9 CL9  UNL     1     -35.040  17.467   0.773  1.00 20.00    -0.126 Cl
ENDBRANCH   7   8
ENDBRANCH   4   6
TORSDOF 2
ENDMDL
MODEL 5
REMARK VINA RESULT:      -4.1     10.932     11.478
REMARK  2 active torsions:
REMARK  status: ('A' for Active; 'I' for Inactive)
REMARK    1  A    between atoms: C1_1  and  C6_6 
REMARK    2  A    between atoms: C2_2  and  C7_7 
ROOT
HETATM    1  C3  UNL     1     -33.720  14.017  -3.726  1.00 20.00     0.037 C 
HETATM    2  C4  UNL     1     -34.730  13.252  -4.553  1.00 20.00     0.168 C 
HETATM    3  C5  UNL     1     -35.850  14.980  -3.464  1.00 20.00     0.176 C 
HETATM    4  C6  UNL     1     -34.385  15.371  -3.596  1.00 20.00     0.034 C 
HETATM    5  O8  UNL     1     -36.021  13.740  -4.170  1.00 20.00    -0.390 OA
ENDROOT
BRANCH   4   6
HETATM    6  C1  UNL     1     -33.873  16.188  -2.459  1.00 20.00    -0.023 C 
HETATM    7  C2  UNL     1     -34.636  16.620  -1.447  1.00 20.00    -0.015 C 
BRANCH   7   8
HETATM    8  C7  UNL     1     -34.115  17.429  -0.304  1.00 20.00     0.141 C 
HETATM    9 CL9  UNL     1     -35.268  17.381   1.046  1.00 20.00    -0.126 Cl
ENDBRANCH   7   8
ENDBRANCH   4   6
TORSDOF 2
ENDMDL
MODEL 6
REMARK VINA RESULT:      -3.8     11.635     12.330
REMARK  2 active torsions:
REMARK  status: ('A' for Active; 'I' for Inactive)
REMARK    1  A    between atoms: C1_1  and  C6_6 
REMARK    2  A    between atoms: C2_2  and  C7_7 
ROOT
HETATM    1  C3  UNL     1     -34.377  15.055  -3.203  1.00 20.00     0.037 C 
HETATM    2  C4  UNL     1     -33.682  15.333  -4.517  1.00 20.00     0.168 C 
HETATM    3  C5  UNL     1     -33.839  17.340  -3.347  1.00 20.00     0.176 C 
HETATM    4  C6  UNL     1     -33.882  16.198  -2.341  1.00 20.00     0.034 C 
HETATM    5  O8  UNL     1     -33.595  16.758  -4.637  1.00 20.00    -0.390 OA
ENDROOT
BRANCH   4   6
HETATM    6  C1  UNL     1     -34.740  16.471  -1.153  1.00 20.00    -0.023 C 
HETATM    7  C2  UNL     1     -34.419  17.339  -0.184  1.00 20.00    -0.015 C 
BRANCH   7   8
HETATM    8  C7  UNL     1     -35.287  17.617   1.000  1.00 20.00     0.141 C 
HETATM    9 CL9  UNL     1     -34.323  18.353   2.297  1.00 20.00    -0.126 Cl
ENDBRANCH   7   8
ENDBRANCH   4   6
TORSDOF 2
ENDMDL
MODEL 7
REMARK VINA RESULT:      -3.7     11.544     12.013
REMARK  2 active torsions:
REMARK  status: ('A' for Active; 'I' for Inactive)
REMARK    1  A    between atoms: C1_1  and  C6_6 
REMARK    2  A    between atoms: C2_2  and  C7_7 
ROOT
HETATM    1  C3  UNL     1     -33.447  17.933  -0.440  1.00 20.00     0.037 C 
HETATM    2  C4  UNL     1     -33.940  18.976   0.539  1.00 20.00     0.168 C 
HETATM    3  C5  UNL     1     -35.798  17.996  -0.468  1.00 20.00     0.176 C 
HETATM    4  C6  UNL     1     -34.642  17.008  -0.539  1.00 20.00     0.034 C 
HETATM    5  O8  UNL     1     -35.346  19.121   0.302  1.00 20.00    -0.390 OA
ENDROOT
BRANCH   4   6
HETATM    6  C1  UNL     1     -34.647  16.159  -1.763  1.00 20.00    -0.023 C 
HETATM    7  C2  UNL     1     -33.674  16.172  -2.685  1.00 20.00    -0.015 C 
BRANCH   7   8
HETATM    8  C7  UNL     1     -33.679  15.311  -3.906  1.00 20.00     0.141 C 
HETATM    9 CL9  UNL     1     -34.338  13.709  -3.513  1.00 20.00    -0.126 Cl
ENDBRANCH   7   8
ENDBRANCH   4   6
TORSDOF 2
ENDMDL
MODEL 8
REMARK VINA RESULT:      -3.7     10.195     11.222
REMARK  2 active torsions:
REMARK  status: ('A' for Active; 'I' for Inactive)
REMARK    1  A    between atoms: C1_1  and  C6_6 
REMARK    2  A    between atoms: C2_2  and  C7_7 
ROOT
HETATM    1  C3  UNL     1     -40.830   4.541  -1.040  1.00 20.00     0.037 C 
HETATM    2  C4  UNL     1     -40.667   5.945  -0.501  1.00 20.00     0.168 C 
HETATM    3  C5  UNL     1     -42.046   6.048  -2.376  1.00 20.00     0.176 C 
HETATM    4  C6  UNL     1     -42.141   4.646  -1.791  1.00 20.00     0.034 C 
HETATM    5  O8  UNL     1     -41.233   6.824  -1.482  1.00 20.00    -0.390 OA
ENDROOT
BRANCH   4   6
HETATM    6  C1  UNL     1     -42.337   3.577  -2.811  1.00 20.00    -0.023 C 
HETATM    7  C2  UNL     1     -41.417   2.649  -3.107  1.00 20.00    -0.015 C 
BRANCH   7   8
HETATM    8  C7  UNL     1     -41.622   1.574  -4.123  1.00 20.00     0.141 C 
HETATM    9 CL9  UNL     1     -43.014   1.973  -5.152  1.00 20.00    -0.126 Cl
ENDBRANCH   7   8
ENDBRANCH   4   6
TORSDOF 2
ENDMDL
MODEL 9
REMARK VINA RESULT:      -3.7     11.298     11.991
REMARK  2 active torsions:
REMARK  status: ('A' for Active; 'I' for Inactive)
REMARK    1  A    between atoms: C1_1  and  C6_6 
REMARK    2  A    between atoms: C2_2  and  C7_7 
ROOT
HETATM    1  C3  UNL     1     -34.780  17.036  -0.175  1.00 20.00     0.037 C 
HETATM    2  C4  UNL     1     -34.512  18.501   0.093  1.00 20.00     0.168 C 
HETATM    3  C5  UNL     1     -33.753  18.010  -2.054  1.00 20.00     0.176 C 
HETATM    4  C6  UNL     1     -34.833  17.001  -1.688  1.00 20.00     0.034 C 
HETATM    5  O8  UNL     1     -33.689  18.966  -0.983  1.00 20.00    -0.390 OA
ENDROOT
BRANCH   4   6
HETATM    6  C1  UNL     1     -34.614  15.645  -2.267  1.00 20.00    -0.023 C 
HETATM    7  C2  UNL     1     -33.778  15.393  -3.284  1.00 20.00    -0.015 C 
BRANCH   7   8
HETATM    8  C7  UNL     1     -33.554  14.031  -3.853  1.00 20.00     0.141 C 
HETATM    9 CL9  UNL     1     -35.115  13.263  -4.215  1.00 20.00    -0.126 Cl
ENDBRANCH   7   8
ENDBRANCH   4   6
TORSDOF 2
ENDMDL
