MODEL 1
REMARK VINA RESULT:      -4.4      0.000      0.000
REMARK  1 active torsions:
REMARK  status: ('A' for Active; 'I' for Inactive)
REMARK    1  A    between atoms: C3_3  and  C8_8 
ROOT
HETATM    1  C1  UNL     1     -35.807  15.011  -3.399  1.00 20.00     0.284 C 
HETATM    2  C2  UNL     1     -33.606  16.664  -3.696  1.00 20.00     0.110 C 
HETATM    3  C3  UNL     1     -34.594  16.956  -2.553  1.00 20.00     0.233 C 
HETATM    4  C4  UNL     1     -34.615  14.080  -3.665  1.00 20.00     0.071 C 
HETATM    5  C5  UNL     1     -34.799  13.327  -4.979  1.00 20.00     0.023 C 
HETATM    6  N9  UNL     1     -35.557  15.885  -2.261  1.00 20.00     0.090 N 
HETATM    7  S10 UNL     1     -33.002  14.952  -3.693  1.00 20.00    -0.161 SA
HETATM    8  H27 UNL     1     -36.443  16.305  -1.966  1.00 20.00     0.316 HD
ENDROOT
BRANCH   3   9
HETATM    9  C8  UNL     1     -33.864  17.293  -1.251  1.00 20.00     0.011 C 
HETATM   10  C6  UNL     1     -33.319  18.717  -1.299  1.00 20.00     0.012 C 
HETATM   11  C7  UNL     1     -34.795  17.112  -0.055  1.00 20.00     0.012 C 
ENDBRANCH   3   9
TORSDOF 1
ENDMDL
MODEL 2
REMARK VINA RESULT:      -4.0      1.907      2.475
REMARK  1 active torsions:
REMARK  status: ('A' for Active; 'I' for Inactive)
REMARK    1  A    between atoms: C3_3  and  C8_8 
ROOT
HETATM    1  C1  UNL     1     -33.640  16.406  -5.261  1.00 20.00     0.284 C 
HETATM    2  C2  UNL     1     -34.332  14.449  -3.429  1.00 20.00     0.110 C 
HETATM    3  C3  UNL     1     -34.021  15.863  -2.909  1.00 20.00     0.233 C 
HETATM    4  C4  UNL     1     -34.829  15.655  -5.878  1.00 20.00     0.071 C 
HETATM    5  C5  UNL     1     -34.414  14.948  -7.164  1.00 20.00     0.023 C 
HETATM    6  N9  UNL     1     -33.961  16.915  -3.934  1.00 20.00     0.090 N 
HETATM    7  S10 UNL     1     -35.589  14.434  -4.739  1.00 20.00    -0.161 SA
HETATM    8  H27 UNL     1     -33.253  17.603  -3.663  1.00 20.00     0.316 HD
ENDROOT
BRANCH   3   9
HETATM    9  C8  UNL     1     -35.029  16.307  -1.846  1.00 20.00     0.011 C 
HETATM   10  C6  UNL     1     -34.306  16.908  -0.645  1.00 20.00     0.012 C 
HETATM   11  C7  UNL     1     -36.020  17.306  -2.435  1.00 20.00     0.012 C 
ENDBRANCH   3   9
TORSDOF 1
ENDMDL
MODEL 3
REMARK VINA RESULT:      -4.0      2.135      4.530
REMARK  1 active torsions:
REMARK  status: ('A' for Active; 'I' for Inactive)
REMARK    1  A    between atoms: C3_3  and  C8_8 
ROOT
HETATM    1  C1  UNL     1     -33.331  15.917  -3.127  1.00 20.00     0.284 C 
HETATM    2  C2  UNL     1     -35.437  16.847  -4.665  1.00 20.00     0.110 C 
HETATM    3  C3  UNL     1     -34.419  15.894  -5.315  1.00 20.00     0.233 C 
HETATM    4  C4  UNL     1     -34.578  15.816  -2.237  1.00 20.00     0.071 C 
HETATM    5  C5  UNL     1     -34.455  16.738  -1.027  1.00 20.00     0.023 C 
HETATM    6  N9  UNL     1     -33.515  15.204  -4.385  1.00 20.00     0.090 N 
HETATM    7  S10 UNL     1     -36.138  16.193  -3.123  1.00 20.00    -0.161 SA
HETATM    8  H27 UNL     1     -32.603  15.084  -4.834  1.00 20.00     0.316 HD
ENDROOT
BRANCH   3   9
HETATM    9  C8  UNL     1     -35.111  14.828  -6.168  1.00 20.00     0.011 C 
HETATM   10  C6  UNL     1     -34.601  14.882  -7.605  1.00 20.00     0.012 C 
HETATM   11  C7  UNL     1     -34.893  13.442  -5.570  1.00 20.00     0.012 C 
ENDBRANCH   3   9
TORSDOF 1
ENDMDL
MODEL 4
REMARK VINA RESULT:      -3.8      1.781      2.359
REMARK  1 active torsions:
REMARK  status: ('A' for Active; 'I' for Inactive)
REMARK    1  A    between atoms: C3_3  and  C8_8 
ROOT
HETATM    1  C1  UNL     1     -33.452  15.153  -4.239  1.00 20.00     0.284 C 
HETATM    2  C2  UNL     1     -35.940  15.584  -3.101  1.00 20.00     0.110 C 
HETATM    3  C3  UNL     1     -34.686  15.920  -2.274  1.00 20.00     0.233 C 
HETATM    4  C4  UNL     1     -34.307  15.811  -5.333  1.00 20.00     0.071 C 
HETATM    5  C5  UNL     1     -34.504  14.862  -6.511  1.00 20.00     0.023 C 
HETATM    6  N9  UNL     1     -33.424  15.961  -3.027  1.00 20.00     0.090 N 
HETATM    7  S10 UNL     1     -35.947  16.375  -4.735  1.00 20.00    -0.161 SA
HETATM    8  H27 UNL     1     -32.667  15.627  -2.425  1.00 20.00     0.316 HD
ENDROOT
BRANCH   3   9
HETATM    9  C8  UNL     1     -34.835  17.258  -1.545  1.00 20.00     0.011 C 
HETATM   10  C6  UNL     1     -34.809  17.046  -0.035  1.00 20.00     0.012 C 
HETATM   11  C7  UNL     1     -33.736  18.225  -1.974  1.00 20.00     0.012 C 
ENDBRANCH   3   9
TORSDOF 1
ENDMDL
MODEL 5
REMARK VINA RESULT:      -3.8      1.262      4.137
REMARK  1 active torsions:
REMARK  status: ('A' for Active; 'I' for Inactive)
REMARK    1  A    between atoms: C3_3  and  C8_8 
ROOT
HETATM    1  C1  UNL     1     -34.404  16.891  -1.230  1.00 20.00     0.284 C 
HETATM    2  C2  UNL     1     -33.308  16.072  -3.638  1.00 20.00     0.110 C 
HETATM    3  C3  UNL     1     -34.409  15.206  -2.999  1.00 20.00     0.233 C 
HETATM    4  C4  UNL     1     -34.307  18.154  -2.100  1.00 20.00     0.071 C 
HETATM    5  C5  UNL     1     -33.346  19.164  -1.482  1.00 20.00     0.023 C 
HETATM    6  N9  UNL     1     -35.154  15.838  -1.902  1.00 20.00     0.090 N 
HETATM    7  S10 UNL     1     -33.793  17.812  -3.826  1.00 20.00    -0.161 SA
HETATM    8  H27 UNL     1     -35.405  15.122  -1.215  1.00 20.00     0.316 HD
ENDROOT
BRANCH   3   9
HETATM    9  C8  UNL     1     -35.427  14.733  -4.041  1.00 20.00     0.011 C 
HETATM   10  C6  UNL     1     -35.199  13.263  -4.377  1.00 20.00     0.012 C 
HETATM   11  C7  UNL     1     -36.849  14.958  -3.536  1.00 20.00     0.012 C 
ENDBRANCH   3   9
TORSDOF 1
ENDMDL
MODEL 6
REMARK VINA RESULT:      -3.7      2.509      3.237
REMARK  1 active torsions:
REMARK  status: ('A' for Active; 'I' for Inactive)
REMARK    1  A    between atoms: C3_3  and  C8_8 
ROOT
HETATM    1  C1  UNL     1     -34.450  14.869  -6.634  1.00 20.00     0.284 C 
HETATM    2  C2  UNL     1     -35.591  14.490  -4.139  1.00 20.00     0.110 C 
HETATM    3  C3  UNL     1     -34.100  14.867  -4.215  1.00 20.00     0.233 C 
HETATM    4  C4  UNL     1     -35.810  15.581  -6.680  1.00 20.00     0.071 C 
HETATM    5  C5  UNL     1     -36.730  14.925  -7.706  1.00 20.00     0.023 C 
HETATM    6  N9  UNL     1     -33.636  15.347  -5.524  1.00 20.00     0.090 N 
HETATM    7  S10 UNL     1     -36.661  15.634  -5.057  1.00 20.00    -0.161 SA
HETATM    8  H27 UNL     1     -32.669  15.040  -5.667  1.00 20.00     0.316 HD
ENDROOT
BRANCH   3   9
HETATM    9  C8  UNL     1     -33.735  15.928  -3.174  1.00 20.00     0.011 C 
HETATM   10  C6  UNL     1     -33.658  17.306  -3.823  1.00 20.00     0.012 C 
HETATM   11  C7  UNL     1     -34.747  15.924  -2.032  1.00 20.00     0.012 C 
ENDBRANCH   3   9
TORSDOF 1
ENDMDL
MODEL 7
REMARK VINA RESULT:      -3.6      1.245      1.379
REMARK  1 active torsions:
REMARK  status: ('A' for Active; 'I' for Inactive)
REMARK    1  A    between atoms: C3_3  and  C8_8 
ROOT
HETATM    1  C1  UNL     1     -36.332  16.872  -3.566  1.00 20.00     0.284 C 
HETATM    2  C2  UNL     1     -33.601  16.440  -3.406  1.00 20.00     0.110 C 
HETATM    3  C3  UNL     1     -34.231  17.508  -2.494  1.00 20.00     0.233 C 
HETATM    4  C4  UNL     1     -36.146  15.348  -3.576  1.00 20.00     0.071 C 
HETATM    5  C5  UNL     1     -36.624  14.753  -4.897  1.00 20.00     0.023 C 
HETATM    6  N9  UNL     1     -35.697  17.479  -2.404  1.00 20.00     0.090 N 
HETATM    7  S10 UNL     1     -34.415  14.823  -3.272  1.00 20.00    -0.161 SA
HETATM    8  H27 UNL     1     -36.043  18.437  -2.300  1.00 20.00     0.316 HD
ENDROOT
BRANCH   3   9
HETATM    9  C8  UNL     1     -33.675  17.429  -1.069  1.00 20.00     0.011 C 
HETATM   10  C6  UNL     1     -32.988  18.737  -0.692  1.00 20.00     0.012 C 
HETATM   11  C7  UNL     1     -34.790  17.100  -0.080  1.00 20.00     0.012 C 
ENDBRANCH   3   9
TORSDOF 1
ENDMDL
MODEL 8
REMARK VINA RESULT:      -3.6      2.829      3.813
REMARK  1 active torsions:
REMARK  status: ('A' for Active; 'I' for Inactive)
REMARK    1  A    between atoms: C3_3  and  C8_8 
ROOT
HETATM    1  C1  UNL     1     -34.420  15.552  -6.994  1.00 20.00     0.284 C 
HETATM    2  C2  UNL     1     -35.831  16.193  -4.700  1.00 20.00     0.110 C 
HETATM    3  C3  UNL     1     -34.988  14.906  -4.708  1.00 20.00     0.233 C 
HETATM    4  C4  UNL     1     -34.202  17.056  -6.773  1.00 20.00     0.071 C 
HETATM    5  C5  UNL     1     -34.803  17.865  -7.918  1.00 20.00     0.023 C 
HETATM    6  N9  UNL     1     -34.037  14.780  -5.820  1.00 20.00     0.090 N 
HETATM    7  S10 UNL     1     -34.885  17.665  -5.183  1.00 20.00    -0.161 SA
HETATM    8  H27 UNL     1     -33.962  13.793  -6.084  1.00 20.00     0.316 HD
ENDROOT
BRANCH   3   9
HETATM    9  C8  UNL     1     -34.204  14.740  -3.403  1.00 20.00     0.011 C 
HETATM   10  C6  UNL     1     -32.727  15.047  -3.628  1.00 20.00     0.012 C 
HETATM   11  C7  UNL     1     -34.783  15.639  -2.315  1.00 20.00     0.012 C 
ENDBRANCH   3   9
TORSDOF 1
ENDMDL
MODEL 9
REMARK VINA RESULT:      -3.6      1.480      1.670
REMARK  1 active torsions:
REMARK  status: ('A' for Active; 'I' for Inactive)
REMARK    1  A    between atoms: C3_3  and  C8_8 
ROOT
HETATM    1  C1  UNL     1     -35.993  14.917  -3.874  1.00 20.00     0.284 C 
HETATM    2  C2  UNL     1     -35.353  17.602  -4.096  1.00 20.00     0.110 C 
HETATM    3  C3  UNL     1     -36.019  17.111  -2.798  1.00 20.00     0.233 C 
HETATM    4  C4  UNL     1     -34.585  14.965  -4.485  1.00 20.00     0.071 C 
HETATM    5  C5  UNL     1     -34.586  14.379  -5.893  1.00 20.00     0.023 C 
HETATM    6  N9  UNL     1     -36.055  15.653  -2.618  1.00 20.00     0.090 N 
HETATM    7  S10 UNL     1     -33.870  16.653  -4.536  1.00 20.00    -0.161 SA
HETATM    8  H27 UNL     1     -36.917  15.399  -2.128  1.00 20.00     0.316 HD
ENDROOT
BRANCH   3   9
HETATM    9  C8  UNL     1     -35.354  17.717  -1.560  1.00 20.00     0.011 C 
HETATM   10  C6  UNL     1     -36.392  18.407  -0.681  1.00 20.00     0.012 C 
HETATM   11  C7  UNL     1     -34.611  16.640  -0.774  1.00 20.00     0.012 C 
ENDBRANCH   3   9
TORSDOF 1
ENDMDL
