MODEL 1
REMARK VINA RESULT:      -4.8      0.000      0.000
REMARK  2 active torsions:
REMARK  status: ('A' for Active; 'I' for Inactive)
REMARK    1  A    between atoms: C4_4  and  C5_5 
REMARK    2  A    between atoms: C6_6  and  C7_7 
ROOT
HETATM    1  C1  UNL     1     -34.360   5.578   6.086  1.00 20.00     0.038 A 
HETATM    2  C2  UNL     1     -35.015   4.384   6.280  1.00 20.00     0.142 A 
HETATM    3  C3  UNL     1     -35.009   4.728   4.129  1.00 20.00     0.152 A 
HETATM    4  C4  UNL     1     -34.356   5.802   4.688  1.00 20.00    -0.011 A 
HETATM    5  O10 UNL     1     -35.414   3.859   5.092  1.00 20.00    -0.334 OA
ENDROOT
BRANCH   4   6
HETATM    6  C5  UNL     1     -33.784   6.933   3.950  1.00 20.00     0.023 C 
HETATM    7  C7  UNL     1     -32.659   6.891   3.215  1.00 20.00    -0.024 C 
HETATM    8  C8  UNL     1     -31.779   5.708   2.959  1.00 20.00     0.051 C 
BRANCH   7   9
HETATM    9  C6  UNL     1     -32.266   8.173   2.567  1.00 20.00     0.265 C 
HETATM   10  O9  UNL     1     -31.844   8.238   1.418  1.00 20.00    -0.302 OA
ENDBRANCH   7   9
ENDBRANCH   4   6
TORSDOF 2
ENDMDL
MODEL 2
REMARK VINA RESULT:      -4.7     11.386     12.378
REMARK  2 active torsions:
REMARK  status: ('A' for Active; 'I' for Inactive)
REMARK    1  A    between atoms: C4_4  and  C5_5 
REMARK    2  A    between atoms: C6_6  and  C7_7 
ROOT
HETATM    1  C1  UNL     1     -34.495  16.734  -0.689  1.00 20.00     0.038 A 
HETATM    2  C2  UNL     1     -33.816  17.911  -0.472  1.00 20.00     0.142 A 
HETATM    3  C3  UNL     1     -33.852  17.622  -2.632  1.00 20.00     0.152 A 
HETATM    4  C4  UNL     1     -34.519  16.547  -2.092  1.00 20.00    -0.011 A 
HETATM    5  O10 UNL     1     -33.420  18.458  -1.651  1.00 20.00    -0.334 OA
ENDROOT
BRANCH   4   6
HETATM    6  C5  UNL     1     -35.121  15.445  -2.853  1.00 20.00     0.023 C 
HETATM    7  C7  UNL     1     -34.438  14.489  -3.506  1.00 20.00    -0.024 C 
HETATM    8  C8  UNL     1     -32.953  14.312  -3.574  1.00 20.00     0.051 C 
BRANCH   7   9
HETATM    9  C6  UNL     1     -35.268  13.481  -4.222  1.00 20.00     0.265 C 
HETATM   10  O9  UNL     1     -34.788  12.545  -4.851  1.00 20.00    -0.302 OA
ENDBRANCH   7   9
ENDBRANCH   4   6
TORSDOF 2
ENDMDL
MODEL 3
REMARK VINA RESULT:      -4.5      0.685      1.206
REMARK  2 active torsions:
REMARK  status: ('A' for Active; 'I' for Inactive)
REMARK    1  A    between atoms: C4_4  and  C5_5 
REMARK    2  A    between atoms: C6_6  and  C7_7 
ROOT
HETATM    1  C1  UNL     1     -34.960   4.831   4.382  1.00 20.00     0.038 A 
HETATM    2  C2  UNL     1     -35.252   4.140   5.534  1.00 20.00     0.142 A 
HETATM    3  C3  UNL     1     -34.197   5.940   6.161  1.00 20.00     0.152 A 
HETATM    4  C4  UNL     1     -34.274   6.001   4.788  1.00 20.00    -0.011 A 
HETATM    5  O10 UNL     1     -34.790   4.809   6.623  1.00 20.00    -0.334 OA
ENDROOT
BRANCH   4   6
HETATM    6  C5  UNL     1     -33.740   7.081   3.950  1.00 20.00     0.023 C 
HETATM    7  C7  UNL     1     -32.651   6.989   3.167  1.00 20.00    -0.024 C 
HETATM    8  C8  UNL     1     -31.781   5.791   2.949  1.00 20.00     0.051 C 
BRANCH   7   9
HETATM    9  C6  UNL     1     -32.293   8.225   2.417  1.00 20.00     0.265 C 
HETATM   10  O9  UNL     1     -31.741   8.205   1.322  1.00 20.00    -0.302 OA
ENDBRANCH   7   9
ENDBRANCH   4   6
TORSDOF 2
ENDMDL
MODEL 4
REMARK VINA RESULT:      -4.4     11.465     12.555
REMARK  2 active torsions:
REMARK  status: ('A' for Active; 'I' for Inactive)
REMARK    1  A    between atoms: C4_4  and  C5_5 
REMARK    2  A    between atoms: C6_6  and  C7_7 
ROOT
HETATM    1  C1  UNL     1     -34.555  16.660  -0.829  1.00 20.00     0.038 A 
HETATM    2  C2  UNL     1     -34.701  17.991  -0.514  1.00 20.00     0.142 A 
HETATM    3  C3  UNL     1     -34.001  17.931  -2.576  1.00 20.00     0.152 A 
HETATM    4  C4  UNL     1     -34.100  16.621  -2.170  1.00 20.00    -0.011 A 
HETATM    5  O10 UNL     1     -34.364  18.772  -1.573  1.00 20.00    -0.334 OA
ENDROOT
BRANCH   4   6
HETATM    6  C5  UNL     1     -33.789  15.445  -2.991  1.00 20.00     0.023 C 
HETATM    7  C7  UNL     1     -34.697  14.646  -3.578  1.00 20.00    -0.024 C 
HETATM    8  C8  UNL     1     -36.187  14.789  -3.561  1.00 20.00     0.051 C 
BRANCH   7   9
HETATM    9  C6  UNL     1     -34.140  13.502  -4.352  1.00 20.00     0.265 C 
HETATM   10  O9  UNL     1     -34.837  12.598  -4.801  1.00 20.00    -0.302 OA
ENDBRANCH   7   9
ENDBRANCH   4   6
TORSDOF 2
ENDMDL
MODEL 5
REMARK VINA RESULT:      -4.3     11.261     12.442
REMARK  2 active torsions:
REMARK  status: ('A' for Active; 'I' for Inactive)
REMARK    1  A    between atoms: C4_4  and  C5_5 
REMARK    2  A    between atoms: C6_6  and  C7_7 
ROOT
HETATM    1  C1  UNL     1     -35.306  14.669  -4.057  1.00 20.00     0.038 A 
HETATM    2  C2  UNL     1     -35.105  13.327  -4.283  1.00 20.00     0.142 A 
HETATM    3  C3  UNL     1     -33.181  14.128  -3.648  1.00 20.00     0.152 A 
HETATM    4  C4  UNL     1     -34.056  15.189  -3.644  1.00 20.00    -0.011 A 
HETATM    5  O10 UNL     1     -33.813  12.989  -4.036  1.00 20.00    -0.334 OA
ENDROOT
BRANCH   4   6
HETATM    6  C5  UNL     1     -33.721  16.571  -3.279  1.00 20.00     0.023 C 
HETATM    7  C7  UNL     1     -33.960  17.137  -2.083  1.00 20.00    -0.024 C 
HETATM    8  C8  UNL     1     -34.568  16.496  -0.874  1.00 20.00     0.051 C 
BRANCH   7   9
HETATM    9  C6  UNL     1     -33.544  18.560  -1.951  1.00 20.00     0.265 C 
HETATM   10  O9  UNL     1     -33.252  19.262  -2.913  1.00 20.00    -0.302 OA
ENDBRANCH   7   9
ENDBRANCH   4   6
TORSDOF 2
ENDMDL
MODEL 6
REMARK VINA RESULT:      -4.2     11.305     12.345
REMARK  2 active torsions:
REMARK  status: ('A' for Active; 'I' for Inactive)
REMARK    1  A    between atoms: C4_4  and  C5_5 
REMARK    2  A    between atoms: C6_6  and  C7_7 
ROOT
HETATM    1  C1  UNL     1     -35.557  14.357  -3.827  1.00 20.00     0.038 A 
HETATM    2  C2  UNL     1     -35.240  13.255  -4.587  1.00 20.00     0.142 A 
HETATM    3  C3  UNL     1     -33.372  13.929  -3.689  1.00 20.00     0.152 A 
HETATM    4  C4  UNL     1     -34.344  14.796  -3.244  1.00 20.00    -0.011 A 
HETATM    5  O10 UNL     1     -33.910  12.988  -4.509  1.00 20.00    -0.334 OA
ENDROOT
BRANCH   4   6
HETATM    6  C5  UNL     1     -34.126  15.934  -2.344  1.00 20.00     0.023 C 
HETATM    7  C7  UNL     1     -33.855  17.192  -2.735  1.00 20.00    -0.024 C 
HETATM    8  C8  UNL     1     -33.754  17.711  -4.135  1.00 20.00     0.051 C 
BRANCH   7   9
HETATM    9  C6  UNL     1     -33.659  18.178  -1.636  1.00 20.00     0.265 C 
HETATM   10  O9  UNL     1     -33.517  17.851  -0.463  1.00 20.00    -0.302 OA
ENDBRANCH   7   9
ENDBRANCH   4   6
TORSDOF 2
ENDMDL
MODEL 7
REMARK VINA RESULT:      -4.2      1.046      4.753
REMARK  2 active torsions:
REMARK  status: ('A' for Active; 'I' for Inactive)
REMARK    1  A    between atoms: C4_4  and  C5_5 
REMARK    2  A    between atoms: C6_6  and  C7_7 
ROOT
HETATM    1  C1  UNL     1     -33.270   7.557   2.367  1.00 20.00     0.038 A 
HETATM    2  C2  UNL     1     -32.140   8.316   2.168  1.00 20.00     0.142 A 
HETATM    3  C3  UNL     1     -31.702   7.011   3.857  1.00 20.00     0.152 A 
HETATM    4  C4  UNL     1     -32.986   6.709   3.465  1.00 20.00    -0.011 A 
HETATM    5  O10 UNL     1     -31.180   7.989   3.072  1.00 20.00    -0.334 OA
ENDROOT
BRANCH   4   6
HETATM    6  C5  UNL     1     -33.854   5.702   4.085  1.00 20.00     0.023 C 
HETATM    7  C7  UNL     1     -34.242   5.697   5.373  1.00 20.00    -0.024 C 
HETATM    8  C8  UNL     1     -33.917   6.709   6.427  1.00 20.00     0.051 C 
BRANCH   7   9
HETATM    9  C6  UNL     1     -35.115   4.561   5.777  1.00 20.00     0.265 C 
HETATM   10  O9  UNL     1     -35.106   3.476   5.207  1.00 20.00    -0.302 OA
ENDBRANCH   7   9
ENDBRANCH   4   6
TORSDOF 2
ENDMDL
MODEL 8
REMARK VINA RESULT:      -4.1     11.490     12.555
REMARK  2 active torsions:
REMARK  status: ('A' for Active; 'I' for Inactive)
REMARK    1  A    between atoms: C4_4  and  C5_5 
REMARK    2  A    between atoms: C6_6  and  C7_7 
ROOT
HETATM    1  C1  UNL     1     -34.815  17.031  -0.154  1.00 20.00     0.038 A 
HETATM    2  C2  UNL     1     -35.307  18.265   0.202  1.00 20.00     0.142 A 
HETATM    3  C3  UNL     1     -34.627  18.457  -1.859  1.00 20.00     0.152 A 
HETATM    4  C4  UNL     1     -34.373  17.155  -1.493  1.00 20.00    -0.011 A 
HETATM    5  O10 UNL     1     -35.196  19.140  -0.832  1.00 20.00    -0.334 OA
ENDROOT
BRANCH   4   6
HETATM    6  C5  UNL     1     -33.764  16.130  -2.349  1.00 20.00     0.023 C 
HETATM    7  C7  UNL     1     -34.441  15.247  -3.103  1.00 20.00    -0.024 C 
HETATM    8  C8  UNL     1     -35.925  15.133  -3.267  1.00 20.00     0.051 C 
BRANCH   7   9
HETATM    9  C6  UNL     1     -33.605  14.290  -3.879  1.00 20.00     0.265 C 
HETATM   10  O9  UNL     1     -33.672  13.074  -3.734  1.00 20.00    -0.302 OA
ENDBRANCH   7   9
ENDBRANCH   4   6
TORSDOF 2
ENDMDL
MODEL 9
REMARK VINA RESULT:      -3.9     11.881     12.783
REMARK  2 active torsions:
REMARK  status: ('A' for Active; 'I' for Inactive)
REMARK    1  A    between atoms: C4_4  and  C5_5 
REMARK    2  A    between atoms: C6_6  and  C7_7 
ROOT
HETATM    1  C1  UNL     1     -33.339  17.696  -1.497  1.00 20.00     0.038 A 
HETATM    2  C2  UNL     1     -33.234  18.447  -0.349  1.00 20.00     0.142 A 
HETATM    3  C3  UNL     1     -34.865  17.043  -0.006  1.00 20.00     0.152 A 
HETATM    4  C4  UNL     1     -34.399  16.784  -1.274  1.00 20.00    -0.011 A 
HETATM    5  O10 UNL     1     -34.160  18.055   0.565  1.00 20.00    -0.334 OA
ENDROOT
BRANCH   4   6
HETATM    6  C5  UNL     1     -34.922  15.758  -2.184  1.00 20.00     0.023 C 
HETATM    7  C7  UNL     1     -35.967  15.918  -3.015  1.00 20.00    -0.024 C 
HETATM    8  C8  UNL     1     -36.787  17.153  -3.225  1.00 20.00     0.051 C 
BRANCH   7   9
HETATM    9  C6  UNL     1     -36.324  14.727  -3.834  1.00 20.00     0.265 C 
HETATM   10  O9  UNL     1     -37.404  14.153  -3.742  1.00 20.00    -0.302 OA
ENDBRANCH   7   9
ENDBRANCH   4   6
TORSDOF 2
ENDMDL
