MODEL 1
REMARK VINA RESULT:      -4.8      0.000      0.000
REMARK  2 active torsions:
REMARK  status: ('A' for Active; 'I' for Inactive)
REMARK    1  A    between atoms: C1_1  and  C7_7 
REMARK    2  A    between atoms: C2_2  and  C8_8 
ROOT
HETATM    1  C3  UNL     1     -33.689   6.705   5.394  1.00 20.00     0.035 C 
HETATM    2  C4  UNL     1     -34.721   5.123   3.744  1.00 20.00     0.035 C 
HETATM    3  C5  UNL     1     -34.192   5.778   6.494  1.00 20.00     0.168 C 
HETATM    4  C6  UNL     1     -35.165   4.281   4.934  1.00 20.00     0.168 C 
HETATM    5  C7  UNL     1     -33.478   5.929   4.100  1.00 20.00     0.012 C 
HETATM    6  O9  UNL     1     -35.381   5.102   6.083  1.00 20.00    -0.391 OA
ENDROOT
BRANCH   5   7
HETATM    7  C1  UNL     1     -33.221   6.924   2.985  1.00 20.00    -0.025 C 
HETATM    8  C2  UNL     1     -32.000   7.351   2.633  1.00 20.00    -0.020 C 
BRANCH   8   9
HETATM    9  C8  UNL     1     -31.756   8.339   1.544  1.00 20.00     0.112 C 
HETATM   10 BR10 UNL     1     -32.792   9.940   1.922  1.00 20.00    -0.092 Br
ENDBRANCH   8   9
ENDBRANCH   5   7
TORSDOF 2
ENDMDL
MODEL 2
REMARK VINA RESULT:      -4.6     11.204     11.705
REMARK  2 active torsions:
REMARK  status: ('A' for Active; 'I' for Inactive)
REMARK    1  A    between atoms: C1_1  and  C7_7 
REMARK    2  A    between atoms: C2_2  and  C8_8 
ROOT
HETATM    1  C3  UNL     1     -33.532  14.348  -3.506  1.00 20.00     0.035 C 
HETATM    2  C4  UNL     1     -35.895  15.141  -3.231  1.00 20.00     0.035 C 
HETATM    3  C5  UNL     1     -34.048  13.398  -4.580  1.00 20.00     0.168 C 
HETATM    4  C6  UNL     1     -36.282  14.149  -4.321  1.00 20.00     0.168 C 
HETATM    5  C7  UNL     1     -34.441  15.566  -3.393  1.00 20.00     0.012 C 
HETATM    6  O9  UNL     1     -35.402  13.025  -4.318  1.00 20.00    -0.391 OA
ENDROOT
BRANCH   5   7
HETATM    7  C1  UNL     1     -34.034  16.350  -2.161  1.00 20.00    -0.025 C 
HETATM    8  C2  UNL     1     -34.864  16.626  -1.144  1.00 20.00    -0.020 C 
BRANCH   8   9
HETATM    9  C8  UNL     1     -34.461  17.409   0.058  1.00 20.00     0.112 C 
HETATM   10 BR10 UNL     1     -32.973  18.562  -0.428  1.00 20.00    -0.092 Br
ENDBRANCH   8   9
ENDBRANCH   5   7
TORSDOF 2
ENDMDL
MODEL 3
REMARK VINA RESULT:      -4.6      0.671      1.673
REMARK  2 active torsions:
REMARK  status: ('A' for Active; 'I' for Inactive)
REMARK    1  A    between atoms: C1_1  and  C7_7 
REMARK    2  A    between atoms: C2_2  and  C8_8 
ROOT
HETATM    1  C3  UNL     1     -34.558   4.602   3.971  1.00 20.00     0.035 C 
HETATM    2  C4  UNL     1     -33.707   6.489   5.386  1.00 20.00     0.035 C 
HETATM    3  C5  UNL     1     -35.230   4.056   5.224  1.00 20.00     0.168 C 
HETATM    4  C6  UNL     1     -34.428   5.841   6.562  1.00 20.00     0.168 C 
HETATM    5  C7  UNL     1     -34.386   6.112   4.076  1.00 20.00     0.012 C 
HETATM    6  O9  UNL     1     -34.498   4.424   6.394  1.00 20.00    -0.391 OA
ENDROOT
BRANCH   5   7
HETATM    7  C1  UNL     1     -33.502   6.571   2.933  1.00 20.00    -0.025 C 
HETATM    8  C2  UNL     1     -32.533   7.489   3.061  1.00 20.00    -0.020 C 
BRANCH   8   9
HETATM    9  C8  UNL     1     -31.677   7.945   1.930  1.00 20.00     0.112 C 
HETATM   10 BR10 UNL     1     -32.388   9.624   1.257  1.00 20.00    -0.092 Br
ENDBRANCH   8   9
ENDBRANCH   5   7
TORSDOF 2
ENDMDL
MODEL 4
REMARK VINA RESULT:      -4.5     11.299     12.313
REMARK  2 active torsions:
REMARK  status: ('A' for Active; 'I' for Inactive)
REMARK    1  A    between atoms: C1_1  and  C7_7 
REMARK    2  A    between atoms: C2_2  and  C8_8 
ROOT
HETATM    1  C3  UNL     1     -34.356  14.046  -3.553  1.00 20.00     0.035 C 
HETATM    2  C4  UNL     1     -34.188  16.093  -4.992  1.00 20.00     0.035 C 
HETATM    3  C5  UNL     1     -34.507  13.239  -4.837  1.00 20.00     0.168 C 
HETATM    4  C6  UNL     1     -34.347  15.175  -6.197  1.00 20.00     0.168 C 
HETATM    5  C7  UNL     1     -33.582  15.330  -3.821  1.00 20.00     0.012 C 
HETATM    6  O9  UNL     1     -35.123  14.024  -5.859  1.00 20.00    -0.391 OA
ENDROOT
BRANCH   5   7
HETATM    7  C1  UNL     1     -33.670  16.205  -2.586  1.00 20.00    -0.025 C 
HETATM    8  C2  UNL     1     -34.660  16.127  -1.684  1.00 20.00    -0.020 C 
BRANCH   8   9
HETATM    9  C8  UNL     1     -34.747  17.000  -0.480  1.00 20.00     0.112 C 
HETATM   10 BR10 UNL     1     -33.284  18.279  -0.538  1.00 20.00    -0.092 Br
ENDBRANCH   8   9
ENDBRANCH   5   7
TORSDOF 2
ENDMDL
MODEL 5
REMARK VINA RESULT:      -4.3     11.320     12.077
REMARK  2 active torsions:
REMARK  status: ('A' for Active; 'I' for Inactive)
REMARK    1  A    between atoms: C1_1  and  C7_7 
REMARK    2  A    between atoms: C2_2  and  C8_8 
ROOT
HETATM    1  C3  UNL     1     -35.532  15.797  -4.380  1.00 20.00     0.035 C 
HETATM    2  C4  UNL     1     -33.871  14.045  -3.702  1.00 20.00     0.035 C 
HETATM    3  C5  UNL     1     -36.019  14.825  -5.447  1.00 20.00     0.168 C 
HETATM    4  C6  UNL     1     -34.449  13.168  -4.805  1.00 20.00     0.168 C 
HETATM    5  C7  UNL     1     -34.917  15.038  -3.211  1.00 20.00     0.012 C 
HETATM    6  O9  UNL     1     -34.958  13.968  -5.873  1.00 20.00    -0.391 OA
ENDROOT
BRANCH   5   7
HETATM    7  C1  UNL     1     -34.233  16.039  -2.301  1.00 20.00    -0.025 C 
HETATM    8  C2  UNL     1     -34.778  16.517  -1.173  1.00 20.00    -0.020 C 
BRANCH   8   9
HETATM    9  C8  UNL     1     -34.104  17.511  -0.290  1.00 20.00     0.112 C 
HETATM   10 BR10 UNL     1     -35.205  17.777   1.290  1.00 20.00    -0.092 Br
ENDBRANCH   8   9
ENDBRANCH   5   7
TORSDOF 2
ENDMDL
MODEL 6
REMARK VINA RESULT:      -4.1     10.263     11.380
REMARK  2 active torsions:
REMARK  status: ('A' for Active; 'I' for Inactive)
REMARK    1  A    between atoms: C1_1  and  C7_7 
REMARK    2  A    between atoms: C2_2  and  C8_8 
ROOT
HETATM    1  C3  UNL     1     -40.967   4.460  -1.256  1.00 20.00     0.035 C 
HETATM    2  C4  UNL     1     -42.471   5.751  -2.793  1.00 20.00     0.035 C 
HETATM    3  C5  UNL     1     -40.649   5.782  -0.568  1.00 20.00     0.168 C 
HETATM    4  C6  UNL     1     -42.072   7.003  -2.021  1.00 20.00     0.168 C 
HETATM    5  C7  UNL     1     -42.344   4.518  -1.907  1.00 20.00     0.012 C 
HETATM    6  O9  UNL     1     -40.753   6.870  -1.489  1.00 20.00    -0.391 OA
ENDROOT
BRANCH   5   7
HETATM    7  C1  UNL     1     -42.511   3.288  -2.777  1.00 20.00    -0.025 C 
HETATM    8  C2  UNL     1     -41.488   2.541  -3.218  1.00 20.00    -0.020 C 
BRANCH   8   9
HETATM    9  C8  UNL     1     -41.659   1.341  -4.085  1.00 20.00     0.112 C 
HETATM   10 BR10 UNL     1     -43.270   1.574  -5.149  1.00 20.00    -0.092 Br
ENDBRANCH   8   9
ENDBRANCH   5   7
TORSDOF 2
ENDMDL
MODEL 7
REMARK VINA RESULT:      -4.1     11.471     12.425
REMARK  2 active torsions:
REMARK  status: ('A' for Active; 'I' for Inactive)
REMARK    1  A    between atoms: C1_1  and  C7_7 
REMARK    2  A    between atoms: C2_2  and  C8_8 
ROOT
HETATM    1  C3  UNL     1     -33.865  17.856  -2.773  1.00 20.00     0.035 C 
HETATM    2  C4  UNL     1     -34.705  16.667  -0.731  1.00 20.00     0.035 C 
HETATM    3  C5  UNL     1     -33.352  18.948  -1.843  1.00 20.00     0.168 C 
HETATM    4  C6  UNL     1     -34.145  17.823   0.088  1.00 20.00     0.168 C 
HETATM    5  C7  UNL     1     -33.937  16.523  -2.039  1.00 20.00     0.012 C 
HETATM    6  O9  UNL     1     -34.161  19.035  -0.669  1.00 20.00    -0.391 OA
ENDROOT
BRANCH   5   7
HETATM    7  C1  UNL     1     -34.677  15.534  -2.918  1.00 20.00    -0.025 C 
HETATM    8  C2  UNL     1     -34.144  14.386  -3.362  1.00 20.00    -0.020 C 
BRANCH   8   9
HETATM    9  C8  UNL     1     -34.873  13.426  -4.237  1.00 20.00     0.112 C 
HETATM   10 BR10 UNL     1     -35.073  14.225  -5.998  1.00 20.00    -0.092 Br
ENDBRANCH   8   9
ENDBRANCH   5   7
TORSDOF 2
ENDMDL
MODEL 8
REMARK VINA RESULT:      -3.9     11.602     12.626
REMARK  2 active torsions:
REMARK  status: ('A' for Active; 'I' for Inactive)
REMARK    1  A    between atoms: C1_1  and  C7_7 
REMARK    2  A    between atoms: C2_2  and  C8_8 
ROOT
HETATM    1  C3  UNL     1     -34.717  15.114  -2.859  1.00 20.00     0.035 C 
HETATM    2  C4  UNL     1     -33.641  17.184  -3.781  1.00 20.00     0.035 C 
HETATM    3  C5  UNL     1     -34.364  14.429  -4.174  1.00 20.00     0.168 C 
HETATM    4  C6  UNL     1     -33.345  16.385  -5.044  1.00 20.00     0.168 C 
HETATM    5  C7  UNL     1     -33.746  16.254  -2.578  1.00 20.00     0.012 C 
HETATM    6  O9  UNL     1     -34.333  15.373  -5.245  1.00 20.00    -0.391 OA
ENDROOT
BRANCH   5   7
HETATM    7  C1  UNL     1     -34.277  17.053  -1.405  1.00 20.00    -0.025 C 
HETATM    8  C2  UNL     1     -33.540  17.922  -0.698  1.00 20.00    -0.020 C 
BRANCH   8   9
HETATM    9  C8  UNL     1     -34.066  18.694   0.463  1.00 20.00     0.112 C 
HETATM   10 BR10 UNL     1     -35.327  17.573   1.428  1.00 20.00    -0.092 Br
ENDBRANCH   8   9
ENDBRANCH   5   7
TORSDOF 2
ENDMDL
MODEL 9
REMARK VINA RESULT:      -3.9     10.084     10.885
REMARK  2 active torsions:
REMARK  status: ('A' for Active; 'I' for Inactive)
REMARK    1  A    between atoms: C1_1  and  C7_7 
REMARK    2  A    between atoms: C2_2  and  C8_8 
ROOT
HETATM    1  C3  UNL     1     -42.291   5.551  -2.625  1.00 20.00     0.035 C 
HETATM    2  C4  UNL     1     -41.195   7.080  -0.967  1.00 20.00     0.035 C 
HETATM    3  C5  UNL     1     -41.703   4.387  -1.837  1.00 20.00     0.168 C 
HETATM    4  C6  UNL     1     -40.669   5.833  -0.268  1.00 20.00     0.168 C 
HETATM    5  C7  UNL     1     -42.481   6.762  -1.721  1.00 20.00     0.012 C 
HETATM    6  O9  UNL     1     -40.482   4.770  -1.204  1.00 20.00    -0.391 OA
ENDROOT
BRANCH   5   7
HETATM    7  C1  UNL     1     -42.829   7.955  -2.590  1.00 20.00    -0.025 C 
HETATM    8  C2  UNL     1     -42.754   7.951  -3.929  1.00 20.00    -0.020 C 
BRANCH   8   9
HETATM    9  C8  UNL     1     -43.085   9.131  -4.775  1.00 20.00     0.112 C 
HETATM   10 BR10 UNL     1     -41.649   9.391  -6.060  1.00 20.00    -0.092 Br
ENDBRANCH   8   9
ENDBRANCH   5   7
TORSDOF 2
ENDMDL
