MODEL 1
REMARK VINA RESULT:      -4.3      0.000      0.000
REMARK  4 active torsions:
REMARK  status: ('A' for Active; 'I' for Inactive)
REMARK    1  A    between atoms: C1_1  and  C9_9 
REMARK    2  A    between atoms: C2_2  and  C7_7 
REMARK    3  A    between atoms: C2_2  and  C8_8 
REMARK    4  A    between atoms: C8_8  and  O10_10 
ROOT
HETATM    1  C1  UNL     1     -34.528  15.284  -2.944  1.00 20.00    -0.013 C 
HETATM    2  C2  UNL     1     -34.519  14.830  -4.216  1.00 20.00    -0.060 C 
ENDROOT
BRANCH   2   3
HETATM    3  C7  UNL     1     -34.766  15.662  -5.455  1.00 20.00     0.031 C 
HETATM    4  C3  UNL     1     -34.505  14.891  -6.743  1.00 20.00     0.010 C 
ENDBRANCH   2   3
BRANCH   2   5
HETATM    5  C8  UNL     1     -34.214  13.370  -4.473  1.00 20.00     0.198 C 
BRANCH   5   6
HETATM    6  O10 UNL     1     -35.341  12.577  -4.122  1.00 20.00    -0.397 OA
HETATM    7  H28 UNL     1     -35.517  12.743  -3.182  1.00 20.00     0.209 HD
ENDBRANCH   5   6
ENDBRANCH   2   5
BRANCH   1   8
HETATM    8  C9  UNL     1     -34.806  16.668  -2.364  1.00 20.00    -0.033 C 
HETATM    9  C4  UNL     1     -33.783  17.687  -2.895  1.00 20.00     0.018 C 
HETATM   10  C5  UNL     1     -36.240  17.158  -2.627  1.00 20.00     0.018 C 
HETATM   11  C6  UNL     1     -34.633  16.585  -0.829  1.00 20.00     0.018 C 
ENDBRANCH   1   8
TORSDOF 4
ENDMDL
MODEL 2
REMARK VINA RESULT:      -4.3      0.197      1.392
REMARK  4 active torsions:
REMARK  status: ('A' for Active; 'I' for Inactive)
REMARK    1  A    between atoms: C1_1  and  C9_9 
REMARK    2  A    between atoms: C2_2  and  C7_7 
REMARK    3  A    between atoms: C2_2  and  C8_8 
REMARK    4  A    between atoms: C8_8  and  O10_10 
ROOT
HETATM    1  C1  UNL     1     -34.525  15.189  -2.978  1.00 20.00    -0.013 C 
HETATM    2  C2  UNL     1     -34.337  14.768  -4.248  1.00 20.00    -0.060 C 
ENDROOT
BRANCH   2   3
HETATM    3  C7  UNL     1     -34.255  15.652  -5.472  1.00 20.00     0.031 C 
HETATM    4  C3  UNL     1     -34.516  14.891  -6.765  1.00 20.00     0.010 C 
ENDBRANCH   2   3
BRANCH   2   5
HETATM    5  C8  UNL     1     -34.162  13.287  -4.512  1.00 20.00     0.198 C 
BRANCH   5   6
HETATM    6  O10 UNL     1     -35.346  12.592  -4.146  1.00 20.00    -0.397 OA
HETATM    7  H28 UNL     1     -36.086  13.202  -4.299  1.00 20.00     0.209 HD
ENDBRANCH   5   6
ENDBRANCH   2   5
BRANCH   1   8
HETATM    8  C9  UNL     1     -34.742  16.582  -2.396  1.00 20.00    -0.033 C 
HETATM    9  C4  UNL     1     -34.662  16.541  -0.860  1.00 20.00     0.018 C 
HETATM   10  C5  UNL     1     -33.769  17.633  -2.957  1.00 20.00     0.018 C 
HETATM   11  C6  UNL     1     -36.170  17.041  -2.778  1.00 20.00     0.018 C 
ENDBRANCH   1   8
TORSDOF 4
ENDMDL
MODEL 3
REMARK VINA RESULT:      -4.0      1.313      3.506
REMARK  4 active torsions:
REMARK  status: ('A' for Active; 'I' for Inactive)
REMARK    1  A    between atoms: C1_1  and  C9_9 
REMARK    2  A    between atoms: C2_2  and  C7_7 
REMARK    3  A    between atoms: C2_2  and  C8_8 
REMARK    4  A    between atoms: C8_8  and  O10_10 
ROOT
HETATM    1  C1  UNL     1     -34.398  15.300  -5.312  1.00 20.00    -0.013 C 
HETATM    2  C2  UNL     1     -33.954  14.921  -4.094  1.00 20.00    -0.060 C 
ENDROOT
BRANCH   2   3
HETATM    3  C7  UNL     1     -33.634  15.846  -2.940  1.00 20.00     0.031 C 
HETATM    4  C3  UNL     1     -34.804  16.014  -1.979  1.00 20.00     0.010 C 
ENDBRANCH   2   3
BRANCH   2   5
HETATM    5  C8  UNL     1     -33.771  13.446  -3.805  1.00 20.00     0.198 C 
BRANCH   5   6
HETATM    6  O10 UNL     1     -34.989  12.755  -4.049  1.00 20.00    -0.397 OA
HETATM    7  H28 UNL     1     -35.584  13.384  -4.489  1.00 20.00     0.209 HD
ENDBRANCH   5   6
ENDBRANCH   2   5
BRANCH   1   8
HETATM    8  C9  UNL     1     -34.668  16.678  -5.907  1.00 20.00    -0.033 C 
HETATM    9  C4  UNL     1     -36.020  17.221  -5.412  1.00 20.00     0.018 C 
HETATM   10  C5  UNL     1     -33.546  17.692  -5.625  1.00 20.00     0.018 C 
HETATM   11  C6  UNL     1     -34.760  16.524  -7.444  1.00 20.00     0.018 C 
ENDBRANCH   1   8
TORSDOF 4
ENDMDL
MODEL 4
REMARK VINA RESULT:      -4.0      2.071      2.521
REMARK  4 active torsions:
REMARK  status: ('A' for Active; 'I' for Inactive)
REMARK    1  A    between atoms: C1_1  and  C9_9 
REMARK    2  A    between atoms: C2_2  and  C7_7 
REMARK    3  A    between atoms: C2_2  and  C8_8 
REMARK    4  A    between atoms: C8_8  and  O10_10 
ROOT
HETATM    1  C1  UNL     1     -33.572  16.644  -2.203  1.00 20.00    -0.013 C 
HETATM    2  C2  UNL     1     -34.151  15.671  -2.940  1.00 20.00    -0.060 C 
ENDROOT
BRANCH   2   3
HETATM    3  C7  UNL     1     -35.634  15.389  -3.027  1.00 20.00     0.031 C 
HETATM    4  C3  UNL     1     -36.194  15.611  -4.426  1.00 20.00     0.010 C 
ENDBRANCH   2   3
BRANCH   2   5
HETATM    5  C8  UNL     1     -33.275  14.774  -3.789  1.00 20.00     0.198 C 
BRANCH   5   6
HETATM    6  O10 UNL     1     -32.364  15.566  -4.539  1.00 20.00    -0.397 OA
HETATM    7  H28 UNL     1     -31.490  15.448  -4.131  1.00 20.00     0.209 HD
ENDBRANCH   5   6
ENDBRANCH   2   5
BRANCH   1   8
HETATM    8  C9  UNL     1     -34.164  17.682  -1.253  1.00 20.00    -0.033 C 
HETATM    9  C4  UNL     1     -35.103  18.632  -2.015  1.00 20.00     0.018 C 
HETATM   10  C5  UNL     1     -34.891  17.058  -0.050  1.00 20.00     0.018 C 
HETATM   11  C6  UNL     1     -32.999  18.528  -0.687  1.00 20.00     0.018 C 
ENDBRANCH   1   8
TORSDOF 4
ENDMDL
MODEL 5
REMARK VINA RESULT:      -3.9      2.266      4.483
REMARK  4 active torsions:
REMARK  status: ('A' for Active; 'I' for Inactive)
REMARK    1  A    between atoms: C1_1  and  C9_9 
REMARK    2  A    between atoms: C2_2  and  C7_7 
REMARK    3  A    between atoms: C2_2  and  C8_8 
REMARK    4  A    between atoms: C8_8  and  O10_10 
ROOT
HETATM    1  C1  UNL     1     -34.248  16.114  -4.116  1.00 20.00    -0.013 C 
HETATM    2  C2  UNL     1     -34.263  16.773  -2.936  1.00 20.00    -0.060 C 
ENDROOT
BRANCH   2   3
HETATM    3  C7  UNL     1     -34.638  16.181  -1.596  1.00 20.00     0.031 C 
HETATM    4  C3  UNL     1     -34.468  17.169  -0.449  1.00 20.00     0.010 C 
ENDBRANCH   2   3
BRANCH   2   5
HETATM    5  C8  UNL     1     -33.852  18.229  -2.904  1.00 20.00     0.198 C 
BRANCH   5   6
HETATM    6  O10 UNL     1     -33.456  18.645  -4.204  1.00 20.00    -0.397 OA
HETATM    7  H28 UNL     1     -33.506  17.861  -4.775  1.00 20.00     0.209 HD
ENDBRANCH   5   6
ENDBRANCH   2   5
BRANCH   1   8
HETATM    8  C9  UNL     1     -34.611  14.677  -4.477  1.00 20.00    -0.033 C 
HETATM    9  C4  UNL     1     -33.588  13.698  -3.875  1.00 20.00     0.018 C 
HETATM   10  C5  UNL     1     -36.039  14.288  -4.058  1.00 20.00     0.018 C 
HETATM   11  C6  UNL     1     -34.540  14.540  -6.017  1.00 20.00     0.018 C 
ENDBRANCH   1   8
TORSDOF 4
ENDMDL
MODEL 6
REMARK VINA RESULT:      -3.9      2.529      4.579
REMARK  4 active torsions:
REMARK  status: ('A' for Active; 'I' for Inactive)
REMARK    1  A    between atoms: C1_1  and  C9_9 
REMARK    2  A    between atoms: C2_2  and  C7_7 
REMARK    3  A    between atoms: C2_2  and  C8_8 
REMARK    4  A    between atoms: C8_8  and  O10_10 
ROOT
HETATM    1  C1  UNL     1     -34.662  15.871  -2.046  1.00 20.00    -0.013 C 
HETATM    2  C2  UNL     1     -34.364  16.986  -1.343  1.00 20.00    -0.060 C 
ENDROOT
BRANCH   2   3
HETATM    3  C7  UNL     1     -33.561  18.164  -1.848  1.00 20.00     0.031 C 
HETATM    4  C3  UNL     1     -32.853  18.916  -0.729  1.00 20.00     0.010 C 
ENDBRANCH   2   3
BRANCH   2   5
HETATM    5  C8  UNL     1     -34.880  17.120   0.074  1.00 20.00     0.198 C 
BRANCH   5   6
HETATM    6  O10 UNL     1     -36.161  17.738   0.060  1.00 20.00    -0.397 OA
HETATM    7  H28 UNL     1     -36.199  18.282  -0.743  1.00 20.00     0.209 HD
ENDBRANCH   5   6
ENDBRANCH   2   5
BRANCH   1   8
HETATM    8  C9  UNL     1     -34.289  15.437  -3.460  1.00 20.00    -0.033 C 
HETATM    9  C4  UNL     1     -34.844  16.434  -4.492  1.00 20.00     0.018 C 
HETATM   10  C5  UNL     1     -32.775  15.246  -3.657  1.00 20.00     0.018 C 
HETATM   11  C6  UNL     1     -34.955  14.066  -3.728  1.00 20.00     0.018 C 
ENDBRANCH   1   8
TORSDOF 4
ENDMDL
MODEL 7
REMARK VINA RESULT:      -3.8      2.369      3.806
REMARK  4 active torsions:
REMARK  status: ('A' for Active; 'I' for Inactive)
REMARK    1  A    between atoms: C1_1  and  C9_9 
REMARK    2  A    between atoms: C2_2  and  C7_7 
REMARK    3  A    between atoms: C2_2  and  C8_8 
REMARK    4  A    between atoms: C8_8  and  O10_10 
ROOT
HETATM    1  C1  UNL     1     -35.751  16.095  -5.242  1.00 20.00    -0.013 C 
HETATM    2  C2  UNL     1     -36.141  15.053  -4.475  1.00 20.00    -0.060 C 
ENDROOT
BRANCH   2   3
HETATM    3  C7  UNL     1     -35.449  13.711  -4.385  1.00 20.00     0.031 C 
HETATM    4  C3  UNL     1     -34.214  13.745  -3.494  1.00 20.00     0.010 C 
ENDBRANCH   2   3
BRANCH   2   5
HETATM    5  C8  UNL     1     -37.360  15.208  -3.591  1.00 20.00     0.198 C 
BRANCH   5   6
HETATM    6  O10 UNL     1     -38.248  14.118  -3.804  1.00 20.00    -0.397 OA
HETATM    7  H28 UNL     1     -38.419  13.723  -2.934  1.00 20.00     0.209 HD
ENDBRANCH   5   6
ENDBRANCH   2   5
BRANCH   1   8
HETATM    8  C9  UNL     1     -34.598  16.250  -6.229  1.00 20.00    -0.033 C 
HETATM    9  C4  UNL     1     -33.289  16.553  -5.481  1.00 20.00     0.018 C 
HETATM   10  C5  UNL     1     -34.421  15.031  -7.151  1.00 20.00     0.018 C 
HETATM   11  C6  UNL     1     -34.910  17.462  -7.139  1.00 20.00     0.018 C 
ENDBRANCH   1   8
TORSDOF 4
ENDMDL
MODEL 8
REMARK VINA RESULT:      -3.8      1.942      2.221
REMARK  4 active torsions:
REMARK  status: ('A' for Active; 'I' for Inactive)
REMARK    1  A    between atoms: C1_1  and  C9_9 
REMARK    2  A    between atoms: C2_2  and  C7_7 
REMARK    3  A    between atoms: C2_2  and  C8_8 
REMARK    4  A    between atoms: C8_8  and  O10_10 
ROOT
HETATM    1  C1  UNL     1     -35.872  15.695  -3.034  1.00 20.00    -0.013 C 
HETATM    2  C2  UNL     1     -36.446  15.345  -4.207  1.00 20.00    -0.060 C 
ENDROOT
BRANCH   2   3
HETATM    3  C7  UNL     1     -35.829  15.509  -5.578  1.00 20.00     0.031 C 
HETATM    4  C3  UNL     1     -35.192  14.226  -6.094  1.00 20.00     0.010 C 
ENDBRANCH   2   3
BRANCH   2   5
HETATM    5  C8  UNL     1     -37.818  14.706  -4.191  1.00 20.00     0.198 C 
BRANCH   5   6
HETATM    6  O10 UNL     1     -38.394  14.839  -2.899  1.00 20.00    -0.397 OA
HETATM    7  H28 UNL     1     -37.725  15.264  -2.338  1.00 20.00     0.209 HD
ENDBRANCH   5   6
ENDBRANCH   2   5
BRANCH   1   8
HETATM    8  C9  UNL     1     -34.534  16.357  -2.720  1.00 20.00    -0.033 C 
HETATM    9  C4  UNL     1     -33.371  15.439  -3.135  1.00 20.00     0.018 C 
HETATM   10  C5  UNL     1     -34.378  17.746  -3.361  1.00 20.00     0.018 C 
HETATM   11  C6  UNL     1     -34.450  16.556  -1.188  1.00 20.00     0.018 C 
ENDBRANCH   1   8
TORSDOF 4
ENDMDL
MODEL 9
REMARK VINA RESULT:      -3.7      2.172      3.785
REMARK  4 active torsions:
REMARK  status: ('A' for Active; 'I' for Inactive)
REMARK    1  A    between atoms: C1_1  and  C9_9 
REMARK    2  A    between atoms: C2_2  and  C7_7 
REMARK    3  A    between atoms: C2_2  and  C8_8 
REMARK    4  A    between atoms: C8_8  and  O10_10 
ROOT
HETATM    1  C1  UNL     1     -35.209  15.541  -4.487  1.00 20.00    -0.013 C 
HETATM    2  C2  UNL     1     -34.364  15.558  -3.432  1.00 20.00    -0.060 C 
ENDROOT
BRANCH   2   3
HETATM    3  C7  UNL     1     -34.729  15.920  -2.010  1.00 20.00     0.031 C 
HETATM    4  C3  UNL     1     -33.894  17.070  -1.463  1.00 20.00     0.010 C 
ENDBRANCH   2   3
BRANCH   2   5
HETATM    5  C8  UNL     1     -32.919  15.160  -3.644  1.00 20.00     0.198 C 
BRANCH   5   6
HETATM    6  O10 UNL     1     -32.414  15.795  -4.811  1.00 20.00    -0.397 OA
HETATM    7  H28 UNL     1     -32.343  15.108  -5.494  1.00 20.00     0.209 HD
ENDBRANCH   5   6
ENDBRANCH   2   5
BRANCH   1   8
HETATM    8  C9  UNL     1     -36.690  15.892  -4.603  1.00 20.00    -0.033 C 
HETATM    9  C4  UNL     1     -37.541  14.900  -3.793  1.00 20.00     0.018 C 
HETATM   10  C5  UNL     1     -37.005  17.338  -4.184  1.00 20.00     0.018 C 
HETATM   11  C6  UNL     1     -37.097  15.755  -6.089  1.00 20.00     0.018 C 
ENDBRANCH   1   8
TORSDOF 4
ENDMDL
