MODEL 1
REMARK VINA RESULT:      -4.9      0.000      0.000
REMARK  2 active torsions:
REMARK  status: ('A' for Active; 'I' for Inactive)
REMARK    1  A    between atoms: C5_5  and  C7_7 
REMARK    2  A    between atoms: C7_7  and  C8_8 
ROOT
HETATM    1  C1  UNL     1     -33.494   6.809   6.419  1.00 20.00     0.066 C 
HETATM    2  C2  UNL     1     -35.108   5.063   5.720  1.00 20.00     0.048 C 
HETATM    3  C3  UNL     1     -35.353   4.380   4.393  1.00 20.00     0.169 C 
HETATM    4  C4  UNL     1     -33.750   5.695   5.503  1.00 20.00     0.123 C 
HETATM    5  C5  UNL     1     -33.853   6.133   4.045  1.00 20.00     0.139 C 
HETATM    6  N9  UNL     1     -33.292   7.692   7.144  1.00 20.00    -0.197 NA
HETATM    7  O10 UNL     1     -34.716   5.184   3.392  1.00 20.00    -0.384 OA
ENDROOT
BRANCH   5   8
HETATM    8  C7  UNL     1     -32.515   6.169   3.325  1.00 20.00     0.033 C 
BRANCH   8   9
HETATM    9  C8  UNL     1     -31.926   7.577   3.317  1.00 20.00    -0.002 C 
HETATM   10  C6  UNL     1     -32.078   8.232   1.953  1.00 20.00     0.005 C 
ENDBRANCH   8   9
ENDBRANCH   5   8
TORSDOF 2
ENDMDL
MODEL 2
REMARK VINA RESULT:      -4.5     12.088     13.089
REMARK  2 active torsions:
REMARK  status: ('A' for Active; 'I' for Inactive)
REMARK    1  A    between atoms: C5_5  and  C7_7 
REMARK    2  A    between atoms: C7_7  and  C8_8 
ROOT
HETATM    1  C1  UNL     1     -34.355  13.823  -4.446  1.00 20.00     0.066 C 
HETATM    2  C2  UNL     1     -33.546  15.963  -5.398  1.00 20.00     0.048 C 
HETATM    3  C3  UNL     1     -33.538  17.376  -4.858  1.00 20.00     0.169 C 
HETATM    4  C4  UNL     1     -33.810  15.151  -4.149  1.00 20.00     0.123 C 
HETATM    5  C5  UNL     1     -34.798  16.049  -3.411  1.00 20.00     0.139 C 
HETATM    6  N9  UNL     1     -34.786  12.772  -4.681  1.00 20.00    -0.197 NA
HETATM    7  O10 UNL     1     -34.463  17.404  -3.763  1.00 20.00    -0.384 OA
ENDROOT
BRANCH   5   8
HETATM    8  C7  UNL     1     -34.745  15.898  -1.899  1.00 20.00     0.033 C 
BRANCH   8   9
HETATM    9  C8  UNL     1     -34.030  17.078  -1.248  1.00 20.00    -0.002 C 
HETATM   10  C6  UNL     1     -34.641  17.418   0.102  1.00 20.00     0.005 C 
ENDBRANCH   8   9
ENDBRANCH   5   8
TORSDOF 2
ENDMDL
MODEL 3
REMARK VINA RESULT:      -4.4     11.624     12.783
REMARK  2 active torsions:
REMARK  status: ('A' for Active; 'I' for Inactive)
REMARK    1  A    between atoms: C5_5  and  C7_7 
REMARK    2  A    between atoms: C7_7  and  C8_8 
ROOT
HETATM    1  C1  UNL     1     -34.506  16.491  -1.665  1.00 20.00     0.066 C 
HETATM    2  C2  UNL     1     -34.151  17.688  -3.806  1.00 20.00     0.048 C 
HETATM    3  C3  UNL     1     -33.489  17.275  -5.102  1.00 20.00     0.169 C 
HETATM    4  C4  UNL     1     -34.349  16.356  -3.116  1.00 20.00     0.123 C 
HETATM    5  C5  UNL     1     -33.071  15.621  -3.511  1.00 20.00     0.139 C 
HETATM    6  N9  UNL     1     -34.631  16.599  -0.517  1.00 20.00    -0.197 NA
HETATM    7  O10 UNL     1     -32.699  16.115  -4.810  1.00 20.00    -0.384 OA
ENDROOT
BRANCH   5   8
HETATM    8  C7  UNL     1     -33.235  14.111  -3.579  1.00 20.00     0.033 C 
BRANCH   8   9
HETATM    9  C8  UNL     1     -34.681  13.722  -3.875  1.00 20.00    -0.002 C 
HETATM   10  C6  UNL     1     -34.878  13.411  -5.350  1.00 20.00     0.005 C 
ENDBRANCH   8   9
ENDBRANCH   5   8
TORSDOF 2
ENDMDL
MODEL 4
REMARK VINA RESULT:      -4.4     12.053     12.594
REMARK  2 active torsions:
REMARK  status: ('A' for Active; 'I' for Inactive)
REMARK    1  A    between atoms: C5_5  and  C7_7 
REMARK    2  A    between atoms: C7_7  and  C8_8 
ROOT
HETATM    1  C1  UNL     1     -36.524  14.610  -3.585  1.00 20.00     0.066 C 
HETATM    2  C2  UNL     1     -34.114  14.283  -4.056  1.00 20.00     0.048 C 
HETATM    3  C3  UNL     1     -32.901  15.149  -3.791  1.00 20.00     0.169 C 
HETATM    4  C4  UNL     1     -35.156  14.922  -3.164  1.00 20.00     0.123 C 
HETATM    5  C5  UNL     1     -34.810  16.401  -3.309  1.00 20.00     0.139 C 
HETATM    6  N9  UNL     1     -37.607  14.363  -3.919  1.00 20.00    -0.197 NA
HETATM    7  O10 UNL     1     -33.389  16.470  -3.523  1.00 20.00    -0.384 OA
ENDROOT
BRANCH   5   8
HETATM    8  C7  UNL     1     -35.172  17.232  -2.089  1.00 20.00     0.033 C 
BRANCH   8   9
HETATM    9  C8  UNL     1     -34.555  16.654  -0.819  1.00 20.00    -0.002 C 
HETATM   10  C6  UNL     1     -35.031  17.401   0.417  1.00 20.00     0.005 C 
ENDBRANCH   8   9
ENDBRANCH   5   8
TORSDOF 2
ENDMDL
MODEL 5
REMARK VINA RESULT:      -4.4     11.884     12.705
REMARK  2 active torsions:
REMARK  status: ('A' for Active; 'I' for Inactive)
REMARK    1  A    between atoms: C5_5  and  C7_7 
REMARK    2  A    between atoms: C7_7  and  C8_8 
ROOT
HETATM    1  C1  UNL     1     -37.298  14.754  -3.776  1.00 20.00     0.066 C 
HETATM    2  C2  UNL     1     -35.417  15.921  -2.662  1.00 20.00     0.048 C 
HETATM    3  C3  UNL     1     -33.916  15.775  -2.783  1.00 20.00     0.169 C 
HETATM    4  C4  UNL     1     -35.905  15.194  -3.896  1.00 20.00     0.123 C 
HETATM    5  C5  UNL     1     -34.918  14.033  -3.969  1.00 20.00     0.139 C 
HETATM    6  N9  UNL     1     -38.400  14.406  -3.681  1.00 20.00    -0.197 NA
HETATM    7  O10 UNL     1     -33.676  14.515  -3.424  1.00 20.00    -0.384 OA
ENDROOT
BRANCH   5   8
HETATM    8  C7  UNL     1     -34.680  13.525  -5.382  1.00 20.00     0.033 C 
BRANCH   8   9
HETATM    9  C8  UNL     1     -34.556  14.679  -6.373  1.00 20.00    -0.002 C 
HETATM   10  C6  UNL     1     -35.453  14.468  -7.582  1.00 20.00     0.005 C 
ENDBRANCH   8   9
ENDBRANCH   5   8
TORSDOF 2
ENDMDL
MODEL 6
REMARK VINA RESULT:      -4.3     12.259     13.174
REMARK  2 active torsions:
REMARK  status: ('A' for Active; 'I' for Inactive)
REMARK    1  A    between atoms: C5_5  and  C7_7 
REMARK    2  A    between atoms: C7_7  and  C8_8 
ROOT
HETATM    1  C1  UNL     1     -36.624  14.406  -4.196  1.00 20.00     0.066 C 
HETATM    2  C2  UNL     1     -35.608  14.644  -6.443  1.00 20.00     0.048 C 
HETATM    3  C3  UNL     1     -34.274  15.192  -6.901  1.00 20.00     0.169 C 
HETATM    4  C4  UNL     1     -35.375  14.450  -4.961  1.00 20.00     0.123 C 
HETATM    5  C5  UNL     1     -34.516  15.666  -4.630  1.00 20.00     0.139 C 
HETATM    6  N9  UNL     1     -37.614  14.371  -3.592  1.00 20.00    -0.197 NA
HETATM    7  O10 UNL     1     -33.747  15.959  -5.811  1.00 20.00    -0.384 OA
ENDROOT
BRANCH   5   8
HETATM    8  C7  UNL     1     -33.571  15.443  -3.460  1.00 20.00     0.033 C 
BRANCH   8   9
HETATM    9  C8  UNL     1     -33.671  16.574  -2.442  1.00 20.00    -0.002 C 
HETATM   10  C6  UNL     1     -34.764  16.303  -1.420  1.00 20.00     0.005 C 
ENDBRANCH   8   9
ENDBRANCH   5   8
TORSDOF 2
ENDMDL
MODEL 7
REMARK VINA RESULT:      -4.3     12.171     12.977
REMARK  2 active torsions:
REMARK  status: ('A' for Active; 'I' for Inactive)
REMARK    1  A    between atoms: C5_5  and  C7_7 
REMARK    2  A    between atoms: C7_7  and  C8_8 
ROOT
HETATM    1  C1  UNL     1     -34.089  16.831  -5.312  1.00 20.00     0.066 C 
HETATM    2  C2  UNL     1     -34.461  14.422  -5.754  1.00 20.00     0.048 C 
HETATM    3  C3  UNL     1     -34.769  13.257  -4.839  1.00 20.00     0.169 C 
HETATM    4  C4  UNL     1     -34.761  15.609  -4.865  1.00 20.00     0.123 C 
HETATM    5  C5  UNL     1     -34.253  15.108  -3.516  1.00 20.00     0.139 C 
HETATM    6  N9  UNL     1     -33.556  17.799  -5.666  1.00 20.00    -0.197 NA
HETATM    7  O10 UNL     1     -34.444  13.682  -3.509  1.00 20.00    -0.384 OA
ENDROOT
BRANCH   5   8
HETATM    8  C7  UNL     1     -34.981  15.716  -2.328  1.00 20.00     0.033 C 
BRANCH   8   9
HETATM    9  C8  UNL     1     -34.084  16.684  -1.563  1.00 20.00    -0.002 C 
HETATM   10  C6  UNL     1     -34.706  17.080  -0.233  1.00 20.00     0.005 C 
ENDBRANCH   8   9
ENDBRANCH   5   8
TORSDOF 2
ENDMDL
MODEL 8
REMARK VINA RESULT:      -4.2     12.019     13.448
REMARK  2 active torsions:
REMARK  status: ('A' for Active; 'I' for Inactive)
REMARK    1  A    between atoms: C5_5  and  C7_7 
REMARK    2  A    between atoms: C7_7  and  C8_8 
ROOT
HETATM    1  C1  UNL     1     -34.908  13.802  -4.139  1.00 20.00     0.066 C 
HETATM    2  C2  UNL     1     -34.283  15.690  -2.661  1.00 20.00     0.048 C 
HETATM    3  C3  UNL     1     -33.841  17.107  -2.956  1.00 20.00     0.169 C 
HETATM    4  C4  UNL     1     -34.862  15.259  -3.990  1.00 20.00     0.123 C 
HETATM    5  C5  UNL     1     -33.901  15.928  -4.968  1.00 20.00     0.139 C 
HETATM    6  N9  UNL     1     -34.943  12.648  -4.255  1.00 20.00    -0.197 NA
HETATM    7  O10 UNL     1     -33.446  17.137  -4.333  1.00 20.00    -0.384 OA
ENDROOT
BRANCH   5   8
HETATM    8  C7  UNL     1     -34.537  16.274  -6.305  1.00 20.00     0.033 C 
BRANCH   8   9
HETATM    9  C8  UNL     1     -34.298  15.173  -7.335  1.00 20.00    -0.002 C 
HETATM   10  C6  UNL     1     -35.607  14.535  -7.775  1.00 20.00     0.005 C 
ENDBRANCH   8   9
ENDBRANCH   5   8
TORSDOF 2
ENDMDL
MODEL 9
REMARK VINA RESULT:      -4.0     11.945     13.146
REMARK  2 active torsions:
REMARK  status: ('A' for Active; 'I' for Inactive)
REMARK    1  A    between atoms: C5_5  and  C7_7 
REMARK    2  A    between atoms: C7_7  and  C8_8 
ROOT
HETATM    1  C1  UNL     1     -35.022  15.022  -6.604  1.00 20.00     0.066 C 
HETATM    2  C2  UNL     1     -37.288  15.276  -5.633  1.00 20.00     0.048 C 
HETATM    3  C3  UNL     1     -37.857  14.920  -4.277  1.00 20.00     0.169 C 
HETATM    4  C4  UNL     1     -35.798  15.210  -5.376  1.00 20.00     0.123 C 
HETATM    5  C5  UNL     1     -35.710  14.019  -4.426  1.00 20.00     0.139 C 
HETATM    6  N9  UNL     1     -34.409  14.873  -7.578  1.00 20.00    -0.197 NA
HETATM    7  O10 UNL     1     -36.934  14.006  -3.670  1.00 20.00    -0.384 OA
ENDROOT
BRANCH   5   8
HETATM    8  C7  UNL     1     -34.532  14.091  -3.468  1.00 20.00     0.033 C 
BRANCH   8   9
HETATM    9  C8  UNL     1     -34.134  15.536  -3.185  1.00 20.00    -0.002 C 
HETATM   10  C6  UNL     1     -34.721  16.023  -1.869  1.00 20.00     0.005 C 
ENDBRANCH   8   9
ENDBRANCH   5   8
TORSDOF 2
ENDMDL
