MODEL 1
REMARK VINA RESULT:      -4.6      0.000      0.000
REMARK  3 active torsions:
REMARK  status: ('A' for Active; 'I' for Inactive)
REMARK    1  A    between atoms: C2_2  and  C6_6 
REMARK    2  A    between atoms: C3_3  and  O8_8 
REMARK    3  A    between atoms: C6_6  and  C7_7 
ROOT
HETATM    1  C1  UNL     1     -34.827   5.519   6.176  1.00 20.00     0.045 A 
HETATM    2  C2  UNL     1     -33.715   5.445   5.162  1.00 20.00     0.022 A 
HETATM    3  C3  UNL     1     -35.082   4.889   4.829  1.00 20.00     0.058 A 
HETATM    4  C4  UNL     1     -35.998   5.554   3.855  1.00 20.00     0.046 C 
ENDROOT
BRANCH   2   5
HETATM    5  C6  UNL     1     -33.185   6.688   4.536  1.00 20.00     0.007 C 
BRANCH   5   6
HETATM    6  C7  UNL     1     -32.323   6.402   3.293  1.00 20.00    -0.004 C 
HETATM    7  C5  UNL     1     -32.100   7.640   2.440  1.00 20.00     0.005 C 
ENDBRANCH   5   6
ENDBRANCH   2   5
BRANCH   3   8
HETATM    8  O8  UNL     1     -35.179   3.453   4.817  1.00 20.00    -0.390 OA
HETATM    9  H22 UNL     1     -36.118   3.255   4.709  1.00 20.00     0.210 HD
ENDBRANCH   3   8
TORSDOF 3
ENDMDL
MODEL 2
REMARK VINA RESULT:      -4.4      2.276      4.091
REMARK  3 active torsions:
REMARK  status: ('A' for Active; 'I' for Inactive)
REMARK    1  A    between atoms: C2_2  and  C6_6 
REMARK    2  A    between atoms: C3_3  and  O8_8 
REMARK    3  A    between atoms: C6_6  and  C7_7 
ROOT
HETATM    1  C1  UNL     1     -32.055   5.691   3.094  1.00 20.00     0.045 A 
HETATM    2  C2  UNL     1     -33.069   6.269   4.047  1.00 20.00     0.022 A 
HETATM    3  C3  UNL     1     -32.128   7.184   3.294  1.00 20.00     0.058 A 
HETATM    4  C4  UNL     1     -32.593   8.064   2.181  1.00 20.00     0.046 C 
ENDROOT
BRANCH   2   5
HETATM    5  C6  UNL     1     -34.523   6.188   3.735  1.00 20.00     0.007 C 
BRANCH   5   6
HETATM    6  C7  UNL     1     -35.219   5.025   4.464  1.00 20.00    -0.004 C 
HETATM    7  C5  UNL     1     -34.820   4.932   5.928  1.00 20.00     0.005 C 
ENDBRANCH   5   6
ENDBRANCH   2   5
BRANCH   3   8
HETATM    8  O8  UNL     1     -31.071   7.765   4.079  1.00 20.00    -0.390 OA
HETATM    9  H22 UNL     1     -31.432   7.868   4.968  1.00 20.00     0.210 HD
ENDBRANCH   3   8
TORSDOF 3
ENDMDL
MODEL 3
REMARK VINA RESULT:      -4.3      1.275      1.769
REMARK  3 active torsions:
REMARK  status: ('A' for Active; 'I' for Inactive)
REMARK    1  A    between atoms: C2_2  and  C6_6 
REMARK    2  A    between atoms: C3_3  and  O8_8 
REMARK    3  A    between atoms: C6_6  and  C7_7 
ROOT
HETATM    1  C1  UNL     1     -35.566   5.631   4.116  1.00 20.00     0.045 A 
HETATM    2  C2  UNL     1     -34.157   6.128   4.312  1.00 20.00     0.022 A 
HETATM    3  C3  UNL     1     -34.727   5.078   5.241  1.00 20.00     0.058 A 
HETATM    4  C4  UNL     1     -34.278   3.655   5.206  1.00 20.00     0.046 C 
ENDROOT
BRANCH   2   5
HETATM    5  C6  UNL     1     -33.104   5.816   3.305  1.00 20.00     0.007 C 
BRANCH   5   6
HETATM    6  C7  UNL     1     -31.956   6.841   3.316  1.00 20.00    -0.004 C 
HETATM    7  C5  UNL     1     -32.137   7.930   2.271  1.00 20.00     0.005 C 
ENDBRANCH   5   6
ENDBRANCH   2   5
BRANCH   3   8
HETATM    8  O8  UNL     1     -35.066   5.539   6.561  1.00 20.00    -0.390 OA
HETATM    9  H22 UNL     1     -34.398   5.164   7.149  1.00 20.00     0.210 HD
ENDBRANCH   3   8
TORSDOF 3
ENDMDL
MODEL 4
REMARK VINA RESULT:      -4.3      1.330      2.089
REMARK  3 active torsions:
REMARK  status: ('A' for Active; 'I' for Inactive)
REMARK    1  A    between atoms: C2_2  and  C6_6 
REMARK    2  A    between atoms: C3_3  and  O8_8 
REMARK    3  A    between atoms: C6_6  and  C7_7 
ROOT
HETATM    1  C1  UNL     1     -34.151   3.872   5.165  1.00 20.00     0.045 A 
HETATM    2  C2  UNL     1     -35.276   4.669   4.558  1.00 20.00     0.022 A 
HETATM    3  C3  UNL     1     -34.923   4.847   6.018  1.00 20.00     0.058 A 
HETATM    4  C4  UNL     1     -34.256   6.079   6.532  1.00 20.00     0.046 C 
ENDROOT
BRANCH   2   5
HETATM    5  C6  UNL     1     -34.990   5.713   3.535  1.00 20.00     0.007 C 
BRANCH   5   6
HETATM    6  C7  UNL     1     -33.618   5.520   2.864  1.00 20.00    -0.004 C 
HETATM    7  C5  UNL     1     -32.645   6.641   3.194  1.00 20.00     0.005 C 
ENDBRANCH   5   6
ENDBRANCH   2   5
BRANCH   3   8
HETATM    8  O8  UNL     1     -35.850   4.265   6.953  1.00 20.00    -0.390 OA
HETATM    9  H22 UNL     1     -36.699   4.691   6.780  1.00 20.00     0.210 HD
ENDBRANCH   3   8
TORSDOF 3
ENDMDL
MODEL 5
REMARK VINA RESULT:      -4.2     11.764     12.396
REMARK  3 active torsions:
REMARK  status: ('A' for Active; 'I' for Inactive)
REMARK    1  A    between atoms: C2_2  and  C6_6 
REMARK    2  A    between atoms: C3_3  and  O8_8 
REMARK    3  A    between atoms: C6_6  and  C7_7 
ROOT
HETATM    1  C1  UNL     1     -36.011  14.866  -3.609  1.00 20.00     0.045 A 
HETATM    2  C2  UNL     1     -34.617  14.721  -3.056  1.00 20.00     0.022 A 
HETATM    3  C3  UNL     1     -35.009  13.995  -4.324  1.00 20.00     0.058 A 
HETATM    4  C4  UNL     1     -34.492  14.398  -5.665  1.00 20.00     0.046 C 
ENDROOT
BRANCH   2   5
HETATM    5  C6  UNL     1     -33.685  15.883  -3.057  1.00 20.00     0.007 C 
BRANCH   5   6
HETATM    6  C7  UNL     1     -34.215  17.065  -2.226  1.00 20.00    -0.004 C 
HETATM    7  C5  UNL     1     -34.543  16.671  -0.794  1.00 20.00     0.005 C 
ENDBRANCH   5   6
ENDBRANCH   2   5
BRANCH   3   8
HETATM    8  O8  UNL     1     -35.201  12.575  -4.189  1.00 20.00    -0.390 OA
HETATM    9  H22 UNL     1     -35.147  12.393  -3.242  1.00 20.00     0.210 HD
ENDBRANCH   3   8
TORSDOF 3
ENDMDL
MODEL 6
REMARK VINA RESULT:      -4.2     12.199     12.956
REMARK  3 active torsions:
REMARK  status: ('A' for Active; 'I' for Inactive)
REMARK    1  A    between atoms: C2_2  and  C6_6 
REMARK    2  A    between atoms: C3_3  and  O8_8 
REMARK    3  A    between atoms: C6_6  and  C7_7 
ROOT
HETATM    1  C1  UNL     1     -34.237  14.401  -3.948  1.00 20.00     0.045 A 
HETATM    2  C2  UNL     1     -33.946  15.233  -2.726  1.00 20.00     0.022 A 
HETATM    3  C3  UNL     1     -33.179  15.475  -4.007  1.00 20.00     0.058 A 
HETATM    4  C4  UNL     1     -33.393  16.689  -4.848  1.00 20.00     0.046 C 
ENDROOT
BRANCH   2   5
HETATM    5  C6  UNL     1     -34.963  16.193  -2.212  1.00 20.00     0.007 C 
BRANCH   5   6
HETATM    6  C7  UNL     1     -34.669  16.649  -0.771  1.00 20.00    -0.004 C 
HETATM    7  C5  UNL     1     -33.599  17.726  -0.707  1.00 20.00     0.005 C 
ENDBRANCH   5   6
ENDBRANCH   2   5
BRANCH   3   8
HETATM    8  O8  UNL     1     -31.816  15.013  -4.007  1.00 20.00    -0.390 OA
HETATM    9  H22 UNL     1     -31.796  14.254  -4.603  1.00 20.00     0.210 HD
ENDBRANCH   3   8
TORSDOF 3
ENDMDL
MODEL 7
REMARK VINA RESULT:      -4.0      1.943      3.803
REMARK  3 active torsions:
REMARK  status: ('A' for Active; 'I' for Inactive)
REMARK    1  A    between atoms: C2_2  and  C6_6 
REMARK    2  A    between atoms: C3_3  and  O8_8 
REMARK    3  A    between atoms: C6_6  and  C7_7 
ROOT
HETATM    1  C1  UNL     1     -34.119   6.589   3.091  1.00 20.00     0.045 A 
HETATM    2  C2  UNL     1     -33.670   5.823   4.309  1.00 20.00     0.022 A 
HETATM    3  C3  UNL     1     -32.646   6.393   3.352  1.00 20.00     0.058 A 
HETATM    4  C4  UNL     1     -31.790   7.563   3.706  1.00 20.00     0.046 C 
ENDROOT
BRANCH   2   5
HETATM    5  C6  UNL     1     -33.889   6.384   5.671  1.00 20.00     0.007 C 
BRANCH   5   6
HETATM    6  C7  UNL     1     -34.648   5.414   6.594  1.00 20.00    -0.004 C 
HETATM    7  C5  UNL     1     -35.091   4.150   5.874  1.00 20.00     0.005 C 
ENDBRANCH   5   6
ENDBRANCH   2   5
BRANCH   3   8
HETATM    8  O8  UNL     1     -31.982   5.432   2.512  1.00 20.00    -0.390 OA
HETATM    9  H22 UNL     1     -31.454   5.948   1.890  1.00 20.00     0.210 HD
ENDBRANCH   3   8
TORSDOF 3
ENDMDL
MODEL 8
REMARK VINA RESULT:      -3.9     11.835     13.121
REMARK  3 active torsions:
REMARK  status: ('A' for Active; 'I' for Inactive)
REMARK    1  A    between atoms: C2_2  and  C6_6 
REMARK    2  A    between atoms: C3_3  and  O8_8 
REMARK    3  A    between atoms: C6_6  and  C7_7 
ROOT
HETATM    1  C1  UNL     1     -34.071  14.531  -3.555  1.00 20.00     0.045 A 
HETATM    2  C2  UNL     1     -34.218  14.390  -5.048  1.00 20.00     0.022 A 
HETATM    3  C3  UNL     1     -35.313  13.897  -4.128  1.00 20.00     0.058 A 
HETATM    4  C4  UNL     1     -36.628  14.593  -4.011  1.00 20.00     0.046 C 
ENDROOT
BRANCH   2   5
HETATM    5  C6  UNL     1     -34.378  15.598  -5.905  1.00 20.00     0.007 C 
BRANCH   5   6
HETATM    6  C7  UNL     1     -34.367  15.262  -7.407  1.00 20.00    -0.004 C 
HETATM    7  C5  UNL     1     -35.605  14.494  -7.841  1.00 20.00     0.005 C 
ENDBRANCH   5   6
ENDBRANCH   2   5
BRANCH   3   8
HETATM    8  O8  UNL     1     -35.409  12.468  -3.992  1.00 20.00    -0.390 OA
HETATM    9  H22 UNL     1     -35.961  12.171  -4.725  1.00 20.00     0.210 HD
ENDBRANCH   3   8
TORSDOF 3
ENDMDL
MODEL 9
REMARK VINA RESULT:      -3.9     11.842     12.799
REMARK  3 active torsions:
REMARK  status: ('A' for Active; 'I' for Inactive)
REMARK    1  A    between atoms: C2_2  and  C6_6 
REMARK    2  A    between atoms: C3_3  and  O8_8 
REMARK    3  A    between atoms: C6_6  and  C7_7 
ROOT
HETATM    1  C1  UNL     1     -35.694  14.934  -3.560  1.00 20.00     0.045 A 
HETATM    2  C2  UNL     1     -34.236  14.591  -3.398  1.00 20.00     0.022 A 
HETATM    3  C3  UNL     1     -35.077  13.864  -4.425  1.00 20.00     0.058 A 
HETATM    4  C4  UNL     1     -34.916  14.091  -5.891  1.00 20.00     0.046 C 
ENDROOT
BRANCH   2   5
HETATM    5  C6  UNL     1     -33.187  15.577  -3.780  1.00 20.00     0.007 C 
BRANCH   5   6
HETATM    6  C7  UNL     1     -33.689  17.031  -3.707  1.00 20.00    -0.004 C 
HETATM    7  C5  UNL     1     -33.553  17.762  -5.032  1.00 20.00     0.005 C 
ENDBRANCH   5   6
ENDBRANCH   2   5
BRANCH   3   8
HETATM    8  O8  UNL     1     -35.424  12.508  -4.091  1.00 20.00    -0.390 OA
HETATM    9  H22 UNL     1     -35.258  11.991  -4.889  1.00 20.00     0.210 HD
ENDBRANCH   3   8
TORSDOF 3
ENDMDL
