MODEL 1
REMARK VINA RESULT:      -4.4      0.000      0.000
REMARK  4 active torsions:
REMARK  status: ('A' for Active; 'I' for Inactive)
REMARK    1  A    between atoms: C2_2  and  C8_8 
REMARK    2  A    between atoms: C3_3  and  C9_9 
REMARK    3  A    between atoms: C3_3  and  O11_11 
REMARK    4  A    between atoms: C9_9  and  C10_10 
ROOT
HETATM    1  C1  UNL     1     -33.594  17.935  -4.398  1.00 20.00     0.045 A 
HETATM    2  C2  UNL     1     -34.309  16.835  -3.658  1.00 20.00     0.022 A 
HETATM    3  C3  UNL     1     -33.616  16.539  -4.966  1.00 20.00     0.063 A 
ENDROOT
BRANCH   3   4
HETATM    4  C9  UNL     1     -34.441  16.241  -6.213  1.00 20.00     0.046 C 
BRANCH   4   5
HETATM    5  C10 UNL     1     -35.283  14.939  -6.170  1.00 20.00    -0.049 C 
HETATM    6  C5  UNL     1     -35.432  14.416  -7.612  1.00 20.00     0.014 C 
HETATM    7  C6  UNL     1     -36.686  15.204  -5.600  1.00 20.00     0.014 C 
HETATM    8  C7  UNL     1     -34.589  13.857  -5.327  1.00 20.00     0.014 C 
ENDBRANCH   4   5
ENDBRANCH   3   4
BRANCH   3   9
HETATM    9  O11 UNL     1     -32.373  15.820  -4.909  1.00 20.00    -0.389 OA
HETATM   10  H31 UNL     1     -31.862  16.113  -5.674  1.00 20.00     0.210 HD
ENDBRANCH   3   9
BRANCH   2  11
HETATM   11  C8  UNL     1     -33.771  16.334  -2.361  1.00 20.00     0.003 C 
HETATM   12  C4  UNL     1     -34.741  16.498  -1.218  1.00 20.00     0.005 C 
ENDBRANCH   2  11
TORSDOF 4
ENDMDL
MODEL 2
REMARK VINA RESULT:      -4.4      0.046      1.301
REMARK  4 active torsions:
REMARK  status: ('A' for Active; 'I' for Inactive)
REMARK    1  A    between atoms: C2_2  and  C8_8 
REMARK    2  A    between atoms: C3_3  and  C9_9 
REMARK    3  A    between atoms: C3_3  and  O11_11 
REMARK    4  A    between atoms: C9_9  and  C10_10 
ROOT
HETATM    1  C1  UNL     1     -33.604  17.944  -4.375  1.00 20.00     0.045 A 
HETATM    2  C2  UNL     1     -34.318  16.832  -3.655  1.00 20.00     0.022 A 
HETATM    3  C3  UNL     1     -33.635  16.562  -4.973  1.00 20.00     0.063 A 
ENDROOT
BRANCH   3   4
HETATM    4  C9  UNL     1     -34.469  16.293  -6.221  1.00 20.00     0.046 C 
BRANCH   4   5
HETATM    5  C10 UNL     1     -35.264  14.961  -6.229  1.00 20.00    -0.049 C 
HETATM    6  C5  UNL     1     -36.670  15.237  -5.662  1.00 20.00     0.014 C 
HETATM    7  C6  UNL     1     -34.581  13.902  -5.347  1.00 20.00     0.014 C 
HETATM    8  C7  UNL     1     -35.413  14.412  -7.657  1.00 20.00     0.014 C 
ENDBRANCH   4   5
ENDBRANCH   3   4
BRANCH   3   9
HETATM    9  O11 UNL     1     -32.395  15.836  -4.940  1.00 20.00    -0.389 OA
HETATM   10  H31 UNL     1     -32.568  14.995  -5.382  1.00 20.00     0.210 HD
ENDBRANCH   3   9
BRANCH   2  11
HETATM   11  C8  UNL     1     -33.774  16.301  -2.372  1.00 20.00     0.003 C 
HETATM   12  C4  UNL     1     -34.716  16.487  -1.210  1.00 20.00     0.005 C 
ENDBRANCH   2  11
TORSDOF 4
ENDMDL
MODEL 3
REMARK VINA RESULT:      -4.4      1.267      4.213
REMARK  4 active torsions:
REMARK  status: ('A' for Active; 'I' for Inactive)
REMARK    1  A    between atoms: C2_2  and  C8_8 
REMARK    2  A    between atoms: C3_3  and  C9_9 
REMARK    3  A    between atoms: C3_3  and  O11_11 
REMARK    4  A    between atoms: C9_9  and  C10_10 
ROOT
HETATM    1  C1  UNL     1     -34.429  13.343  -4.843  1.00 20.00     0.045 A 
HETATM    2  C2  UNL     1     -34.816  14.704  -5.359  1.00 20.00     0.022 A 
HETATM    3  C3  UNL     1     -33.975  14.579  -4.111  1.00 20.00     0.063 A 
ENDROOT
BRANCH   3   4
HETATM    4  C9  UNL     1     -34.577  14.920  -2.752  1.00 20.00     0.046 C 
BRANCH   4   5
HETATM    5  C10 UNL     1     -34.804  16.428  -2.473  1.00 20.00    -0.049 C 
HETATM    6  C5  UNL     1     -34.632  16.668  -0.960  1.00 20.00     0.014 C 
HETATM    7  C6  UNL     1     -36.224  16.860  -2.877  1.00 20.00     0.014 C 
HETATM    8  C7  UNL     1     -33.778  17.293  -3.224  1.00 20.00     0.014 C 
ENDBRANCH   4   5
ENDBRANCH   3   4
BRANCH   3   9
HETATM    9  O11 UNL     1     -32.578  14.896  -4.220  1.00 20.00    -0.389 OA
HETATM   10  H31 UNL     1     -32.109  14.056  -4.133  1.00 20.00     0.210 HD
ENDBRANCH   3   9
BRANCH   2  11
HETATM   11  C8  UNL     1     -34.241  15.210  -6.638  1.00 20.00     0.003 C 
HETATM   12  C4  UNL     1     -34.619  16.641  -6.927  1.00 20.00     0.005 C 
ENDBRANCH   2  11
TORSDOF 4
ENDMDL
MODEL 4
REMARK VINA RESULT:      -4.3      1.333      2.547
REMARK  4 active torsions:
REMARK  status: ('A' for Active; 'I' for Inactive)
REMARK    1  A    between atoms: C2_2  and  C8_8 
REMARK    2  A    between atoms: C3_3  and  C9_9 
REMARK    3  A    between atoms: C3_3  and  O11_11 
REMARK    4  A    between atoms: C9_9  and  C10_10 
ROOT
HETATM    1  C1  UNL     1     -33.668  16.331  -2.687  1.00 20.00     0.045 A 
HETATM    2  C2  UNL     1     -34.502  15.413  -3.541  1.00 20.00     0.022 A 
HETATM    3  C3  UNL     1     -33.439  16.276  -4.175  1.00 20.00     0.063 A 
ENDROOT
BRANCH   3   4
HETATM    4  C9  UNL     1     -33.841  17.458  -5.050  1.00 20.00     0.046 C 
BRANCH   4   5
HETATM    5  C10 UNL     1     -34.627  17.108  -6.340  1.00 20.00    -0.049 C 
HETATM    6  C5  UNL     1     -34.336  18.198  -7.390  1.00 20.00     0.014 C 
HETATM    7  C6  UNL     1     -36.141  17.075  -6.077  1.00 20.00     0.014 C 
HETATM    8  C7  UNL     1     -34.182  15.751  -6.910  1.00 20.00     0.014 C 
ENDBRANCH   4   5
ENDBRANCH   3   4
BRANCH   3   9
HETATM    9  O11 UNL     1     -32.228  15.629  -4.599  1.00 20.00    -0.389 OA
HETATM   10  H31 UNL     1     -32.122  14.862  -4.023  1.00 20.00     0.210 HD
ENDBRANCH   3   9
BRANCH   2  11
HETATM   11  C8  UNL     1     -34.340  13.935  -3.428  1.00 20.00     0.003 C 
HETATM   12  C4  UNL     1     -35.189  13.173  -4.414  1.00 20.00     0.005 C 
ENDBRANCH   2  11
TORSDOF 4
ENDMDL
MODEL 5
REMARK VINA RESULT:      -4.2      1.462      1.854
REMARK  4 active torsions:
REMARK  status: ('A' for Active; 'I' for Inactive)
REMARK    1  A    between atoms: C2_2  and  C8_8 
REMARK    2  A    between atoms: C3_3  and  C9_9 
REMARK    3  A    between atoms: C3_3  and  O11_11 
REMARK    4  A    between atoms: C9_9  and  C10_10 
ROOT
HETATM    1  C1  UNL     1     -35.076  15.528  -2.564  1.00 20.00     0.045 A 
HETATM    2  C2  UNL     1     -33.810  16.302  -2.308  1.00 20.00     0.022 A 
HETATM    3  C3  UNL     1     -34.549  16.472  -3.614  1.00 20.00     0.063 A 
ENDROOT
BRANCH   3   4
HETATM    4  C9  UNL     1     -33.952  15.918  -4.903  1.00 20.00     0.046 C 
BRANCH   4   5
HETATM    5  C10 UNL     1     -34.846  14.922  -5.687  1.00 20.00    -0.049 C 
HETATM    6  C5  UNL     1     -34.413  14.951  -7.166  1.00 20.00     0.014 C 
HETATM    7  C6  UNL     1     -36.328  15.323  -5.604  1.00 20.00     0.014 C 
HETATM    8  C7  UNL     1     -34.678  13.489  -5.157  1.00 20.00     0.014 C 
ENDBRANCH   4   5
ENDBRANCH   3   4
BRANCH   3   9
HETATM    9  O11 UNL     1     -35.296  17.686  -3.797  1.00 20.00    -0.389 OA
HETATM   10  H31 UNL     1     -35.184  17.928  -4.725  1.00 20.00     0.210 HD
ENDBRANCH   3   9
BRANCH   2  11
HETATM   11  C8  UNL     1     -33.788  17.380  -1.279  1.00 20.00     0.003 C 
HETATM   12  C4  UNL     1     -34.736  17.122  -0.135  1.00 20.00     0.005 C 
ENDBRANCH   2  11
TORSDOF 4
ENDMDL
MODEL 6
REMARK VINA RESULT:      -4.2      2.221      3.238
REMARK  4 active torsions:
REMARK  status: ('A' for Active; 'I' for Inactive)
REMARK    1  A    between atoms: C2_2  and  C8_8 
REMARK    2  A    between atoms: C3_3  and  C9_9 
REMARK    3  A    between atoms: C3_3  and  O11_11 
REMARK    4  A    between atoms: C9_9  and  C10_10 
ROOT
HETATM    1  C1  UNL     1     -34.745  16.729  -0.882  1.00 20.00     0.045 A 
HETATM    2  C2  UNL     1     -33.425  17.445  -0.998  1.00 20.00     0.022 A 
HETATM    3  C3  UNL     1     -34.131  16.956  -2.239  1.00 20.00     0.063 A 
ENDROOT
BRANCH   3   4
HETATM    4  C9  UNL     1     -33.563  15.778  -3.022  1.00 20.00     0.046 C 
BRANCH   4   5
HETATM    5  C10 UNL     1     -34.569  15.020  -3.928  1.00 20.00    -0.049 C 
HETATM    6  C5  UNL     1     -34.154  13.537  -3.970  1.00 20.00     0.014 C 
HETATM    7  C6  UNL     1     -34.550  15.574  -5.362  1.00 20.00     0.014 C 
HETATM    8  C7  UNL     1     -35.998  15.111  -3.368  1.00 20.00     0.014 C 
ENDBRANCH   4   5
ENDBRANCH   3   4
BRANCH   3   9
HETATM    9  O11 UNL     1     -34.779  17.939  -3.063  1.00 20.00    -0.389 OA
HETATM   10  H31 UNL     1     -35.554  18.232  -2.566  1.00 20.00     0.210 HD
ENDBRANCH   3   9
BRANCH   2  11
HETATM   11  C8  UNL     1     -33.333  18.898  -0.676  1.00 20.00     0.003 C 
HETATM   12  C4  UNL     1     -32.114  19.244   0.141  1.00 20.00     0.005 C 
ENDBRANCH   2  11
TORSDOF 4
ENDMDL
MODEL 7
REMARK VINA RESULT:      -4.2      1.911      2.604
REMARK  4 active torsions:
REMARK  status: ('A' for Active; 'I' for Inactive)
REMARK    1  A    between atoms: C2_2  and  C8_8 
REMARK    2  A    between atoms: C3_3  and  C9_9 
REMARK    3  A    between atoms: C3_3  and  O11_11 
REMARK    4  A    between atoms: C9_9  and  C10_10 
ROOT
HETATM    1  C1  UNL     1     -33.527  13.649  -3.646  1.00 20.00     0.045 A 
HETATM    2  C2  UNL     1     -34.153  15.018  -3.594  1.00 20.00     0.022 A 
HETATM    3  C3  UNL     1     -34.800  13.922  -4.406  1.00 20.00     0.063 A 
ENDROOT
BRANCH   3   4
HETATM    4  C9  UNL     1     -34.775  13.989  -5.929  1.00 20.00     0.046 C 
BRANCH   4   5
HETATM    5  C10 UNL     1     -35.550  15.171  -6.566  1.00 20.00    -0.049 C 
HETATM    6  C5  UNL     1     -34.557  16.325  -6.804  1.00 20.00     0.014 C 
HETATM    7  C6  UNL     1     -36.666  15.670  -5.633  1.00 20.00     0.014 C 
HETATM    8  C7  UNL     1     -36.163  14.768  -7.918  1.00 20.00     0.014 C 
ENDBRANCH   4   5
ENDBRANCH   3   4
BRANCH   3   9
HETATM    9  O11 UNL     1     -35.990  13.318  -3.873  1.00 20.00    -0.389 OA
HETATM   10  H31 UNL     1     -36.639  13.337  -4.588  1.00 20.00     0.210 HD
ENDBRANCH   3   9
BRANCH   2  11
HETATM   11  C8  UNL     1     -34.765  15.512  -2.327  1.00 20.00     0.003 C 
HETATM   12  C4  UNL     1     -34.045  16.706  -1.753  1.00 20.00     0.005 C 
ENDBRANCH   2  11
TORSDOF 4
ENDMDL
MODEL 8
REMARK VINA RESULT:      -4.1     12.912     14.633
REMARK  4 active torsions:
REMARK  status: ('A' for Active; 'I' for Inactive)
REMARK    1  A    between atoms: C2_2  and  C8_8 
REMARK    2  A    between atoms: C3_3  and  C9_9 
REMARK    3  A    between atoms: C3_3  and  O11_11 
REMARK    4  A    between atoms: C9_9  and  C10_10 
ROOT
HETATM    1  C1  UNL     1     -42.974   3.160  -1.798  1.00 20.00     0.045 A 
HETATM    2  C2  UNL     1     -42.311   3.167  -3.150  1.00 20.00     0.022 A 
HETATM    3  C3  UNL     1     -41.867   4.141  -2.086  1.00 20.00     0.063 A 
ENDROOT
BRANCH   3   4
HETATM    4  C9  UNL     1     -42.186   5.625  -2.233  1.00 20.00     0.046 C 
BRANCH   4   5
HETATM    5  C10 UNL     1     -42.218   6.442  -0.916  1.00 20.00    -0.049 C 
HETATM    6  C5  UNL     1     -40.816   7.040  -0.687  1.00 20.00     0.014 C 
HETATM    7  C6  UNL     1     -42.569   5.548   0.285  1.00 20.00     0.014 C 
HETATM    8  C7  UNL     1     -43.232   7.595  -1.002  1.00 20.00     0.014 C 
ENDBRANCH   4   5
ENDBRANCH   3   4
BRANCH   3   9
HETATM    9  O11 UNL     1     -40.614   3.881  -1.433  1.00 20.00    -0.389 OA
HETATM   10  H31 UNL     1     -40.492   4.599  -0.798  1.00 20.00     0.210 HD
ENDBRANCH   3   9
BRANCH   2  11
HETATM   11  C8  UNL     1     -41.451   2.023  -3.567  1.00 20.00     0.003 C 
HETATM   12  C4  UNL     1     -42.188   0.708  -3.585  1.00 20.00     0.005 C 
ENDBRANCH   2  11
TORSDOF 4
ENDMDL
MODEL 9
REMARK VINA RESULT:      -4.1      1.764      4.425
REMARK  4 active torsions:
REMARK  status: ('A' for Active; 'I' for Inactive)
REMARK    1  A    between atoms: C2_2  and  C8_8 
REMARK    2  A    between atoms: C3_3  and  C9_9 
REMARK    3  A    between atoms: C3_3  and  O11_11 
REMARK    4  A    between atoms: C9_9  and  C10_10 
ROOT
HETATM    1  C1  UNL     1     -37.246  14.699  -4.795  1.00 20.00     0.045 A 
HETATM    2  C2  UNL     1     -35.982  15.101  -5.508  1.00 20.00     0.022 A 
HETATM    3  C3  UNL     1     -35.908  14.461  -4.143  1.00 20.00     0.063 A 
ENDROOT
BRANCH   3   4
HETATM    4  C9  UNL     1     -35.495  15.294  -2.934  1.00 20.00     0.046 C 
BRANCH   4   5
HETATM    5  C10 UNL     1     -34.152  16.058  -3.068  1.00 20.00    -0.049 C 
HETATM    6  C5  UNL     1     -33.803  16.660  -1.693  1.00 20.00     0.014 C 
HETATM    7  C6  UNL     1     -34.264  17.203  -4.088  1.00 20.00     0.014 C 
HETATM    8  C7  UNL     1     -33.015  15.113  -3.490  1.00 20.00     0.014 C 
ENDBRANCH   4   5
ENDBRANCH   3   4
BRANCH   3   9
HETATM    9  O11 UNL     1     -35.478  13.092  -4.076  1.00 20.00    -0.389 OA
HETATM   10  H31 UNL     1     -36.195  12.570  -4.459  1.00 20.00     0.210 HD
ENDBRANCH   3   9
BRANCH   2  11
HETATM   11  C8  UNL     1     -35.551  14.371  -6.734  1.00 20.00     0.003 C 
HETATM   12  C4  UNL     1     -34.375  15.019  -7.422  1.00 20.00     0.005 C 
ENDBRANCH   2  11
TORSDOF 4
ENDMDL
