MODEL 1
REMARK VINA RESULT:      -4.1      0.000      0.000
REMARK  4 active torsions:
REMARK  status: ('A' for Active; 'I' for Inactive)
REMARK    1  A    between atoms: C1_1  and  C9_9 
REMARK    2  A    between atoms: C2_2  and  C6_6 
REMARK    3  A    between atoms: C7_7  and  C9_9 
REMARK    4  A    between atoms: C8_8  and  C9_9 
ROOT
HETATM    1  C1  UNL     1     -35.477  15.705  -3.063  1.00 20.00    -0.019 C 
HETATM    2  C2  UNL     1     -36.109  14.704  -3.709  1.00 20.00    -0.073 C 
HETATM    3  C3  UNL     1     -37.605  14.739  -3.879  1.00 20.00     0.044 C 
ENDROOT
BRANCH   1   4
HETATM    4  C9  UNL     1     -33.995  15.834  -2.780  1.00 20.00     0.007 C 
BRANCH   4   5
HETATM    5  C7  UNL     1     -33.741  16.898  -1.690  1.00 20.00     0.004 C 
HETATM    6  C4  UNL     1     -34.717  16.811  -0.522  1.00 20.00     0.006 C 
ENDBRANCH   4   5
BRANCH   4   7
HETATM    7  C8  UNL     1     -33.225  16.218  -4.062  1.00 20.00     0.004 C 
HETATM    8  C5  UNL     1     -33.681  17.540  -4.668  1.00 20.00     0.006 C 
ENDBRANCH   4   7
ENDBRANCH   1   4
BRANCH   2   9
HETATM    9  C6  UNL     1     -35.421  13.522  -4.333  1.00 20.00     0.148 C 
HETATM   10 CL10 UNL     1     -35.026  13.859  -6.031  1.00 20.00    -0.126 Cl
ENDBRANCH   2   9
TORSDOF 4
ENDMDL
MODEL 2
REMARK VINA RESULT:      -4.0      1.781      2.468
REMARK  4 active torsions:
REMARK  status: ('A' for Active; 'I' for Inactive)
REMARK    1  A    between atoms: C1_1  and  C9_9 
REMARK    2  A    between atoms: C2_2  and  C6_6 
REMARK    3  A    between atoms: C7_7  and  C9_9 
REMARK    4  A    between atoms: C8_8  and  C9_9 
ROOT
HETATM    1  C1  UNL     1     -34.785  15.747  -2.243  1.00 20.00    -0.019 C 
HETATM    2  C2  UNL     1     -34.190  15.048  -3.230  1.00 20.00    -0.073 C 
HETATM    3  C3  UNL     1     -34.846  13.809  -3.781  1.00 20.00     0.044 C 
ENDROOT
BRANCH   1   4
HETATM    4  C9  UNL     1     -34.274  16.996  -1.555  1.00 20.00     0.007 C 
BRANCH   4   5
HETATM    5  C7  UNL     1     -34.788  17.064  -0.100  1.00 20.00     0.004 C 
HETATM    6  C4  UNL     1     -34.104  18.142   0.732  1.00 20.00     0.006 C 
ENDBRANCH   4   5
BRANCH   4   7
HETATM    7  C8  UNL     1     -34.720  18.262  -2.318  1.00 20.00     0.004 C 
HETATM    8  C5  UNL     1     -33.557  19.139  -2.766  1.00 20.00     0.006 C 
ENDBRANCH   4   7
ENDBRANCH   1   4
BRANCH   2   9
HETATM    9  C6  UNL     1     -32.891  15.429  -3.884  1.00 20.00     0.148 C 
HETATM   10 CL10 UNL     1     -33.183  16.519  -5.256  1.00 20.00    -0.126 Cl
ENDBRANCH   2   9
TORSDOF 4
ENDMDL
MODEL 3
REMARK VINA RESULT:      -4.0      2.929      4.563
REMARK  4 active torsions:
REMARK  status: ('A' for Active; 'I' for Inactive)
REMARK    1  A    between atoms: C1_1  and  C9_9 
REMARK    2  A    between atoms: C2_2  and  C6_6 
REMARK    3  A    between atoms: C7_7  and  C9_9 
REMARK    4  A    between atoms: C8_8  and  C9_9 
ROOT
HETATM    1  C1  UNL     1     -34.351  16.145  -1.826  1.00 20.00    -0.019 C 
HETATM    2  C2  UNL     1     -34.235  17.216  -1.014  1.00 20.00    -0.073 C 
HETATM    3  C3  UNL     1     -35.013  17.276   0.274  1.00 20.00     0.044 C 
ENDROOT
BRANCH   1   4
HETATM    4  C9  UNL     1     -33.670  15.916  -3.158  1.00 20.00     0.007 C 
BRANCH   4   5
HETATM    5  C7  UNL     1     -34.438  16.630  -4.292  1.00 20.00     0.004 C 
HETATM    6  C4  UNL     1     -33.526  17.342  -5.284  1.00 20.00     0.006 C 
ENDBRANCH   4   5
BRANCH   4   7
HETATM    7  C8  UNL     1     -33.577  14.406  -3.472  1.00 20.00     0.004 C 
HETATM    8  C5  UNL     1     -34.903  13.797  -3.909  1.00 20.00     0.006 C 
ENDBRANCH   4   7
ENDBRANCH   1   4
BRANCH   2   9
HETATM    9  C6  UNL     1     -33.334  18.390  -1.273  1.00 20.00     0.148 C 
HETATM   10 CL10 UNL     1     -32.260  18.667   0.115  1.00 20.00    -0.126 Cl
ENDBRANCH   2   9
TORSDOF 4
ENDMDL
MODEL 4
REMARK VINA RESULT:      -4.0      2.483      3.981
REMARK  4 active torsions:
REMARK  status: ('A' for Active; 'I' for Inactive)
REMARK    1  A    between atoms: C1_1  and  C9_9 
REMARK    2  A    between atoms: C2_2  and  C6_6 
REMARK    3  A    between atoms: C7_7  and  C9_9 
REMARK    4  A    between atoms: C8_8  and  C9_9 
ROOT
HETATM    1  C1  UNL     1     -34.438  15.767  -2.034  1.00 20.00    -0.019 C 
HETATM    2  C2  UNL     1     -34.772  16.974  -1.534  1.00 20.00    -0.073 C 
HETATM    3  C3  UNL     1     -34.762  17.204  -0.045  1.00 20.00     0.044 C 
ENDROOT
BRANCH   1   4
HETATM    4  C9  UNL     1     -34.407  15.344  -3.488  1.00 20.00     0.007 C 
BRANCH   4   5
HETATM    5  C7  UNL     1     -34.501  13.807  -3.608  1.00 20.00     0.004 C 
HETATM    6  C4  UNL     1     -34.736  13.327  -5.035  1.00 20.00     0.006 C 
ENDBRANCH   4   5
BRANCH   4   7
HETATM    7  C8  UNL     1     -33.115  15.836  -4.174  1.00 20.00     0.004 C 
HETATM    8  C5  UNL     1     -33.372  16.774  -5.347  1.00 20.00     0.006 C 
ENDBRANCH   4   7
ENDBRANCH   1   4
BRANCH   2   9
HETATM    9  C6  UNL     1     -35.136  18.172  -2.364  1.00 20.00     0.148 C 
HETATM   10 CL10 UNL     1     -33.709  19.194  -2.639  1.00 20.00    -0.126 Cl
ENDBRANCH   2   9
TORSDOF 4
ENDMDL
MODEL 5
REMARK VINA RESULT:      -4.0      1.820      2.994
REMARK  4 active torsions:
REMARK  status: ('A' for Active; 'I' for Inactive)
REMARK    1  A    between atoms: C1_1  and  C9_9 
REMARK    2  A    between atoms: C2_2  and  C6_6 
REMARK    3  A    between atoms: C7_7  and  C9_9 
REMARK    4  A    between atoms: C8_8  and  C9_9 
ROOT
HETATM    1  C1  UNL     1     -33.647  17.244  -4.509  1.00 20.00    -0.019 C 
HETATM    2  C2  UNL     1     -34.234  17.288  -5.722  1.00 20.00    -0.073 C 
HETATM    3  C3  UNL     1     -33.924  18.416  -6.672  1.00 20.00     0.044 C 
ENDROOT
BRANCH   1   4
HETATM    4  C9  UNL     1     -33.846  16.209  -3.422  1.00 20.00     0.007 C 
BRANCH   4   5
HETATM    5  C7  UNL     1     -33.630  16.837  -2.028  1.00 20.00     0.004 C 
HETATM    6  C4  UNL     1     -34.730  16.489  -1.032  1.00 20.00     0.006 C 
ENDBRANCH   4   5
BRANCH   4   7
HETATM    7  C8  UNL     1     -32.872  15.025  -3.609  1.00 20.00     0.004 C 
HETATM    8  C5  UNL     1     -33.577  13.692  -3.830  1.00 20.00     0.006 C 
ENDBRANCH   4   7
ENDBRANCH   1   4
BRANCH   2   9
HETATM    9  C6  UNL     1     -35.184  16.250  -6.250  1.00 20.00     0.148 C 
HETATM   10 CL10 UNL     1     -34.305  15.023  -7.186  1.00 20.00    -0.126 Cl
ENDBRANCH   2   9
TORSDOF 4
ENDMDL
MODEL 6
REMARK VINA RESULT:      -3.9      2.494      4.176
REMARK  4 active torsions:
REMARK  status: ('A' for Active; 'I' for Inactive)
REMARK    1  A    between atoms: C1_1  and  C9_9 
REMARK    2  A    between atoms: C2_2  and  C6_6 
REMARK    3  A    between atoms: C7_7  and  C9_9 
REMARK    4  A    between atoms: C8_8  and  C9_9 
ROOT
HETATM    1  C1  UNL     1     -34.329  15.793  -2.167  1.00 20.00    -0.019 C 
HETATM    2  C2  UNL     1     -34.253  16.945  -1.471  1.00 20.00    -0.073 C 
HETATM    3  C3  UNL     1     -34.948  17.072  -0.140  1.00 20.00     0.044 C 
ENDROOT
BRANCH   1   4
HETATM    4  C9  UNL     1     -33.719  15.486  -3.519  1.00 20.00     0.007 C 
BRANCH   4   5
HETATM    5  C7  UNL     1     -34.597  16.057  -4.654  1.00 20.00     0.004 C 
HETATM    6  C4  UNL     1     -33.819  16.914  -5.646  1.00 20.00     0.006 C 
ENDBRANCH   4   5
BRANCH   4   7
HETATM    7  C8  UNL     1     -33.555  13.962  -3.712  1.00 20.00     0.004 C 
HETATM    8  C5  UNL     1     -34.606  13.354  -4.633  1.00 20.00     0.006 C 
ENDBRANCH   4   7
ENDBRANCH   1   4
BRANCH   2   9
HETATM    9  C6  UNL     1     -33.476  18.156  -1.905  1.00 20.00     0.148 C 
HETATM   10 CL10 UNL     1     -34.509  19.250  -2.849  1.00 20.00    -0.126 Cl
ENDBRANCH   2   9
TORSDOF 4
ENDMDL
MODEL 7
REMARK VINA RESULT:      -3.9      1.226      2.538
REMARK  4 active torsions:
REMARK  status: ('A' for Active; 'I' for Inactive)
REMARK    1  A    between atoms: C1_1  and  C9_9 
REMARK    2  A    between atoms: C2_2  and  C6_6 
REMARK    3  A    between atoms: C7_7  and  C9_9 
REMARK    4  A    between atoms: C8_8  and  C9_9 
ROOT
HETATM    1  C1  UNL     1     -35.403  15.488  -3.151  1.00 20.00    -0.019 C 
HETATM    2  C2  UNL     1     -36.384  15.494  -4.076  1.00 20.00    -0.073 C 
HETATM    3  C3  UNL     1     -37.659  14.728  -3.832  1.00 20.00     0.044 C 
ENDROOT
BRANCH   1   4
HETATM    4  C9  UNL     1     -34.056  16.176  -3.226  1.00 20.00     0.007 C 
BRANCH   4   5
HETATM    5  C7  UNL     1     -32.968  15.189  -3.704  1.00 20.00     0.004 C 
HETATM    6  C4  UNL     1     -33.425  13.736  -3.695  1.00 20.00     0.006 C 
ENDBRANCH   4   5
BRANCH   4   7
HETATM    7  C8  UNL     1     -33.660  16.753  -1.850  1.00 20.00     0.004 C 
HETATM    8  C5  UNL     1     -34.761  16.630  -0.804  1.00 20.00     0.006 C 
ENDBRANCH   4   7
ENDBRANCH   1   4
BRANCH   2   9
HETATM    9  C6  UNL     1     -36.335  16.257  -5.370  1.00 20.00     0.148 C 
HETATM   10 CL10 UNL     1     -35.355  15.385  -6.567  1.00 20.00    -0.126 Cl
ENDBRANCH   2   9
TORSDOF 4
ENDMDL
MODEL 8
REMARK VINA RESULT:      -3.8      2.479      3.938
REMARK  4 active torsions:
REMARK  status: ('A' for Active; 'I' for Inactive)
REMARK    1  A    between atoms: C1_1  and  C9_9 
REMARK    2  A    between atoms: C2_2  and  C6_6 
REMARK    3  A    between atoms: C7_7  and  C9_9 
REMARK    4  A    between atoms: C8_8  and  C9_9 
ROOT
HETATM    1  C1  UNL     1     -35.114  16.012  -2.954  1.00 20.00    -0.019 C 
HETATM    2  C2  UNL     1     -35.346  16.826  -1.904  1.00 20.00    -0.073 C 
HETATM    3  C3  UNL     1     -36.455  17.843  -1.966  1.00 20.00     0.044 C 
ENDROOT
BRANCH   1   4
HETATM    4  C9  UNL     1     -34.043  14.950  -3.083  1.00 20.00     0.007 C 
BRANCH   4   5
HETATM    5  C7  UNL     1     -32.838  15.489  -3.886  1.00 20.00     0.004 C 
HETATM    6  C4  UNL     1     -33.234  16.464  -4.988  1.00 20.00     0.006 C 
ENDBRANCH   4   5
BRANCH   4   7
HETATM    7  C8  UNL     1     -34.602  13.690  -3.779  1.00 20.00     0.004 C 
HETATM    8  C5  UNL     1     -35.998  13.890  -4.358  1.00 20.00     0.006 C 
ENDBRANCH   4   7
ENDBRANCH   1   4
BRANCH   2   9
HETATM    9  C6  UNL     1     -34.587  16.785  -0.607  1.00 20.00     0.148 C 
HETATM   10 CL10 UNL     1     -33.225  17.924  -0.649  1.00 20.00    -0.126 Cl
ENDBRANCH   2   9
TORSDOF 4
ENDMDL
MODEL 9
REMARK VINA RESULT:      -3.8      1.306      2.756
REMARK  4 active torsions:
REMARK  status: ('A' for Active; 'I' for Inactive)
REMARK    1  A    between atoms: C1_1  and  C9_9 
REMARK    2  A    between atoms: C2_2  and  C6_6 
REMARK    3  A    between atoms: C7_7  and  C9_9 
REMARK    4  A    between atoms: C8_8  and  C9_9 
ROOT
HETATM    1  C1  UNL     1     -34.361  15.333  -2.958  1.00 20.00    -0.019 C 
HETATM    2  C2  UNL     1     -34.961  14.405  -3.731  1.00 20.00    -0.073 C 
HETATM    3  C3  UNL     1     -34.155  13.276  -4.320  1.00 20.00     0.044 C 
ENDROOT
BRANCH   1   4
HETATM    4  C9  UNL     1     -34.996  16.540  -2.300  1.00 20.00     0.007 C 
BRANCH   4   5
HETATM    5  C7  UNL     1     -34.558  17.840  -3.011  1.00 20.00     0.004 C 
HETATM    6  C4  UNL     1     -33.726  17.592  -4.263  1.00 20.00     0.006 C 
ENDBRANCH   4   5
BRANCH   4   7
HETATM    7  C8  UNL     1     -34.609  16.616  -0.807  1.00 20.00     0.004 C 
HETATM    8  C5  UNL     1     -33.689  17.786  -0.480  1.00 20.00     0.006 C 
ENDBRANCH   4   7
ENDBRANCH   1   4
BRANCH   2   9
HETATM    9  C6  UNL     1     -36.431  14.373  -4.043  1.00 20.00     0.148 C 
HETATM   10 CL10 UNL     1     -36.803  15.475  -5.386  1.00 20.00    -0.126 Cl
ENDBRANCH   2   9
TORSDOF 4
ENDMDL
