MODEL 1
REMARK VINA RESULT:      -4.7      0.000      0.000
REMARK  3 active torsions:
REMARK  status: ('A' for Active; 'I' for Inactive)
REMARK    1  A    between atoms: C1_1  and  C8_8 
REMARK    2  A    between atoms: C2_2  and  C3_3 
REMARK    3  A    between atoms: C3_3  and  C9_9 
ROOT
HETATM    1  C1  UNL     1     -33.046   6.947   4.369  1.00 20.00    -0.012 C 
HETATM    2  C3  UNL     1     -33.868   6.219   5.148  1.00 20.00    -0.020 C 
ENDROOT
BRANCH   2   3
HETATM    3  C2  UNL     1     -33.927   6.684   6.567  1.00 20.00     0.265 C 
HETATM    4  O10 UNL     1     -33.173   7.523   7.045  1.00 20.00    -0.302 OA
ENDBRANCH   2   3
BRANCH   2   5
HETATM    5  C9  UNL     1     -34.698   5.024   4.721  1.00 20.00     0.013 C 
HETATM    6  C6  UNL     1     -35.162   4.186   5.916  1.00 20.00     0.015 C 
HETATM    7  C7  UNL     1     -35.880   5.424   3.833  1.00 20.00     0.015 C 
ENDBRANCH   2   5
BRANCH   1   8
HETATM    8  C8  UNL     1     -32.744   6.757   2.900  1.00 20.00     0.001 C 
HETATM    9  C4  UNL     1     -32.036   7.994   2.348  1.00 20.00     0.013 C 
HETATM   10  C5  UNL     1     -31.879   5.512   2.702  1.00 20.00     0.013 C 
ENDBRANCH   1   8
TORSDOF 3
ENDMDL
MODEL 2
REMARK VINA RESULT:      -4.4     11.445     12.692
REMARK  3 active torsions:
REMARK  status: ('A' for Active; 'I' for Inactive)
REMARK    1  A    between atoms: C1_1  and  C8_8 
REMARK    2  A    between atoms: C2_2  and  C3_3 
REMARK    3  A    between atoms: C3_3  and  C9_9 
ROOT
HETATM    1  C1  UNL     1     -35.530  16.070  -2.625  1.00 20.00    -0.012 C 
HETATM    2  C3  UNL     1     -35.565  15.302  -3.732  1.00 20.00    -0.020 C 
ENDROOT
BRANCH   2   3
HETATM    3  C2  UNL     1     -36.947  14.986  -4.206  1.00 20.00     0.265 C 
HETATM    4  O10 UNL     1     -37.653  14.109  -3.723  1.00 20.00    -0.302 OA
ENDBRANCH   2   3
BRANCH   2   5
HETATM    5  C9  UNL     1     -34.373  14.761  -4.496  1.00 20.00     0.013 C 
HETATM    6  C6  UNL     1     -33.765  13.527  -3.823  1.00 20.00     0.015 C 
HETATM    7  C7  UNL     1     -34.703  14.483  -5.967  1.00 20.00     0.015 C 
ENDBRANCH   2   5
BRANCH   1   8
HETATM    8  C8  UNL     1     -34.315  16.571  -1.878  1.00 20.00     0.001 C 
HETATM    9  C4  UNL     1     -33.781  17.840  -2.544  1.00 20.00     0.013 C 
HETATM   10  C5  UNL     1     -34.677  16.844  -0.418  1.00 20.00     0.013 C 
ENDBRANCH   1   8
TORSDOF 3
ENDMDL
MODEL 3
REMARK VINA RESULT:      -4.3     11.650     13.051
REMARK  3 active torsions:
REMARK  status: ('A' for Active; 'I' for Inactive)
REMARK    1  A    between atoms: C1_1  and  C8_8 
REMARK    2  A    between atoms: C2_2  and  C3_3 
REMARK    3  A    between atoms: C3_3  and  C9_9 
ROOT
HETATM    1  C1  UNL     1     -34.410  15.337  -2.832  1.00 20.00    -0.012 C 
HETATM    2  C3  UNL     1     -34.567  14.918  -4.102  1.00 20.00    -0.020 C 
ENDROOT
BRANCH   2   3
HETATM    3  C2  UNL     1     -34.140  13.504  -4.330  1.00 20.00     0.265 C 
HETATM    4  O10 UNL     1     -34.917  12.573  -4.507  1.00 20.00    -0.302 OA
ENDBRANCH   2   3
BRANCH   2   5
HETATM    5  C9  UNL     1     -35.117  15.726  -5.261  1.00 20.00     0.013 C 
HETATM    6  C6  UNL     1     -34.359  15.458  -6.564  1.00 20.00     0.015 C 
HETATM    7  C7  UNL     1     -36.624  15.526  -5.447  1.00 20.00     0.015 C 
ENDBRANCH   2   5
BRANCH   1   8
HETATM    8  C8  UNL     1     -34.731  16.697  -2.254  1.00 20.00     0.001 C 
HETATM    9  C4  UNL     1     -34.670  16.641  -0.727  1.00 20.00     0.013 C 
HETATM   10  C5  UNL     1     -33.748  17.737  -2.791  1.00 20.00     0.013 C 
ENDBRANCH   1   8
TORSDOF 3
ENDMDL
MODEL 4
REMARK VINA RESULT:      -4.0     11.497     13.341
REMARK  3 active torsions:
REMARK  status: ('A' for Active; 'I' for Inactive)
REMARK    1  A    between atoms: C1_1  and  C8_8 
REMARK    2  A    between atoms: C2_2  and  C3_3 
REMARK    3  A    between atoms: C3_3  and  C9_9 
ROOT
HETATM    1  C1  UNL     1     -35.825  15.318  -5.582  1.00 20.00    -0.012 C 
HETATM    2  C3  UNL     1     -35.685  15.245  -4.244  1.00 20.00    -0.020 C 
ENDROOT
BRANCH   2   3
HETATM    3  C2  UNL     1     -36.977  15.081  -3.509  1.00 20.00     0.265 C 
HETATM    4  O10 UNL     1     -37.804  14.213  -3.761  1.00 20.00    -0.302 OA
ENDBRANCH   2   3
BRANCH   2   5
HETATM    5  C9  UNL     1     -34.388  15.313  -3.464  1.00 20.00     0.013 C 
HETATM    6  C6  UNL     1     -34.592  15.858  -2.047  1.00 20.00     0.015 C 
HETATM    7  C7  UNL     1     -33.653  13.969  -3.439  1.00 20.00     0.015 C 
ENDBRANCH   2   5
BRANCH   1   8
HETATM    8  C8  UNL     1     -34.742  15.487  -6.623  1.00 20.00     0.001 C 
HETATM    9  C4  UNL     1     -35.148  14.782  -7.917  1.00 20.00     0.013 C 
HETATM   10  C5  UNL     1     -34.492  16.974  -6.879  1.00 20.00     0.013 C 
ENDBRANCH   1   8
TORSDOF 3
ENDMDL
MODEL 5
REMARK VINA RESULT:      -4.0      9.683     11.616
REMARK  3 active torsions:
REMARK  status: ('A' for Active; 'I' for Inactive)
REMARK    1  A    between atoms: C1_1  and  C8_8 
REMARK    2  A    between atoms: C2_2  and  C3_3 
REMARK    3  A    between atoms: C3_3  and  C9_9 
ROOT
HETATM    1  C1  UNL     1     -42.441   3.884  -3.013  1.00 20.00    -0.012 C 
HETATM    2  C3  UNL     1     -42.163   4.951  -2.240  1.00 20.00    -0.020 C 
ENDROOT
BRANCH   2   3
HETATM    3  C2  UNL     1     -42.691   6.242  -2.779  1.00 20.00     0.265 C 
HETATM    4  O10 UNL     1     -43.235   6.358  -3.870  1.00 20.00    -0.302 OA
ENDBRANCH   2   3
BRANCH   2   5
HETATM    5  C9  UNL     1     -41.397   4.948  -0.932  1.00 20.00     0.013 C 
HETATM    6  C6  UNL     1     -40.769   6.311  -0.625  1.00 20.00     0.015 C 
HETATM    7  C7  UNL     1     -42.251   4.456   0.241  1.00 20.00     0.015 C 
ENDBRANCH   2   5
BRANCH   1   8
HETATM    8  C8  UNL     1     -42.060   2.440  -2.777  1.00 20.00     0.001 C 
HETATM    9  C4  UNL     1     -43.313   1.610  -2.493  1.00 20.00     0.013 C 
HETATM   10  C5  UNL     1     -41.318   1.890  -3.996  1.00 20.00     0.013 C 
ENDBRANCH   1   8
TORSDOF 3
ENDMDL
MODEL 6
REMARK VINA RESULT:      -3.9      1.835      2.768
REMARK  3 active torsions:
REMARK  status: ('A' for Active; 'I' for Inactive)
REMARK    1  A    between atoms: C1_1  and  C8_8 
REMARK    2  A    between atoms: C2_2  and  C3_3 
REMARK    3  A    between atoms: C3_3  and  C9_9 
ROOT
HETATM    1  C1  UNL     1     -33.854   6.393   3.239  1.00 20.00    -0.012 C 
HETATM    2  C3  UNL     1     -34.563   5.769   4.198  1.00 20.00    -0.020 C 
ENDROOT
BRANCH   2   3
HETATM    3  C2  UNL     1     -35.954   5.409   3.786  1.00 20.00     0.265 C 
HETATM    4  O10 UNL     1     -36.685   6.142   3.130  1.00 20.00    -0.302 OA
ENDBRANCH   2   3
BRANCH   2   5
HETATM    5  C9  UNL     1     -34.086   5.418   5.594  1.00 20.00     0.013 C 
HETATM    6  C6  UNL     1     -33.979   6.651   6.496  1.00 20.00     0.015 C 
HETATM    7  C7  UNL     1     -34.944   4.328   6.245  1.00 20.00     0.015 C 
ENDBRANCH   2   5
BRANCH   1   8
HETATM    8  C8  UNL     1     -32.431   6.898   3.313  1.00 20.00     0.001 C 
HETATM    9  C4  UNL     1     -31.456   5.748   3.055  1.00 20.00     0.013 C 
HETATM   10  C5  UNL     1     -32.220   8.017   2.292  1.00 20.00     0.013 C 
ENDBRANCH   1   8
TORSDOF 3
ENDMDL
MODEL 7
REMARK VINA RESULT:      -3.9     11.781     13.464
REMARK  3 active torsions:
REMARK  status: ('A' for Active; 'I' for Inactive)
REMARK    1  A    between atoms: C1_1  and  C8_8 
REMARK    2  A    between atoms: C2_2  and  C3_3 
REMARK    3  A    between atoms: C3_3  and  C9_9 
ROOT
HETATM    1  C1  UNL     1     -36.338  14.483  -4.184  1.00 20.00    -0.012 C 
HETATM    2  C3  UNL     1     -35.216  14.450  -4.929  1.00 20.00    -0.020 C 
ENDROOT
BRANCH   2   3
HETATM    3  C2  UNL     1     -34.395  13.216  -4.734  1.00 20.00     0.265 C 
HETATM    4  O10 UNL     1     -33.498  13.114  -3.906  1.00 20.00    -0.302 OA
ENDBRANCH   2   3
BRANCH   2   5
HETATM    5  C9  UNL     1     -34.743  15.513  -5.901  1.00 20.00     0.013 C 
HETATM    6  C6  UNL     1     -33.549  16.304  -5.359  1.00 20.00     0.015 C 
HETATM    7  C7  UNL     1     -34.442  14.939  -7.289  1.00 20.00     0.015 C 
ENDBRANCH   2   5
BRANCH   1   8
HETATM    8  C8  UNL     1     -37.386  15.570  -4.128  1.00 20.00     0.001 C 
HETATM    9  C4  UNL     1     -38.726  14.980  -3.684  1.00 20.00     0.013 C 
HETATM   10  C5  UNL     1     -36.943  16.673  -3.166  1.00 20.00     0.013 C 
ENDBRANCH   1   8
TORSDOF 3
ENDMDL
MODEL 8
REMARK VINA RESULT:      -3.8     11.498     12.962
REMARK  3 active torsions:
REMARK  status: ('A' for Active; 'I' for Inactive)
REMARK    1  A    between atoms: C1_1  and  C8_8 
REMARK    2  A    between atoms: C2_2  and  C3_3 
REMARK    3  A    between atoms: C3_3  and  C9_9 
ROOT
HETATM    1  C1  UNL     1     -36.059  14.833  -3.993  1.00 20.00    -0.012 C 
HETATM    2  C3  UNL     1     -34.773  14.785  -3.595  1.00 20.00    -0.020 C 
ENDROOT
BRANCH   2   3
HETATM    3  C2  UNL     1     -34.065  13.528  -3.986  1.00 20.00     0.265 C 
HETATM    4  O10 UNL     1     -34.574  12.633  -4.650  1.00 20.00    -0.302 OA
ENDBRANCH   2   3
BRANCH   2   5
HETATM    5  C9  UNL     1     -34.025  15.851  -2.820  1.00 20.00     0.013 C 
HETATM    6  C6  UNL     1     -33.731  17.089  -3.674  1.00 20.00     0.015 C 
HETATM    7  C7  UNL     1     -34.737  16.234  -1.519  1.00 20.00     0.015 C 
ENDBRANCH   2   5
BRANCH   1   8
HETATM    8  C8  UNL     1     -37.063  15.941  -3.767  1.00 20.00     0.001 C 
HETATM    9  C4  UNL     1     -37.128  16.845  -4.999  1.00 20.00     0.013 C 
HETATM   10  C5  UNL     1     -38.439  15.345  -3.467  1.00 20.00     0.013 C 
ENDBRANCH   1   8
TORSDOF 3
ENDMDL
MODEL 9
REMARK VINA RESULT:      -3.8     11.735     13.579
REMARK  3 active torsions:
REMARK  status: ('A' for Active; 'I' for Inactive)
REMARK    1  A    between atoms: C1_1  and  C8_8 
REMARK    2  A    between atoms: C2_2  and  C3_3 
REMARK    3  A    between atoms: C3_3  and  C9_9 
ROOT
HETATM    1  C1  UNL     1     -35.484  15.444  -5.600  1.00 20.00    -0.012 C 
HETATM    2  C3  UNL     1     -34.868  14.925  -4.520  1.00 20.00    -0.020 C 
ENDROOT
BRANCH   2   3
HETATM    3  C2  UNL     1     -35.275  13.521  -4.207  1.00 20.00     0.265 C 
HETATM    4  O10 UNL     1     -34.863  12.538  -4.811  1.00 20.00    -0.302 OA
ENDBRANCH   2   3
BRANCH   2   5
HETATM    5  C9  UNL     1     -33.845  15.617  -3.641  1.00 20.00     0.013 C 
HETATM    6  C6  UNL     1     -34.404  15.947  -2.253  1.00 20.00     0.015 C 
HETATM    7  C7  UNL     1     -32.537  14.826  -3.536  1.00 20.00     0.015 C 
ENDBRANCH   2   5
BRANCH   1   8
HETATM    8  C8  UNL     1     -35.317  16.825  -6.192  1.00 20.00     0.001 C 
HETATM    9  C4  UNL     1     -34.760  16.719  -7.613  1.00 20.00     0.013 C 
HETATM   10  C5  UNL     1     -36.660  17.556  -6.198  1.00 20.00     0.013 C 
ENDBRANCH   1   8
TORSDOF 3
ENDMDL
