MODEL 1
REMARK VINA RESULT:      -4.7      0.000      0.000
REMARK  2 active torsions:
REMARK  status: ('A' for Active; 'I' for Inactive)
REMARK    1  A    between atoms: C6_6  and  C8_8 
REMARK    2  A    between atoms: C7_7  and  C9_9 
ROOT
HETATM    1  C1  UNL     1     -33.268  16.439  -4.889  1.00 20.00     0.027 C 
HETATM    2  C4  UNL     1     -33.111  15.345  -3.835  1.00 20.00     0.010 C 
HETATM    3  C5  UNL     1     -34.129  17.596  -4.400  1.00 20.00     0.168 C 
HETATM    4  C7  UNL     1     -34.368  15.184  -2.974  1.00 20.00     0.029 C 
HETATM    5  C8  UNL     1     -34.820  16.546  -2.385  1.00 20.00     0.130 C 
HETATM    6  O10 UNL     1     -34.129  17.654  -2.979  1.00 20.00    -0.385 OA
ENDROOT
BRANCH   5   7
HETATM    7  C6  UNL     1     -34.574  16.603  -0.901  1.00 20.00     0.015 A 
HETATM    8  C2  UNL     1     -33.753  17.717  -0.312  1.00 20.00     0.007 A 
HETATM    9  C3  UNL     1     -35.236  17.663  -0.065  1.00 20.00     0.007 A 
ENDBRANCH   5   7
BRANCH   4  10
HETATM   10  C9  UNL     1     -35.504  14.528  -3.768  1.00 20.00     0.121 C 
HETATM   11 CL11 UNL     1     -34.890  13.130  -4.666  1.00 20.00    -0.130 Cl
ENDBRANCH   4  10
TORSDOF 2
ENDMDL
MODEL 2
REMARK VINA RESULT:      -4.6     12.219     13.110
REMARK  2 active torsions:
REMARK  status: ('A' for Active; 'I' for Inactive)
REMARK    1  A    between atoms: C6_6  and  C8_8 
REMARK    2  A    between atoms: C7_7  and  C9_9 
ROOT
HETATM    1  C1  UNL     1     -35.536   4.201   4.929  1.00 20.00     0.027 C 
HETATM    2  C4  UNL     1     -34.110   4.262   5.469  1.00 20.00     0.010 C 
HETATM    3  C5  UNL     1     -35.780   5.217   3.820  1.00 20.00     0.168 C 
HETATM    4  C7  UNL     1     -33.547   5.687   5.462  1.00 20.00     0.029 C 
HETATM    5  C8  UNL     1     -33.704   6.343   4.065  1.00 20.00     0.130 C 
HETATM    6  O10 UNL     1     -34.555   5.581   3.197  1.00 20.00    -0.385 OA
ENDROOT
BRANCH   5   7
HETATM    7  C6  UNL     1     -32.371   6.485   3.379  1.00 20.00     0.015 A 
HETATM    8  C2  UNL     1     -32.132   7.615   2.417  1.00 20.00     0.007 A 
HETATM    9  C3  UNL     1     -31.444   7.608   3.754  1.00 20.00     0.007 A 
ENDBRANCH   5   7
BRANCH   4  10
HETATM   10  C9  UNL     1     -34.202   6.549   6.547  1.00 20.00     0.121 C 
HETATM   11 CL11 UNL     1     -33.037   7.727   7.174  1.00 20.00    -0.130 Cl
ENDBRANCH   4  10
TORSDOF 2
ENDMDL
MODEL 3
REMARK VINA RESULT:      -4.5      1.862      2.146
REMARK  2 active torsions:
REMARK  status: ('A' for Active; 'I' for Inactive)
REMARK    1  A    between atoms: C6_6  and  C8_8 
REMARK    2  A    between atoms: C7_7  and  C9_9 
ROOT
HETATM    1  C1  UNL     1     -34.536  14.387  -5.810  1.00 20.00     0.027 C 
HETATM    2  C4  UNL     1     -34.687  13.782  -4.417  1.00 20.00     0.010 C 
HETATM    3  C5  UNL     1     -34.269  15.886  -5.766  1.00 20.00     0.168 C 
HETATM    4  C7  UNL     1     -35.351  14.750  -3.432  1.00 20.00     0.029 C 
HETATM    5  C8  UNL     1     -34.634  16.125  -3.431  1.00 20.00     0.130 C 
HETATM    6  O10 UNL     1     -33.703  16.257  -4.515  1.00 20.00    -0.385 OA
ENDROOT
BRANCH   5   7
HETATM    7  C6  UNL     1     -33.870  16.339  -2.152  1.00 20.00     0.015 A 
HETATM    8  C2  UNL     1     -33.808  17.703  -1.525  1.00 20.00     0.007 A 
HETATM    9  C3  UNL     1     -34.604  16.610  -0.868  1.00 20.00     0.007 A 
ENDBRANCH   5   7
BRANCH   4  10
HETATM   10  C9  UNL     1     -36.845  14.913  -3.735  1.00 20.00     0.121 C 
HETATM   11 CL11 UNL     1     -37.299  16.623  -3.654  1.00 20.00    -0.130 Cl
ENDBRANCH   4  10
TORSDOF 2
ENDMDL
MODEL 4
REMARK VINA RESULT:      -4.5      1.173      1.299
REMARK  2 active torsions:
REMARK  status: ('A' for Active; 'I' for Inactive)
REMARK    1  A    between atoms: C6_6  and  C8_8 
REMARK    2  A    between atoms: C7_7  and  C9_9 
ROOT
HETATM    1  C1  UNL     1     -34.057  16.473  -5.684  1.00 20.00     0.027 C 
HETATM    2  C4  UNL     1     -33.011  16.155  -4.619  1.00 20.00     0.010 C 
HETATM    3  C5  UNL     1     -35.470  16.512  -5.116  1.00 20.00     0.168 C 
HETATM    4  C7  UNL     1     -33.542  15.190  -3.554  1.00 20.00     0.029 C 
HETATM    5  C8  UNL     1     -34.886  15.693  -2.965  1.00 20.00     0.130 C 
HETATM    6  O10 UNL     1     -35.440  16.780  -3.719  1.00 20.00    -0.385 OA
ENDROOT
BRANCH   5   7
HETATM    7  C6  UNL     1     -34.713  16.169  -1.547  1.00 20.00     0.015 A 
HETATM    8  C2  UNL     1     -33.753  17.282  -1.234  1.00 20.00     0.007 A 
HETATM    9  C3  UNL     1     -35.235  17.517  -1.133  1.00 20.00     0.007 A 
ENDBRANCH   5   7
BRANCH   4  10
HETATM   10  C9  UNL     1     -33.687  13.770  -4.113  1.00 20.00     0.121 C 
HETATM   11 CL11 UNL     1     -35.387  13.274  -4.080  1.00 20.00    -0.130 Cl
ENDBRANCH   4  10
TORSDOF 2
ENDMDL
MODEL 5
REMARK VINA RESULT:      -4.4      1.891      2.758
REMARK  2 active torsions:
REMARK  status: ('A' for Active; 'I' for Inactive)
REMARK    1  A    between atoms: C6_6  and  C8_8 
REMARK    2  A    between atoms: C7_7  and  C9_9 
ROOT
HETATM    1  C1  UNL     1     -35.149  13.354  -4.291  1.00 20.00     0.027 C 
HETATM    2  C4  UNL     1     -36.240  14.399  -4.069  1.00 20.00     0.010 C 
HETATM    3  C5  UNL     1     -33.776  13.848  -3.853  1.00 20.00     0.168 C 
HETATM    4  C7  UNL     1     -35.727  15.827  -4.277  1.00 20.00     0.029 C 
HETATM    5  C8  UNL     1     -34.446  16.089  -3.443  1.00 20.00     0.130 C 
HETATM    6  O10 UNL     1     -33.901  14.883  -2.887  1.00 20.00    -0.385 OA
ENDROOT
BRANCH   5   7
HETATM    7  C6  UNL     1     -34.725  17.027  -2.299  1.00 20.00     0.015 A 
HETATM    8  C2  UNL     1     -34.710  16.521  -0.883  1.00 20.00     0.007 A 
HETATM    9  C3  UNL     1     -33.618  17.435  -1.368  1.00 20.00     0.007 A 
ENDBRANCH   5   7
BRANCH   4  10
HETATM   10  C9  UNL     1     -35.481  16.118  -5.762  1.00 20.00     0.121 C 
HETATM   11 CL11 UNL     1     -33.856  16.785  -5.990  1.00 20.00    -0.130 Cl
ENDBRANCH   4  10
TORSDOF 2
ENDMDL
MODEL 6
REMARK VINA RESULT:      -4.4      2.245      3.929
REMARK  2 active torsions:
REMARK  status: ('A' for Active; 'I' for Inactive)
REMARK    1  A    between atoms: C6_6  and  C8_8 
REMARK    2  A    between atoms: C7_7  and  C9_9 
ROOT
HETATM    1  C1  UNL     1     -34.590  18.034  -4.392  1.00 20.00     0.027 C 
HETATM    2  C4  UNL     1     -35.488  17.229  -3.456  1.00 20.00     0.010 C 
HETATM    3  C5  UNL     1     -33.408  17.220  -4.902  1.00 20.00     0.168 C 
HETATM    4  C7  UNL     1     -34.696  16.230  -2.607  1.00 20.00     0.029 C 
HETATM    5  C8  UNL     1     -33.783  15.344  -3.495  1.00 20.00     0.130 C 
HETATM    6  O10 UNL     1     -33.696  15.828  -4.843  1.00 20.00    -0.385 OA
ENDROOT
BRANCH   5   7
HETATM    7  C6  UNL     1     -34.292  13.929  -3.555  1.00 20.00     0.015 A 
HETATM    8  C2  UNL     1     -35.646  13.636  -4.139  1.00 20.00     0.007 A 
HETATM    9  C3  UNL     1     -34.404  13.221  -4.877  1.00 20.00     0.007 A 
ENDBRANCH   5   7
BRANCH   4  10
HETATM   10  C9  UNL     1     -33.878  16.945  -1.525  1.00 20.00     0.121 C 
HETATM   11 CL11 UNL     1     -34.789  16.992  -0.006  1.00 20.00    -0.130 Cl
ENDBRANCH   4  10
TORSDOF 2
ENDMDL
MODEL 7
REMARK VINA RESULT:      -4.4      2.566      3.795
REMARK  2 active torsions:
REMARK  status: ('A' for Active; 'I' for Inactive)
REMARK    1  A    between atoms: C6_6  and  C8_8 
REMARK    2  A    between atoms: C7_7  and  C9_9 
ROOT
HETATM    1  C1  UNL     1     -34.372  13.191  -4.582  1.00 20.00     0.027 C 
HETATM    2  C4  UNL     1     -33.384  14.022  -3.767  1.00 20.00     0.010 C 
HETATM    3  C5  UNL     1     -35.129  14.029  -5.605  1.00 20.00     0.168 C 
HETATM    4  C7  UNL     1     -33.894  15.444  -3.513  1.00 20.00     0.029 C 
HETATM    5  C8  UNL     1     -34.327  16.128  -4.836  1.00 20.00     0.130 C 
HETATM    6  O10 UNL     1     -34.396  15.204  -5.931  1.00 20.00    -0.385 OA
ENDROOT
BRANCH   5   7
HETATM    7  C6  UNL     1     -33.363  17.217  -5.225  1.00 20.00     0.015 A 
HETATM    8  C2  UNL     1     -33.776  18.278  -6.207  1.00 20.00     0.007 A 
HETATM    9  C3  UNL     1     -33.587  18.628  -4.757  1.00 20.00     0.007 A 
ENDBRANCH   5   7
BRANCH   4  10
HETATM   10  C9  UNL     1     -35.039  15.450  -2.494  1.00 20.00     0.121 C 
HETATM   11 CL11 UNL     1     -34.595  16.427  -1.084  1.00 20.00    -0.130 Cl
ENDBRANCH   4  10
TORSDOF 2
ENDMDL
MODEL 8
REMARK VINA RESULT:      -4.3      2.619      4.234
REMARK  2 active torsions:
REMARK  status: ('A' for Active; 'I' for Inactive)
REMARK    1  A    between atoms: C6_6  and  C8_8 
REMARK    2  A    between atoms: C7_7  and  C9_9 
ROOT
HETATM    1  C1  UNL     1     -33.374  13.637  -3.743  1.00 20.00     0.027 C 
HETATM    2  C4  UNL     1     -33.090  15.135  -3.669  1.00 20.00     0.010 C 
HETATM    3  C5  UNL     1     -34.582  13.319  -4.616  1.00 20.00     0.168 C 
HETATM    4  C7  UNL     1     -34.372  15.972  -3.709  1.00 20.00     0.029 C 
HETATM    5  C8  UNL     1     -35.261  15.575  -4.916  1.00 20.00     0.130 C 
HETATM    6  O10 UNL     1     -34.815  14.367  -5.549  1.00 20.00    -0.385 OA
ENDROOT
BRANCH   5   7
HETATM    7  C6  UNL     1     -35.270  16.656  -5.963  1.00 20.00     0.015 A 
HETATM    8  C2  UNL     1     -34.068  17.539  -6.151  1.00 20.00     0.007 A 
HETATM    9  C3  UNL     1     -34.425  16.520  -7.198  1.00 20.00     0.007 A 
ENDBRANCH   5   7
BRANCH   4  10
HETATM   10  C9  UNL     1     -35.152  15.857  -2.394  1.00 20.00     0.121 C 
HETATM   11 CL11 UNL     1     -34.285  16.695  -1.097  1.00 20.00    -0.130 Cl
ENDBRANCH   4  10
TORSDOF 2
ENDMDL
MODEL 9
REMARK VINA RESULT:      -4.2      1.830      2.686
REMARK  2 active torsions:
REMARK  status: ('A' for Active; 'I' for Inactive)
REMARK    1  A    between atoms: C6_6  and  C8_8 
REMARK    2  A    between atoms: C7_7  and  C9_9 
ROOT
HETATM    1  C1  UNL     1     -37.352  15.767  -5.089  1.00 20.00     0.027 C 
HETATM    2  C4  UNL     1     -36.040  16.516  -5.313  1.00 20.00     0.010 C 
HETATM    3  C5  UNL     1     -37.320  14.905  -3.833  1.00 20.00     0.168 C 
HETATM    4  C7  UNL     1     -34.824  15.708  -4.849  1.00 20.00     0.029 C 
HETATM    5  C8  UNL     1     -35.006  15.211  -3.392  1.00 20.00     0.130 C 
HETATM    6  O10 UNL     1     -36.348  15.393  -2.916  1.00 20.00    -0.385 OA
ENDROOT
BRANCH   5   7
HETATM    7  C6  UNL     1     -34.090  15.944  -2.449  1.00 20.00     0.015 A 
HETATM    8  C2  UNL     1     -34.226  17.430  -2.263  1.00 20.00     0.007 A 
HETATM    9  C3  UNL     1     -34.620  16.494  -1.154  1.00 20.00     0.007 A 
ENDBRANCH   5   7
BRANCH   4  10
HETATM   10  C9  UNL     1     -34.542  14.535  -5.796  1.00 20.00     0.121 C 
HETATM   11 CL11 UNL     1     -34.393  13.031  -4.872  1.00 20.00    -0.130 Cl
ENDBRANCH   4  10
TORSDOF 2
ENDMDL
