MODEL 1
REMARK VINA RESULT:      -4.3      0.000      0.000
REMARK  2 active torsions:
REMARK  status: ('A' for Active; 'I' for Inactive)
REMARK    1  A    between atoms: C3_3  and  C8_8 
REMARK    2  A    between atoms: C4_4  and  C9_9 
ROOT
HETATM    1  C1  UNL     1     -34.304  13.789  -3.552  1.00 20.00     0.034 C 
HETATM    2  C2  UNL     1     -34.736  13.285  -4.913  1.00 20.00     0.168 C 
HETATM    3  C3  UNL     1     -34.466  15.286  -3.712  1.00 20.00     0.031 C 
HETATM    4  C4  UNL     1     -33.982  15.481  -5.146  1.00 20.00     0.134 C 
HETATM    5  O10 UNL     1     -34.402  14.306  -5.865  1.00 20.00    -0.385 OA
ENDROOT
BRANCH   4   6
HETATM    6  C9  UNL     1     -34.548  16.714  -5.823  1.00 20.00    -0.025 C 
HETATM    7  C5  UNL     1     -34.695  16.467  -7.338  1.00 20.00     0.017 C 
HETATM    8  C6  UNL     1     -33.610  17.917  -5.604  1.00 20.00     0.017 C 
HETATM    9  C7  UNL     1     -35.934  17.051  -5.238  1.00 20.00     0.017 C 
ENDBRANCH   4   6
BRANCH   3  10
HETATM   10  C8  UNL     1     -33.699  16.096  -2.682  1.00 20.00     0.121 C 
HETATM   11 CL11 UNL     1     -34.685  16.337  -1.225  1.00 20.00    -0.130 Cl
ENDBRANCH   3  10
TORSDOF 2
ENDMDL
MODEL 2
REMARK VINA RESULT:      -4.3      0.020      1.307
REMARK  2 active torsions:
REMARK  status: ('A' for Active; 'I' for Inactive)
REMARK    1  A    between atoms: C3_3  and  C8_8 
REMARK    2  A    between atoms: C4_4  and  C9_9 
ROOT
HETATM    1  C1  UNL     1     -34.279  13.776  -3.558  1.00 20.00     0.034 C 
HETATM    2  C2  UNL     1     -34.709  13.272  -4.920  1.00 20.00     0.168 C 
HETATM    3  C3  UNL     1     -34.452  15.273  -3.715  1.00 20.00     0.031 C 
HETATM    4  C4  UNL     1     -33.970  15.473  -5.149  1.00 20.00     0.134 C 
HETATM    5  O10 UNL     1     -34.383  14.297  -5.870  1.00 20.00    -0.385 OA
ENDROOT
BRANCH   4   6
HETATM    6  C9  UNL     1     -34.546  16.704  -5.824  1.00 20.00    -0.025 C 
HETATM    7  C5  UNL     1     -35.936  17.027  -5.240  1.00 20.00     0.017 C 
HETATM    8  C6  UNL     1     -34.689  16.459  -7.339  1.00 20.00     0.017 C 
HETATM    9  C7  UNL     1     -33.619  17.915  -5.601  1.00 20.00     0.017 C 
ENDBRANCH   4   6
BRANCH   3  10
HETATM   10  C8  UNL     1     -33.688  16.087  -2.685  1.00 20.00     0.121 C 
HETATM   11 CL11 UNL     1     -34.675  16.321  -1.228  1.00 20.00    -0.130 Cl
ENDBRANCH   3  10
TORSDOF 2
ENDMDL
MODEL 3
REMARK VINA RESULT:      -4.2      1.874      2.990
REMARK  2 active torsions:
REMARK  status: ('A' for Active; 'I' for Inactive)
REMARK    1  A    between atoms: C3_3  and  C8_8 
REMARK    2  A    between atoms: C4_4  and  C9_9 
ROOT
HETATM    1  C1  UNL     1     -37.470  16.213  -3.224  1.00 20.00     0.034 C 
HETATM    2  C2  UNL     1     -37.927  14.921  -3.868  1.00 20.00     0.168 C 
HETATM    3  C3  UNL     1     -36.018  16.274  -3.652  1.00 20.00     0.031 C 
HETATM    4  C4  UNL     1     -35.620  14.805  -3.542  1.00 20.00     0.134 C 
HETATM    5  O10 UNL     1     -36.786  14.052  -3.924  1.00 20.00    -0.385 OA
ENDROOT
BRANCH   4   6
HETATM    6  C9  UNL     1     -34.456  14.416  -4.436  1.00 20.00    -0.025 C 
HETATM    7  C5  UNL     1     -34.670  12.996  -4.995  1.00 20.00     0.017 C 
HETATM    8  C6  UNL     1     -33.141  14.442  -3.633  1.00 20.00     0.017 C 
HETATM    9  C7  UNL     1     -34.340  15.402  -5.614  1.00 20.00     0.017 C 
ENDBRANCH   4   6
BRANCH   3  10
HETATM   10  C8  UNL     1     -35.172  17.211  -2.809  1.00 20.00     0.121 C 
HETATM   11 CL11 UNL     1     -34.776  16.455  -1.252  1.00 20.00    -0.130 Cl
ENDBRANCH   3  10
TORSDOF 2
ENDMDL
MODEL 4
REMARK VINA RESULT:      -4.2      1.883      3.108
REMARK  2 active torsions:
REMARK  status: ('A' for Active; 'I' for Inactive)
REMARK    1  A    between atoms: C3_3  and  C8_8 
REMARK    2  A    between atoms: C4_4  and  C9_9 
ROOT
HETATM    1  C1  UNL     1     -37.489  16.196  -3.223  1.00 20.00     0.034 C 
HETATM    2  C2  UNL     1     -37.936  14.901  -3.869  1.00 20.00     0.168 C 
HETATM    3  C3  UNL     1     -36.038  16.269  -3.652  1.00 20.00     0.031 C 
HETATM    4  C4  UNL     1     -35.628  14.803  -3.544  1.00 20.00     0.134 C 
HETATM    5  O10 UNL     1     -36.788  14.042  -3.926  1.00 20.00    -0.385 OA
ENDROOT
BRANCH   4   6
HETATM    6  C9  UNL     1     -34.461  14.425  -4.437  1.00 20.00    -0.025 C 
HETATM    7  C5  UNL     1     -34.355  15.412  -5.616  1.00 20.00     0.017 C 
HETATM    8  C6  UNL     1     -34.663  13.003  -4.996  1.00 20.00     0.017 C 
HETATM    9  C7  UNL     1     -33.145  14.463  -3.636  1.00 20.00     0.017 C 
ENDBRANCH   4   6
BRANCH   3  10
HETATM   10  C8  UNL     1     -35.199  17.212  -2.807  1.00 20.00     0.121 C 
HETATM   11 CL11 UNL     1     -34.784  16.452  -1.258  1.00 20.00    -0.130 Cl
ENDBRANCH   3  10
TORSDOF 2
ENDMDL
MODEL 5
REMARK VINA RESULT:      -4.1      1.460      2.117
REMARK  2 active torsions:
REMARK  status: ('A' for Active; 'I' for Inactive)
REMARK    1  A    between atoms: C3_3  and  C8_8 
REMARK    2  A    between atoms: C4_4  and  C9_9 
ROOT
HETATM    1  C1  UNL     1     -33.679  13.779  -3.785  1.00 20.00     0.034 C 
HETATM    2  C2  UNL     1     -34.478  13.089  -4.871  1.00 20.00     0.168 C 
HETATM    3  C3  UNL     1     -34.589  14.934  -3.419  1.00 20.00     0.031 C 
HETATM    4  C4  UNL     1     -35.124  15.330  -4.792  1.00 20.00     0.134 C 
HETATM    5  O10 UNL     1     -35.248  14.103  -5.535  1.00 20.00    -0.385 OA
ENDROOT
BRANCH   4   6
HETATM    6  C9  UNL     1     -36.470  16.029  -4.749  1.00 20.00    -0.025 C 
HETATM    7  C5  UNL     1     -37.298  15.509  -3.557  1.00 20.00     0.017 C 
HETATM    8  C6  UNL     1     -37.248  15.761  -6.051  1.00 20.00     0.017 C 
HETATM    9  C7  UNL     1     -36.273  17.550  -4.591  1.00 20.00     0.017 C 
ENDBRANCH   4   6
BRANCH   3  10
HETATM   10  C8  UNL     1     -33.883  16.057  -2.680  1.00 20.00     0.121 C 
HETATM   11 CL11 UNL     1     -34.663  16.352  -1.113  1.00 20.00    -0.130 Cl
ENDBRANCH   3  10
TORSDOF 2
ENDMDL
MODEL 6
REMARK VINA RESULT:      -4.1      2.427      4.108
REMARK  2 active torsions:
REMARK  status: ('A' for Active; 'I' for Inactive)
REMARK    1  A    between atoms: C3_3  and  C8_8 
REMARK    2  A    between atoms: C4_4  and  C9_9 
ROOT
HETATM    1  C1  UNL     1     -34.885  17.392  -6.382  1.00 20.00     0.034 C 
HETATM    2  C2  UNL     1     -33.609  17.837  -5.698  1.00 20.00     0.168 C 
HETATM    3  C3  UNL     1     -35.288  16.201  -5.537  1.00 20.00     0.031 C 
HETATM    4  C4  UNL     1     -33.928  15.568  -5.257  1.00 20.00     0.134 C 
HETATM    5  O10 UNL     1     -33.003  16.664  -5.135  1.00 20.00    -0.385 OA
ENDROOT
BRANCH   4   6
HETATM    6  C9  UNL     1     -33.889  14.734  -3.990  1.00 20.00    -0.025 C 
HETATM    7  C5  UNL     1     -32.435  14.578  -3.504  1.00 20.00     0.017 C 
HETATM    8  C6  UNL     1     -34.476  13.335  -4.259  1.00 20.00     0.017 C 
HETATM    9  C7  UNL     1     -34.714  15.415  -2.880  1.00 20.00     0.017 C 
ENDBRANCH   4   6
BRANCH   3  10
HETATM   10  C8  UNL     1     -36.275  15.273  -6.223  1.00 20.00     0.121 C 
HETATM   11 CL11 UNL     1     -35.491  14.421  -7.569  1.00 20.00    -0.130 Cl
ENDBRANCH   3  10
TORSDOF 2
ENDMDL
MODEL 7
REMARK VINA RESULT:      -4.1      1.581      3.158
REMARK  2 active torsions:
REMARK  status: ('A' for Active; 'I' for Inactive)
REMARK    1  A    between atoms: C3_3  and  C8_8 
REMARK    2  A    between atoms: C4_4  and  C9_9 
ROOT
HETATM    1  C1  UNL     1     -33.788  17.986  -3.214  1.00 20.00     0.034 C 
HETATM    2  C2  UNL     1     -33.517  17.997  -4.704  1.00 20.00     0.168 C 
HETATM    3  C3  UNL     1     -34.028  16.512  -2.955  1.00 20.00     0.031 C 
HETATM    4  C4  UNL     1     -34.812  16.121  -4.205  1.00 20.00     0.134 C 
HETATM    5  O10 UNL     1     -34.266  16.915  -5.275  1.00 20.00    -0.385 OA
ENDROOT
BRANCH   4   6
HETATM    6  C9  UNL     1     -34.703  14.651  -4.563  1.00 20.00    -0.025 C 
HETATM    7  C5  UNL     1     -34.564  14.486  -6.089  1.00 20.00     0.017 C 
HETATM    8  C6  UNL     1     -35.962  13.897  -4.094  1.00 20.00     0.017 C 
HETATM    9  C7  UNL     1     -33.468  14.029  -3.881  1.00 20.00     0.017 C 
ENDBRANCH   4   6
BRANCH   3  10
HETATM   10  C8  UNL     1     -34.756  16.232  -1.653  1.00 20.00     0.121 C 
HETATM   11 CL11 UNL     1     -34.171  17.314  -0.372  1.00 20.00    -0.130 Cl
ENDBRANCH   3  10
TORSDOF 2
ENDMDL
MODEL 8
REMARK VINA RESULT:      -4.0      1.569      3.361
REMARK  2 active torsions:
REMARK  status: ('A' for Active; 'I' for Inactive)
REMARK    1  A    between atoms: C3_3  and  C8_8 
REMARK    2  A    between atoms: C4_4  and  C9_9 
ROOT
HETATM    1  C1  UNL     1     -34.338  16.358  -7.173  1.00 20.00     0.034 C 
HETATM    2  C2  UNL     1     -34.771  14.909  -7.246  1.00 20.00     0.168 C 
HETATM    3  C3  UNL     1     -33.768  16.440  -5.772  1.00 20.00     0.031 C 
HETATM    4  C4  UNL     1     -34.751  15.561  -5.005  1.00 20.00     0.134 C 
HETATM    5  O10 UNL     1     -35.131  14.511  -5.914  1.00 20.00    -0.385 OA
ENDROOT
BRANCH   4   6
HETATM    6  C9  UNL     1     -34.172  14.948  -3.744  1.00 20.00    -0.025 C 
HETATM    7  C5  UNL     1     -32.638  15.097  -3.739  1.00 20.00     0.017 C 
HETATM    8  C6  UNL     1     -34.526  13.450  -3.672  1.00 20.00     0.017 C 
HETATM    9  C7  UNL     1     -34.744  15.655  -2.499  1.00 20.00     0.017 C 
ENDBRANCH   4   6
BRANCH   3  10
HETATM   10  C8  UNL     1     -33.657  17.858  -5.240  1.00 20.00     0.121 C 
HETATM   11 CL11 UNL     1     -35.257  18.471  -4.777  1.00 20.00    -0.130 Cl
ENDBRANCH   3  10
TORSDOF 2
ENDMDL
MODEL 9
REMARK VINA RESULT:      -4.0      1.576      3.351
REMARK  2 active torsions:
REMARK  status: ('A' for Active; 'I' for Inactive)
REMARK    1  A    between atoms: C3_3  and  C8_8 
REMARK    2  A    between atoms: C4_4  and  C9_9 
ROOT
HETATM    1  C1  UNL     1     -34.391  16.311  -7.208  1.00 20.00     0.034 C 
HETATM    2  C2  UNL     1     -34.836  14.865  -7.262  1.00 20.00     0.168 C 
HETATM    3  C3  UNL     1     -33.802  16.401  -5.815  1.00 20.00     0.031 C 
HETATM    4  C4  UNL     1     -34.783  15.536  -5.028  1.00 20.00     0.134 C 
HETATM    5  O10 UNL     1     -35.182  14.481  -5.923  1.00 20.00    -0.385 OA
ENDROOT
BRANCH   4   6
HETATM    6  C9  UNL     1     -34.193  14.930  -3.768  1.00 20.00    -0.025 C 
HETATM    7  C5  UNL     1     -34.757  15.643  -2.523  1.00 20.00     0.017 C 
HETATM    8  C6  UNL     1     -32.660  15.082  -3.776  1.00 20.00     0.017 C 
HETATM    9  C7  UNL     1     -34.545  13.432  -3.685  1.00 20.00     0.017 C 
ENDBRANCH   4   6
BRANCH   3  10
HETATM   10  C8  UNL     1     -33.674  17.823  -5.296  1.00 20.00     0.121 C 
HETATM   11 CL11 UNL     1     -35.259  18.441  -4.789  1.00 20.00    -0.130 Cl
ENDBRANCH   3  10
TORSDOF 2
ENDMDL
