MODEL 1
REMARK VINA RESULT:      -5.8      0.000      0.000
REMARK  2 active torsions:
REMARK  status: ('A' for Active; 'I' for Inactive)
REMARK    1  A    between atoms: C3_3  and  C7_7 
REMARK    2  A    between atoms: C4_4  and  C9_9 
ROOT
HETATM    1  C1  UNL     1     -35.126   4.577   5.990  1.00 20.00    -0.003 C 
HETATM    2  C2  UNL     1     -35.178   4.261   4.690  1.00 20.00     0.131 C 
HETATM    3  C5  UNL     1     -34.341   5.750   6.481  1.00 20.00     0.032 C 
HETATM    4  C6  UNL     1     -33.942   6.656   5.317  1.00 20.00     0.040 C 
HETATM    5  C7  UNL     1     -33.496   5.807   4.130  1.00 20.00     0.151 C 
HETATM    6  O10 UNL     1     -34.512   4.905   3.679  1.00 20.00    -0.354 OA
ENDROOT
BRANCH   5   7
HETATM    7  C3  UNL     1     -33.215   6.666   2.942  1.00 20.00     0.009 C 
HETATM    8  C4  UNL     1     -32.172   7.497   2.756  1.00 20.00    -0.071 C 
HETATM    9  C8  UNL     1     -31.116   7.640   3.822  1.00 20.00     0.044 C 
BRANCH   8  10
HETATM   10  C9  UNL     1     -31.980   8.364   1.543  1.00 20.00     0.148 C 
HETATM   11 CL11 UNL     1     -32.654   9.984   1.822  1.00 20.00    -0.126 Cl
ENDBRANCH   8  10
ENDBRANCH   5   7
TORSDOF 2
ENDMDL
MODEL 2
REMARK VINA RESULT:      -4.9     11.229     11.920
REMARK  2 active torsions:
REMARK  status: ('A' for Active; 'I' for Inactive)
REMARK    1  A    between atoms: C3_3  and  C7_7 
REMARK    2  A    between atoms: C4_4  and  C9_9 
ROOT
HETATM    1  C1  UNL     1     -35.140  13.447  -4.375  1.00 20.00    -0.003 C 
HETATM    2  C2  UNL     1     -33.850  13.724  -4.150  1.00 20.00     0.131 C 
HETATM    3  C5  UNL     1     -36.231  14.356  -3.908  1.00 20.00     0.032 C 
HETATM    4  C6  UNL     1     -35.660  15.709  -3.487  1.00 20.00     0.040 C 
HETATM    5  C7  UNL     1     -34.368  15.504  -2.702  1.00 20.00     0.151 C 
HETATM    6  O10 UNL     1     -33.369  14.800  -3.449  1.00 20.00    -0.354 OA
ENDROOT
BRANCH   5   7
HETATM    7  C3  UNL     1     -33.730  16.816  -2.384  1.00 20.00     0.009 C 
HETATM    8  C4  UNL     1     -33.865  17.545  -1.260  1.00 20.00    -0.071 C 
HETATM    9  C8  UNL     1     -34.747  17.056  -0.139  1.00 20.00     0.044 C 
BRANCH   8  10
HETATM   10  C9  UNL     1     -33.218  18.883  -1.029  1.00 20.00     0.148 C 
HETATM   11 CL11 UNL     1     -31.939  18.752   0.197  1.00 20.00    -0.126 Cl
ENDBRANCH   8  10
ENDBRANCH   5   7
TORSDOF 2
ENDMDL
MODEL 3
REMARK VINA RESULT:      -4.6      1.156      1.700
REMARK  2 active torsions:
REMARK  status: ('A' for Active; 'I' for Inactive)
REMARK    1  A    between atoms: C3_3  and  C7_7 
REMARK    2  A    between atoms: C4_4  and  C9_9 
ROOT
HETATM    1  C1  UNL     1     -34.887   4.514   6.106  1.00 20.00    -0.003 C 
HETATM    2  C2  UNL     1     -34.177   5.613   6.387  1.00 20.00     0.131 C 
HETATM    3  C5  UNL     1     -35.372   4.226   4.722  1.00 20.00     0.032 C 
HETATM    4  C6  UNL     1     -34.675   5.132   3.708  1.00 20.00     0.040 C 
HETATM    5  C7  UNL     1     -34.573   6.548   4.265  1.00 20.00     0.151 C 
HETATM    6  O10 UNL     1     -33.853   6.609   5.502  1.00 20.00    -0.354 OA
ENDROOT
BRANCH   5   7
HETATM    7  C3  UNL     1     -33.789   7.423   3.344  1.00 20.00     0.009 C 
HETATM    8  C4  UNL     1     -32.575   7.180   2.814  1.00 20.00    -0.071 C 
HETATM    9  C8  UNL     1     -31.848   5.900   3.137  1.00 20.00     0.044 C 
BRANCH   8  10
HETATM   10  C9  UNL     1     -31.829   8.133   1.922  1.00 20.00     0.148 C 
HETATM   11 CL11 UNL     1     -32.676   9.693   1.831  1.00 20.00    -0.126 Cl
ENDBRANCH   8  10
ENDBRANCH   5   7
TORSDOF 2
ENDMDL
MODEL 4
REMARK VINA RESULT:      -4.5     11.053     12.105
REMARK  2 active torsions:
REMARK  status: ('A' for Active; 'I' for Inactive)
REMARK    1  A    between atoms: C3_3  and  C7_7 
REMARK    2  A    between atoms: C4_4  and  C9_9 
ROOT
HETATM    1  C1  UNL     1     -33.834  18.466  -0.346  1.00 20.00    -0.003 C 
HETATM    2  C2  UNL     1     -34.483  17.347  -0.004  1.00 20.00     0.131 C 
HETATM    3  C5  UNL     1     -33.382  18.712  -1.750  1.00 20.00     0.032 C 
HETATM    4  C6  UNL     1     -34.044  17.725  -2.709  1.00 20.00     0.040 C 
HETATM    5  C7  UNL     1     -34.067  16.333  -2.085  1.00 20.00     0.151 C 
HETATM    6  O10 UNL     1     -34.767  16.295  -0.837  1.00 20.00    -0.354 OA
ENDROOT
BRANCH   5   7
HETATM    7  C3  UNL     1     -34.816  15.378  -2.954  1.00 20.00     0.009 C 
HETATM    8  C4  UNL     1     -34.328  14.305  -3.607  1.00 20.00    -0.071 C 
HETATM    9  C8  UNL     1     -32.865  13.956  -3.508  1.00 20.00     0.044 C 
BRANCH   8  10
HETATM   10  C9  UNL     1     -35.142  13.410  -4.500  1.00 20.00     0.148 C 
HETATM   11 CL11 UNL     1     -35.170  14.044  -6.159  1.00 20.00    -0.126 Cl
ENDBRANCH   8  10
ENDBRANCH   5   7
TORSDOF 2
ENDMDL
MODEL 5
REMARK VINA RESULT:      -4.5     11.020     11.869
REMARK  2 active torsions:
REMARK  status: ('A' for Active; 'I' for Inactive)
REMARK    1  A    between atoms: C3_3  and  C7_7 
REMARK    2  A    between atoms: C4_4  and  C9_9 
ROOT
HETATM    1  C1  UNL     1     -35.526  13.619  -4.748  1.00 20.00    -0.003 C 
HETATM    2  C2  UNL     1     -36.408  14.332  -4.036  1.00 20.00     0.131 C 
HETATM    3  C5  UNL     1     -34.057  13.700  -4.484  1.00 20.00     0.032 C 
HETATM    4  C6  UNL     1     -33.786  14.395  -3.151  1.00 20.00     0.040 C 
HETATM    5  C7  UNL     1     -34.717  15.593  -2.994  1.00 20.00     0.151 C 
HETATM    6  O10 UNL     1     -36.102  15.233  -3.049  1.00 20.00    -0.354 OA
ENDROOT
BRANCH   5   7
HETATM    7  C3  UNL     1     -34.554  16.216  -1.648  1.00 20.00     0.009 C 
HETATM    8  C4  UNL     1     -34.094  17.450  -1.363  1.00 20.00    -0.071 C 
HETATM    9  C8  UNL     1     -33.670  18.377  -2.473  1.00 20.00     0.044 C 
BRANCH   8  10
HETATM   10  C9  UNL     1     -33.920  17.993   0.029  1.00 20.00     0.148 C 
HETATM   11 CL11 UNL     1     -35.203  17.388   1.098  1.00 20.00    -0.126 Cl
ENDBRANCH   8  10
ENDBRANCH   5   7
TORSDOF 2
ENDMDL
MODEL 6
REMARK VINA RESULT:      -4.5     11.579     12.600
REMARK  2 active torsions:
REMARK  status: ('A' for Active; 'I' for Inactive)
REMARK    1  A    between atoms: C3_3  and  C7_7 
REMARK    2  A    between atoms: C4_4  and  C9_9 
ROOT
HETATM    1  C1  UNL     1     -33.378  16.215  -4.970  1.00 20.00    -0.003 C 
HETATM    2  C2  UNL     1     -33.707  17.381  -4.400  1.00 20.00     0.131 C 
HETATM    3  C5  UNL     1     -33.464  14.925  -4.220  1.00 20.00     0.032 C 
HETATM    4  C6  UNL     1     -34.260  15.104  -2.929  1.00 20.00     0.040 C 
HETATM    5  C7  UNL     1     -33.871  16.419  -2.260  1.00 20.00     0.151 C 
HETATM    6  O10 UNL     1     -34.098  17.558  -3.099  1.00 20.00    -0.354 OA
ENDROOT
BRANCH   5   7
HETATM    7  C3  UNL     1     -34.722  16.673  -1.060  1.00 20.00     0.009 C 
HETATM    8  C4  UNL     1     -34.460  17.496  -0.026  1.00 20.00    -0.071 C 
HETATM    9  C8  UNL     1     -33.181  18.292   0.006  1.00 20.00     0.044 C 
BRANCH   8  10
HETATM   10  C9  UNL     1     -35.352  17.668   1.172  1.00 20.00     0.148 C 
HETATM   11 CL11 UNL     1     -34.400  18.148   2.593  1.00 20.00    -0.126 Cl
ENDBRANCH   8  10
ENDBRANCH   5   7
TORSDOF 2
ENDMDL
MODEL 7
REMARK VINA RESULT:      -4.4     10.513     11.813
REMARK  2 active torsions:
REMARK  status: ('A' for Active; 'I' for Inactive)
REMARK    1  A    between atoms: C3_3  and  C7_7 
REMARK    2  A    between atoms: C4_4  and  C9_9 
ROOT
HETATM    1  C1  UNL     1     -41.083   6.850  -1.213  1.00 20.00    -0.003 C 
HETATM    2  C2  UNL     1     -40.864   5.707  -0.551  1.00 20.00     0.131 C 
HETATM    3  C5  UNL     1     -41.916   6.889  -2.454  1.00 20.00     0.032 C 
HETATM    4  C6  UNL     1     -42.699   5.588  -2.619  1.00 20.00     0.040 C 
HETATM    5  C7  UNL     1     -41.809   4.400  -2.263  1.00 20.00     0.151 C 
HETATM    6  O10 UNL     1     -41.306   4.464  -0.924  1.00 20.00    -0.354 OA
ENDROOT
BRANCH   5   7
HETATM    7  C3  UNL     1     -42.587   3.127  -2.301  1.00 20.00     0.009 C 
HETATM    8  C4  UNL     1     -42.316   2.019  -3.018  1.00 20.00    -0.071 C 
HETATM    9  C8  UNL     1     -41.106   1.972  -3.914  1.00 20.00     0.044 C 
BRANCH   8  10
HETATM   10  C9  UNL     1     -43.175   0.785  -3.034  1.00 20.00     0.148 C 
HETATM   11 CL11 UNL     1     -42.206  -0.641  -3.463  1.00 20.00    -0.126 Cl
ENDBRANCH   8  10
ENDBRANCH   5   7
TORSDOF 2
ENDMDL
MODEL 8
REMARK VINA RESULT:      -4.4     11.231     12.252
REMARK  2 active torsions:
REMARK  status: ('A' for Active; 'I' for Inactive)
REMARK    1  A    between atoms: C3_3  and  C7_7 
REMARK    2  A    between atoms: C4_4  and  C9_9 
ROOT
HETATM    1  C1  UNL     1     -34.800  13.824  -5.798  1.00 20.00    -0.003 C 
HETATM    2  C2  UNL     1     -34.848  13.284  -4.573  1.00 20.00     0.131 C 
HETATM    3  C5  UNL     1     -34.559  15.284  -6.002  1.00 20.00     0.032 C 
HETATM    4  C6  UNL     1     -34.064  15.935  -4.712  1.00 20.00     0.040 C 
HETATM    5  C7  UNL     1     -34.851  15.389  -3.523  1.00 20.00     0.151 C 
HETATM    6  O10 UNL     1     -34.742  13.968  -3.389  1.00 20.00    -0.354 OA
ENDROOT
BRANCH   5   7
HETATM    7  C3  UNL     1     -34.304  15.921  -2.240  1.00 20.00     0.009 C 
HETATM    8  C4  UNL     1     -34.754  16.971  -1.527  1.00 20.00    -0.071 C 
HETATM    9  C8  UNL     1     -35.944  17.762  -2.008  1.00 20.00     0.044 C 
BRANCH   8  10
HETATM   10  C9  UNL     1     -34.122  17.472  -0.258  1.00 20.00     0.148 C 
HETATM   11 CL11 UNL     1     -35.286  17.412   1.083  1.00 20.00    -0.126 Cl
ENDBRANCH   8  10
ENDBRANCH   5   7
TORSDOF 2
ENDMDL
MODEL 9
REMARK VINA RESULT:      -4.2     10.477     11.629
REMARK  2 active torsions:
REMARK  status: ('A' for Active; 'I' for Inactive)
REMARK    1  A    between atoms: C3_3  and  C7_7 
REMARK    2  A    between atoms: C4_4  and  C9_9 
ROOT
HETATM    1  C1  UNL     1     -42.918   0.513  -3.393  1.00 20.00    -0.003 C 
HETATM    2  C2  UNL     1     -43.417   1.143  -2.323  1.00 20.00     0.131 C 
HETATM    3  C5  UNL     1     -41.866   1.139  -4.251  1.00 20.00     0.032 C 
HETATM    4  C6  UNL     1     -41.257   2.355  -3.556  1.00 20.00     0.040 C 
HETATM    5  C7  UNL     1     -42.355   3.167  -2.878  1.00 20.00     0.151 C 
HETATM    6  O10 UNL     1     -43.092   2.410  -1.911  1.00 20.00    -0.354 OA
ENDROOT
BRANCH   5   7
HETATM    7  C3  UNL     1     -41.771   4.293  -2.091  1.00 20.00     0.009 C 
HETATM    8  C4  UNL     1     -42.048   5.607  -2.205  1.00 20.00    -0.071 C 
HETATM    9  C8  UNL     1     -43.053   6.085  -3.221  1.00 20.00     0.044 C 
BRANCH   8  10
HETATM   10  C9  UNL     1     -41.384   6.690  -1.401  1.00 20.00     0.148 C 
HETATM   11 CL11 UNL     1     -40.574   6.001   0.023  1.00 20.00    -0.126 Cl
ENDBRANCH   8  10
ENDBRANCH   5   7
TORSDOF 2
ENDMDL
