MODEL 1
REMARK VINA RESULT:      -4.1      0.000      0.000
REMARK  2 active torsions:
REMARK  status: ('A' for Active; 'I' for Inactive)
REMARK    1  A    between atoms: C4_4  and  C8_8 
REMARK    2  A    between atoms: C5_5  and  C9_9 
ROOT
HETATM    1  C1  UNL     1     -34.968  18.745  -3.254  1.00 20.00     0.027 C 
HETATM    2  C2  UNL     1     -33.709  18.203  -2.584  1.00 20.00     0.010 C 
HETATM    3  C3  UNL     1     -35.370  17.876  -4.438  1.00 20.00     0.168 C 
HETATM    4  C4  UNL     1     -33.824  16.700  -2.279  1.00 20.00     0.029 C 
HETATM    5  C5  UNL     1     -34.272  15.963  -3.559  1.00 20.00     0.130 C 
HETATM    6  O10 UNL     1     -35.503  16.509  -4.050  1.00 20.00    -0.385 OA
ENDROOT
BRANCH   5   7
HETATM    7  C9  UNL     1     -34.477  14.466  -3.357  1.00 20.00     0.007 C 
HETATM    8  C6  UNL     1     -35.661  13.967  -4.184  1.00 20.00     0.012 C 
HETATM    9  C7  UNL     1     -33.209  13.695  -3.720  1.00 20.00     0.012 C 
ENDBRANCH   5   7
BRANCH   4  10
HETATM   10  C8  UNL     1     -34.762  16.464  -1.089  1.00 20.00     0.121 C 
HETATM   11 CL11 UNL     1     -34.367  17.588   0.221  1.00 20.00    -0.130 Cl
ENDBRANCH   4  10
TORSDOF 2
ENDMDL
MODEL 2
REMARK VINA RESULT:      -4.0      2.359      3.733
REMARK  2 active torsions:
REMARK  status: ('A' for Active; 'I' for Inactive)
REMARK    1  A    between atoms: C4_4  and  C8_8 
REMARK    2  A    between atoms: C5_5  and  C9_9 
ROOT
HETATM    1  C1  UNL     1     -33.947  17.353  -5.834  1.00 20.00     0.027 C 
HETATM    2  C2  UNL     1     -34.782  16.293  -5.121  1.00 20.00     0.010 C 
HETATM    3  C3  UNL     1     -33.822  18.609  -4.983  1.00 20.00     0.168 C 
HETATM    4  C4  UNL     1     -34.301  16.059  -3.679  1.00 20.00     0.029 C 
HETATM    5  C5  UNL     1     -34.190  17.421  -2.961  1.00 20.00     0.130 C 
HETATM    6  O10 UNL     1     -33.321  18.302  -3.683  1.00 20.00    -0.385 OA
ENDROOT
BRANCH   5   7
HETATM    7  C9  UNL     1     -33.662  17.313  -1.535  1.00 20.00     0.007 C 
HETATM    8  C6  UNL     1     -33.231  18.684  -1.015  1.00 20.00     0.012 C 
HETATM    9  C7  UNL     1     -34.717  16.700  -0.615  1.00 20.00     0.012 C 
ENDBRANCH   5   7
BRANCH   4  10
HETATM   10  C8  UNL     1     -32.988  15.267  -3.674  1.00 20.00     0.121 C 
HETATM   11 CL11 UNL     1     -33.329  13.533  -3.779  1.00 20.00    -0.130 Cl
ENDBRANCH   4  10
TORSDOF 2
ENDMDL
MODEL 3
REMARK VINA RESULT:      -4.0      2.056      3.735
REMARK  2 active torsions:
REMARK  status: ('A' for Active; 'I' for Inactive)
REMARK    1  A    between atoms: C4_4  and  C8_8 
REMARK    2  A    between atoms: C5_5  and  C9_9 
ROOT
HETATM    1  C1  UNL     1     -36.783  15.496  -5.150  1.00 20.00     0.027 C 
HETATM    2  C2  UNL     1     -36.350  14.374  -4.209  1.00 20.00     0.010 C 
HETATM    3  C3  UNL     1     -36.946  16.807  -4.394  1.00 20.00     0.168 C 
HETATM    4  C4  UNL     1     -35.145  14.783  -3.347  1.00 20.00     0.029 C 
HETATM    5  C5  UNL     1     -35.446  16.141  -2.677  1.00 20.00     0.130 C 
HETATM    6  O10 UNL     1     -35.762  17.130  -3.665  1.00 20.00    -0.385 OA
ENDROOT
BRANCH   5   7
HETATM    7  C9  UNL     1     -34.289  16.674  -1.839  1.00 20.00     0.007 C 
HETATM    8  C6  UNL     1     -33.763  17.986  -2.419  1.00 20.00     0.012 C 
HETATM    9  C7  UNL     1     -34.721  16.867  -0.386  1.00 20.00     0.012 C 
ENDBRANCH   5   7
BRANCH   4  10
HETATM   10  C8  UNL     1     -33.863  14.797  -4.188  1.00 20.00     0.121 C 
HETATM   11 CL11 UNL     1     -32.680  13.673  -3.503  1.00 20.00    -0.130 Cl
ENDBRANCH   4  10
TORSDOF 2
ENDMDL
MODEL 4
REMARK VINA RESULT:      -4.0      2.439      4.280
REMARK  2 active torsions:
REMARK  status: ('A' for Active; 'I' for Inactive)
REMARK    1  A    between atoms: C4_4  and  C8_8 
REMARK    2  A    between atoms: C5_5  and  C9_9 
ROOT
HETATM    1  C1  UNL     1     -34.824  13.256  -4.738  1.00 20.00     0.027 C 
HETATM    2  C2  UNL     1     -35.551  14.407  -5.429  1.00 20.00     0.010 C 
HETATM    3  C3  UNL     1     -33.662  13.772  -3.902  1.00 20.00     0.168 C 
HETATM    4  C4  UNL     1     -35.906  15.533  -4.444  1.00 20.00     0.029 C 
HETATM    5  C5  UNL     1     -34.641  15.920  -3.650  1.00 20.00     0.130 C 
HETATM    6  O10 UNL     1     -34.094  14.775  -2.984  1.00 20.00    -0.385 OA
ENDROOT
BRANCH   5   7
HETATM    7  C9  UNL     1     -34.890  16.994  -2.597  1.00 20.00     0.007 C 
HETATM    8  C6  UNL     1     -34.573  16.464  -1.199  1.00 20.00     0.012 C 
HETATM    9  C7  UNL     1     -34.064  18.244  -2.895  1.00 20.00     0.012 C 
ENDBRANCH   5   7
BRANCH   4  10
HETATM   10  C8  UNL     1     -37.076  15.112  -3.547  1.00 20.00     0.121 C 
HETATM   11 CL11 UNL     1     -38.496  14.748  -4.539  1.00 20.00    -0.130 Cl
ENDBRANCH   4  10
TORSDOF 2
ENDMDL
MODEL 5
REMARK VINA RESULT:      -3.9      1.407      1.667
REMARK  2 active torsions:
REMARK  status: ('A' for Active; 'I' for Inactive)
REMARK    1  A    between atoms: C4_4  and  C8_8 
REMARK    2  A    between atoms: C5_5  and  C9_9 
ROOT
HETATM    1  C1  UNL     1     -34.760  18.085  -5.733  1.00 20.00     0.027 C 
HETATM    2  C2  UNL     1     -33.634  18.026  -4.705  1.00 20.00     0.010 C 
HETATM    3  C3  UNL     1     -34.927  16.744  -6.435  1.00 20.00     0.168 C 
HETATM    4  C4  UNL     1     -33.775  16.814  -3.770  1.00 20.00     0.029 C 
HETATM    5  C5  UNL     1     -33.972  15.543  -4.623  1.00 20.00     0.130 C 
HETATM    6  O10 UNL     1     -35.103  15.689  -5.490  1.00 20.00    -0.385 OA
ENDROOT
BRANCH   5   7
HETATM    7  C9  UNL     1     -34.183  14.281  -3.793  1.00 20.00     0.007 C 
HETATM    8  C6  UNL     1     -35.078  13.290  -4.536  1.00 20.00     0.012 C 
HETATM    9  C7  UNL     1     -32.843  13.635  -3.446  1.00 20.00     0.012 C 
ENDBRANCH   5   7
BRANCH   4  10
HETATM   10  C8  UNL     1     -34.907  17.044  -2.762  1.00 20.00     0.121 C 
HETATM   11 CL11 UNL     1     -34.366  16.602  -1.136  1.00 20.00    -0.130 Cl
ENDBRANCH   4  10
TORSDOF 2
ENDMDL
MODEL 6
REMARK VINA RESULT:      -3.9      3.125      4.655
REMARK  2 active torsions:
REMARK  status: ('A' for Active; 'I' for Inactive)
REMARK    1  A    between atoms: C4_4  and  C8_8 
REMARK    2  A    between atoms: C5_5  and  C9_9 
ROOT
HETATM    1  C1  UNL     1     -33.808  13.787  -3.586  1.00 20.00     0.027 C 
HETATM    2  C2  UNL     1     -34.470  13.453  -4.921  1.00 20.00     0.010 C 
HETATM    3  C3  UNL     1     -32.867  14.976  -3.730  1.00 20.00     0.168 C 
HETATM    4  C4  UNL     1     -35.087  14.697  -5.581  1.00 20.00     0.029 C 
HETATM    5  C5  UNL     1     -34.029  15.820  -5.621  1.00 20.00     0.130 C 
HETATM    6  O10 UNL     1     -33.539  16.097  -4.303  1.00 20.00    -0.385 OA
ENDROOT
BRANCH   5   7
HETATM    7  C9  UNL     1     -34.553  17.127  -6.205  1.00 20.00     0.007 C 
HETATM    8  C6  UNL     1     -33.676  18.301  -5.772  1.00 20.00     0.012 C 
HETATM    9  C7  UNL     1     -34.623  17.046  -7.729  1.00 20.00     0.012 C 
ENDBRANCH   5   7
BRANCH   4  10
HETATM   10  C8  UNL     1     -36.374  15.107  -4.855  1.00 20.00     0.121 C 
HETATM   11 CL11 UNL     1     -37.690  15.298  -6.022  1.00 20.00    -0.130 Cl
ENDBRANCH   4  10
TORSDOF 2
ENDMDL
MODEL 7
REMARK VINA RESULT:      -3.9      2.775      3.941
REMARK  2 active torsions:
REMARK  status: ('A' for Active; 'I' for Inactive)
REMARK    1  A    between atoms: C4_4  and  C8_8 
REMARK    2  A    between atoms: C5_5  and  C9_9 
ROOT
HETATM    1  C1  UNL     1     -36.108  15.057  -7.113  1.00 20.00     0.027 C 
HETATM    2  C2  UNL     1     -36.629  16.039  -6.066  1.00 20.00     0.010 C 
HETATM    3  C3  UNL     1     -34.601  14.877  -6.985  1.00 20.00     0.168 C 
HETATM    4  C4  UNL     1     -36.132  15.688  -4.654  1.00 20.00     0.029 C 
HETATM    5  C5  UNL     1     -34.600  15.501  -4.694  1.00 20.00     0.130 C 
HETATM    6  O10 UNL     1     -34.240  14.502  -5.656  1.00 20.00    -0.385 OA
ENDROOT
BRANCH   5   7
HETATM    7  C9  UNL     1     -34.003  15.091  -3.353  1.00 20.00     0.007 C 
HETATM    8  C6  UNL     1     -32.600  14.518  -3.539  1.00 20.00     0.012 C 
HETATM    9  C7  UNL     1     -33.973  16.277  -2.391  1.00 20.00     0.012 C 
ENDBRANCH   5   7
BRANCH   4  10
HETATM   10  C8  UNL     1     -36.874  14.459  -4.114  1.00 20.00     0.121 C 
HETATM   11 CL11 UNL     1     -38.551  14.885  -3.741  1.00 20.00    -0.130 Cl
ENDBRANCH   4  10
TORSDOF 2
ENDMDL
MODEL 8
REMARK VINA RESULT:      -3.9      1.444      1.531
REMARK  2 active torsions:
REMARK  status: ('A' for Active; 'I' for Inactive)
REMARK    1  A    between atoms: C4_4  and  C8_8 
REMARK    2  A    between atoms: C5_5  and  C9_9 
ROOT
HETATM    1  C1  UNL     1     -37.141  17.546  -2.665  1.00 20.00     0.027 C 
HETATM    2  C2  UNL     1     -35.687  17.990  -2.807  1.00 20.00     0.010 C 
HETATM    3  C3  UNL     1     -37.422  16.323  -3.528  1.00 20.00     0.168 C 
HETATM    4  C4  UNL     1     -34.709  16.819  -2.617  1.00 20.00     0.029 C 
HETATM    5  C5  UNL     1     -35.145  15.651  -3.526  1.00 20.00     0.130 C 
HETATM    6  O10 UNL     1     -36.498  15.272  -3.246  1.00 20.00    -0.385 OA
ENDROOT
BRANCH   5   7
HETATM    7  C9  UNL     1     -34.275  14.407  -3.375  1.00 20.00     0.007 C 
HETATM    8  C6  UNL     1     -34.793  13.275  -4.260  1.00 20.00     0.012 C 
HETATM    9  C7  UNL     1     -32.819  14.725  -3.710  1.00 20.00     0.012 C 
ENDBRANCH   5   7
BRANCH   4  10
HETATM   10  C8  UNL     1     -34.620  16.430  -1.136  1.00 20.00     0.121 C 
HETATM   11 CL11 UNL     1     -33.967  17.780  -0.197  1.00 20.00    -0.130 Cl
ENDBRANCH   4  10
TORSDOF 2
ENDMDL
MODEL 9
REMARK VINA RESULT:      -3.9      1.582      3.743
REMARK  2 active torsions:
REMARK  status: ('A' for Active; 'I' for Inactive)
REMARK    1  A    between atoms: C4_4  and  C8_8 
REMARK    2  A    between atoms: C5_5  and  C9_9 
ROOT
HETATM    1  C1  UNL     1     -35.035  13.532  -4.785  1.00 20.00     0.027 C 
HETATM    2  C2  UNL     1     -35.954  14.327  -3.861  1.00 20.00     0.010 C 
HETATM    3  C3  UNL     1     -34.621  14.367  -5.989  1.00 20.00     0.168 C 
HETATM    4  C4  UNL     1     -35.372  15.711  -3.527  1.00 20.00     0.029 C 
HETATM    5  C5  UNL     1     -34.969  16.415  -4.839  1.00 20.00     0.130 C 
HETATM    6  O10 UNL     1     -34.046  15.608  -5.581  1.00 20.00    -0.385 OA
ENDROOT
BRANCH   5   7
HETATM    7  C9  UNL     1     -34.322  17.779  -4.623  1.00 20.00     0.007 C 
HETATM    8  C6  UNL     1     -33.663  18.274  -5.909  1.00 20.00     0.012 C 
HETATM    9  C7  UNL     1     -35.353  18.791  -4.126  1.00 20.00     0.012 C 
ENDBRANCH   5   7
BRANCH   4  10
HETATM   10  C8  UNL     1     -34.211  15.579  -2.533  1.00 20.00     0.121 C 
HETATM   11 CL11 UNL     1     -34.630  16.373  -1.008  1.00 20.00    -0.130 Cl
ENDBRANCH   4  10
TORSDOF 2
ENDMDL
