MODEL 1
REMARK VINA RESULT:      -4.9      0.000      0.000
REMARK  1 active torsions:
REMARK  status: ('A' for Active; 'I' for Inactive)
REMARK    1  A    between atoms: C7_7  and  N12_12 
ROOT
HETATM    1  C1  UNL     1     -35.389  14.314  -5.672  1.00 20.00     0.134 C 
HETATM    2  C2  UNL     1     -34.693  13.605  -4.531  1.00 20.00     0.106 C 
HETATM    3  C4  UNL     1     -34.324  14.606  -3.454  1.00 20.00     0.243 C 
HETATM    4  C5  UNL     1     -36.328  15.458  -5.311  1.00 20.00     0.082 C 
HETATM    5  C8  UNL     1     -36.755  15.328  -3.839  1.00 20.00     0.195 C 
HETATM    6  C9  UNL     1     -35.695  16.787  -5.711  1.00 20.00     0.020 C 
HETATM    7  C11 UNL     1     -37.807  16.342  -3.401  1.00 20.00     0.041 C 
HETATM    8  N12 UNL     1     -35.563  15.282  -2.891  1.00 20.00    -0.061 N 
HETATM    9  O13 UNL     1     -35.217  13.967  -6.840  1.00 20.00    -0.297 OA
HETATM   10  H33 UNL     1     -35.854  14.680  -2.088  1.00 20.00     0.280 HD
ENDROOT
BRANCH   8  11
HETATM   11  C7  UNL     1     -35.180  16.591  -2.228  1.00 20.00     0.193 A 
HETATM   12  C3  UNL     1     -33.724  16.815  -1.919  1.00 20.00     0.040 A 
HETATM   13  C6  UNL     1     -34.695  16.533  -0.803  1.00 20.00     0.014 A 
HETATM   14  C10 UNL     1     -35.067  17.611   0.155  1.00 20.00     0.012 C 
ENDBRANCH   8  11
TORSDOF 1
ENDMDL
MODEL 2
REMARK VINA RESULT:      -4.8      1.537      2.503
REMARK  1 active torsions:
REMARK  status: ('A' for Active; 'I' for Inactive)
REMARK    1  A    between atoms: C7_7  and  N12_12 
ROOT
HETATM    1  C1  UNL     1     -35.010  13.731  -4.584  1.00 20.00     0.134 C 
HETATM    2  C2  UNL     1     -36.341  14.263  -4.102  1.00 20.00     0.106 C 
HETATM    3  C4  UNL     1     -36.117  15.347  -3.067  1.00 20.00     0.243 C 
HETATM    4  C5  UNL     1     -33.873  14.733  -4.733  1.00 20.00     0.082 C 
HETATM    5  C8  UNL     1     -34.451  16.155  -4.842  1.00 20.00     0.195 C 
HETATM    6  C9  UNL     1     -32.844  14.510  -3.629  1.00 20.00     0.020 C 
HETATM    7  C11 UNL     1     -33.411  17.232  -5.135  1.00 20.00     0.041 C 
HETATM    8  N12 UNL     1     -35.339  16.511  -3.657  1.00 20.00    -0.061 N 
HETATM    9  O13 UNL     1     -34.860  12.541  -4.860  1.00 20.00    -0.297 OA
HETATM   10  H33 UNL     1     -36.071  17.160  -4.027  1.00 20.00     0.280 HD
ENDROOT
BRANCH   8  11
HETATM   11  C7  UNL     1     -34.689  17.313  -2.546  1.00 20.00     0.193 A 
HETATM   12  C3  UNL     1     -34.728  16.737  -1.156  1.00 20.00     0.040 A 
HETATM   13  C6  UNL     1     -35.592  17.920  -1.505  1.00 20.00     0.014 A 
HETATM   14  C10 UNL     1     -35.284  19.263  -0.941  1.00 20.00     0.012 C 
ENDBRANCH   8  11
TORSDOF 1
ENDMDL
MODEL 3
REMARK VINA RESULT:      -4.7      1.301      2.662
REMARK  1 active torsions:
REMARK  status: ('A' for Active; 'I' for Inactive)
REMARK    1  A    between atoms: C7_7  and  N12_12 
ROOT
HETATM    1  C1  UNL     1     -35.225  14.839  -6.636  1.00 20.00     0.134 C 
HETATM    2  C2  UNL     1     -35.704  16.272  -6.571  1.00 20.00     0.106 C 
HETATM    3  C4  UNL     1     -36.073  16.626  -5.144  1.00 20.00     0.243 C 
HETATM    4  C5  UNL     1     -34.398  14.328  -5.463  1.00 20.00     0.082 C 
HETATM    5  C8  UNL     1     -33.803  15.520  -4.695  1.00 20.00     0.195 C 
HETATM    6  C9  UNL     1     -35.226  13.346  -4.641  1.00 20.00     0.020 C 
HETATM    7  C11 UNL     1     -32.840  15.127  -3.579  1.00 20.00     0.041 C 
HETATM    8  N12 UNL     1     -34.872  16.497  -4.223  1.00 20.00    -0.061 N 
HETATM    9  O13 UNL     1     -35.479  14.124  -7.605  1.00 20.00    -0.297 OA
HETATM   10  H33 UNL     1     -34.426  17.442  -4.232  1.00 20.00     0.280 HD
ENDROOT
BRANCH   8  11
HETATM   11  C7  UNL     1     -35.337  16.343  -2.787  1.00 20.00     0.193 A 
HETATM   12  C3  UNL     1     -36.339  17.338  -2.269  1.00 20.00     0.040 A 
HETATM   13  C6  UNL     1     -34.909  17.397  -1.800  1.00 20.00     0.014 A 
HETATM   14  C10 UNL     1     -34.563  17.015  -0.403  1.00 20.00     0.012 C 
ENDBRANCH   8  11
TORSDOF 1
ENDMDL
MODEL 4
REMARK VINA RESULT:      -4.6      2.073      3.945
REMARK  1 active torsions:
REMARK  status: ('A' for Active; 'I' for Inactive)
REMARK    1  A    between atoms: C7_7  and  N12_12 
ROOT
HETATM    1  C1  UNL     1     -33.640  13.831  -4.039  1.00 20.00     0.134 C 
HETATM    2  C2  UNL     1     -34.808  13.375  -4.884  1.00 20.00     0.106 C 
HETATM    3  C4  UNL     1     -35.916  14.409  -4.830  1.00 20.00     0.243 C 
HETATM    4  C5  UNL     1     -33.322  15.321  -4.036  1.00 20.00     0.082 C 
HETATM    5  C8  UNL     1     -33.939  15.980  -5.282  1.00 20.00     0.195 C 
HETATM    6  C9  UNL     1     -33.713  15.926  -2.692  1.00 20.00     0.020 C 
HETATM    7  C11 UNL     1     -33.569  17.449  -5.459  1.00 20.00     0.041 C 
HETATM    8  N12 UNL     1     -35.442  15.744  -5.377  1.00 20.00    -0.061 N 
HETATM    9  O13 UNL     1     -32.966  13.027  -3.395  1.00 20.00    -0.297 OA
HETATM   10  H33 UNL     1     -35.665  15.709  -6.398  1.00 20.00     0.280 HD
ENDROOT
BRANCH   8  11
HETATM   11  C7  UNL     1     -36.332  16.858  -4.861  1.00 20.00     0.193 A 
HETATM   12  C3  UNL     1     -37.810  16.589  -4.784  1.00 20.00     0.040 A 
HETATM   13  C6  UNL     1     -37.268  17.512  -5.843  1.00 20.00     0.014 A 
HETATM   14  C10 UNL     1     -37.528  18.976  -5.764  1.00 20.00     0.012 C 
ENDBRANCH   8  11
TORSDOF 1
ENDMDL
MODEL 5
REMARK VINA RESULT:      -4.5      2.551      4.662
REMARK  1 active torsions:
REMARK  status: ('A' for Active; 'I' for Inactive)
REMARK    1  A    between atoms: C7_7  and  N12_12 
ROOT
HETATM    1  C1  UNL     1     -33.284  15.278  -3.988  1.00 20.00     0.134 C 
HETATM    2  C2  UNL     1     -33.334  16.339  -5.064  1.00 20.00     0.106 C 
HETATM    3  C4  UNL     1     -34.343  15.947  -6.125  1.00 20.00     0.243 C 
HETATM    4  C5  UNL     1     -34.599  14.607  -3.610  1.00 20.00     0.082 C 
HETATM    5  C8  UNL     1     -35.774  15.500  -4.045  1.00 20.00     0.195 C 
HETATM    6  C9  UNL     1     -34.614  13.175  -4.133  1.00 20.00     0.020 C 
HETATM    7  C11 UNL     1     -37.142  14.996  -3.594  1.00 20.00     0.041 C 
HETATM    8  N12 UNL     1     -35.736  15.823  -5.533  1.00 20.00    -0.061 N 
HETATM    9  O13 UNL     1     -32.227  14.982  -3.430  1.00 20.00    -0.297 OA
HETATM   10  H33 UNL     1     -36.155  16.776  -5.633  1.00 20.00     0.280 HD
ENDROOT
BRANCH   8  11
HETATM   11  C7  UNL     1     -36.603  14.962  -6.431  1.00 20.00     0.193 A 
HETATM   12  C3  UNL     1     -36.409  15.090  -7.918  1.00 20.00     0.040 A 
HETATM   13  C6  UNL     1     -37.643  15.658  -7.269  1.00 20.00     0.014 A 
HETATM   14  C10 UNL     1     -38.969  15.019  -7.495  1.00 20.00     0.012 C 
ENDBRANCH   8  11
TORSDOF 1
ENDMDL
MODEL 6
REMARK VINA RESULT:      -4.5      2.300      3.492
REMARK  1 active torsions:
REMARK  status: ('A' for Active; 'I' for Inactive)
REMARK    1  A    between atoms: C7_7  and  N12_12 
ROOT
HETATM    1  C1  UNL     1     -33.554  13.946  -3.729  1.00 20.00     0.134 C 
HETATM    2  C2  UNL     1     -33.069  15.337  -3.388  1.00 20.00     0.106 C 
HETATM    3  C4  UNL     1     -33.752  16.352  -4.284  1.00 20.00     0.243 C 
HETATM    4  C5  UNL     1     -35.021  13.794  -4.110  1.00 20.00     0.082 C 
HETATM    5  C8  UNL     1     -35.816  15.001  -3.584  1.00 20.00     0.195 C 
HETATM    6  C9  UNL     1     -35.137  13.512  -5.604  1.00 20.00     0.020 C 
HETATM    7  C11 UNL     1     -37.325  14.892  -3.786  1.00 20.00     0.041 C 
HETATM    8  N12 UNL     1     -35.258  16.326  -4.088  1.00 20.00    -0.061 N 
HETATM    9  O13 UNL     1     -32.797  12.976  -3.682  1.00 20.00    -0.297 OA
HETATM   10  H33 UNL     1     -35.441  17.024  -3.332  1.00 20.00     0.280 HD
ENDROOT
BRANCH   8  11
HETATM   11  C7  UNL     1     -35.946  16.930  -5.297  1.00 20.00     0.193 A 
HETATM   12  C3  UNL     1     -35.306  18.134  -5.933  1.00 20.00     0.040 A 
HETATM   13  C6  UNL     1     -36.573  18.289  -5.134  1.00 20.00     0.014 A 
HETATM   14  C10 UNL     1     -37.856  18.606  -5.820  1.00 20.00     0.012 C 
ENDBRANCH   8  11
TORSDOF 1
ENDMDL
MODEL 7
REMARK VINA RESULT:      -4.3      2.766      4.828
REMARK  1 active torsions:
REMARK  status: ('A' for Active; 'I' for Inactive)
REMARK    1  A    between atoms: C7_7  and  N12_12 
ROOT
HETATM    1  C1  UNL     1     -34.879  18.060  -1.387  1.00 20.00     0.134 C 
HETATM    2  C2  UNL     1     -34.418  16.638  -1.163  1.00 20.00     0.106 C 
HETATM    3  C4  UNL     1     -34.858  15.766  -2.322  1.00 20.00     0.243 C 
HETATM    4  C5  UNL     1     -34.849  18.585  -2.817  1.00 20.00     0.082 C 
HETATM    5  C8  UNL     1     -33.887  17.728  -3.658  1.00 20.00     0.195 C 
HETATM    6  C9  UNL     1     -36.273  18.711  -3.347  1.00 20.00     0.020 C 
HETATM    7  C11 UNL     1     -33.668  18.245  -5.077  1.00 20.00     0.041 C 
HETATM    8  N12 UNL     1     -34.251  16.249  -3.628  1.00 20.00    -0.061 N 
HETATM    9  O13 UNL     1     -35.246  18.769  -0.449  1.00 20.00    -0.297 OA
HETATM   10  H33 UNL     1     -33.349  15.727  -3.713  1.00 20.00     0.280 HD
ENDROOT
BRANCH   8  11
HETATM   11  C7  UNL     1     -35.066  15.733  -4.798  1.00 20.00     0.193 A 
HETATM   12  C3  UNL     1     -35.508  14.295  -4.759  1.00 20.00     0.040 A 
HETATM   13  C6  UNL     1     -34.417  14.722  -5.706  1.00 20.00     0.014 A 
HETATM   14  C10 UNL     1     -34.674  14.763  -7.172  1.00 20.00     0.012 C 
ENDBRANCH   8  11
TORSDOF 1
ENDMDL
MODEL 8
REMARK VINA RESULT:      -4.3      1.513      2.611
REMARK  1 active torsions:
REMARK  status: ('A' for Active; 'I' for Inactive)
REMARK    1  A    between atoms: C7_7  and  N12_12 
ROOT
HETATM    1  C1  UNL     1     -34.360  16.279  -6.541  1.00 20.00     0.134 C 
HETATM    2  C2  UNL     1     -33.644  17.429  -5.870  1.00 20.00     0.106 C 
HETATM    3  C4  UNL     1     -34.147  17.587  -4.448  1.00 20.00     0.243 C 
HETATM    4  C5  UNL     1     -34.679  15.061  -5.683  1.00 20.00     0.082 C 
HETATM    5  C8  UNL     1     -33.764  15.051  -4.446  1.00 20.00     0.195 C 
HETATM    6  C9  UNL     1     -36.178  15.003  -5.411  1.00 20.00     0.020 C 
HETATM    7  C11 UNL     1     -33.897  13.801  -3.581  1.00 20.00     0.041 C 
HETATM    8  N12 UNL     1     -33.877  16.334  -3.633  1.00 20.00    -0.061 N 
HETATM    9  O13 UNL     1     -34.655  16.320  -7.736  1.00 20.00    -0.297 OA
HETATM   10  H33 UNL     1     -32.934  16.491  -3.207  1.00 20.00     0.280 HD
ENDROOT
BRANCH   8  11
HETATM   11  C7  UNL     1     -34.801  16.291  -2.432  1.00 20.00     0.193 A 
HETATM   12  C3  UNL     1     -35.837  17.376  -2.311  1.00 20.00     0.040 A 
HETATM   13  C6  UNL     1     -34.644  17.371  -1.393  1.00 20.00     0.014 A 
HETATM   14  C10 UNL     1     -34.812  17.047   0.050  1.00 20.00     0.012 C 
ENDBRANCH   8  11
TORSDOF 1
ENDMDL
MODEL 9
REMARK VINA RESULT:      -4.3      1.852      3.708
REMARK  1 active torsions:
REMARK  status: ('A' for Active; 'I' for Inactive)
REMARK    1  A    between atoms: C7_7  and  N12_12 
ROOT
HETATM    1  C1  UNL     1     -33.367  14.741  -3.815  1.00 20.00     0.134 C 
HETATM    2  C2  UNL     1     -34.233  13.831  -4.657  1.00 20.00     0.106 C 
HETATM    3  C4  UNL     1     -35.692  14.032  -4.296  1.00 20.00     0.243 C 
HETATM    4  C5  UNL     1     -33.914  16.129  -3.502  1.00 20.00     0.082 C 
HETATM    5  C8  UNL     1     -35.006  16.493  -4.523  1.00 20.00     0.195 C 
HETATM    6  C9  UNL     1     -34.316  16.203  -2.033  1.00 20.00     0.020 C 
HETATM    7  C11 UNL     1     -35.531  17.919  -4.394  1.00 20.00     0.041 C 
HETATM    8  N12 UNL     1     -36.127  15.462  -4.563  1.00 20.00    -0.061 N 
HETATM    9  O13 UNL     1     -32.260  14.380  -3.415  1.00 20.00    -0.297 OA
HETATM   10  H33 UNL     1     -36.479  15.455  -5.548  1.00 20.00     0.280 HD
ENDROOT
BRANCH   8  11
HETATM   11  C7  UNL     1     -37.366  15.785  -3.750  1.00 20.00     0.193 A 
HETATM   12  C3  UNL     1     -38.492  14.786  -3.771  1.00 20.00     0.040 A 
HETATM   13  C6  UNL     1     -38.633  16.093  -4.505  1.00 20.00     0.014 A 
HETATM   14  C10 UNL     1     -39.566  17.138  -4.001  1.00 20.00     0.012 C 
ENDBRANCH   8  11
TORSDOF 1
ENDMDL
