MODEL 1
REMARK VINA RESULT:      -4.9      0.000      0.000
REMARK  4 active torsions:
REMARK  status: ('A' for Active; 'I' for Inactive)
REMARK    1  A    between atoms: C1_1  and  C6_6 
REMARK    2  A    between atoms: C4_4  and  C6_6 
REMARK    3  A    between atoms: C5_5  and  C6_6 
REMARK    4  A    between atoms: C5_5  and  C7_7 
ROOT
HETATM    1  C6  UNL     1     -33.866   5.666   4.980  1.00 20.00     0.059 C 
ENDROOT
BRANCH   1   2
HETATM    2  C1  UNL     1     -35.047   4.841   4.471  1.00 20.00     0.127 C 
HETATM    3  C2  UNL     1     -36.007   5.534   3.539  1.00 20.00     0.091 C 
HETATM    4  O8  UNL     1     -35.213   3.666   4.798  1.00 20.00    -0.298 OA
ENDBRANCH   1   2
BRANCH   1   5
HETATM    5  C4  UNL     1     -34.137   6.123   6.424  1.00 20.00     0.008 C 
HETATM    6  C3  UNL     1     -33.374   7.388   6.797  1.00 20.00     0.006 C 
ENDBRANCH   1   5
BRANCH   1   7
HETATM    7  C5  UNL     1     -33.631   6.885   4.068  1.00 20.00     0.083 C 
BRANCH   7   8
HETATM    8  C7  UNL     1     -32.344   6.802   3.261  1.00 20.00     0.353 C 
HETATM    9  F9  UNL     1     -31.844   5.545   3.279  1.00 20.00    -0.214 F 
HETATM   10  F10 UNL     1     -31.402   7.616   3.799  1.00 20.00    -0.214 F 
ENDBRANCH   7   8
ENDBRANCH   1   7
TORSDOF 4
ENDMDL
MODEL 2
REMARK VINA RESULT:      -4.7      1.739      2.766
REMARK  4 active torsions:
REMARK  status: ('A' for Active; 'I' for Inactive)
REMARK    1  A    between atoms: C1_1  and  C6_6 
REMARK    2  A    between atoms: C4_4  and  C6_6 
REMARK    3  A    between atoms: C5_5  and  C6_6 
REMARK    4  A    between atoms: C5_5  and  C7_7 
ROOT
HETATM    1  C6  UNL     1     -34.070   6.416   4.290  1.00 20.00     0.059 C 
ENDROOT
BRANCH   1   2
HETATM    2  C1  UNL     1     -34.105   6.096   5.784  1.00 20.00     0.127 C 
HETATM    3  C2  UNL     1     -34.751   4.796   6.185  1.00 20.00     0.091 C 
HETATM    4  O8  UNL     1     -33.627   6.857   6.626  1.00 20.00    -0.298 OA
ENDBRANCH   1   2
BRANCH   1   5
HETATM    5  C4  UNL     1     -34.994   5.447   3.531  1.00 20.00     0.008 C 
HETATM    6  C3  UNL     1     -34.409   4.991   2.201  1.00 20.00     0.006 C 
ENDBRANCH   1   5
BRANCH   1   7
HETATM    7  C5  UNL     1     -32.631   6.312   3.753  1.00 20.00     0.083 C 
BRANCH   7   8
HETATM    8  C7  UNL     1     -32.056   7.643   3.291  1.00 20.00     0.353 C 
HETATM    9  F9  UNL     1     -31.779   7.613   1.966  1.00 20.00    -0.214 F 
HETATM   10  F10 UNL     1     -30.892   7.899   3.938  1.00 20.00    -0.214 F 
ENDBRANCH   7   8
ENDBRANCH   1   7
TORSDOF 4
ENDMDL
MODEL 3
REMARK VINA RESULT:      -4.4      2.649      3.460
REMARK  4 active torsions:
REMARK  status: ('A' for Active; 'I' for Inactive)
REMARK    1  A    between atoms: C1_1  and  C6_6 
REMARK    2  A    between atoms: C4_4  and  C6_6 
REMARK    3  A    between atoms: C5_5  and  C6_6 
REMARK    4  A    between atoms: C5_5  and  C7_7 
ROOT
HETATM    1  C6  UNL     1     -34.171   6.391   4.551  1.00 20.00     0.059 C 
ENDROOT
BRANCH   1   2
HETATM    2  C1  UNL     1     -33.289   6.228   3.314  1.00 20.00     0.127 C 
HETATM    3  C2  UNL     1     -32.032   7.057   3.263  1.00 20.00     0.091 C 
HETATM    4  O8  UNL     1     -33.581   5.456   2.401  1.00 20.00    -0.298 OA
ENDBRANCH   1   2
BRANCH   1   5
HETATM    5  C4  UNL     1     -33.294   6.409   5.815  1.00 20.00     0.008 C 
HETATM    6  C3  UNL     1     -33.764   7.425   6.847  1.00 20.00     0.006 C 
ENDBRANCH   1   5
BRANCH   1   7
HETATM    7  C5  UNL     1     -35.200   5.247   4.630  1.00 20.00     0.083 C 
BRANCH   7   8
HETATM    8  C7  UNL     1     -34.804   4.138   5.592  1.00 20.00     0.353 C 
HETATM    9  F9  UNL     1     -34.811   2.936   4.968  1.00 20.00    -0.214 F 
HETATM   10  F10 UNL     1     -35.692   4.065   6.613  1.00 20.00    -0.214 F 
ENDBRANCH   7   8
ENDBRANCH   1   7
TORSDOF 4
ENDMDL
MODEL 4
REMARK VINA RESULT:      -4.3     12.276     12.706
REMARK  4 active torsions:
REMARK  status: ('A' for Active; 'I' for Inactive)
REMARK    1  A    between atoms: C1_1  and  C6_6 
REMARK    2  A    between atoms: C4_4  and  C6_6 
REMARK    3  A    between atoms: C5_5  and  C6_6 
REMARK    4  A    between atoms: C5_5  and  C7_7 
ROOT
HETATM    1  C6  UNL     1     -34.310  14.807  -3.149  1.00 20.00     0.059 C 
ENDROOT
BRANCH   1   2
HETATM    2  C1  UNL     1     -35.230  13.877  -3.937  1.00 20.00     0.127 C 
HETATM    3  C2  UNL     1     -36.642  14.350  -4.163  1.00 20.00     0.091 C 
HETATM    4  O8  UNL     1     -34.844  12.793  -4.375  1.00 20.00    -0.298 OA
ENDBRANCH   1   2
BRANCH   1   5
HETATM    5  C4  UNL     1     -35.135  15.947  -2.525  1.00 20.00     0.008 C 
HETATM    6  C3  UNL     1     -34.540  16.464  -1.222  1.00 20.00     0.006 C 
ENDBRANCH   1   5
BRANCH   1   7
HETATM    7  C5  UNL     1     -33.214  15.381  -4.066  1.00 20.00     0.083 C 
BRANCH   7   8
HETATM    8  C7  UNL     1     -33.747  16.311  -5.145  1.00 20.00     0.353 C 
HETATM    9  F9  UNL     1     -33.665  15.730  -6.365  1.00 20.00    -0.214 F 
HETATM   10  F10 UNL     1     -33.007  17.447  -5.191  1.00 20.00    -0.214 F 
ENDBRANCH   7   8
ENDBRANCH   1   7
TORSDOF 4
ENDMDL
MODEL 5
REMARK VINA RESULT:      -4.3      2.333      3.347
REMARK  4 active torsions:
REMARK  status: ('A' for Active; 'I' for Inactive)
REMARK    1  A    between atoms: C1_1  and  C6_6 
REMARK    2  A    between atoms: C4_4  and  C6_6 
REMARK    3  A    between atoms: C5_5  and  C6_6 
REMARK    4  A    between atoms: C5_5  and  C7_7 
ROOT
HETATM    1  C6  UNL     1     -33.549   6.496   3.930  1.00 20.00     0.059 C 
ENDROOT
BRANCH   1   2
HETATM    2  C1  UNL     1     -34.465   5.422   3.345  1.00 20.00     0.127 C 
HETATM    3  C2  UNL     1     -35.488   4.823   4.274  1.00 20.00     0.091 C 
HETATM    4  O8  UNL     1     -34.380   5.059   2.171  1.00 20.00    -0.298 OA
ENDBRANCH   1   2
BRANCH   1   5
HETATM    5  C4  UNL     1     -32.271   6.607   3.079  1.00 20.00     0.008 C 
HETATM    6  C3  UNL     1     -32.152   7.946   2.363  1.00 20.00     0.006 C 
ENDBRANCH   1   5
BRANCH   1   7
HETATM    7  C5  UNL     1     -33.191   6.158   5.389  1.00 20.00     0.083 C 
BRANCH   7   8
HETATM    8  C7  UNL     1     -33.930   7.010   6.410  1.00 20.00     0.353 C 
HETATM    9  F9  UNL     1     -33.062   7.580   7.279  1.00 20.00    -0.214 F 
HETATM   10  F10 UNL     1     -34.777   6.241   7.136  1.00 20.00    -0.214 F 
ENDBRANCH   7   8
ENDBRANCH   1   7
TORSDOF 4
ENDMDL
MODEL 6
REMARK VINA RESULT:      -4.2      2.894      4.035
REMARK  4 active torsions:
REMARK  status: ('A' for Active; 'I' for Inactive)
REMARK    1  A    between atoms: C1_1  and  C6_6 
REMARK    2  A    between atoms: C4_4  and  C6_6 
REMARK    3  A    between atoms: C5_5  and  C6_6 
REMARK    4  A    between atoms: C5_5  and  C7_7 
ROOT
HETATM    1  C6  UNL     1     -32.881   6.308   4.032  1.00 20.00     0.059 C 
ENDROOT
BRANCH   1   2
HETATM    2  C1  UNL     1     -31.923   7.368   3.490  1.00 20.00     0.127 C 
HETATM    3  C2  UNL     1     -32.189   7.873   2.096  1.00 20.00     0.091 C 
HETATM    4  O8  UNL     1     -30.980   7.797   4.154  1.00 20.00    -0.298 OA
ENDBRANCH   1   2
BRANCH   1   5
HETATM    5  C4  UNL     1     -33.581   5.594   2.863  1.00 20.00     0.008 C 
HETATM    6  C3  UNL     1     -35.057   5.331   3.128  1.00 20.00     0.006 C 
ENDBRANCH   1   5
BRANCH   1   7
HETATM    7  C5  UNL     1     -33.922   6.954   4.965  1.00 20.00     0.083 C 
BRANCH   7   8
HETATM    8  C7  UNL     1     -33.825   6.480   6.407  1.00 20.00     0.353 C 
HETATM    9  F9  UNL     1     -34.897   5.723   6.739  1.00 20.00    -0.214 F 
HETATM   10  F10 UNL     1     -33.810   7.543   7.249  1.00 20.00    -0.214 F 
ENDBRANCH   7   8
ENDBRANCH   1   7
TORSDOF 4
ENDMDL
MODEL 7
REMARK VINA RESULT:      -4.1     12.153     13.003
REMARK  4 active torsions:
REMARK  status: ('A' for Active; 'I' for Inactive)
REMARK    1  A    between atoms: C1_1  and  C6_6 
REMARK    2  A    between atoms: C4_4  and  C6_6 
REMARK    3  A    between atoms: C5_5  and  C6_6 
REMARK    4  A    between atoms: C5_5  and  C7_7 
ROOT
HETATM    1  C6  UNL     1     -34.444  15.633  -3.517  1.00 20.00     0.059 C 
ENDROOT
BRANCH   1   2
HETATM    2  C1  UNL     1     -34.026  16.337  -4.807  1.00 20.00     0.127 C 
HETATM    3  C2  UNL     1     -35.133  16.797  -5.719  1.00 20.00     0.091 C 
HETATM    4  O8  UNL     1     -32.843  16.526  -5.094  1.00 20.00    -0.298 OA
ENDBRANCH   1   2
BRANCH   1   5
HETATM    5  C4  UNL     1     -33.758  16.302  -2.314  1.00 20.00     0.008 C 
HETATM    6  C3  UNL     1     -34.693  16.489  -1.127  1.00 20.00     0.006 C 
ENDBRANCH   1   5
BRANCH   1   7
HETATM    7  C5  UNL     1     -34.076  14.138  -3.579  1.00 20.00     0.083 C 
BRANCH   7   8
HETATM    8  C7  UNL     1     -35.129  13.280  -4.263  1.00 20.00     0.353 C 
HETATM    9  F9  UNL     1     -34.921  13.239  -5.601  1.00 20.00    -0.214 F 
HETATM   10  F10 UNL     1     -36.363  13.806  -4.065  1.00 20.00    -0.214 F 
ENDBRANCH   7   8
ENDBRANCH   1   7
TORSDOF 4
ENDMDL
MODEL 8
REMARK VINA RESULT:      -4.1     11.851     12.481
REMARK  4 active torsions:
REMARK  status: ('A' for Active; 'I' for Inactive)
REMARK    1  A    between atoms: C1_1  and  C6_6 
REMARK    2  A    between atoms: C4_4  and  C6_6 
REMARK    3  A    between atoms: C5_5  and  C6_6 
REMARK    4  A    between atoms: C5_5  and  C7_7 
ROOT
HETATM    1  C6  UNL     1     -35.221  14.556  -3.447  1.00 20.00     0.059 C 
ENDROOT
BRANCH   1   2
HETATM    2  C1  UNL     1     -34.834  13.788  -4.711  1.00 20.00     0.127 C 
HETATM    3  C2  UNL     1     -34.486  14.610  -5.924  1.00 20.00     0.091 C 
HETATM    4  O8  UNL     1     -34.803  12.558  -4.744  1.00 20.00    -0.298 OA
ENDBRANCH   1   2
BRANCH   1   5
HETATM    5  C4  UNL     1     -36.362  15.537  -3.765  1.00 20.00     0.008 C 
HETATM    6  C3  UNL     1     -37.730  14.867  -3.792  1.00 20.00     0.006 C 
ENDBRANCH   1   5
BRANCH   1   7
HETATM    7  C5  UNL     1     -34.003  15.315  -2.888  1.00 20.00     0.083 C 
BRANCH   7   8
HETATM    8  C7  UNL     1     -34.374  16.472  -1.973  1.00 20.00     0.353 C 
HETATM    9  F9  UNL     1     -33.310  17.283  -1.768  1.00 20.00    -0.214 F 
HETATM   10  F10 UNL     1     -34.761  16.003  -0.761  1.00 20.00    -0.214 F 
ENDBRANCH   7   8
ENDBRANCH   1   7
TORSDOF 4
ENDMDL
MODEL 9
REMARK VINA RESULT:      -4.1     11.860     13.041
REMARK  4 active torsions:
REMARK  status: ('A' for Active; 'I' for Inactive)
REMARK    1  A    between atoms: C1_1  and  C6_6 
REMARK    2  A    between atoms: C4_4  and  C6_6 
REMARK    3  A    between atoms: C5_5  and  C6_6 
REMARK    4  A    between atoms: C5_5  and  C7_7 
ROOT
HETATM    1  C6  UNL     1     -33.486  15.841  -3.491  1.00 20.00     0.059 C 
ENDROOT
BRANCH   1   2
HETATM    2  C1  UNL     1     -33.874  16.922  -2.484  1.00 20.00     0.127 C 
HETATM    3  C2  UNL     1     -34.596  16.466  -1.243  1.00 20.00     0.091 C 
HETATM    4  O8  UNL     1     -33.611  18.111  -2.668  1.00 20.00    -0.298 OA
ENDBRANCH   1   2
BRANCH   1   5
HETATM    5  C4  UNL     1     -33.199  16.485  -4.859  1.00 20.00     0.008 C 
HETATM    6  C3  UNL     1     -34.373  16.376  -5.823  1.00 20.00     0.006 C 
ENDBRANCH   1   5
BRANCH   1   7
HETATM    7  C5  UNL     1     -34.611  14.797  -3.618  1.00 20.00     0.083 C 
BRANCH   7   8
HETATM    8  C7  UNL     1     -34.105  13.370  -3.762  1.00 20.00     0.353 C 
HETATM    9  F9  UNL     1     -32.757  13.324  -3.646  1.00 20.00    -0.214 F 
HETATM   10  F10 UNL     1     -34.419  12.884  -4.988  1.00 20.00    -0.214 F 
ENDBRANCH   7   8
ENDBRANCH   1   7
TORSDOF 4
ENDMDL
