MODEL 1
REMARK VINA RESULT:      -4.6      0.000      0.000
REMARK  2 active torsions:
REMARK  status: ('A' for Active; 'I' for Inactive)
REMARK    1  A    between atoms: C3_3  and  C10_10 
REMARK    2  A    between atoms: C9_9  and  C10_10 
ROOT
HETATM    1  C1  UNL     1     -33.716  15.180  -3.320  1.00 20.00     0.006 C 
HETATM    2  C2  UNL     1     -33.775  13.756  -3.887  1.00 20.00     0.016 C 
HETATM    3  C3  UNL     1     -35.137  15.757  -3.427  1.00 20.00    -0.006 C 
HETATM    4  C4  UNL     1     -36.027  14.537  -3.716  1.00 20.00     0.000 C 
HETATM    5  C5  UNL     1     -35.133  13.633  -4.567  1.00 20.00     0.062 C 
HETATM    6  C6  UNL     1     -37.390  14.881  -4.301  1.00 20.00     0.011 C 
HETATM    7 BR11 UNL     1     -34.977  14.209  -6.427  1.00 20.00    -0.091 Br
ENDROOT
BRANCH   3   8
HETATM    8  C10 UNL     1     -35.550  16.529  -2.180  1.00 20.00    -0.014 C 
HETATM    9  C8  UNL     1     -35.939  17.963  -2.558  1.00 20.00     0.010 C 
BRANCH   8  10
HETATM   10  C9  UNL     1     -34.444  16.562  -1.108  1.00 20.00     0.000 C 
HETATM   11  C7  UNL     1     -34.865  17.267   0.174  1.00 20.00     0.005 C 
ENDBRANCH   8  10
ENDBRANCH   3   8
TORSDOF 2
ENDMDL
MODEL 2
REMARK VINA RESULT:      -4.4      1.991      2.943
REMARK  2 active torsions:
REMARK  status: ('A' for Active; 'I' for Inactive)
REMARK    1  A    between atoms: C3_3  and  C10_10 
REMARK    2  A    between atoms: C9_9  and  C10_10 
ROOT
HETATM    1  C1  UNL     1     -34.117  18.198  -3.915  1.00 20.00     0.006 C 
HETATM    2  C2  UNL     1     -33.517  17.886  -5.291  1.00 20.00     0.016 C 
HETATM    3  C3  UNL     1     -34.101  16.883  -3.118  1.00 20.00    -0.006 C 
HETATM    4  C4  UNL     1     -33.177  15.956  -3.925  1.00 20.00     0.000 C 
HETATM    5  C5  UNL     1     -33.432  16.367  -5.376  1.00 20.00     0.062 C 
HETATM    6  C6  UNL     1     -33.340  14.477  -3.605  1.00 20.00     0.011 C 
HETATM    7 BR11 UNL     1     -35.102  15.668  -6.109  1.00 20.00    -0.091 Br
ENDROOT
BRANCH   3   8
HETATM    8  C10 UNL     1     -33.656  17.079  -1.675  1.00 20.00    -0.014 C 
HETATM    9  C8  UNL     1     -34.762  16.618  -0.719  1.00 20.00     0.010 C 
BRANCH   8  10
HETATM   10  C9  UNL     1     -33.283  18.540  -1.361  1.00 20.00     0.000 C 
HETATM   11  C7  UNL     1     -32.521  18.703  -0.053  1.00 20.00     0.005 C 
ENDBRANCH   8  10
ENDBRANCH   3   8
TORSDOF 2
ENDMDL
MODEL 3
REMARK VINA RESULT:      -4.3      2.239      4.206
REMARK  2 active torsions:
REMARK  status: ('A' for Active; 'I' for Inactive)
REMARK    1  A    between atoms: C3_3  and  C10_10 
REMARK    2  A    between atoms: C9_9  and  C10_10 
ROOT
HETATM    1  C1  UNL     1     -34.573  16.284  -1.420  1.00 20.00     0.006 C 
HETATM    2  C2  UNL     1     -33.767  17.588  -1.358  1.00 20.00     0.016 C 
HETATM    3  C3  UNL     1     -34.728  15.932  -2.908  1.00 20.00    -0.006 C 
HETATM    4  C4  UNL     1     -33.716  16.840  -3.627  1.00 20.00     0.000 C 
HETATM    5  C5  UNL     1     -33.718  18.118  -2.786  1.00 20.00     0.062 C 
HETATM    6  C6  UNL     1     -33.976  17.011  -5.116  1.00 20.00     0.011 C 
HETATM    7 BR11 UNL     1     -35.268  19.263  -3.103  1.00 20.00    -0.091 Br
ENDROOT
BRANCH   3   8
HETATM    8  C10 UNL     1     -34.517  14.449  -3.183  1.00 20.00    -0.014 C 
HETATM    9  C8  UNL     1     -33.089  14.207  -3.683  1.00 20.00     0.010 C 
BRANCH   8  10
HETATM   10  C9  UNL     1     -35.521  13.885  -4.207  1.00 20.00     0.000 C 
HETATM   11  C7  UNL     1     -36.860  14.611  -4.204  1.00 20.00     0.005 C 
ENDBRANCH   8  10
ENDBRANCH   3   8
TORSDOF 2
ENDMDL
MODEL 4
REMARK VINA RESULT:      -4.3      1.614      2.134
REMARK  2 active torsions:
REMARK  status: ('A' for Active; 'I' for Inactive)
REMARK    1  A    between atoms: C3_3  and  C10_10 
REMARK    2  A    between atoms: C9_9  and  C10_10 
ROOT
HETATM    1  C1  UNL     1     -35.249  17.058  -5.175  1.00 20.00     0.006 C 
HETATM    2  C2  UNL     1     -34.157  16.690  -6.187  1.00 20.00     0.016 C 
HETATM    3  C3  UNL     1     -35.659  15.752  -4.474  1.00 20.00    -0.006 C 
HETATM    4  C4  UNL     1     -34.553  14.751  -4.848  1.00 20.00     0.000 C 
HETATM    5  C5  UNL     1     -34.155  15.167  -6.265  1.00 20.00     0.062 C 
HETATM    6  C6  UNL     1     -34.941  13.291  -4.658  1.00 20.00     0.011 C 
HETATM    7 BR11 UNL     1     -35.417  14.590  -7.638  1.00 20.00    -0.091 Br
ENDROOT
BRANCH   3   8
HETATM    8  C10 UNL     1     -35.837  15.926  -2.971  1.00 20.00    -0.014 C 
HETATM    9  C8  UNL     1     -36.595  17.227  -2.682  1.00 20.00     0.010 C 
BRANCH   8  10
HETATM   10  C9  UNL     1     -34.498  15.932  -2.210  1.00 20.00     0.000 C 
HETATM   11  C7  UNL     1     -34.563  16.663  -0.876  1.00 20.00     0.005 C 
ENDBRANCH   8  10
ENDBRANCH   3   8
TORSDOF 2
ENDMDL
MODEL 5
REMARK VINA RESULT:      -4.2      1.859      2.615
REMARK  2 active torsions:
REMARK  status: ('A' for Active; 'I' for Inactive)
REMARK    1  A    between atoms: C3_3  and  C10_10 
REMARK    2  A    between atoms: C9_9  and  C10_10 
ROOT
HETATM    1  C1  UNL     1     -33.883  16.459  -5.989  1.00 20.00     0.006 C 
HETATM    2  C2  UNL     1     -34.214  15.505  -7.143  1.00 20.00     0.016 C 
HETATM    3  C3  UNL     1     -34.500  15.847  -4.720  1.00 20.00    -0.006 C 
HETATM    4  C4  UNL     1     -34.851  14.405  -5.120  1.00 20.00     0.000 C 
HETATM    5  C5  UNL     1     -35.244  14.525  -6.593  1.00 20.00     0.062 C 
HETATM    6  C6  UNL     1     -35.863  13.730  -4.205  1.00 20.00     0.011 C 
HETATM    7 BR11 UNL     1     -37.037  15.248  -6.872  1.00 20.00    -0.091 Br
ENDROOT
BRANCH   3   8
HETATM    8  C10 UNL     1     -33.570  15.936  -3.517  1.00 20.00    -0.014 C 
HETATM    9  C8  UNL     1     -32.586  14.761  -3.529  1.00 20.00     0.010 C 
BRANCH   8  10
HETATM   10  C9  UNL     1     -34.331  15.955  -2.178  1.00 20.00     0.000 C 
HETATM   11  C7  UNL     1     -33.908  17.091  -1.257  1.00 20.00     0.005 C 
ENDBRANCH   8  10
ENDBRANCH   3   8
TORSDOF 2
ENDMDL
MODEL 6
REMARK VINA RESULT:      -4.2      2.715      4.379
REMARK  2 active torsions:
REMARK  status: ('A' for Active; 'I' for Inactive)
REMARK    1  A    between atoms: C3_3  and  C10_10 
REMARK    2  A    between atoms: C9_9  and  C10_10 
ROOT
HETATM    1  C1  UNL     1     -34.612  13.459  -4.511  1.00 20.00     0.006 C 
HETATM    2  C2  UNL     1     -33.357  13.867  -3.730  1.00 20.00     0.016 C 
HETATM    3  C3  UNL     1     -35.143  14.732  -5.190  1.00 20.00    -0.006 C 
HETATM    4  C4  UNL     1     -33.989  15.742  -5.070  1.00 20.00     0.000 C 
HETATM    5  C5  UNL     1     -33.342  15.391  -3.729  1.00 20.00     0.062 C 
HETATM    6  C6  UNL     1     -34.406  17.193  -5.259  1.00 20.00     0.011 C 
HETATM    7 BR11 UNL     1     -34.338  16.045  -2.181  1.00 20.00    -0.091 Br
ENDROOT
BRANCH   3   8
HETATM    8  C10 UNL     1     -35.589  14.486  -6.625  1.00 20.00    -0.014 C 
HETATM    9  C8  UNL     1     -34.486  14.920  -7.597  1.00 20.00     0.010 C 
BRANCH   8  10
HETATM   10  C9  UNL     1     -36.898  15.219  -6.975  1.00 20.00     0.000 C 
HETATM   11  C7  UNL     1     -37.788  15.478  -5.767  1.00 20.00     0.005 C 
ENDBRANCH   8  10
ENDBRANCH   3   8
TORSDOF 2
ENDMDL
MODEL 7
REMARK VINA RESULT:      -4.2      1.576      2.933
REMARK  2 active torsions:
REMARK  status: ('A' for Active; 'I' for Inactive)
REMARK    1  A    between atoms: C3_3  and  C10_10 
REMARK    2  A    between atoms: C9_9  and  C10_10 
ROOT
HETATM    1  C1  UNL     1     -36.126  17.139  -2.415  1.00 20.00     0.006 C 
HETATM    2  C2  UNL     1     -36.252  17.141  -3.944  1.00 20.00     0.016 C 
HETATM    3  C3  UNL     1     -34.838  16.369  -2.080  1.00 20.00    -0.006 C 
HETATM    4  C4  UNL     1     -34.092  16.265  -3.420  1.00 20.00     0.000 C 
HETATM    5  C5  UNL     1     -35.216  16.145  -4.450  1.00 20.00     0.062 C 
HETATM    6  C6  UNL     1     -33.023  15.182  -3.459  1.00 20.00     0.011 C 
HETATM    7 BR11 UNL     1     -36.018  14.366  -4.534  1.00 20.00    -0.091 Br
ENDROOT
BRANCH   3   8
HETATM    8  C10 UNL     1     -34.025  17.040  -0.981  1.00 20.00    -0.014 C 
HETATM    9  C8  UNL     1     -34.907  17.281   0.249  1.00 20.00     0.010 C 
BRANCH   8  10
HETATM   10  C9  UNL     1     -33.400  18.373  -1.435  1.00 20.00     0.000 C 
HETATM   11  C7  UNL     1     -32.597  19.067  -0.343  1.00 20.00     0.005 C 
ENDBRANCH   8  10
ENDBRANCH   3   8
TORSDOF 2
ENDMDL
MODEL 8
REMARK VINA RESULT:      -4.1      2.599      4.575
REMARK  2 active torsions:
REMARK  status: ('A' for Active; 'I' for Inactive)
REMARK    1  A    between atoms: C3_3  and  C10_10 
REMARK    2  A    between atoms: C9_9  and  C10_10 
ROOT
HETATM    1  C1  UNL     1     -34.736  15.869  -1.915  1.00 20.00     0.006 C 
HETATM    2  C2  UNL     1     -34.641  16.857  -0.746  1.00 20.00     0.016 C 
HETATM    3  C3  UNL     1     -34.356  16.649  -3.185  1.00 20.00    -0.006 C 
HETATM    4  C4  UNL     1     -33.718  17.947  -2.662  1.00 20.00     0.000 C 
HETATM    5  C5  UNL     1     -34.493  18.237  -1.376  1.00 20.00     0.062 C 
HETATM    6  C6  UNL     1     -33.662  19.072  -3.685  1.00 20.00     0.011 C 
HETATM    7 BR11 UNL     1     -36.266  18.998  -1.682  1.00 20.00    -0.091 Br
ENDROOT
BRANCH   3   8
HETATM    8  C10 UNL     1     -33.445  15.853  -4.110  1.00 20.00    -0.014 C 
HETATM    9  C8  UNL     1     -33.924  15.987  -5.559  1.00 20.00     0.010 C 
BRANCH   8  10
HETATM   10  C9  UNL     1     -33.369  14.362  -3.730  1.00 20.00     0.000 C 
HETATM   11  C7  UNL     1     -34.225  13.467  -4.616  1.00 20.00     0.005 C 
ENDBRANCH   8  10
ENDBRANCH   3   8
TORSDOF 2
ENDMDL
MODEL 9
REMARK VINA RESULT:      -4.1      1.955      3.337
REMARK  2 active torsions:
REMARK  status: ('A' for Active; 'I' for Inactive)
REMARK    1  A    between atoms: C3_3  and  C10_10 
REMARK    2  A    between atoms: C9_9  and  C10_10 
ROOT
HETATM    1  C1  UNL     1     -34.623  16.041  -1.652  1.00 20.00     0.006 C 
HETATM    2  C2  UNL     1     -35.381  15.857  -2.973  1.00 20.00     0.016 C 
HETATM    3  C3  UNL     1     -33.909  17.400  -1.740  1.00 20.00    -0.006 C 
HETATM    4  C4  UNL     1     -34.561  18.101  -2.943  1.00 20.00     0.000 C 
HETATM    5  C5  UNL     1     -34.873  16.952  -3.903  1.00 20.00     0.062 C 
HETATM    6  C6  UNL     1     -33.746  19.254  -3.512  1.00 20.00     0.011 C 
HETATM    7 BR11 UNL     1     -33.313  16.297  -4.878  1.00 20.00    -0.091 Br
ENDROOT
BRANCH   3   8
HETATM    8  C10 UNL     1     -34.008  18.197  -0.445  1.00 20.00    -0.014 C 
HETATM    9  C8  UNL     1     -32.604  18.519   0.080  1.00 20.00     0.010 C 
BRANCH   8  10
HETATM   10  C9  UNL     1     -34.807  17.460   0.647  1.00 20.00     0.000 C 
HETATM   11  C7  UNL     1     -36.046  18.217   1.105  1.00 20.00     0.005 C 
ENDBRANCH   8  10
ENDBRANCH   3   8
TORSDOF 2
ENDMDL
