MODEL 1
REMARK VINA RESULT:      -4.3      0.000      0.000
REMARK  4 active torsions:
REMARK  status: ('A' for Active; 'I' for Inactive)
REMARK    1  A    between atoms: C4_4  and  C5_5 
REMARK    2  A    between atoms: C5_5  and  C6_6 
REMARK    3  A    between atoms: C6_6  and  C7_7 
REMARK    4  A    between atoms: C7_7  and  O9_9 
ROOT
HETATM    1  C1  UNL     1     -36.752  14.612  -4.058  1.00 20.00     0.066 C 
HETATM    2  C6  UNL     1     -35.354  14.927  -4.422  1.00 20.00     0.121 C 
HETATM    3  N8  UNL     1     -37.849  14.365  -3.771  1.00 20.00    -0.197 NA
ENDROOT
BRANCH   2   4
HETATM    4  C5  UNL     1     -35.312  15.727  -5.742  1.00 20.00     0.021 C 
BRANCH   4   5
HETATM    5  C4  UNL     1     -34.638  14.957  -6.883  1.00 20.00    -0.003 C 
HETATM    6  C2  UNL     1     -35.654  14.496  -7.917  1.00 20.00     0.005 C 
ENDBRANCH   4   5
ENDBRANCH   2   4
BRANCH   2   7
HETATM    7  C7  UNL     1     -34.500  13.644  -4.537  1.00 20.00     0.131 C 
HETATM    8  C3  UNL     1     -33.241  13.671  -3.675  1.00 20.00     0.040 C 
BRANCH   7   9
HETATM    9  O9  UNL     1     -35.285  12.504  -4.191  1.00 20.00    -0.395 OA
HETATM   10  H22 UNL     1     -35.559  12.096  -5.025  1.00 20.00     0.210 HD
ENDBRANCH   7   9
ENDBRANCH   2   7
TORSDOF 4
ENDMDL
MODEL 2
REMARK VINA RESULT:      -4.2      1.784      2.871
REMARK  4 active torsions:
REMARK  status: ('A' for Active; 'I' for Inactive)
REMARK    1  A    between atoms: C4_4  and  C5_5 
REMARK    2  A    between atoms: C5_5  and  C6_6 
REMARK    3  A    between atoms: C6_6  and  C7_7 
REMARK    4  A    between atoms: C7_7  and  O9_9 
ROOT
HETATM    1  C1  UNL     1     -36.971  14.603  -3.649  1.00 20.00     0.066 C 
HETATM    2  C6  UNL     1     -35.523  14.823  -3.444  1.00 20.00     0.121 C 
HETATM    3  N8  UNL     1     -38.107  14.429  -3.808  1.00 20.00    -0.197 NA
ENDROOT
BRANCH   2   4
HETATM    4  C5  UNL     1     -35.140  16.265  -3.840  1.00 20.00     0.021 C 
BRANCH   4   5
HETATM    5  C4  UNL     1     -34.336  16.987  -2.752  1.00 20.00    -0.003 C 
HETATM    6  C2  UNL     1     -34.625  16.411  -1.375  1.00 20.00     0.005 C 
ENDBRANCH   4   5
ENDBRANCH   2   4
BRANCH   2   7
HETATM    7  C7  UNL     1     -34.681  13.800  -4.240  1.00 20.00     0.131 C 
HETATM    8  C3  UNL     1     -33.260  13.635  -3.708  1.00 20.00     0.040 C 
BRANCH   7   9
HETATM    9  O9  UNL     1     -35.332  12.531  -4.245  1.00 20.00    -0.395 OA
HETATM   10  H22 UNL     1     -35.094  12.103  -5.080  1.00 20.00     0.210 HD
ENDBRANCH   7   9
ENDBRANCH   2   7
TORSDOF 4
ENDMDL
MODEL 3
REMARK VINA RESULT:      -4.2     11.350     12.801
REMARK  4 active torsions:
REMARK  status: ('A' for Active; 'I' for Inactive)
REMARK    1  A    between atoms: C4_4  and  C5_5 
REMARK    2  A    between atoms: C5_5  and  C6_6 
REMARK    3  A    between atoms: C6_6  and  C7_7 
REMARK    4  A    between atoms: C7_7  and  O9_9 
ROOT
HETATM    1  C1  UNL     1     -33.734   6.511   5.814  1.00 20.00     0.066 C 
HETATM    2  C6  UNL     1     -33.626   5.682   4.594  1.00 20.00     0.121 C 
HETATM    3  N8  UNL     1     -33.818   7.160   6.772  1.00 20.00    -0.197 NA
ENDROOT
BRANCH   2   4
HETATM    4  C5  UNL     1     -33.518   6.581   3.344  1.00 20.00     0.021 C 
BRANCH   4   5
HETATM    5  C4  UNL     1     -32.084   7.048   3.068  1.00 20.00    -0.003 C 
HETATM    6  C2  UNL     1     -32.060   8.228   2.109  1.00 20.00     0.005 C 
ENDBRANCH   4   5
ENDBRANCH   2   4
BRANCH   2   7
HETATM    7  C7  UNL     1     -34.824   4.714   4.464  1.00 20.00     0.131 C 
HETATM    8  C3  UNL     1     -35.227   4.063   5.785  1.00 20.00     0.040 C 
BRANCH   7   9
HETATM    9  O9  UNL     1     -35.948   5.400   3.915  1.00 20.00    -0.395 OA
HETATM   10  H22 UNL     1     -35.628   6.271   3.637  1.00 20.00     0.210 HD
ENDBRANCH   7   9
ENDBRANCH   2   7
TORSDOF 4
ENDMDL
MODEL 4
REMARK VINA RESULT:      -4.0      2.779      4.121
REMARK  4 active torsions:
REMARK  status: ('A' for Active; 'I' for Inactive)
REMARK    1  A    between atoms: C4_4  and  C5_5 
REMARK    2  A    between atoms: C5_5  and  C6_6 
REMARK    3  A    between atoms: C6_6  and  C7_7 
REMARK    4  A    between atoms: C7_7  and  O9_9 
ROOT
HETATM    1  C1  UNL     1     -34.498  13.742  -4.270  1.00 20.00     0.066 C 
HETATM    2  C6  UNL     1     -34.063  15.137  -4.045  1.00 20.00     0.121 C 
HETATM    3  N8  UNL     1     -34.839  12.647  -4.446  1.00 20.00    -0.197 NA
ENDROOT
BRANCH   2   4
HETATM    4  C5  UNL     1     -34.862  15.767  -2.884  1.00 20.00     0.021 C 
BRANCH   4   5
HETATM    5  C4  UNL     1     -33.970  16.506  -1.880  1.00 20.00    -0.003 C 
HETATM    6  C2  UNL     1     -34.704  16.764  -0.573  1.00 20.00     0.005 C 
ENDBRANCH   4   5
ENDBRANCH   2   4
BRANCH   2   7
HETATM    7  C7  UNL     1     -34.210  15.985  -5.329  1.00 20.00     0.131 C 
HETATM    8  C3  UNL     1     -33.388  17.271  -5.307  1.00 20.00     0.040 C 
BRANCH   7   9
HETATM    9  O9  UNL     1     -33.844  15.211  -6.469  1.00 20.00    -0.395 OA
HETATM   10  H22 UNL     1     -32.936  14.910  -6.316  1.00 20.00     0.210 HD
ENDBRANCH   7   9
ENDBRANCH   2   7
TORSDOF 4
ENDMDL
MODEL 5
REMARK VINA RESULT:      -4.0      2.736      4.271
REMARK  4 active torsions:
REMARK  status: ('A' for Active; 'I' for Inactive)
REMARK    1  A    between atoms: C4_4  and  C5_5 
REMARK    2  A    between atoms: C5_5  and  C6_6 
REMARK    3  A    between atoms: C6_6  and  C7_7 
REMARK    4  A    between atoms: C7_7  and  O9_9 
ROOT
HETATM    1  C1  UNL     1     -35.051  13.908  -4.074  1.00 20.00     0.066 C 
HETATM    2  C6  UNL     1     -35.047  15.352  -3.755  1.00 20.00     0.121 C 
HETATM    3  N8  UNL     1     -35.055  12.776  -4.326  1.00 20.00    -0.197 NA
ENDROOT
BRANCH   2   4
HETATM    4  C5  UNL     1     -34.015  15.652  -2.647  1.00 20.00     0.021 C 
BRANCH   4   5
HETATM    5  C4  UNL     1     -34.638  16.323  -1.418  1.00 20.00    -0.003 C 
HETATM    6  C2  UNL     1     -33.795  17.495  -0.939  1.00 20.00     0.005 C 
ENDBRANCH   4   5
ENDBRANCH   2   4
BRANCH   2   7
HETATM    7  C7  UNL     1     -36.452  15.839  -3.334  1.00 20.00     0.131 C 
HETATM    8  C3  UNL     1     -37.075  16.826  -4.319  1.00 20.00     0.040 C 
BRANCH   7   9
HETATM    9  O9  UNL     1     -37.325  14.723  -3.170  1.00 20.00    -0.395 OA
HETATM   10  H22 UNL     1     -37.425  14.591  -2.215  1.00 20.00     0.210 HD
ENDBRANCH   7   9
ENDBRANCH   2   7
TORSDOF 4
ENDMDL
MODEL 6
REMARK VINA RESULT:      -3.9      2.370      3.648
REMARK  4 active torsions:
REMARK  status: ('A' for Active; 'I' for Inactive)
REMARK    1  A    between atoms: C4_4  and  C5_5 
REMARK    2  A    between atoms: C5_5  and  C6_6 
REMARK    3  A    between atoms: C6_6  and  C7_7 
REMARK    4  A    between atoms: C7_7  and  O9_9 
ROOT
HETATM    1  C1  UNL     1     -36.498  15.580  -3.548  1.00 20.00     0.066 C 
HETATM    2  C6  UNL     1     -35.327  14.877  -2.981  1.00 20.00     0.121 C 
HETATM    3  N8  UNL     1     -37.418  16.131  -3.991  1.00 20.00    -0.197 NA
ENDROOT
BRANCH   2   4
HETATM    4  C5  UNL     1     -34.284  15.897  -2.474  1.00 20.00     0.021 C 
BRANCH   4   5
HETATM    5  C4  UNL     1     -34.657  16.504  -1.117  1.00 20.00    -0.003 C 
HETATM    6  C2  UNL     1     -33.706  17.627  -0.732  1.00 20.00     0.005 C 
ENDBRANCH   4   5
ENDBRANCH   2   4
BRANCH   2   7
HETATM    7  C7  UNL     1     -34.691  13.920  -4.016  1.00 20.00     0.131 C 
HETATM    8  C3  UNL     1     -33.210  13.650  -3.766  1.00 20.00     0.040 C 
BRANCH   7   9
HETATM    9  O9  UNL     1     -35.400  12.682  -4.034  1.00 20.00    -0.395 OA
HETATM   10  H22 UNL     1     -35.671  12.535  -4.952  1.00 20.00     0.210 HD
ENDBRANCH   7   9
ENDBRANCH   2   7
TORSDOF 4
ENDMDL
MODEL 7
REMARK VINA RESULT:      -3.9      3.229      4.403
REMARK  4 active torsions:
REMARK  status: ('A' for Active; 'I' for Inactive)
REMARK    1  A    between atoms: C4_4  and  C5_5 
REMARK    2  A    between atoms: C5_5  and  C6_6 
REMARK    3  A    between atoms: C6_6  and  C7_7 
REMARK    4  A    between atoms: C7_7  and  O9_9 
ROOT
HETATM    1  C1  UNL     1     -33.828  16.651  -4.307  1.00 20.00     0.066 C 
HETATM    2  C6  UNL     1     -34.670  15.574  -3.743  1.00 20.00     0.121 C 
HETATM    3  N8  UNL     1     -33.169  17.496  -4.751  1.00 20.00    -0.197 NA
ENDROOT
BRANCH   2   4
HETATM    4  C5  UNL     1     -35.211  15.988  -2.358  1.00 20.00     0.021 C 
BRANCH   4   5
HETATM    5  C4  UNL     1     -34.140  16.628  -1.467  1.00 20.00    -0.003 C 
HETATM    6  C2  UNL     1     -34.731  17.115  -0.152  1.00 20.00     0.005 C 
ENDBRANCH   4   5
ENDBRANCH   2   4
BRANCH   2   7
HETATM    7  C7  UNL     1     -33.890  14.243  -3.645  1.00 20.00     0.131 C 
HETATM    8  C3  UNL     1     -34.356  13.190  -4.646  1.00 20.00     0.040 C 
BRANCH   7   9
HETATM    9  O9  UNL     1     -32.496  14.482  -3.827  1.00 20.00    -0.395 OA
HETATM   10  H22 UNL     1     -32.129  14.654  -2.947  1.00 20.00     0.210 HD
ENDBRANCH   7   9
ENDBRANCH   2   7
TORSDOF 4
ENDMDL
MODEL 8
REMARK VINA RESULT:      -3.8     11.179     12.772
REMARK  4 active torsions:
REMARK  status: ('A' for Active; 'I' for Inactive)
REMARK    1  A    between atoms: C4_4  and  C5_5 
REMARK    2  A    between atoms: C5_5  and  C6_6 
REMARK    3  A    between atoms: C6_6  and  C7_7 
REMARK    4  A    between atoms: C7_7  and  O9_9 
ROOT
HETATM    1  C1  UNL     1     -33.507   6.879   5.360  1.00 20.00     0.066 C 
HETATM    2  C6  UNL     1     -33.578   6.793   3.886  1.00 20.00     0.121 C 
HETATM    3  N8  UNL     1     -33.452   6.949   6.517  1.00 20.00    -0.197 NA
ENDROOT
BRANCH   2   4
HETATM    4  C5  UNL     1     -34.153   5.426   3.457  1.00 20.00     0.021 C 
BRANCH   4   5
HETATM    5  C4  UNL     1     -35.367   5.002   4.292  1.00 20.00    -0.003 C 
HETATM    6  C2  UNL     1     -35.007   3.896   5.272  1.00 20.00     0.005 C 
ENDBRANCH   4   5
ENDBRANCH   2   4
BRANCH   2   7
HETATM    7  C7  UNL     1     -32.193   7.025   3.241  1.00 20.00     0.131 C 
HETATM    8  C3  UNL     1     -32.229   7.969   2.042  1.00 20.00     0.040 C 
BRANCH   7   9
HETATM    9  O9  UNL     1     -31.282   7.534   4.214  1.00 20.00    -0.395 OA
HETATM   10  H22 UNL     1     -30.484   6.989   4.156  1.00 20.00     0.210 HD
ENDBRANCH   7   9
ENDBRANCH   2   7
TORSDOF 4
ENDMDL
MODEL 9
REMARK VINA RESULT:      -3.8      2.158      2.367
REMARK  4 active torsions:
REMARK  status: ('A' for Active; 'I' for Inactive)
REMARK    1  A    between atoms: C4_4  and  C5_5 
REMARK    2  A    between atoms: C5_5  and  C6_6 
REMARK    3  A    between atoms: C6_6  and  C7_7 
REMARK    4  A    between atoms: C7_7  and  O9_9 
ROOT
HETATM    1  C1  UNL     1     -34.631  13.673  -4.672  1.00 20.00     0.066 C 
HETATM    2  C6  UNL     1     -34.463  15.133  -4.838  1.00 20.00     0.121 C 
HETATM    3  N8  UNL     1     -34.764  12.528  -4.539  1.00 20.00    -0.197 NA
ENDROOT
BRANCH   2   4
HETATM    4  C5  UNL     1     -34.290  15.484  -6.331  1.00 20.00     0.021 C 
BRANCH   4   5
HETATM    5  C4  UNL     1     -35.123  14.588  -7.255  1.00 20.00    -0.003 C 
HETATM    6  C2  UNL     1     -36.247  15.369  -7.918  1.00 20.00     0.005 C 
ENDBRANCH   4   5
ENDBRANCH   2   4
BRANCH   2   7
HETATM    7  C7  UNL     1     -33.267  15.659  -4.014  1.00 20.00     0.131 C 
HETATM    8  C3  UNL     1     -33.671  16.272  -2.676  1.00 20.00     0.040 C 
BRANCH   7   9
HETATM    9  O9  UNL     1     -32.332  14.606  -3.786  1.00 20.00    -0.395 OA
HETATM   10  H22 UNL     1     -32.844  13.784  -3.767  1.00 20.00     0.210 HD
ENDBRANCH   7   9
ENDBRANCH   2   7
TORSDOF 4
ENDMDL
