MODEL 1
REMARK VINA RESULT:      -4.7      0.000      0.000
REMARK  4 active torsions:
REMARK  status: ('A' for Active; 'I' for Inactive)
REMARK    1  A    between atoms: C1_1  and  C10_10 
REMARK    2  A    between atoms: C5_5  and  C8_8 
REMARK    3  A    between atoms: C8_8  and  C10_10 
REMARK    4  A    between atoms: C9_9  and  C10_10 
ROOT
HETATM    1  C10 UNL     1     -34.543  15.137  -2.889  1.00 20.00     0.055 C 
ENDROOT
BRANCH   1   2
HETATM    2  C1  UNL     1     -33.286  15.477  -3.689  1.00 20.00     0.127 C 
HETATM    3  C6  UNL     1     -33.397  16.610  -4.677  1.00 20.00     0.091 C 
HETATM    4  O11 UNL     1     -32.231  14.863  -3.542  1.00 20.00    -0.298 OA
ENDBRANCH   1   2
BRANCH   1   5
HETATM    5  C8  UNL     1     -35.083  16.399  -2.198  1.00 20.00     0.016 C 
BRANCH   5   6
HETATM    6  C5  UNL     1     -34.384  16.697  -0.888  1.00 20.00    -0.014 C 
HETATM    7  C3  UNL     1     -35.210  17.453   0.185  1.00 20.00     0.005 C 
HETATM    8  C2  UNL     1     -33.910  18.192   0.560  1.00 20.00     0.001 C 
HETATM    9  C4  UNL     1     -33.419  17.911  -0.875  1.00 20.00     0.005 C 
ENDBRANCH   5   6
ENDBRANCH   1   5
BRANCH   1  10
HETATM   10  C9  UNL     1     -35.609  14.537  -3.821  1.00 20.00     0.007 C 
HETATM   11  C7  UNL     1     -35.125  13.230  -4.445  1.00 20.00     0.006 C 
ENDBRANCH   1  10
TORSDOF 4
ENDMDL
MODEL 2
REMARK VINA RESULT:      -4.6      1.588      4.417
REMARK  4 active torsions:
REMARK  status: ('A' for Active; 'I' for Inactive)
REMARK    1  A    between atoms: C1_1  and  C10_10 
REMARK    2  A    between atoms: C5_5  and  C8_8 
REMARK    3  A    between atoms: C8_8  and  C10_10 
REMARK    4  A    between atoms: C9_9  and  C10_10 
ROOT
HETATM    1  C10 UNL     1     -33.580  15.213  -3.292  1.00 20.00     0.055 C 
ENDROOT
BRANCH   1   2
HETATM    2  C1  UNL     1     -33.834  13.779  -3.756  1.00 20.00     0.127 C 
HETATM    3  C6  UNL     1     -35.240  13.442  -4.180  1.00 20.00     0.091 C 
HETATM    4  O11 UNL     1     -32.941  12.933  -3.785  1.00 20.00    -0.298 OA
ENDBRANCH   1   2
BRANCH   1   5
HETATM    5  C8  UNL     1     -33.035  16.053  -4.459  1.00 20.00     0.016 C 
BRANCH   5   6
HETATM    6  C5  UNL     1     -34.131  16.622  -5.335  1.00 20.00    -0.014 C 
HETATM    7  C3  UNL     1     -34.268  16.020  -6.758  1.00 20.00     0.005 C 
HETATM    8  C2  UNL     1     -34.618  17.440  -7.246  1.00 20.00     0.001 C 
HETATM    9  C4  UNL     1     -33.832  17.975  -6.031  1.00 20.00     0.005 C 
ENDBRANCH   5   6
ENDBRANCH   1   5
BRANCH   1  10
HETATM   10  C9  UNL     1     -34.882  15.825  -2.751  1.00 20.00     0.007 C 
HETATM   11  C7  UNL     1     -34.684  16.395  -1.348  1.00 20.00     0.006 C 
ENDBRANCH   1  10
TORSDOF 4
ENDMDL
MODEL 3
REMARK VINA RESULT:      -4.6      1.629      2.100
REMARK  4 active torsions:
REMARK  status: ('A' for Active; 'I' for Inactive)
REMARK    1  A    between atoms: C1_1  and  C10_10 
REMARK    2  A    between atoms: C5_5  and  C8_8 
REMARK    3  A    between atoms: C8_8  and  C10_10 
REMARK    4  A    between atoms: C9_9  and  C10_10 
ROOT
HETATM    1  C10 UNL     1     -35.144  14.952  -3.109  1.00 20.00     0.055 C 
ENDROOT
BRANCH   1   2
HETATM    2  C1  UNL     1     -34.485  13.720  -3.727  1.00 20.00     0.127 C 
HETATM    3  C6  UNL     1     -32.979  13.666  -3.691  1.00 20.00     0.091 C 
HETATM    4  O11 UNL     1     -35.142  12.810  -4.232  1.00 20.00    -0.298 OA
ENDBRANCH   1   2
BRANCH   1   5
HETATM    5  C8  UNL     1     -34.212  16.167  -3.242  1.00 20.00     0.016 C 
BRANCH   5   6
HETATM    6  C5  UNL     1     -33.728  16.686  -1.904  1.00 20.00    -0.014 C 
HETATM    7  C3  UNL     1     -34.730  16.605  -0.723  1.00 20.00     0.005 C 
HETATM    8  C2  UNL     1     -34.159  17.954  -0.242  1.00 20.00     0.001 C 
HETATM    9  C4  UNL     1     -33.752  18.224  -1.705  1.00 20.00     0.005 C 
ENDBRANCH   5   6
ENDBRANCH   1   5
BRANCH   1  10
HETATM   10  C9  UNL     1     -36.489  15.227  -3.801  1.00 20.00     0.007 C 
HETATM   11  C7  UNL     1     -36.432  16.509  -4.629  1.00 20.00     0.006 C 
ENDBRANCH   1  10
TORSDOF 4
ENDMDL
MODEL 4
REMARK VINA RESULT:      -4.5      1.072      1.225
REMARK  4 active torsions:
REMARK  status: ('A' for Active; 'I' for Inactive)
REMARK    1  A    between atoms: C1_1  and  C10_10 
REMARK    2  A    between atoms: C5_5  and  C8_8 
REMARK    3  A    between atoms: C8_8  and  C10_10 
REMARK    4  A    between atoms: C9_9  and  C10_10 
ROOT
HETATM    1  C10 UNL     1     -33.737  15.743  -3.033  1.00 20.00     0.055 C 
ENDROOT
BRANCH   1   2
HETATM    2  C1  UNL     1     -33.711  16.631  -4.277  1.00 20.00     0.127 C 
HETATM    3  C6  UNL     1     -34.803  17.663  -4.397  1.00 20.00     0.091 C 
HETATM    4  O11 UNL     1     -32.847  16.517  -5.145  1.00 20.00    -0.298 OA
ENDBRANCH   1   2
BRANCH   1   5
HETATM    5  C8  UNL     1     -34.945  16.107  -2.155  1.00 20.00     0.016 C 
BRANCH   5   6
HETATM    6  C5  UNL     1     -34.544  16.631  -0.792  1.00 20.00    -0.014 C 
HETATM    7  C3  UNL     1     -35.469  17.705  -0.161  1.00 20.00     0.005 C 
HETATM    8  C2  UNL     1     -34.194  18.369   0.397  1.00 20.00     0.001 C 
HETATM    9  C4  UNL     1     -33.425  17.704  -0.762  1.00 20.00     0.005 C 
ENDBRANCH   5   6
ENDBRANCH   1   5
BRANCH   1  10
HETATM   10  C9  UNL     1     -33.799  14.264  -3.448  1.00 20.00     0.007 C 
HETATM   11  C7  UNL     1     -35.186  13.893  -3.966  1.00 20.00     0.006 C 
ENDBRANCH   1  10
TORSDOF 4
ENDMDL
MODEL 5
REMARK VINA RESULT:      -4.5      1.684      2.241
REMARK  4 active torsions:
REMARK  status: ('A' for Active; 'I' for Inactive)
REMARK    1  A    between atoms: C1_1  and  C10_10 
REMARK    2  A    between atoms: C5_5  and  C8_8 
REMARK    3  A    between atoms: C8_8  and  C10_10 
REMARK    4  A    between atoms: C9_9  and  C10_10 
ROOT
HETATM    1  C10 UNL     1     -35.448  14.816  -3.466  1.00 20.00     0.055 C 
ENDROOT
BRANCH   1   2
HETATM    2  C1  UNL     1     -34.978  13.878  -4.577  1.00 20.00     0.127 C 
HETATM    3  C6  UNL     1     -34.595  14.518  -5.887  1.00 20.00     0.091 C 
HETATM    4  O11 UNL     1     -34.913  12.659  -4.421  1.00 20.00    -0.298 OA
ENDBRANCH   1   2
BRANCH   1   5
HETATM    5  C8  UNL     1     -34.706  16.158  -3.563  1.00 20.00     0.016 C 
BRANCH   5   6
HETATM    6  C5  UNL     1     -33.925  16.491  -2.309  1.00 20.00    -0.014 C 
HETATM    7  C3  UNL     1     -34.720  16.495  -0.976  1.00 20.00     0.005 C 
HETATM    8  C2  UNL     1     -33.848  17.691  -0.544  1.00 20.00     0.001 C 
HETATM    9  C4  UNL     1     -33.644  17.993  -2.043  1.00 20.00     0.005 C 
ENDBRANCH   5   6
ENDBRANCH   1   5
BRANCH   1  10
HETATM   10  C9  UNL     1     -36.967  15.032  -3.572  1.00 20.00     0.007 C 
HETATM   11  C7  UNL     1     -37.299  16.499  -3.832  1.00 20.00     0.006 C 
ENDBRANCH   1  10
TORSDOF 4
ENDMDL
MODEL 6
REMARK VINA RESULT:      -4.4      1.758      2.448
REMARK  4 active torsions:
REMARK  status: ('A' for Active; 'I' for Inactive)
REMARK    1  A    between atoms: C1_1  and  C10_10 
REMARK    2  A    between atoms: C5_5  and  C8_8 
REMARK    3  A    between atoms: C8_8  and  C10_10 
REMARK    4  A    between atoms: C9_9  and  C10_10 
ROOT
HETATM    1  C10 UNL     1     -35.138  15.070  -4.285  1.00 20.00     0.055 C 
ENDROOT
BRANCH   1   2
HETATM    2  C1  UNL     1     -34.467  13.709  -4.101  1.00 20.00     0.127 C 
HETATM    3  C6  UNL     1     -33.043  13.716  -3.608  1.00 20.00     0.091 C 
HETATM    4  O11 UNL     1     -35.051  12.654  -4.343  1.00 20.00    -0.298 OA
ENDBRANCH   1   2
BRANCH   1   5
HETATM    5  C8  UNL     1     -34.159  16.193  -3.903  1.00 20.00     0.016 C 
BRANCH   5   6
HETATM    6  C5  UNL     1     -34.628  17.000  -2.710  1.00 20.00    -0.014 C 
HETATM    7  C3  UNL     1     -33.570  17.901  -2.021  1.00 20.00     0.005 C 
HETATM    8  C2  UNL     1     -34.240  17.539  -0.681  1.00 20.00     0.001 C 
HETATM    9  C4  UNL     1     -34.735  16.245  -1.360  1.00 20.00     0.005 C 
ENDBRANCH   5   6
ENDBRANCH   1   5
BRANCH   1  10
HETATM   10  C9  UNL     1     -35.600  15.233  -5.743  1.00 20.00     0.007 C 
HETATM   11  C7  UNL     1     -34.409  15.280  -6.697  1.00 20.00     0.006 C 
ENDBRANCH   1  10
TORSDOF 4
ENDMDL
MODEL 7
REMARK VINA RESULT:      -4.4      1.752      2.654
REMARK  4 active torsions:
REMARK  status: ('A' for Active; 'I' for Inactive)
REMARK    1  A    between atoms: C1_1  and  C10_10 
REMARK    2  A    between atoms: C5_5  and  C8_8 
REMARK    3  A    between atoms: C8_8  and  C10_10 
REMARK    4  A    between atoms: C9_9  and  C10_10 
ROOT
HETATM    1  C10 UNL     1     -35.380  15.725  -3.746  1.00 20.00     0.055 C 
ENDROOT
BRANCH   1   2
HETATM    2  C1  UNL     1     -36.003  14.344  -3.944  1.00 20.00     0.127 C 
HETATM    3  C6  UNL     1     -35.070  13.230  -4.344  1.00 20.00     0.091 C 
HETATM    4  O11 UNL     1     -37.207  14.140  -3.787  1.00 20.00    -0.298 OA
ENDBRANCH   1   2
BRANCH   1   5
HETATM    5  C8  UNL     1     -34.272  15.653  -2.683  1.00 20.00     0.016 C 
BRANCH   5   6
HETATM    6  C5  UNL     1     -34.632  16.387  -1.408  1.00 20.00    -0.014 C 
HETATM    7  C3  UNL     1     -35.699  17.506  -1.528  1.00 20.00     0.005 C 
HETATM    8  C2  UNL     1     -34.887  18.293  -0.480  1.00 20.00     0.001 C 
HETATM    9  C4  UNL     1     -33.651  17.494  -0.943  1.00 20.00     0.005 C 
ENDBRANCH   5   6
ENDBRANCH   1   5
BRANCH   1  10
HETATM   10  C9  UNL     1     -34.813  16.238  -5.080  1.00 20.00     0.007 C 
HETATM   11  C7  UNL     1     -33.338  16.606  -4.948  1.00 20.00     0.006 C 
ENDBRANCH   1  10
TORSDOF 4
ENDMDL
MODEL 8
REMARK VINA RESULT:      -4.3      2.251      3.061
REMARK  4 active torsions:
REMARK  status: ('A' for Active; 'I' for Inactive)
REMARK    1  A    between atoms: C1_1  and  C10_10 
REMARK    2  A    between atoms: C5_5  and  C8_8 
REMARK    3  A    between atoms: C8_8  and  C10_10 
REMARK    4  A    between atoms: C9_9  and  C10_10 
ROOT
HETATM    1  C10 UNL     1     -35.340  15.048  -4.593  1.00 20.00     0.055 C 
ENDROOT
BRANCH   1   2
HETATM    2  C1  UNL     1     -36.826  15.080  -4.236  1.00 20.00     0.127 C 
HETATM    3  C6  UNL     1     -37.534  16.400  -4.399  1.00 20.00     0.091 C 
HETATM    4  O11 UNL     1     -37.424  14.083  -3.834  1.00 20.00    -0.298 OA
ENDBRANCH   1   2
BRANCH   1   5
HETATM    5  C8  UNL     1     -34.524  14.543  -3.392  1.00 20.00     0.016 C 
BRANCH   5   6
HETATM    6  C5  UNL     1     -33.812  15.657  -2.654  1.00 20.00    -0.014 C 
HETATM    7  C3  UNL     1     -34.589  16.327  -1.489  1.00 20.00     0.005 C 
HETATM    8  C2  UNL     1     -33.948  17.660  -1.925  1.00 20.00     0.001 C 
HETATM    9  C4  UNL     1     -33.809  17.050  -3.336  1.00 20.00     0.005 C 
ENDBRANCH   5   6
ENDBRANCH   1   5
BRANCH   1  10
HETATM   10  C9  UNL     1     -35.116  14.142  -5.814  1.00 20.00     0.007 C 
HETATM   11  C7  UNL     1     -34.506  14.922  -6.976  1.00 20.00     0.006 C 
ENDBRANCH   1  10
TORSDOF 4
ENDMDL
MODEL 9
REMARK VINA RESULT:      -4.3      1.915      4.650
REMARK  4 active torsions:
REMARK  status: ('A' for Active; 'I' for Inactive)
REMARK    1  A    between atoms: C1_1  and  C10_10 
REMARK    2  A    between atoms: C5_5  and  C8_8 
REMARK    3  A    between atoms: C8_8  and  C10_10 
REMARK    4  A    between atoms: C9_9  and  C10_10 
ROOT
HETATM    1  C10 UNL     1     -34.949  16.110  -2.200  1.00 20.00     0.055 C 
ENDROOT
BRANCH   1   2
HETATM    2  C1  UNL     1     -36.079  16.891  -2.871  1.00 20.00     0.127 C 
HETATM    3  C6  UNL     1     -37.253  16.090  -3.371  1.00 20.00     0.091 C 
HETATM    4  O11 UNL     1     -36.040  18.114  -3.003  1.00 20.00    -0.298 OA
ENDBRANCH   1   2
BRANCH   1   5
HETATM    5  C8  UNL     1     -33.682  16.171  -3.068  1.00 20.00     0.016 C 
BRANCH   5   6
HETATM    6  C5  UNL     1     -33.502  14.940  -3.932  1.00 20.00    -0.014 C 
HETATM    7  C3  UNL     1     -34.263  14.921  -5.283  1.00 20.00     0.005 C 
HETATM    8  C2  UNL     1     -34.483  13.412  -5.055  1.00 20.00     0.001 C 
HETATM    9  C4  UNL     1     -34.336  13.692  -3.544  1.00 20.00     0.005 C 
ENDBRANCH   5   6
ENDBRANCH   1   5
BRANCH   1  10
HETATM   10  C9  UNL     1     -34.672  16.690  -0.803  1.00 20.00     0.007 C 
HETATM   11  C7  UNL     1     -33.497  17.664  -0.832  1.00 20.00     0.006 C 
ENDBRANCH   1  10
TORSDOF 4
ENDMDL
