MODEL 1
REMARK VINA RESULT:      -4.4      0.000      0.000
REMARK  4 active torsions:
REMARK  status: ('A' for Active; 'I' for Inactive)
REMARK    1  A    between atoms: C1_1  and  C9_9 
REMARK    2  A    between atoms: C4_4  and  C8_8 
REMARK    3  A    between atoms: C8_8  and  C9_9 
REMARK    4  A    between atoms: C9_9  and  C10_10 
ROOT
HETATM    1  C9  UNL     1     -34.150  15.459  -3.493  1.00 20.00     0.058 C 
ENDROOT
BRANCH   1   2
HETATM    2  C1  UNL     1     -34.049  13.959  -3.794  1.00 20.00     0.127 C 
HETATM    3  C5  UNL     1     -35.279  13.294  -4.358  1.00 20.00     0.091 C 
HETATM    4  O11 UNL     1     -33.014  13.317  -3.609  1.00 20.00    -0.298 OA
ENDBRANCH   1   2
BRANCH   1   5
HETATM    5  C8  UNL     1     -35.142  15.729  -2.347  1.00 20.00     0.017 C 
BRANCH   5   6
HETATM    6  C4  UNL     1     -34.438  16.381  -1.159  1.00 20.00    -0.014 A 
HETATM    7  C2  UNL     1     -33.751  17.709  -1.321  1.00 20.00     0.005 A 
HETATM    8  C3  UNL     1     -35.018  17.613  -0.518  1.00 20.00     0.005 A 
ENDBRANCH   5   6
ENDBRANCH   1   5
BRANCH   1   9
HETATM    9  C10 UNL     1     -34.471  16.225  -4.804  1.00 20.00    -0.012 C 
HETATM   10  C6  UNL     1     -33.358  17.180  -5.244  1.00 20.00     0.010 C 
HETATM   11  C7  UNL     1     -35.794  16.989  -4.691  1.00 20.00     0.010 C 
ENDBRANCH   1   9
TORSDOF 4
ENDMDL
MODEL 2
REMARK VINA RESULT:      -4.3      1.715      2.496
REMARK  4 active torsions:
REMARK  status: ('A' for Active; 'I' for Inactive)
REMARK    1  A    between atoms: C1_1  and  C9_9 
REMARK    2  A    between atoms: C4_4  and  C8_8 
REMARK    3  A    between atoms: C8_8  and  C9_9 
REMARK    4  A    between atoms: C9_9  and  C10_10 
ROOT
HETATM    1  C9  UNL     1     -35.341  15.279  -3.090  1.00 20.00     0.058 C 
ENDROOT
BRANCH   1   2
HETATM    2  C1  UNL     1     -36.736  15.152  -3.712  1.00 20.00     0.127 C 
HETATM    3  C5  UNL     1     -37.321  16.398  -4.329  1.00 20.00     0.091 C 
HETATM    4  O11 UNL     1     -37.355  14.087  -3.735  1.00 20.00    -0.298 OA
ENDBRANCH   1   2
BRANCH   1   5
HETATM    5  C8  UNL     1     -35.145  16.665  -2.448  1.00 20.00     0.017 C 
BRANCH   5   6
HETATM    6  C4  UNL     1     -34.482  16.542  -1.077  1.00 20.00    -0.014 A 
HETATM    7  C2  UNL     1     -33.678  17.684  -0.519  1.00 20.00     0.005 A 
HETATM    8  C3  UNL     1     -35.006  17.330   0.092  1.00 20.00     0.005 A 
ENDBRANCH   5   6
ENDBRANCH   1   5
BRANCH   1   9
HETATM    9  C10 UNL     1     -34.270  14.914  -4.150  1.00 20.00    -0.012 C 
HETATM   10  C6  UNL     1     -33.394  13.723  -3.753  1.00 20.00     0.010 C 
HETATM   11  C7  UNL     1     -33.384  16.119  -4.484  1.00 20.00     0.010 C 
ENDBRANCH   1   9
TORSDOF 4
ENDMDL
MODEL 3
REMARK VINA RESULT:      -4.2      1.109      1.167
REMARK  4 active torsions:
REMARK  status: ('A' for Active; 'I' for Inactive)
REMARK    1  A    between atoms: C1_1  and  C9_9 
REMARK    2  A    between atoms: C4_4  and  C8_8 
REMARK    3  A    between atoms: C8_8  and  C9_9 
REMARK    4  A    between atoms: C9_9  and  C10_10 
ROOT
HETATM    1  C9  UNL     1     -34.469  15.290  -4.310  1.00 20.00     0.058 C 
ENDROOT
BRANCH   1   2
HETATM    2  C1  UNL     1     -34.848  13.956  -4.963  1.00 20.00     0.127 C 
HETATM    3  C5  UNL     1     -35.116  13.977  -6.447  1.00 20.00     0.091 C 
HETATM    4  O11 UNL     1     -34.916  12.904  -4.326  1.00 20.00    -0.298 OA
ENDBRANCH   1   2
BRANCH   1   5
HETATM    5  C8  UNL     1     -35.183  15.467  -2.957  1.00 20.00     0.017 C 
BRANCH   5   6
HETATM    6  C4  UNL     1     -34.213  15.973  -1.891  1.00 20.00    -0.014 A 
HETATM    7  C2  UNL     1     -33.914  17.443  -1.775  1.00 20.00     0.005 A 
HETATM    8  C3  UNL     1     -34.724  16.754  -0.711  1.00 20.00     0.005 A 
ENDBRANCH   5   6
ENDBRANCH   1   5
BRANCH   1   9
HETATM    9  C10 UNL     1     -34.721  16.444  -5.316  1.00 20.00    -0.012 C 
HETATM   10  C6  UNL     1     -33.530  17.394  -5.468  1.00 20.00     0.010 C 
HETATM   11  C7  UNL     1     -35.976  17.241  -4.945  1.00 20.00     0.010 C 
ENDBRANCH   1   9
TORSDOF 4
ENDMDL
MODEL 4
REMARK VINA RESULT:      -4.2      1.328      1.796
REMARK  4 active torsions:
REMARK  status: ('A' for Active; 'I' for Inactive)
REMARK    1  A    between atoms: C1_1  and  C9_9 
REMARK    2  A    between atoms: C4_4  and  C8_8 
REMARK    3  A    between atoms: C8_8  and  C9_9 
REMARK    4  A    between atoms: C9_9  and  C10_10 
ROOT
HETATM    1  C9  UNL     1     -34.023  14.851  -4.555  1.00 20.00     0.058 C 
ENDROOT
BRANCH   1   2
HETATM    2  C1  UNL     1     -35.194  13.889  -4.325  1.00 20.00     0.127 C 
HETATM    3  C5  UNL     1     -36.581  14.480  -4.383  1.00 20.00     0.091 C 
HETATM    4  O11 UNL     1     -35.031  12.685  -4.121  1.00 20.00    -0.298 OA
ENDBRANCH   1   2
BRANCH   1   5
HETATM    5  C8  UNL     1     -33.559  15.486  -3.231  1.00 20.00     0.017 C 
BRANCH   5   6
HETATM    6  C4  UNL     1     -34.752  15.798  -2.329  1.00 20.00    -0.014 A 
HETATM    7  C2  UNL     1     -34.547  16.515  -1.023  1.00 20.00     0.005 A 
HETATM    8  C3  UNL     1     -35.228  17.216  -2.166  1.00 20.00     0.005 A 
ENDBRANCH   5   6
ENDBRANCH   1   5
BRANCH   1   9
HETATM    9  C10 UNL     1     -34.409  15.879  -5.650  1.00 20.00    -0.012 C 
HETATM   10  C6  UNL     1     -34.324  15.320  -7.073  1.00 20.00     0.010 C 
HETATM   11  C7  UNL     1     -33.563  17.151  -5.541  1.00 20.00     0.010 C 
ENDBRANCH   1   9
TORSDOF 4
ENDMDL
MODEL 5
REMARK VINA RESULT:      -4.2      1.701      3.928
REMARK  4 active torsions:
REMARK  status: ('A' for Active; 'I' for Inactive)
REMARK    1  A    between atoms: C1_1  and  C9_9 
REMARK    2  A    between atoms: C4_4  and  C8_8 
REMARK    3  A    between atoms: C8_8  and  C9_9 
REMARK    4  A    between atoms: C9_9  and  C10_10 
ROOT
HETATM    1  C9  UNL     1     -35.082  15.091  -3.627  1.00 20.00     0.058 C 
ENDROOT
BRANCH   1   2
HETATM    2  C1  UNL     1     -34.415  13.725  -3.826  1.00 20.00     0.127 C 
HETATM    3  C5  UNL     1     -32.940  13.639  -3.523  1.00 20.00     0.091 C 
HETATM    4  O11 UNL     1     -35.041  12.731  -4.195  1.00 20.00    -0.298 OA
ENDBRANCH   1   2
BRANCH   1   5
HETATM    5  C8  UNL     1     -35.518  15.696  -4.974  1.00 20.00     0.017 C 
BRANCH   5   6
HETATM    6  C4  UNL     1     -34.597  15.236  -6.102  1.00 20.00    -0.014 A 
HETATM    7  C2  UNL     1     -35.176  14.663  -7.367  1.00 20.00     0.005 A 
HETATM    8  C3  UNL     1     -34.522  16.018  -7.386  1.00 20.00     0.005 A 
ENDBRANCH   5   6
ENDBRANCH   1   5
BRANCH   1   9
HETATM    9  C10 UNL     1     -34.144  16.005  -2.796  1.00 20.00    -0.012 C 
HETATM   10  C6  UNL     1     -34.665  16.298  -1.386  1.00 20.00     0.010 C 
HETATM   11  C7  UNL     1     -33.858  17.321  -3.527  1.00 20.00     0.010 C 
ENDBRANCH   1   9
TORSDOF 4
ENDMDL
MODEL 6
REMARK VINA RESULT:      -4.1      1.696      2.759
REMARK  4 active torsions:
REMARK  status: ('A' for Active; 'I' for Inactive)
REMARK    1  A    between atoms: C1_1  and  C9_9 
REMARK    2  A    between atoms: C4_4  and  C8_8 
REMARK    3  A    between atoms: C8_8  and  C9_9 
REMARK    4  A    between atoms: C9_9  and  C10_10 
ROOT
HETATM    1  C9  UNL     1     -34.744  15.805  -4.168  1.00 20.00     0.058 C 
ENDROOT
BRANCH   1   2
HETATM    2  C1  UNL     1     -33.884  16.212  -5.370  1.00 20.00     0.127 C 
HETATM    3  C5  UNL     1     -34.319  15.701  -6.721  1.00 20.00     0.091 C 
HETATM    4  O11 UNL     1     -32.893  16.935  -5.259  1.00 20.00    -0.298 OA
ENDBRANCH   1   2
BRANCH   1   5
HETATM    5  C8  UNL     1     -33.876  15.580  -2.916  1.00 20.00     0.017 C 
BRANCH   5   6
HETATM    6  C4  UNL     1     -33.963  16.776  -1.970  1.00 20.00    -0.014 A 
HETATM    7  C2  UNL     1     -35.278  17.469  -1.744  1.00 20.00     0.005 A 
HETATM    8  C3  UNL     1     -34.665  16.644  -0.646  1.00 20.00     0.005 A 
ENDBRANCH   5   6
ENDBRANCH   1   5
BRANCH   1   9
HETATM    9  C10 UNL     1     -35.626  14.590  -4.555  1.00 20.00    -0.012 C 
HETATM   10  C6  UNL     1     -37.043  14.653  -3.979  1.00 20.00     0.010 C 
HETATM   11  C7  UNL     1     -34.962  13.269  -4.152  1.00 20.00     0.010 C 
ENDBRANCH   1   9
TORSDOF 4
ENDMDL
MODEL 7
REMARK VINA RESULT:      -4.0      1.339      3.371
REMARK  4 active torsions:
REMARK  status: ('A' for Active; 'I' for Inactive)
REMARK    1  A    between atoms: C1_1  and  C9_9 
REMARK    2  A    between atoms: C4_4  and  C8_8 
REMARK    3  A    between atoms: C8_8  and  C9_9 
REMARK    4  A    between atoms: C9_9  and  C10_10 
ROOT
HETATM    1  C9  UNL     1     -34.665  15.211  -4.055  1.00 20.00     0.058 C 
ENDROOT
BRANCH   1   2
HETATM    2  C1  UNL     1     -34.286  13.729  -3.971  1.00 20.00     0.127 C 
HETATM    3  C5  UNL     1     -32.885  13.411  -3.511  1.00 20.00     0.091 C 
HETATM    4  O11 UNL     1     -35.080  12.827  -4.242  1.00 20.00    -0.298 OA
ENDBRANCH   1   2
BRANCH   1   5
HETATM    5  C8  UNL     1     -33.414  16.096  -4.211  1.00 20.00     0.017 C 
BRANCH   5   6
HETATM    6  C4  UNL     1     -33.400  16.783  -5.575  1.00 20.00    -0.014 A 
HETATM    7  C2  UNL     1     -34.674  17.317  -6.168  1.00 20.00     0.005 A 
HETATM    8  C3  UNL     1     -33.619  18.268  -5.677  1.00 20.00     0.005 A 
ENDBRANCH   5   6
ENDBRANCH   1   5
BRANCH   1   9
HETATM    9  C10 UNL     1     -35.557  15.583  -2.842  1.00 20.00    -0.012 C 
HETATM   10  C6  UNL     1     -36.745  16.479  -3.205  1.00 20.00     0.010 C 
HETATM   11  C7  UNL     1     -34.735  16.240  -1.728  1.00 20.00     0.010 C 
ENDBRANCH   1   9
TORSDOF 4
ENDMDL
MODEL 8
REMARK VINA RESULT:      -4.0      1.546      2.550
REMARK  4 active torsions:
REMARK  status: ('A' for Active; 'I' for Inactive)
REMARK    1  A    between atoms: C1_1  and  C9_9 
REMARK    2  A    between atoms: C4_4  and  C8_8 
REMARK    3  A    between atoms: C8_8  and  C9_9 
REMARK    4  A    between atoms: C9_9  and  C10_10 
ROOT
HETATM    1  C9  UNL     1     -35.000  15.782  -3.920  1.00 20.00     0.058 C 
ENDROOT
BRANCH   1   2
HETATM    2  C1  UNL     1     -34.109  16.495  -4.943  1.00 20.00     0.127 C 
HETATM    3  C5  UNL     1     -34.199  16.018  -6.372  1.00 20.00     0.091 C 
HETATM    4  O11 UNL     1     -33.366  17.427  -4.636  1.00 20.00    -0.298 OA
ENDBRANCH   1   2
BRANCH   1   5
HETATM    5  C8  UNL     1     -35.373  16.722  -2.759  1.00 20.00     0.017 C 
BRANCH   5   6
HETATM    6  C4  UNL     1     -34.530  16.420  -1.521  1.00 20.00    -0.014 A 
HETATM    7  C2  UNL     1     -33.603  17.464  -0.963  1.00 20.00     0.005 A 
HETATM    8  C3  UNL     1     -34.846  17.083  -0.209  1.00 20.00     0.005 A 
ENDBRANCH   5   6
ENDBRANCH   1   5
BRANCH   1   9
HETATM    9  C10 UNL     1     -34.316  14.463  -3.474  1.00 20.00    -0.012 C 
HETATM   10  C6  UNL     1     -32.796  14.468  -3.658  1.00 20.00     0.010 C 
HETATM   11  C7  UNL     1     -34.921  13.252  -4.192  1.00 20.00     0.010 C 
ENDBRANCH   1   9
TORSDOF 4
ENDMDL
MODEL 9
REMARK VINA RESULT:      -4.0      2.080      4.366
REMARK  4 active torsions:
REMARK  status: ('A' for Active; 'I' for Inactive)
REMARK    1  A    between atoms: C1_1  and  C9_9 
REMARK    2  A    between atoms: C4_4  and  C8_8 
REMARK    3  A    between atoms: C8_8  and  C9_9 
REMARK    4  A    between atoms: C9_9  and  C10_10 
ROOT
HETATM    1  C9  UNL     1     -33.960  16.126  -3.779  1.00 20.00     0.058 C 
ENDROOT
BRANCH   1   2
HETATM    2  C1  UNL     1     -33.977  17.073  -2.574  1.00 20.00     0.127 C 
HETATM    3  C5  UNL     1     -34.485  16.508  -1.272  1.00 20.00     0.091 C 
HETATM    4  O11 UNL     1     -33.581  18.237  -2.643  1.00 20.00    -0.298 OA
ENDBRANCH   1   2
BRANCH   1   5
HETATM    5  C8  UNL     1     -34.752  16.716  -4.960  1.00 20.00     0.017 C 
BRANCH   5   6
HETATM    6  C4  UNL     1     -34.031  16.459  -6.282  1.00 20.00    -0.014 A 
HETATM    7  C2  UNL     1     -34.334  15.222  -7.082  1.00 20.00     0.005 A 
HETATM    8  C3  UNL     1     -34.776  16.569  -7.585  1.00 20.00     0.005 A 
ENDBRANCH   5   6
ENDBRANCH   1   5
BRANCH   1   9
HETATM    9  C10 UNL     1     -34.440  14.719  -3.333  1.00 20.00    -0.012 C 
HETATM   10  C6  UNL     1     -33.515  13.585  -3.784  1.00 20.00     0.010 C 
HETATM   11  C7  UNL     1     -35.869  14.443  -3.810  1.00 20.00     0.010 C 
ENDBRANCH   1   9
TORSDOF 4
ENDMDL
