MODEL 1
REMARK VINA RESULT:      -4.7      0.000      0.000
REMARK  4 active torsions:
REMARK  status: ('A' for Active; 'I' for Inactive)
REMARK    1  A    between atoms: C4_4  and  C6_6 
REMARK    2  A    between atoms: C6_6  and  C8_8 
REMARK    3  A    between atoms: C7_7  and  C8_8 
REMARK    4  A    between atoms: C8_8  and  O10_10 
ROOT
HETATM    1  C6  UNL     1     -32.872   6.302   3.127  1.00 20.00     0.038 C 
ENDROOT
BRANCH   1   2
HETATM    2  C4  UNL     1     -34.015   6.166   4.114  1.00 20.00     0.014 C 
HETATM    3  C1  UNL     1     -34.571   4.763   4.231  1.00 20.00     0.033 C 
HETATM    4  C2  UNL     1     -35.291   4.828   5.562  1.00 20.00     0.168 C 
HETATM    5  O9  UNL     1     -34.568   5.759   6.380  1.00 20.00    -0.391 OA
HETATM    6  C3  UNL     1     -33.619   6.451   5.553  1.00 20.00     0.172 C 
ENDBRANCH   1   2
BRANCH   1   7
HETATM    7  C8  UNL     1     -32.312   7.728   3.078  1.00 20.00     0.118 C 
BRANCH   7   8
HETATM    8  C7  UNL     1     -32.012   8.142   1.633  1.00 20.00     0.027 C 
HETATM    9  C5  UNL     1     -32.360   9.597   1.351  1.00 20.00     0.007 C 
ENDBRANCH   7   8
BRANCH   7  10
HETATM   10  O10 UNL     1     -31.114   7.770   3.851  1.00 20.00    -0.396 OA
HETATM   11  H26 UNL     1     -30.920   6.855   4.110  1.00 20.00     0.210 HD
ENDBRANCH   7  10
ENDBRANCH   1   7
TORSDOF 4
ENDMDL
MODEL 2
REMARK VINA RESULT:      -4.5      1.142      1.520
REMARK  4 active torsions:
REMARK  status: ('A' for Active; 'I' for Inactive)
REMARK    1  A    between atoms: C4_4  and  C6_6 
REMARK    2  A    between atoms: C6_6  and  C8_8 
REMARK    3  A    between atoms: C7_7  and  C8_8 
REMARK    4  A    between atoms: C8_8  and  O10_10 
ROOT
HETATM    1  C6  UNL     1     -33.567   7.211   3.682  1.00 20.00     0.038 C 
ENDROOT
BRANCH   1   2
HETATM    2  C4  UNL     1     -33.853   5.915   4.416  1.00 20.00     0.014 C 
HETATM    3  C1  UNL     1     -34.196   6.093   5.879  1.00 20.00     0.033 C 
HETATM    4  C2  UNL     1     -34.885   4.783   6.195  1.00 20.00     0.168 C 
HETATM    5  O9  UNL     1     -35.541   4.357   4.992  1.00 20.00    -0.391 OA
HETATM    6  C3  UNL     1     -35.083   5.183   3.908  1.00 20.00     0.172 C 
ENDBRANCH   1   2
BRANCH   1   7
HETATM    7  C8  UNL     1     -32.124   7.282   3.168  1.00 20.00     0.118 C 
BRANCH   7   8
HETATM    8  C7  UNL     1     -32.069   7.985   1.806  1.00 20.00     0.027 C 
HETATM    9  C5  UNL     1     -32.493   9.446   1.877  1.00 20.00     0.007 C 
ENDBRANCH   7   8
BRANCH   7  10
HETATM   10  O10 UNL     1     -31.622   5.954   3.046  1.00 20.00    -0.396 OA
HETATM   11  H26 UNL     1     -30.685   6.034   2.809  1.00 20.00     0.210 HD
ENDBRANCH   7  10
ENDBRANCH   1   7
TORSDOF 4
ENDMDL
MODEL 3
REMARK VINA RESULT:      -4.3     10.951     12.186
REMARK  4 active torsions:
REMARK  status: ('A' for Active; 'I' for Inactive)
REMARK    1  A    between atoms: C4_4  and  C6_6 
REMARK    2  A    between atoms: C6_6  and  C8_8 
REMARK    3  A    between atoms: C7_7  and  C8_8 
REMARK    4  A    between atoms: C8_8  and  O10_10 
ROOT
HETATM    1  C6  UNL     1     -33.738  14.286  -3.792  1.00 20.00     0.038 C 
ENDROOT
BRANCH   1   2
HETATM    2  C4  UNL     1     -34.402  15.623  -3.527  1.00 20.00     0.014 C 
HETATM    3  C1  UNL     1     -34.700  15.890  -2.068  1.00 20.00     0.033 C 
HETATM    4  C2  UNL     1     -34.870  17.394  -2.059  1.00 20.00     0.168 C 
HETATM    5  O9  UNL     1     -34.011  17.916  -3.084  1.00 20.00    -0.391 OA
HETATM    6  C3  UNL     1     -33.533  16.819  -3.878  1.00 20.00     0.172 C 
ENDBRANCH   1   2
BRANCH   1   7
HETATM    7  C8  UNL     1     -34.497  13.455  -4.833  1.00 20.00     0.118 C 
BRANCH   7   8
HETATM    8  C7  UNL     1     -35.328  14.361  -5.749  1.00 20.00     0.027 C 
HETATM    9  C5  UNL     1     -34.604  14.721  -7.039  1.00 20.00     0.007 C 
ENDBRANCH   7   8
BRANCH   7  10
HETATM   10  O10 UNL     1     -35.355  12.546  -4.146  1.00 20.00    -0.396 OA
HETATM   11  H26 UNL     1     -35.053  12.523  -3.225  1.00 20.00     0.210 HD
ENDBRANCH   7  10
ENDBRANCH   1   7
TORSDOF 4
ENDMDL
MODEL 4
REMARK VINA RESULT:      -4.3     10.555     11.801
REMARK  4 active torsions:
REMARK  status: ('A' for Active; 'I' for Inactive)
REMARK    1  A    between atoms: C4_4  and  C6_6 
REMARK    2  A    between atoms: C6_6  and  C8_8 
REMARK    3  A    between atoms: C7_7  and  C8_8 
REMARK    4  A    between atoms: C8_8  and  O10_10 
ROOT
HETATM    1  C6  UNL     1     -33.734  15.920  -3.013  1.00 20.00     0.038 C 
ENDROOT
BRANCH   1   2
HETATM    2  C4  UNL     1     -34.577  14.929  -3.794  1.00 20.00     0.014 C 
HETATM    3  C1  UNL     1     -34.484  15.082  -5.296  1.00 20.00     0.033 C 
HETATM    4  C2  UNL     1     -34.982  13.735  -5.774  1.00 20.00     0.168 C 
HETATM    5  O9  UNL     1     -34.606  12.775  -4.776  1.00 20.00    -0.391 OA
HETATM    6  C3  UNL     1     -34.147  13.484  -3.614  1.00 20.00     0.172 C 
ENDBRANCH   1   2
BRANCH   1   7
HETATM    7  C8  UNL     1     -34.590  16.930  -2.240  1.00 20.00     0.118 C 
BRANCH   7   8
HETATM    8  C7  UNL     1     -33.931  17.285  -0.902  1.00 20.00     0.027 C 
HETATM    9  C5  UNL     1     -34.916  17.292   0.259  1.00 20.00     0.007 C 
ENDBRANCH   7   8
BRANCH   7  10
HETATM   10  O10 UNL     1     -35.873  16.352  -2.009  1.00 20.00    -0.396 OA
HETATM   11  H26 UNL     1     -35.787  15.405  -2.196  1.00 20.00     0.210 HD
ENDBRANCH   7  10
ENDBRANCH   1   7
TORSDOF 4
ENDMDL
MODEL 5
REMARK VINA RESULT:      -4.1     11.436     12.138
REMARK  4 active torsions:
REMARK  status: ('A' for Active; 'I' for Inactive)
REMARK    1  A    between atoms: C4_4  and  C6_6 
REMARK    2  A    between atoms: C6_6  and  C8_8 
REMARK    3  A    between atoms: C7_7  and  C8_8 
REMARK    4  A    between atoms: C8_8  and  O10_10 
ROOT
HETATM    1  C6  UNL     1     -33.990  15.247  -3.007  1.00 20.00     0.038 C 
ENDROOT
BRANCH   1   2
HETATM    2  C4  UNL     1     -35.002  16.093  -2.258  1.00 20.00     0.014 C 
HETATM    3  C1  UNL     1     -34.499  16.642  -0.941  1.00 20.00     0.033 C 
HETATM    4  C2  UNL     1     -35.466  17.780  -0.693  1.00 20.00     0.168 C 
HETATM    5  O9  UNL     1     -35.852  18.285  -1.979  1.00 20.00    -0.391 OA
HETATM    6  C3  UNL     1     -35.390  17.370  -2.985  1.00 20.00     0.172 C 
ENDBRANCH   1   2
BRANCH   1   7
HETATM    7  C8  UNL     1     -33.867  15.655  -4.480  1.00 20.00     0.118 C 
BRANCH   7   8
HETATM    8  C7  UNL     1     -34.441  14.566  -5.393  1.00 20.00     0.027 C 
HETATM    9  C5  UNL     1     -34.738  13.269  -4.653  1.00 20.00     0.007 C 
ENDBRANCH   7   8
BRANCH   7  10
HETATM   10  O10 UNL     1     -32.487  15.858  -4.778  1.00 20.00    -0.396 OA
HETATM   11  H26 UNL     1     -32.222  16.670  -4.319  1.00 20.00     0.210 HD
ENDBRANCH   7  10
ENDBRANCH   1   7
TORSDOF 4
ENDMDL
MODEL 6
REMARK VINA RESULT:      -3.9     10.856     12.955
REMARK  4 active torsions:
REMARK  status: ('A' for Active; 'I' for Inactive)
REMARK    1  A    between atoms: C4_4  and  C6_6 
REMARK    2  A    between atoms: C6_6  and  C8_8 
REMARK    3  A    between atoms: C7_7  and  C8_8 
REMARK    4  A    between atoms: C8_8  and  O10_10 
ROOT
HETATM    1  C6  UNL     1     -34.566  13.698  -4.968  1.00 20.00     0.038 C 
ENDROOT
BRANCH   1   2
HETATM    2  C4  UNL     1     -34.942  14.940  -5.751  1.00 20.00     0.014 C 
HETATM    3  C1  UNL     1     -34.288  15.039  -7.112  1.00 20.00     0.033 C 
HETATM    4  C2  UNL     1     -35.185  16.037  -7.813  1.00 20.00     0.168 C 
HETATM    5  O9  UNL     1     -36.504  15.860  -7.275  1.00 20.00    -0.391 OA
HETATM    6  C3  UNL     1     -36.414  15.008  -6.122  1.00 20.00     0.172 C 
ENDBRANCH   1   2
BRANCH   1   7
HETATM    7  C8  UNL     1     -33.916  14.033  -3.621  1.00 20.00     0.118 C 
BRANCH   7   8
HETATM    8  C7  UNL     1     -34.676  15.166  -2.920  1.00 20.00     0.027 C 
HETATM    9  C5  UNL     1     -33.764  16.296  -2.464  1.00 20.00     0.007 C 
ENDBRANCH   7   8
BRANCH   7  10
HETATM   10  O10 UNL     1     -32.567  14.430  -3.856  1.00 20.00    -0.396 OA
HETATM   11  H26 UNL     1     -32.020  13.941  -3.221  1.00 20.00     0.210 HD
ENDBRANCH   7  10
ENDBRANCH   1   7
TORSDOF 4
ENDMDL
MODEL 7
REMARK VINA RESULT:      -3.9     10.263     11.163
REMARK  4 active torsions:
REMARK  status: ('A' for Active; 'I' for Inactive)
REMARK    1  A    between atoms: C4_4  and  C6_6 
REMARK    2  A    between atoms: C6_6  and  C8_8 
REMARK    3  A    between atoms: C7_7  and  C8_8 
REMARK    4  A    between atoms: C8_8  and  O10_10 
ROOT
HETATM    1  C6  UNL     1     -41.983   4.718  -2.334  1.00 20.00     0.038 C 
ENDROOT
BRANCH   1   2
HETATM    2  C4  UNL     1     -42.636   3.441  -2.827  1.00 20.00     0.014 C 
HETATM    3  C1  UNL     1     -41.661   2.399  -3.329  1.00 20.00     0.033 C 
HETATM    4  C2  UNL     1     -42.499   1.140  -3.272  1.00 20.00     0.168 C 
HETATM    5  O9  UNL     1     -43.417   1.301  -2.181  1.00 20.00    -0.391 OA
HETATM    6  C3  UNL     1     -43.366   2.668  -1.742  1.00 20.00     0.172 C 
ENDBRANCH   1   2
BRANCH   1   7
HETATM    7  C8  UNL     1     -41.347   4.549  -0.949  1.00 20.00     0.118 C 
BRANCH   7   8
HETATM    8  C7  UNL     1     -41.400   5.866  -0.165  1.00 20.00     0.027 C 
HETATM    9  C5  UNL     1     -41.138   7.085  -1.038  1.00 20.00     0.007 C 
ENDBRANCH   7   8
BRANCH   7  10
HETATM   10  O10 UNL     1     -39.991   4.144  -1.121  1.00 20.00    -0.396 OA
HETATM   11  H26 UNL     1     -39.503   4.930  -1.412  1.00 20.00     0.210 HD
ENDBRANCH   7  10
ENDBRANCH   1   7
TORSDOF 4
ENDMDL
MODEL 8
REMARK VINA RESULT:      -3.9     11.002     12.159
REMARK  4 active torsions:
REMARK  status: ('A' for Active; 'I' for Inactive)
REMARK    1  A    between atoms: C4_4  and  C6_6 
REMARK    2  A    between atoms: C6_6  and  C8_8 
REMARK    3  A    between atoms: C7_7  and  C8_8 
REMARK    4  A    between atoms: C8_8  and  O10_10 
ROOT
HETATM    1  C6  UNL     1     -34.501  14.433  -5.391  1.00 20.00     0.038 C 
ENDROOT
BRANCH   1   2
HETATM    2  C4  UNL     1     -35.983  14.751  -5.327  1.00 20.00     0.014 C 
HETATM    3  C1  UNL     1     -36.648  14.353  -4.028  1.00 20.00     0.033 C 
HETATM    4  C2  UNL     1     -37.903  15.198  -4.053  1.00 20.00     0.168 C 
HETATM    5  O9  UNL     1     -37.577  16.406  -4.755  1.00 20.00    -0.391 OA
HETATM    6  C3  UNL     1     -36.293  16.238  -5.377  1.00 20.00     0.172 C 
ENDBRANCH   1   2
BRANCH   1   7
HETATM    7  C8  UNL     1     -33.899  14.184  -4.004  1.00 20.00     0.118 C 
BRANCH   7   8
HETATM    8  C7  UNL     1     -33.078  15.394  -3.545  1.00 20.00     0.027 C 
HETATM    9  C5  UNL     1     -33.799  16.237  -2.502  1.00 20.00     0.007 C 
ENDBRANCH   7   8
BRANCH   7  10
HETATM   10  O10 UNL     1     -33.062  13.032  -4.075  1.00 20.00    -0.396 OA
HETATM   11  H26 UNL     1     -33.135  12.584  -3.218  1.00 20.00     0.210 HD
ENDBRANCH   7  10
ENDBRANCH   1   7
TORSDOF 4
ENDMDL
MODEL 9
REMARK VINA RESULT:      -3.8     10.939     13.221
REMARK  4 active torsions:
REMARK  status: ('A' for Active; 'I' for Inactive)
REMARK    1  A    between atoms: C4_4  and  C6_6 
REMARK    2  A    between atoms: C6_6  and  C8_8 
REMARK    3  A    between atoms: C7_7  and  C8_8 
REMARK    4  A    between atoms: C8_8  and  O10_10 
ROOT
HETATM    1  C6  UNL     1     -34.782  14.076  -5.960  1.00 20.00     0.038 C 
ENDROOT
BRANCH   1   2
HETATM    2  C4  UNL     1     -35.533  15.298  -6.452  1.00 20.00     0.014 C 
HETATM    3  C1  UNL     1     -36.558  15.831  -5.475  1.00 20.00     0.033 C 
HETATM    4  C2  UNL     1     -36.760  17.243  -5.982  1.00 20.00     0.168 C 
HETATM    5  O9  UNL     1     -35.512  17.664  -6.550  1.00 20.00    -0.391 OA
HETATM    6  C3  UNL     1     -34.651  16.518  -6.654  1.00 20.00     0.172 C 
ENDBRANCH   1   2
BRANCH   1   7
HETATM    7  C8  UNL     1     -34.855  13.921  -4.437  1.00 20.00     0.118 C 
BRANCH   7   8
HETATM    8  C7  UNL     1     -33.511  14.281  -3.791  1.00 20.00     0.027 C 
HETATM    9  C5  UNL     1     -33.513  15.663  -3.153  1.00 20.00     0.007 C 
ENDBRANCH   7   8
BRANCH   7  10
HETATM   10  O10 UNL     1     -35.189  12.568  -4.135  1.00 20.00    -0.396 OA
HETATM   11  H26 UNL     1     -35.669  12.224  -4.904  1.00 20.00     0.210 HD
ENDBRANCH   7  10
ENDBRANCH   1   7
TORSDOF 4
ENDMDL
