MODEL 1
REMARK VINA RESULT:      -6.0      0.000      0.000
REMARK  3 active torsions:
REMARK  status: ('A' for Active; 'I' for Inactive)
REMARK    1  A    between atoms: C7_7  and  C9_9 
REMARK    2  A    between atoms: C8_8  and  C10_10 
REMARK    3  A    between atoms: C9_9  and  C10_10 
ROOT
HETATM    1  C1  UNL     1     -34.031   6.084   5.913  1.00 20.00     0.131 C 
HETATM    2  C2  UNL     1     -35.113   5.135   6.363  1.00 20.00     0.079 C 
HETATM    3  C3  UNL     1     -35.147   4.129   5.219  1.00 20.00     0.008 C 
HETATM    4  C4  UNL     1     -34.760   4.939   3.989  1.00 20.00     0.013 C 
HETATM    5  C7  UNL     1     -33.619   5.834   4.476  1.00 20.00     0.055 C 
HETATM    6  O11 UNL     1     -33.550   6.951   6.630  1.00 20.00    -0.298 OA
ENDROOT
BRANCH   5   7
HETATM    7  C9  UNL     1     -33.481   7.110   3.670  1.00 20.00     0.012 C 
BRANCH   7   8
HETATM    8  C10 UNL     1     -32.417   6.976   2.579  1.00 20.00     0.005 C 
BRANCH   8   9
HETATM    9  C8  UNL     1     -31.820   8.324   2.209  1.00 20.00    -0.014 A 
HETATM   10  C5  UNL     1     -31.737   8.746   0.769  1.00 20.00     0.005 A 
HETATM   11  C6  UNL     1     -32.702   9.428   1.698  1.00 20.00     0.005 A 
ENDBRANCH   8   9
ENDBRANCH   7   8
ENDBRANCH   5   7
TORSDOF 3
ENDMDL
MODEL 2
REMARK VINA RESULT:      -5.9      1.505      2.035
REMARK  3 active torsions:
REMARK  status: ('A' for Active; 'I' for Inactive)
REMARK    1  A    between atoms: C7_7  and  C9_9 
REMARK    2  A    between atoms: C8_8  and  C10_10 
REMARK    3  A    between atoms: C9_9  and  C10_10 
ROOT
HETATM    1  C1  UNL     1     -34.546   5.394   3.978  1.00 20.00     0.131 C 
HETATM    2  C2  UNL     1     -35.156   4.775   5.209  1.00 20.00     0.079 C 
HETATM    3  C3  UNL     1     -34.702   5.733   6.303  1.00 20.00     0.008 C 
HETATM    4  C4  UNL     1     -33.355   6.253   5.817  1.00 20.00     0.013 C 
HETATM    5  C7  UNL     1     -33.567   6.499   4.322  1.00 20.00     0.055 C 
HETATM    6  O11 UNL     1     -34.816   5.039   2.837  1.00 20.00    -0.298 OA
ENDROOT
BRANCH   5   7
HETATM    7  C9  UNL     1     -32.283   6.422   3.521  1.00 20.00     0.012 C 
BRANCH   7   8
HETATM    8  C10 UNL     1     -31.781   7.812   3.127  1.00 20.00     0.005 C 
BRANCH   8   9
HETATM    9  C8  UNL     1     -32.496   8.339   1.893  1.00 20.00    -0.014 A 
HETATM   10  C5  UNL     1     -32.454   9.804   1.561  1.00 20.00     0.005 A 
HETATM   11  C6  UNL     1     -31.706   8.819   0.708  1.00 20.00     0.005 A 
ENDBRANCH   8   9
ENDBRANCH   7   8
ENDBRANCH   5   7
TORSDOF 3
ENDMDL
MODEL 3
REMARK VINA RESULT:      -5.1     11.085     12.462
REMARK  3 active torsions:
REMARK  status: ('A' for Active; 'I' for Inactive)
REMARK    1  A    between atoms: C7_7  and  C9_9 
REMARK    2  A    between atoms: C8_8  and  C10_10 
REMARK    3  A    between atoms: C9_9  and  C10_10 
ROOT
HETATM    1  C1  UNL     1     -34.604  13.759  -5.203  1.00 20.00     0.131 C 
HETATM    2  C2  UNL     1     -34.978  14.300  -6.558  1.00 20.00     0.079 C 
HETATM    3  C3  UNL     1     -34.235  15.629  -6.585  1.00 20.00     0.008 C 
HETATM    4  C4  UNL     1     -34.207  16.078  -5.129  1.00 20.00     0.013 C 
HETATM    5  C7  UNL     1     -33.902  14.797  -4.350  1.00 20.00     0.055 C 
HETATM    6  O11 UNL     1     -34.843  12.614  -4.841  1.00 20.00    -0.298 OA
ENDROOT
BRANCH   5   7
HETATM    7  C9  UNL     1     -34.413  14.835  -2.924  1.00 20.00     0.012 C 
BRANCH   7   8
HETATM    8  C10 UNL     1     -34.825  16.249  -2.510  1.00 20.00     0.005 C 
BRANCH   8   9
HETATM    9  C8  UNL     1     -34.533  16.511  -1.041  1.00 20.00    -0.014 A 
HETATM   10  C5  UNL     1     -33.725  17.711  -0.632  1.00 20.00     0.005 A 
HETATM   11  C6  UNL     1     -35.197  17.658  -0.331  1.00 20.00     0.005 A 
ENDBRANCH   8   9
ENDBRANCH   7   8
ENDBRANCH   5   7
TORSDOF 3
ENDMDL
MODEL 4
REMARK VINA RESULT:      -4.9     10.945     12.298
REMARK  3 active torsions:
REMARK  status: ('A' for Active; 'I' for Inactive)
REMARK    1  A    between atoms: C7_7  and  C9_9 
REMARK    2  A    between atoms: C8_8  and  C10_10 
REMARK    3  A    between atoms: C9_9  and  C10_10 
ROOT
HETATM    1  C1  UNL     1     -33.308  14.983  -3.346  1.00 20.00     0.131 C 
HETATM    2  C2  UNL     1     -33.739  16.294  -2.738  1.00 20.00     0.079 C 
HETATM    3  C3  UNL     1     -35.177  15.997  -2.333  1.00 20.00     0.008 C 
HETATM    4  C4  UNL     1     -35.662  14.988  -3.367  1.00 20.00     0.013 C 
HETATM    5  C7  UNL     1     -34.476  14.039  -3.545  1.00 20.00     0.055 C 
HETATM    6  O11 UNL     1     -32.149  14.723  -3.641  1.00 20.00    -0.298 OA
ENDROOT
BRANCH   5   7
HETATM    7  C9  UNL     1     -34.461  13.357  -4.898  1.00 20.00     0.012 C 
BRANCH   7   8
HETATM    8  C10 UNL     1     -35.290  14.129  -5.927  1.00 20.00     0.005 C 
BRANCH   8   9
HETATM    9  C8  UNL     1     -34.409  14.958  -6.848  1.00 20.00    -0.014 A 
HETATM   10  C5  UNL     1     -35.027  15.927  -7.817  1.00 20.00     0.005 A 
HETATM   11  C6  UNL     1     -34.264  16.438  -6.627  1.00 20.00     0.005 A 
ENDBRANCH   8   9
ENDBRANCH   7   8
ENDBRANCH   5   7
TORSDOF 3
ENDMDL
MODEL 5
REMARK VINA RESULT:      -4.9     10.962     11.830
REMARK  3 active torsions:
REMARK  status: ('A' for Active; 'I' for Inactive)
REMARK    1  A    between atoms: C7_7  and  C9_9 
REMARK    2  A    between atoms: C8_8  and  C10_10 
REMARK    3  A    between atoms: C9_9  and  C10_10 
ROOT
HETATM    1  C1  UNL     1     -33.440  14.736  -3.691  1.00 20.00     0.131 C 
HETATM    2  C2  UNL     1     -34.285  13.544  -4.064  1.00 20.00     0.079 C 
HETATM    3  C3  UNL     1     -35.668  14.167  -4.198  1.00 20.00     0.008 C 
HETATM    4  C4  UNL     1     -35.668  15.314  -3.196  1.00 20.00     0.013 C 
HETATM    5  C7  UNL     1     -34.285  15.948  -3.357  1.00 20.00     0.055 C 
HETATM    6  O11 UNL     1     -32.217  14.716  -3.663  1.00 20.00    -0.298 OA
ENDROOT
BRANCH   5   7
HETATM    7  C9  UNL     1     -33.816  16.670  -2.110  1.00 20.00     0.012 C 
BRANCH   7   8
HETATM    8  C10 UNL     1     -34.783  16.465  -0.942  1.00 20.00     0.005 C 
BRANCH   8   9
HETATM    9  C8  UNL     1     -34.977  17.744  -0.143  1.00 20.00    -0.014 A 
HETATM   10  C5  UNL     1     -35.020  17.699   1.359  1.00 20.00     0.005 A 
HETATM   11  C6  UNL     1     -33.842  18.316   0.659  1.00 20.00     0.005 A 
ENDBRANCH   8   9
ENDBRANCH   7   8
ENDBRANCH   5   7
TORSDOF 3
ENDMDL
MODEL 6
REMARK VINA RESULT:      -4.8     10.842     12.350
REMARK  3 active torsions:
REMARK  status: ('A' for Active; 'I' for Inactive)
REMARK    1  A    between atoms: C7_7  and  C9_9 
REMARK    2  A    between atoms: C8_8  and  C10_10 
REMARK    3  A    between atoms: C9_9  and  C10_10 
ROOT
HETATM    1  C1  UNL     1     -36.377  14.390  -4.712  1.00 20.00     0.131 C 
HETATM    2  C2  UNL     1     -36.748  15.377  -5.790  1.00 20.00     0.079 C 
HETATM    3  C3  UNL     1     -35.588  15.230  -6.766  1.00 20.00     0.008 C 
HETATM    4  C4  UNL     1     -34.395  14.872  -5.888  1.00 20.00     0.013 C 
HETATM    5  C7  UNL     1     -34.963  13.872  -4.878  1.00 20.00     0.055 C 
HETATM    6  O11 UNL     1     -37.136  14.054  -3.812  1.00 20.00    -0.298 OA
ENDROOT
BRANCH   5   7
HETATM    7  C9  UNL     1     -34.188  13.840  -3.577  1.00 20.00     0.012 C 
BRANCH   7   8
HETATM    8  C10 UNL     1     -33.682  15.230  -3.187  1.00 20.00     0.005 C 
BRANCH   8   9
HETATM    9  C8  UNL     1     -34.525  15.843  -2.081  1.00 20.00    -0.014 A 
HETATM   10  C5  UNL     1     -34.071  17.099  -1.389  1.00 20.00     0.005 A 
HETATM   11  C6  UNL     1     -35.255  17.137  -2.314  1.00 20.00     0.005 A 
ENDBRANCH   8   9
ENDBRANCH   7   8
ENDBRANCH   5   7
TORSDOF 3
ENDMDL
MODEL 7
REMARK VINA RESULT:      -4.7     10.751     11.937
REMARK  3 active torsions:
REMARK  status: ('A' for Active; 'I' for Inactive)
REMARK    1  A    between atoms: C7_7  and  C9_9 
REMARK    2  A    between atoms: C8_8  and  C10_10 
REMARK    3  A    between atoms: C9_9  and  C10_10 
ROOT
HETATM    1  C1  UNL     1     -35.207  14.931  -3.353  1.00 20.00     0.131 C 
HETATM    2  C2  UNL     1     -34.821  13.624  -3.997  1.00 20.00     0.079 C 
HETATM    3  C3  UNL     1     -33.325  13.563  -3.717  1.00 20.00     0.008 C 
HETATM    4  C4  UNL     1     -32.881  15.021  -3.704  1.00 20.00     0.013 C 
HETATM    5  C7  UNL     1     -33.995  15.743  -2.943  1.00 20.00     0.055 C 
HETATM    6  O11 UNL     1     -36.367  15.287  -3.186  1.00 20.00    -0.298 OA
ENDROOT
BRANCH   5   7
HETATM    7  C9  UNL     1     -34.111  17.208  -3.312  1.00 20.00     0.012 C 
BRANCH   7   8
HETATM    8  C10 UNL     1     -34.418  18.075  -2.089  1.00 20.00     0.005 C 
BRANCH   8   9
HETATM    9  C8  UNL     1     -34.004  17.389  -0.797  1.00 20.00    -0.014 A 
HETATM   10  C5  UNL     1     -33.755  18.200   0.444  1.00 20.00     0.005 A 
HETATM   11  C6  UNL     1     -34.963  17.309   0.358  1.00 20.00     0.005 A 
ENDBRANCH   8   9
ENDBRANCH   7   8
ENDBRANCH   5   7
TORSDOF 3
ENDMDL
MODEL 8
REMARK VINA RESULT:      -4.7     10.920     12.585
REMARK  3 active torsions:
REMARK  status: ('A' for Active; 'I' for Inactive)
REMARK    1  A    between atoms: C7_7  and  C9_9 
REMARK    2  A    between atoms: C8_8  and  C10_10 
REMARK    3  A    between atoms: C9_9  and  C10_10 
ROOT
HETATM    1  C1  UNL     1     -34.738  13.691  -3.964  1.00 20.00     0.131 C 
HETATM    2  C2  UNL     1     -33.329  14.163  -3.713  1.00 20.00     0.079 C 
HETATM    3  C3  UNL     1     -33.562  15.471  -2.968  1.00 20.00     0.008 C 
HETATM    4  C4  UNL     1     -34.875  16.001  -3.532  1.00 20.00     0.013 C 
HETATM    5  C7  UNL     1     -35.762  14.759  -3.638  1.00 20.00     0.055 C 
HETATM    6  O11 UNL     1     -35.013  12.574  -4.384  1.00 20.00    -0.298 OA
ENDROOT
BRANCH   5   7
HETATM    7  C9  UNL     1     -36.839  14.890  -4.696  1.00 20.00     0.012 C 
BRANCH   7   8
HETATM    8  C10 UNL     1     -36.507  15.989  -5.707  1.00 20.00     0.005 C 
BRANCH   8   9
HETATM    9  C8  UNL     1     -36.030  15.410  -7.029  1.00 20.00    -0.014 A 
HETATM   10  C5  UNL     1     -35.111  16.203  -7.916  1.00 20.00     0.005 A 
HETATM   11  C6  UNL     1     -34.597  14.988  -7.197  1.00 20.00     0.005 A 
ENDBRANCH   8   9
ENDBRANCH   7   8
ENDBRANCH   5   7
TORSDOF 3
ENDMDL
MODEL 9
REMARK VINA RESULT:      -4.5     11.400     12.420
REMARK  3 active torsions:
REMARK  status: ('A' for Active; 'I' for Inactive)
REMARK    1  A    between atoms: C7_7  and  C9_9 
REMARK    2  A    between atoms: C8_8  and  C10_10 
REMARK    3  A    between atoms: C9_9  and  C10_10 
ROOT
HETATM    1  C1  UNL     1     -32.567  18.750   0.178  1.00 20.00     0.131 C 
HETATM    2  C2  UNL     1     -33.159  18.981   1.545  1.00 20.00     0.079 C 
HETATM    3  C3  UNL     1     -34.355  18.038   1.535  1.00 20.00     0.008 C 
HETATM    4  C4  UNL     1     -34.796  17.998   0.078  1.00 20.00     0.013 C 
HETATM    5  C7  UNL     1     -33.484  17.929  -0.706  1.00 20.00     0.055 C 
HETATM    6  O11 UNL     1     -31.475  19.180  -0.168  1.00 20.00    -0.298 OA
ENDROOT
BRANCH   5   7
HETATM    7  C9  UNL     1     -33.604  18.483  -2.111  1.00 20.00     0.012 C 
BRANCH   7   8
HETATM    8  C10 UNL     1     -34.122  17.429  -3.092  1.00 20.00     0.005 C 
BRANCH   8   9
HETATM    9  C8  UNL     1     -33.684  16.029  -2.693  1.00 20.00    -0.014 A 
HETATM   10  C5  UNL     1     -34.389  14.826  -3.256  1.00 20.00     0.005 A 
HETATM   11  C6  UNL     1     -32.984  15.143  -3.686  1.00 20.00     0.005 A 
ENDBRANCH   8   9
ENDBRANCH   7   8
ENDBRANCH   5   7
TORSDOF 3
ENDMDL
