MODEL 1
REMARK VINA RESULT:      -4.6      0.000      0.000
REMARK  4 active torsions:
REMARK  status: ('A' for Active; 'I' for Inactive)
REMARK    1  A    between atoms: C1_1  and  C10_10 
REMARK    2  A    between atoms: C5_5  and  C9_9 
REMARK    3  A    between atoms: C9_9  and  C10_10 
REMARK    4  A    between atoms: C10_10  and  C11_11 
ROOT
HETATM    1  C10 UNL     1     -35.015  15.039  -4.504  1.00 20.00     0.058 C 
ENDROOT
BRANCH   1   2
HETATM    2  C1  UNL     1     -34.415  13.672  -4.159  1.00 20.00     0.127 C 
HETATM    3  C6  UNL     1     -33.025  13.668  -3.575  1.00 20.00     0.091 C 
HETATM    4  O12 UNL     1     -35.031  12.619  -4.327  1.00 20.00    -0.298 OA
ENDBRANCH   1   2
BRANCH   1   5
HETATM    5  C9  UNL     1     -35.998  15.505  -3.415  1.00 20.00     0.017 C 
BRANCH   5   6
HETATM    6  C5  UNL     1     -35.425  16.666  -2.630  1.00 20.00    -0.014 C 
HETATM    7  C3  UNL     1     -34.057  17.220  -3.107  1.00 20.00     0.005 C 
HETATM    8  C2  UNL     1     -33.711  17.440  -1.620  1.00 20.00     0.001 C 
HETATM    9  C4  UNL     1     -34.720  16.321  -1.292  1.00 20.00     0.005 C 
ENDBRANCH   5   6
ENDBRANCH   1   5
BRANCH   1  10
HETATM   10  C11 UNL     1     -35.626  14.986  -5.930  1.00 20.00    -0.012 C 
HETATM   11  C7  UNL     1     -34.578  14.987  -7.047  1.00 20.00     0.010 C 
HETATM   12  C8  UNL     1     -36.619  16.131  -6.152  1.00 20.00     0.010 C 
ENDBRANCH   1  10
TORSDOF 4
ENDMDL
MODEL 2
REMARK VINA RESULT:      -4.6      1.447      2.753
REMARK  4 active torsions:
REMARK  status: ('A' for Active; 'I' for Inactive)
REMARK    1  A    between atoms: C1_1  and  C10_10 
REMARK    2  A    between atoms: C5_5  and  C9_9 
REMARK    3  A    between atoms: C9_9  and  C10_10 
REMARK    4  A    between atoms: C10_10  and  C11_11 
ROOT
HETATM    1  C10 UNL     1     -35.449  14.997  -3.315  1.00 20.00     0.058 C 
ENDROOT
BRANCH   1   2
HETATM    2  C1  UNL     1     -36.944  15.147  -3.618  1.00 20.00     0.127 C 
HETATM    3  C6  UNL     1     -37.442  16.541  -3.908  1.00 20.00     0.091 C 
HETATM    4  O12 UNL     1     -37.713  14.185  -3.645  1.00 20.00    -0.298 OA
ENDBRANCH   1   2
BRANCH   1   5
HETATM    5  C9  UNL     1     -34.727  16.354  -3.402  1.00 20.00     0.017 C 
BRANCH   5   6
HETATM    6  C5  UNL     1     -33.936  16.627  -2.139  1.00 20.00    -0.014 C 
HETATM    7  C3  UNL     1     -34.720  16.574  -0.803  1.00 20.00     0.005 C 
HETATM    8  C2  UNL     1     -33.838  17.745  -0.324  1.00 20.00     0.001 C 
HETATM    9  C4  UNL     1     -33.645  18.114  -1.810  1.00 20.00     0.005 C 
ENDBRANCH   5   6
ENDBRANCH   1   5
BRANCH   1  10
HETATM   10  C11 UNL     1     -34.848  13.899  -4.232  1.00 20.00    -0.012 C 
HETATM   11  C7  UNL     1     -33.432  13.474  -3.832  1.00 20.00     0.010 C 
HETATM   12  C8  UNL     1     -34.863  14.330  -5.701  1.00 20.00     0.010 C 
ENDBRANCH   1  10
TORSDOF 4
ENDMDL
MODEL 3
REMARK VINA RESULT:      -4.6      1.570      2.103
REMARK  4 active torsions:
REMARK  status: ('A' for Active; 'I' for Inactive)
REMARK    1  A    between atoms: C1_1  and  C10_10 
REMARK    2  A    between atoms: C5_5  and  C9_9 
REMARK    3  A    between atoms: C9_9  and  C10_10 
REMARK    4  A    between atoms: C10_10  and  C11_11 
ROOT
HETATM    1  C10 UNL     1     -34.018  15.446  -3.545  1.00 20.00     0.058 C 
ENDROOT
BRANCH   1   2
HETATM    2  C1  UNL     1     -34.012  13.936  -3.803  1.00 20.00     0.127 C 
HETATM    3  C6  UNL     1     -35.287  13.332  -4.336  1.00 20.00     0.091 C 
HETATM    4  O12 UNL     1     -33.018  13.236  -3.606  1.00 20.00    -0.298 OA
ENDBRANCH   1   2
BRANCH   1   5
HETATM    5  C9  UNL     1     -34.874  15.796  -2.314  1.00 20.00     0.017 C 
BRANCH   5   6
HETATM    6  C5  UNL     1     -34.075  16.598  -1.309  1.00 20.00    -0.014 C 
HETATM    7  C3  UNL     1     -34.839  17.106  -0.059  1.00 20.00     0.005 C 
HETATM    8  C2  UNL     1     -33.985  18.388  -0.149  1.00 20.00     0.001 C 
HETATM    9  C4  UNL     1     -33.822  18.089  -1.653  1.00 20.00     0.005 C 
ENDBRANCH   5   6
ENDBRANCH   1   5
BRANCH   1  10
HETATM   10  C11 UNL     1     -34.440  16.186  -4.842  1.00 20.00    -0.012 C 
HETATM   11  C7  UNL     1     -33.391  17.180  -5.350  1.00 20.00     0.010 C 
HETATM   12  C8  UNL     1     -35.784  16.899  -4.664  1.00 20.00     0.010 C 
ENDBRANCH   1  10
TORSDOF 4
ENDMDL
MODEL 4
REMARK VINA RESULT:      -4.3      1.593      3.397
REMARK  4 active torsions:
REMARK  status: ('A' for Active; 'I' for Inactive)
REMARK    1  A    between atoms: C1_1  and  C10_10 
REMARK    2  A    between atoms: C5_5  and  C9_9 
REMARK    3  A    between atoms: C9_9  and  C10_10 
REMARK    4  A    between atoms: C10_10  and  C11_11 
ROOT
HETATM    1  C10 UNL     1     -34.607  15.204  -4.038  1.00 20.00     0.058 C 
ENDROOT
BRANCH   1   2
HETATM    2  C1  UNL     1     -34.268  13.712  -3.942  1.00 20.00     0.127 C 
HETATM    3  C6  UNL     1     -32.879  13.360  -3.472  1.00 20.00     0.091 C 
HETATM    4  O12 UNL     1     -35.083  12.830  -4.216  1.00 20.00    -0.298 OA
ENDBRANCH   1   2
BRANCH   1   5
HETATM    5  C9  UNL     1     -33.330  16.056  -4.157  1.00 20.00     0.017 C 
BRANCH   5   6
HETATM    6  C5  UNL     1     -33.287  16.783  -5.485  1.00 20.00    -0.014 C 
HETATM    7  C3  UNL     1     -33.819  18.239  -5.497  1.00 20.00     0.005 C 
HETATM    8  C2  UNL     1     -34.387  17.941  -6.900  1.00 20.00     0.001 C 
HETATM    9  C4  UNL     1     -34.417  16.453  -6.494  1.00 20.00     0.005 C 
ENDBRANCH   5   6
ENDBRANCH   1   5
BRANCH   1  10
HETATM   10  C11 UNL     1     -35.525  15.598  -2.850  1.00 20.00    -0.012 C 
HETATM   11  C7  UNL     1     -36.665  16.542  -3.244  1.00 20.00     0.010 C 
HETATM   12  C8  UNL     1     -34.718  16.212  -1.703  1.00 20.00     0.010 C 
ENDBRANCH   1  10
TORSDOF 4
ENDMDL
MODEL 5
REMARK VINA RESULT:      -4.3      1.465      2.788
REMARK  4 active torsions:
REMARK  status: ('A' for Active; 'I' for Inactive)
REMARK    1  A    between atoms: C1_1  and  C10_10 
REMARK    2  A    between atoms: C5_5  and  C9_9 
REMARK    3  A    between atoms: C9_9  and  C10_10 
REMARK    4  A    between atoms: C10_10  and  C11_11 
ROOT
HETATM    1  C10 UNL     1     -35.378  15.192  -3.324  1.00 20.00     0.058 C 
ENDROOT
BRANCH   1   2
HETATM    2  C1  UNL     1     -36.690  14.927  -4.069  1.00 20.00     0.127 C 
HETATM    3  C6  UNL     1     -36.892  15.659  -5.372  1.00 20.00     0.091 C 
HETATM    4  O12 UNL     1     -37.543  14.144  -3.648  1.00 20.00    -0.298 OA
ENDBRANCH   1   2
BRANCH   1   5
HETATM    5  C9  UNL     1     -35.334  16.629  -2.771  1.00 20.00     0.017 C 
BRANCH   5   6
HETATM    6  C5  UNL     1     -34.812  16.646  -1.350  1.00 20.00    -0.014 C 
HETATM    7  C3  UNL     1     -35.525  17.603  -0.360  1.00 20.00     0.005 C 
HETATM    8  C2  UNL     1     -34.141  17.863   0.270  1.00 20.00     0.001 C 
HETATM    9  C4  UNL     1     -33.528  17.475  -1.091  1.00 20.00     0.005 C 
ENDBRANCH   5   6
ENDBRANCH   1   5
BRANCH   1  10
HETATM   10  C11 UNL     1     -34.183  14.830  -4.245  1.00 20.00    -0.012 C 
HETATM   11  C7  UNL     1     -33.314  13.690  -3.703  1.00 20.00     0.010 C 
HETATM   12  C8  UNL     1     -33.309  16.055  -4.531  1.00 20.00     0.010 C 
ENDBRANCH   1  10
TORSDOF 4
ENDMDL
MODEL 6
REMARK VINA RESULT:      -4.3      1.459      3.388
REMARK  4 active torsions:
REMARK  status: ('A' for Active; 'I' for Inactive)
REMARK    1  A    between atoms: C1_1  and  C10_10 
REMARK    2  A    between atoms: C5_5  and  C9_9 
REMARK    3  A    between atoms: C9_9  and  C10_10 
REMARK    4  A    between atoms: C10_10  and  C11_11 
ROOT
HETATM    1  C10 UNL     1     -35.193  15.022  -3.518  1.00 20.00     0.058 C 
ENDROOT
BRANCH   1   2
HETATM    2  C1  UNL     1     -34.488  13.701  -3.846  1.00 20.00     0.127 C 
HETATM    3  C6  UNL     1     -33.002  13.644  -3.598  1.00 20.00     0.091 C 
HETATM    4  O12 UNL     1     -35.093  12.718  -4.276  1.00 20.00    -0.298 OA
ENDBRANCH   1   2
BRANCH   1   5
HETATM    5  C9  UNL     1     -35.767  15.674  -4.789  1.00 20.00     0.017 C 
BRANCH   5   6
HETATM    6  C5  UNL     1     -37.258  15.900  -4.654  1.00 20.00    -0.014 C 
HETATM    7  C3  UNL     1     -37.704  17.072  -3.742  1.00 20.00     0.005 C 
HETATM    8  C2  UNL     1     -38.886  16.183  -3.304  1.00 20.00     0.001 C 
HETATM    9  C4  UNL     1     -38.017  14.965  -3.678  1.00 20.00     0.005 C 
ENDBRANCH   5   6
ENDBRANCH   1   5
BRANCH   1  10
HETATM   10  C11 UNL     1     -34.226  15.934  -2.718  1.00 20.00    -0.012 C 
HETATM   11  C7  UNL     1     -34.758  16.329  -1.337  1.00 20.00     0.010 C 
HETATM   12  C8  UNL     1     -33.862  17.192  -3.512  1.00 20.00     0.010 C 
ENDBRANCH   1  10
TORSDOF 4
ENDMDL
MODEL 7
REMARK VINA RESULT:      -4.3      1.525      4.159
REMARK  4 active torsions:
REMARK  status: ('A' for Active; 'I' for Inactive)
REMARK    1  A    between atoms: C1_1  and  C10_10 
REMARK    2  A    between atoms: C5_5  and  C9_9 
REMARK    3  A    between atoms: C9_9  and  C10_10 
REMARK    4  A    between atoms: C10_10  and  C11_11 
ROOT
HETATM    1  C10 UNL     1     -33.993  15.995  -3.989  1.00 20.00     0.058 C 
ENDROOT
BRANCH   1   2
HETATM    2  C1  UNL     1     -33.375  14.617  -3.729  1.00 20.00     0.127 C 
HETATM    3  C6  UNL     1     -34.303  13.431  -3.810  1.00 20.00     0.091 C 
HETATM    4  O12 UNL     1     -32.178  14.465  -3.483  1.00 20.00    -0.298 OA
ENDBRANCH   1   2
BRANCH   1   5
HETATM    5  C9  UNL     1     -33.453  16.608  -5.294  1.00 20.00     0.017 C 
BRANCH   5   6
HETATM    6  C5  UNL     1     -34.439  16.422  -6.428  1.00 20.00    -0.014 C 
HETATM    7  C3  UNL     1     -35.890  16.048  -6.032  1.00 20.00     0.005 C 
HETATM    8  C2  UNL     1     -35.923  15.151  -7.286  1.00 20.00     0.001 C 
HETATM    9  C4  UNL     1     -34.386  15.067  -7.179  1.00 20.00     0.005 C 
ENDBRANCH   5   6
ENDBRANCH   1   5
BRANCH   1  10
HETATM   10  C11 UNL     1     -33.794  16.891  -2.737  1.00 20.00    -0.012 C 
HETATM   11  C7  UNL     1     -34.581  16.416  -1.512  1.00 20.00     0.010 C 
HETATM   12  C8  UNL     1     -34.138  18.353  -3.038  1.00 20.00     0.010 C 
ENDBRANCH   1  10
TORSDOF 4
ENDMDL
MODEL 8
REMARK VINA RESULT:      -4.3      1.910      2.802
REMARK  4 active torsions:
REMARK  status: ('A' for Active; 'I' for Inactive)
REMARK    1  A    between atoms: C1_1  and  C10_10 
REMARK    2  A    between atoms: C5_5  and  C9_9 
REMARK    3  A    between atoms: C9_9  and  C10_10 
REMARK    4  A    between atoms: C10_10  and  C11_11 
ROOT
HETATM    1  C10 UNL     1     -34.871  15.774  -4.122  1.00 20.00     0.058 C 
ENDROOT
BRANCH   1   2
HETATM    2  C1  UNL     1     -33.934  16.205  -5.255  1.00 20.00     0.127 C 
HETATM    3  C6  UNL     1     -34.363  15.860  -6.659  1.00 20.00     0.091 C 
HETATM    4  O12 UNL     1     -32.886  16.819  -5.050  1.00 20.00    -0.298 OA
ENDBRANCH   1   2
BRANCH   1   5
HETATM    5  C9  UNL     1     -34.084  15.494  -2.828  1.00 20.00     0.017 C 
BRANCH   5   6
HETATM    6  C5  UNL     1     -34.699  16.224  -1.652  1.00 20.00    -0.014 C 
HETATM    7  C3  UNL     1     -35.710  17.352  -1.986  1.00 20.00     0.005 C 
HETATM    8  C2  UNL     1     -35.130  18.126  -0.784  1.00 20.00     0.001 C 
HETATM    9  C4  UNL     1     -33.830  17.320  -0.983  1.00 20.00     0.005 C 
ENDBRANCH   5   6
ENDBRANCH   1   5
BRANCH   1  10
HETATM   10  C11 UNL     1     -35.744  14.585  -4.602  1.00 20.00    -0.012 C 
HETATM   11  C7  UNL     1     -37.170  14.607  -4.044  1.00 20.00     0.010 C 
HETATM   12  C8  UNL     1     -35.083  13.242  -4.279  1.00 20.00     0.010 C 
ENDBRANCH   1  10
TORSDOF 4
ENDMDL
MODEL 9
REMARK VINA RESULT:      -4.2      1.198      2.232
REMARK  4 active torsions:
REMARK  status: ('A' for Active; 'I' for Inactive)
REMARK    1  A    between atoms: C1_1  and  C10_10 
REMARK    2  A    between atoms: C5_5  and  C9_9 
REMARK    3  A    between atoms: C9_9  and  C10_10 
REMARK    4  A    between atoms: C10_10  and  C11_11 
ROOT
HETATM    1  C10 UNL     1     -35.404  15.205  -4.569  1.00 20.00     0.058 C 
ENDROOT
BRANCH   1   2
HETATM    2  C1  UNL     1     -34.959  14.149  -5.587  1.00 20.00     0.127 C 
HETATM    3  C6  UNL     1     -34.623  14.639  -6.973  1.00 20.00     0.091 C 
HETATM    4  O12 UNL     1     -34.858  12.956  -5.299  1.00 20.00    -0.298 OA
ENDBRANCH   1   2
BRANCH   1   5
HETATM    5  C9  UNL     1     -35.120  14.742  -3.129  1.00 20.00     0.017 C 
BRANCH   5   6
HETATM    6  C5  UNL     1     -34.132  15.666  -2.449  1.00 20.00    -0.014 C 
HETATM    7  C3  UNL     1     -34.662  16.484  -1.243  1.00 20.00     0.005 C 
HETATM    8  C2  UNL     1     -33.769  17.643  -1.731  1.00 20.00     0.001 C 
HETATM    9  C4  UNL     1     -33.862  17.027  -3.142  1.00 20.00     0.005 C 
ENDBRANCH   5   6
ENDBRANCH   1   5
BRANCH   1  10
HETATM   10  C11 UNL     1     -36.886  15.581  -4.835  1.00 20.00    -0.012 C 
HETATM   11  C7  UNL     1     -37.156  17.087  -4.777  1.00 20.00     0.010 C 
HETATM   12  C8  UNL     1     -37.826  14.849  -3.872  1.00 20.00     0.010 C 
ENDBRANCH   1  10
TORSDOF 4
ENDMDL
