MODEL 1
REMARK VINA RESULT:      -6.3      0.000      0.000
REMARK  3 active torsions:
REMARK  status: ('A' for Active; 'I' for Inactive)
REMARK    1  A    between atoms: C8_8  and  C10_10 
REMARK    2  A    between atoms: C9_9  and  C11_11 
REMARK    3  A    between atoms: C10_10  and  C11_11 
ROOT
HETATM    1  C1  UNL     1     -35.071   5.550   3.859  1.00 20.00     0.131 C 
HETATM    2  C2  UNL     1     -35.117   4.199   4.543  1.00 20.00     0.079 C 
HETATM    3  C3  UNL     1     -35.067   4.353   6.056  1.00 20.00     0.007 C 
HETATM    4  C4  UNL     1     -33.887   5.213   6.498  1.00 20.00     0.001 C 
HETATM    5  C5  UNL     1     -33.937   6.588   5.838  1.00 20.00     0.012 C 
HETATM    6  C8  UNL     1     -33.993   6.523   4.309  1.00 20.00     0.055 C 
HETATM    7  O12 UNL     1     -35.813   5.810   2.912  1.00 20.00    -0.298 OA
ENDROOT
BRANCH   6   8
HETATM    8  C10 UNL     1     -32.657   6.140   3.682  1.00 20.00     0.012 C 
BRANCH   8   9
HETATM    9  C11 UNL     1     -31.877   7.374   3.241  1.00 20.00     0.005 C 
BRANCH   9  10
HETATM   10  C9  UNL     1     -32.524   8.035   2.033  1.00 20.00    -0.014 A 
HETATM   11  C6  UNL     1     -32.473   9.528   1.869  1.00 20.00     0.005 A 
HETATM   12  C7  UNL     1     -31.670   8.644   0.956  1.00 20.00     0.005 A 
ENDBRANCH   9  10
ENDBRANCH   8   9
ENDBRANCH   6   8
TORSDOF 3
ENDMDL
MODEL 2
REMARK VINA RESULT:      -5.4     11.289     12.390
REMARK  3 active torsions:
REMARK  status: ('A' for Active; 'I' for Inactive)
REMARK    1  A    between atoms: C8_8  and  C10_10 
REMARK    2  A    between atoms: C9_9  and  C11_11 
REMARK    3  A    between atoms: C10_10  and  C11_11 
ROOT
HETATM    1  C1  UNL     1     -34.720  13.731  -4.702  1.00 20.00     0.131 C 
HETATM    2  C2  UNL     1     -35.178  14.240  -6.053  1.00 20.00     0.079 C 
HETATM    3  C3  UNL     1     -34.180  15.235  -6.626  1.00 20.00     0.007 C 
HETATM    4  C4  UNL     1     -33.864  16.353  -5.638  1.00 20.00     0.001 C 
HETATM    5  C5  UNL     1     -33.333  15.784  -4.324  1.00 20.00     0.012 C 
HETATM    6  C8  UNL     1     -34.279  14.766  -3.679  1.00 20.00     0.055 C 
HETATM    7  O12 UNL     1     -34.795  12.537  -4.412  1.00 20.00    -0.298 OA
ENDROOT
BRANCH   6   8
HETATM    8  C10 UNL     1     -35.502  15.415  -3.041  1.00 20.00     0.012 C 
BRANCH   8   9
HETATM    9  C11 UNL     1     -35.151  16.760  -2.412  1.00 20.00     0.005 C 
BRANCH   9  10
HETATM   10  C9  UNL     1     -34.494  16.580  -1.052  1.00 20.00    -0.014 A 
HETATM   11  C6  UNL     1     -33.679  17.691  -0.452  1.00 20.00     0.005 A 
HETATM   12  C7  UNL     1     -35.011  17.330   0.144  1.00 20.00     0.005 A 
ENDBRANCH   9  10
ENDBRANCH   8   9
ENDBRANCH   6   8
TORSDOF 3
ENDMDL
MODEL 3
REMARK VINA RESULT:      -4.8     11.241     12.232
REMARK  3 active torsions:
REMARK  status: ('A' for Active; 'I' for Inactive)
REMARK    1  A    between atoms: C8_8  and  C10_10 
REMARK    2  A    between atoms: C9_9  and  C11_11 
REMARK    3  A    between atoms: C10_10  and  C11_11 
ROOT
HETATM    1  C1  UNL     1     -36.808  14.605  -4.172  1.00 20.00     0.131 C 
HETATM    2  C2  UNL     1     -36.704  15.105  -5.598  1.00 20.00     0.079 C 
HETATM    3  C3  UNL     1     -35.452  14.568  -6.273  1.00 20.00     0.007 C 
HETATM    4  C4  UNL     1     -34.200  14.846  -5.446  1.00 20.00     0.001 C 
HETATM    5  C5  UNL     1     -34.330  14.251  -4.046  1.00 20.00     0.012 C 
HETATM    6  C8  UNL     1     -35.573  14.738  -3.295  1.00 20.00     0.055 C 
HETATM    7  O12 UNL     1     -37.876  14.199  -3.715  1.00 20.00    -0.298 OA
ENDROOT
BRANCH   6   8
HETATM    8  C10 UNL     1     -35.442  16.175  -2.802  1.00 20.00     0.012 C 
BRANCH   8   9
HETATM    9  C11 UNL     1     -34.567  16.255  -1.554  1.00 20.00     0.005 C 
BRANCH   9  10
HETATM   10  C9  UNL     1     -34.870  17.507  -0.745  1.00 20.00    -0.014 A 
HETATM   11  C6  UNL     1     -35.105  17.412   0.736  1.00 20.00     0.005 A 
HETATM   12  C7  UNL     1     -33.850  18.054   0.214  1.00 20.00     0.005 A 
ENDBRANCH   9  10
ENDBRANCH   8   9
ENDBRANCH   6   8
TORSDOF 3
ENDMDL
MODEL 4
REMARK VINA RESULT:      -4.8     10.930     12.012
REMARK  3 active torsions:
REMARK  status: ('A' for Active; 'I' for Inactive)
REMARK    1  A    between atoms: C8_8  and  C10_10 
REMARK    2  A    between atoms: C9_9  and  C11_11 
REMARK    3  A    between atoms: C10_10  and  C11_11 
ROOT
HETATM    1  C1  UNL     1     -33.467  15.105  -3.775  1.00 20.00     0.131 C 
HETATM    2  C2  UNL     1     -33.885  13.649  -3.769  1.00 20.00     0.079 C 
HETATM    3  C3  UNL     1     -35.220  13.464  -4.472  1.00 20.00     0.007 C 
HETATM    4  C4  UNL     1     -36.289  14.399  -3.914  1.00 20.00     0.001 C 
HETATM    5  C5  UNL     1     -35.846  15.856  -4.018  1.00 20.00     0.012 C 
HETATM    6  C8  UNL     1     -34.502  16.130  -3.336  1.00 20.00     0.055 C 
HETATM    7  O12 UNL     1     -32.309  15.435  -4.029  1.00 20.00    -0.298 OA
ENDROOT
BRANCH   6   8
HETATM    8  C10 UNL     1     -34.601  16.144  -1.814  1.00 20.00     0.012 C 
BRANCH   8   9
HETATM    9  C11 UNL     1     -33.712  17.227  -1.212  1.00 20.00     0.005 C 
BRANCH   9  10
HETATM   10  C9  UNL     1     -34.491  18.112  -0.251  1.00 20.00    -0.014 A 
HETATM   11  C6  UNL     1     -35.249  17.502   0.895  1.00 20.00     0.005 A 
HETATM   12  C7  UNL     1     -34.009  18.308   1.159  1.00 20.00     0.005 A 
ENDBRANCH   9  10
ENDBRANCH   8   9
ENDBRANCH   6   8
TORSDOF 3
ENDMDL
MODEL 5
REMARK VINA RESULT:      -4.8     10.971     12.586
REMARK  3 active torsions:
REMARK  status: ('A' for Active; 'I' for Inactive)
REMARK    1  A    between atoms: C8_8  and  C10_10 
REMARK    2  A    between atoms: C9_9  and  C11_11 
REMARK    3  A    between atoms: C10_10  and  C11_11 
ROOT
HETATM    1  C1  UNL     1     -33.260  14.865  -4.046  1.00 20.00     0.131 C 
HETATM    2  C2  UNL     1     -34.263  13.756  -3.807  1.00 20.00     0.079 C 
HETATM    3  C3  UNL     1     -34.816  13.230  -5.123  1.00 20.00     0.007 C 
HETATM    4  C4  UNL     1     -35.360  14.355  -5.998  1.00 20.00     0.001 C 
HETATM    5  C5  UNL     1     -34.283  15.403  -6.270  1.00 20.00     0.012 C 
HETATM    6  C8  UNL     1     -33.668  15.983  -4.992  1.00 20.00     0.055 C 
HETATM    7  O12 UNL     1     -32.199  14.910  -3.423  1.00 20.00    -0.298 OA
ENDROOT
BRANCH   6   8
HETATM    8  C10 UNL     1     -34.600  16.953  -4.274  1.00 20.00     0.012 C 
BRANCH   8   9
HETATM    9  C11 UNL     1     -33.836  17.823  -3.281  1.00 20.00     0.005 C 
BRANCH   9  10
HETATM   10  C9  UNL     1     -34.498  17.812  -1.912  1.00 20.00    -0.014 A 
HETATM   11  C6  UNL     1     -34.619  16.529  -1.139  1.00 20.00     0.005 A 
HETATM   12  C7  UNL     1     -33.673  17.600  -0.673  1.00 20.00     0.005 A 
ENDBRANCH   9  10
ENDBRANCH   8   9
ENDBRANCH   6   8
TORSDOF 3
ENDMDL
MODEL 6
REMARK VINA RESULT:      -4.8     11.548     12.601
REMARK  3 active torsions:
REMARK  status: ('A' for Active; 'I' for Inactive)
REMARK    1  A    between atoms: C8_8  and  C10_10 
REMARK    2  A    between atoms: C9_9  and  C11_11 
REMARK    3  A    between atoms: C10_10  and  C11_11 
ROOT
HETATM    1  C1  UNL     1     -35.124  16.302  -4.883  1.00 20.00     0.131 C 
HETATM    2  C2  UNL     1     -34.446  15.742  -6.116  1.00 20.00     0.079 C 
HETATM    3  C3  UNL     1     -34.902  14.317  -6.388  1.00 20.00     0.007 C 
HETATM    4  C4  UNL     1     -34.744  13.428  -5.158  1.00 20.00     0.001 C 
HETATM    5  C5  UNL     1     -35.513  14.001  -3.969  1.00 20.00     0.012 C 
HETATM    6  C8  UNL     1     -35.116  15.441  -3.630  1.00 20.00     0.055 C 
HETATM    7  O12 UNL     1     -35.576  17.447  -4.869  1.00 20.00    -0.298 OA
ENDROOT
BRANCH   6   8
HETATM    8  C10 UNL     1     -33.755  15.535  -2.948  1.00 20.00     0.012 C 
BRANCH   8   9
HETATM    9  C11 UNL     1     -33.691  16.728  -2.001  1.00 20.00     0.005 C 
BRANCH   9  10
HETATM   10  C9  UNL     1     -34.802  16.672  -0.964  1.00 20.00    -0.014 A 
HETATM   11  C6  UNL     1     -34.679  17.444   0.320  1.00 20.00     0.005 A 
HETATM   12  C7  UNL     1     -35.674  17.872  -0.722  1.00 20.00     0.005 A 
ENDBRANCH   9  10
ENDBRANCH   8   9
ENDBRANCH   6   8
TORSDOF 3
ENDMDL
MODEL 7
REMARK VINA RESULT:      -4.7     11.151     12.514
REMARK  3 active torsions:
REMARK  status: ('A' for Active; 'I' for Inactive)
REMARK    1  A    between atoms: C8_8  and  C10_10 
REMARK    2  A    between atoms: C9_9  and  C11_11 
REMARK    3  A    between atoms: C10_10  and  C11_11 
ROOT
HETATM    1  C1  UNL     1     -33.666  15.922  -4.508  1.00 20.00     0.131 C 
HETATM    2  C2  UNL     1     -33.116  14.807  -3.643  1.00 20.00     0.079 C 
HETATM    3  C3  UNL     1     -33.665  13.458  -4.082  1.00 20.00     0.007 C 
HETATM    4  C4  UNL     1     -35.189  13.465  -4.158  1.00 20.00     0.001 C 
HETATM    5  C5  UNL     1     -35.682  14.558  -5.103  1.00 20.00     0.012 C 
HETATM    6  C8  UNL     1     -35.169  15.953  -4.734  1.00 20.00     0.055 C 
HETATM    7  O12 UNL     1     -32.937  16.822  -4.927  1.00 20.00    -0.298 OA
ENDROOT
BRANCH   6   8
HETATM    8  C10 UNL     1     -35.864  16.535  -3.508  1.00 20.00     0.012 C 
BRANCH   8   9
HETATM    9  C11 UNL     1     -35.214  17.843  -3.071  1.00 20.00     0.005 C 
BRANCH   9  10
HETATM   10  C9  UNL     1     -34.956  17.860  -1.572  1.00 20.00    -0.014 A 
HETATM   11  C6  UNL     1     -34.658  16.581  -0.841  1.00 20.00     0.005 A 
HETATM   12  C7  UNL     1     -33.574  17.604  -1.038  1.00 20.00     0.005 A 
ENDBRANCH   9  10
ENDBRANCH   8   9
ENDBRANCH   6   8
TORSDOF 3
ENDMDL
MODEL 8
REMARK VINA RESULT:      -4.6     10.652     12.587
REMARK  3 active torsions:
REMARK  status: ('A' for Active; 'I' for Inactive)
REMARK    1  A    between atoms: C8_8  and  C10_10 
REMARK    2  A    between atoms: C9_9  and  C11_11 
REMARK    3  A    between atoms: C10_10  and  C11_11 
ROOT
HETATM    1  C1  UNL     1     -35.794  14.356  -3.940  1.00 20.00     0.131 C 
HETATM    2  C2  UNL     1     -34.732  13.430  -4.497  1.00 20.00     0.079 C 
HETATM    3  C3  UNL     1     -33.445  13.535  -3.695  1.00 20.00     0.007 C 
HETATM    4  C4  UNL     1     -32.974  14.981  -3.565  1.00 20.00     0.001 C 
HETATM    5  C5  UNL     1     -34.055  15.849  -2.926  1.00 20.00     0.012 C 
HETATM    6  C8  UNL     1     -35.392  15.798  -3.673  1.00 20.00     0.055 C 
HETATM    7  O12 UNL     1     -36.958  13.981  -3.804  1.00 20.00    -0.298 OA
ENDROOT
BRANCH   6   8
HETATM    8  C10 UNL     1     -35.370  16.580  -4.982  1.00 20.00     0.012 C 
BRANCH   8   9
HETATM    9  C11 UNL     1     -36.445  16.082  -5.942  1.00 20.00     0.005 C 
BRANCH   9  10
HETATM   10  C9  UNL     1     -35.887  15.878  -7.342  1.00 20.00    -0.014 A 
HETATM   11  C6  UNL     1     -34.518  15.286  -7.532  1.00 20.00     0.005 A 
HETATM   12  C7  UNL     1     -35.739  14.492  -7.904  1.00 20.00     0.005 A 
ENDBRANCH   9  10
ENDBRANCH   8   9
ENDBRANCH   6   8
TORSDOF 3
ENDMDL
MODEL 9
REMARK VINA RESULT:      -4.6     11.448     12.769
REMARK  3 active torsions:
REMARK  status: ('A' for Active; 'I' for Inactive)
REMARK    1  A    between atoms: C8_8  and  C10_10 
REMARK    2  A    between atoms: C9_9  and  C11_11 
REMARK    3  A    between atoms: C10_10  and  C11_11 
ROOT
HETATM    1  C1  UNL     1     -33.848  17.044  -3.931  1.00 20.00     0.131 C 
HETATM    2  C2  UNL     1     -35.087  17.912  -3.982  1.00 20.00     0.079 C 
HETATM    3  C3  UNL     1     -35.378  18.524  -2.620  1.00 20.00     0.007 C 
HETATM    4  C4  UNL     1     -35.430  17.466  -1.523  1.00 20.00     0.001 C 
HETATM    5  C5  UNL     1     -34.126  16.674  -1.467  1.00 20.00     0.012 C 
HETATM    6  C8  UNL     1     -33.755  16.026  -2.804  1.00 20.00     0.055 C 
HETATM    7  O12 UNL     1     -32.998  17.092  -4.821  1.00 20.00    -0.298 OA
ENDROOT
BRANCH   6   8
HETATM    8  C10 UNL     1     -34.616  14.811  -3.133  1.00 20.00     0.012 C 
BRANCH   8   9
HETATM    9  C11 UNL     1     -33.946  13.924  -4.177  1.00 20.00     0.005 C 
BRANCH   9  10
HETATM   10  C9  UNL     1     -34.859  13.688  -5.371  1.00 20.00    -0.014 A 
HETATM   11  C6  UNL     1     -35.909  14.701  -5.733  1.00 20.00     0.005 A 
HETATM   12  C7  UNL     1     -34.706  14.517  -6.616  1.00 20.00     0.005 A 
ENDBRANCH   9  10
ENDBRANCH   8   9
ENDBRANCH   6   8
TORSDOF 3
ENDMDL
