MODEL 1
REMARK VINA RESULT:      -4.1      0.000      0.000
REMARK  3 active torsions:
REMARK  status: ('A' for Active; 'I' for Inactive)
REMARK    1  A    between atoms: C4_4  and  C7_7 
REMARK    2  A    between atoms: C8_8  and  C9_9 
REMARK    3  A    between atoms: C9_9  and  N10_10 
ROOT
HETATM    1  C1  UNL     1     -33.712  13.441  -4.173  1.00 20.00     0.032 C 
HETATM    2  C2  UNL     1     -35.234  13.370  -4.179  1.00 20.00     0.038 C 
HETATM    3  C3  UNL     1     -33.378  14.825  -3.641  1.00 20.00     0.273 C 
HETATM    4  C4  UNL     1     -35.703  14.724  -3.641  1.00 20.00     0.237 C 
HETATM    5  N10 UNL     1     -34.574  15.608  -3.964  1.00 20.00     0.098 N 
ENDROOT
BRANCH   5   6
HETATM    6  C9  UNL     1     -34.601  16.868  -3.232  1.00 20.00     0.219 C 
HETATM    7  C6  UNL     1     -34.084  17.992  -4.123  1.00 20.00     0.043 C 
BRANCH   6   8
HETATM    8  C8  UNL     1     -33.783  16.780  -1.936  1.00 20.00     0.031 C 
HETATM    9  C5  UNL     1     -34.658  16.708  -0.692  1.00 20.00     0.007 C 
ENDBRANCH   6   8
ENDBRANCH   5   6
BRANCH   4  10
HETATM   10  C7  UNL     1     -37.016  15.161  -4.279  1.00 20.00     0.150 C 
HETATM   11 CL11 UNL     1     -36.789  15.451  -6.013  1.00 20.00    -0.128 Cl
ENDBRANCH   4  10
TORSDOF 3
ENDMDL
MODEL 2
REMARK VINA RESULT:      -3.9      1.466      1.469
REMARK  3 active torsions:
REMARK  status: ('A' for Active; 'I' for Inactive)
REMARK    1  A    between atoms: C4_4  and  C7_7 
REMARK    2  A    between atoms: C8_8  and  C9_9 
REMARK    3  A    between atoms: C9_9  and  N10_10 
ROOT
HETATM    1  C1  UNL     1     -34.222  13.389  -4.619  1.00 20.00     0.032 C 
HETATM    2  C2  UNL     1     -35.168  14.033  -5.626  1.00 20.00     0.038 C 
HETATM    3  C3  UNL     1     -34.133  14.377  -3.467  1.00 20.00     0.273 C 
HETATM    4  C4  UNL     1     -35.582  15.365  -4.997  1.00 20.00     0.237 C 
HETATM    5  N10 UNL     1     -34.458  15.659  -4.096  1.00 20.00     0.098 N 
ENDROOT
BRANCH   5   6
HETATM    6  C9  UNL     1     -34.769  16.679  -3.102  1.00 20.00     0.219 C 
HETATM    7  C6  UNL     1     -33.778  17.832  -3.220  1.00 20.00     0.043 C 
BRANCH   6   8
HETATM    8  C8  UNL     1     -34.760  16.097  -1.682  1.00 20.00     0.031 C 
HETATM    9  C5  UNL     1     -34.380  17.126  -0.626  1.00 20.00     0.007 C 
ENDBRANCH   6   8
ENDBRANCH   5   6
BRANCH   4  10
HETATM   10  C7  UNL     1     -35.812  16.441  -6.051  1.00 20.00     0.150 C 
HETATM   11 CL11 UNL     1     -34.315  16.747  -6.951  1.00 20.00    -0.128 Cl
ENDBRANCH   4  10
TORSDOF 3
ENDMDL
MODEL 3
REMARK VINA RESULT:      -3.9      1.861      2.403
REMARK  3 active torsions:
REMARK  status: ('A' for Active; 'I' for Inactive)
REMARK    1  A    between atoms: C4_4  and  C7_7 
REMARK    2  A    between atoms: C8_8  and  C9_9 
REMARK    3  A    between atoms: C9_9  and  N10_10 
ROOT
HETATM    1  C1  UNL     1     -34.520  15.880  -7.083  1.00 20.00     0.032 C 
HETATM    2  C2  UNL     1     -34.989  14.500  -6.637  1.00 20.00     0.038 C 
HETATM    3  C3  UNL     1     -33.753  16.443  -5.897  1.00 20.00     0.273 C 
HETATM    4  C4  UNL     1     -34.461  14.335  -5.210  1.00 20.00     0.237 C 
HETATM    5  N10 UNL     1     -34.324  15.726  -4.754  1.00 20.00     0.098 N 
ENDROOT
BRANCH   5   6
HETATM    6  C9  UNL     1     -33.491  15.864  -3.566  1.00 20.00     0.219 C 
HETATM    7  C6  UNL     1     -32.474  14.728  -3.516  1.00 20.00     0.043 C 
BRANCH   6   8
HETATM    8  C8  UNL     1     -34.340  15.891  -2.288  1.00 20.00     0.031 C 
HETATM    9  C5  UNL     1     -33.929  17.004  -1.332  1.00 20.00     0.007 C 
ENDBRANCH   6   8
ENDBRANCH   5   6
BRANCH   4  10
HETATM   10  C7  UNL     1     -35.406  13.506  -4.350  1.00 20.00     0.150 C 
HETATM   11 CL11 UNL     1     -36.932  14.374  -4.103  1.00 20.00    -0.128 Cl
ENDBRANCH   4  10
TORSDOF 3
ENDMDL
MODEL 4
REMARK VINA RESULT:      -3.8      1.986      3.718
REMARK  3 active torsions:
REMARK  status: ('A' for Active; 'I' for Inactive)
REMARK    1  A    between atoms: C4_4  and  C7_7 
REMARK    2  A    between atoms: C8_8  and  C9_9 
REMARK    3  A    between atoms: C9_9  and  N10_10 
ROOT
HETATM    1  C1  UNL     1     -33.629  13.590  -3.919  1.00 20.00     0.032 C 
HETATM    2  C2  UNL     1     -33.026  14.935  -3.529  1.00 20.00     0.038 C 
HETATM    3  C3  UNL     1     -35.087  13.882  -4.234  1.00 20.00     0.273 C 
HETATM    4  C4  UNL     1     -34.174  15.940  -3.645  1.00 20.00     0.237 C 
HETATM    5  N10 UNL     1     -35.363  15.096  -3.461  1.00 20.00     0.098 N 
ENDROOT
BRANCH   5   6
HETATM    6  C9  UNL     1     -36.598  15.737  -3.894  1.00 20.00     0.219 C 
HETATM    7  C6  UNL     1     -37.756  14.750  -3.786  1.00 20.00     0.043 C 
BRANCH   6   8
HETATM    8  C8  UNL     1     -36.475  16.278  -5.325  1.00 20.00     0.031 C 
HETATM    9  C5  UNL     1     -37.564  15.750  -6.249  1.00 20.00     0.007 C 
ENDBRANCH   6   8
ENDBRANCH   5   6
BRANCH   4  10
HETATM   10  C7  UNL     1     -34.056  17.054  -2.613  1.00 20.00     0.150 C 
HETATM   11 CL11 UNL     1     -34.558  16.467  -1.017  1.00 20.00    -0.128 Cl
ENDBRANCH   4  10
TORSDOF 3
ENDMDL
MODEL 5
REMARK VINA RESULT:      -3.8      2.372      3.317
REMARK  3 active torsions:
REMARK  status: ('A' for Active; 'I' for Inactive)
REMARK    1  A    between atoms: C4_4  and  C7_7 
REMARK    2  A    between atoms: C8_8  and  C9_9 
REMARK    3  A    between atoms: C9_9  and  N10_10 
ROOT
HETATM    1  C1  UNL     1     -35.094  14.999  -7.042  1.00 20.00     0.032 C 
HETATM    2  C2  UNL     1     -34.918  16.507  -6.902  1.00 20.00     0.038 C 
HETATM    3  C3  UNL     1     -34.682  14.423  -5.696  1.00 20.00     0.273 C 
HETATM    4  C4  UNL     1     -34.416  16.724  -5.472  1.00 20.00     0.237 C 
HETATM    5  N10 UNL     1     -33.775  15.439  -5.157  1.00 20.00     0.098 N 
ENDROOT
BRANCH   5   6
HETATM    6  C9  UNL     1     -33.543  15.246  -3.731  1.00 20.00     0.219 C 
HETATM    7  C6  UNL     1     -32.965  13.856  -3.487  1.00 20.00     0.043 C 
BRANCH   6   8
HETATM    8  C8  UNL     1     -34.831  15.450  -2.922  1.00 20.00     0.031 C 
HETATM    9  C5  UNL     1     -34.595  16.202  -1.619  1.00 20.00     0.007 C 
ENDBRANCH   6   8
ENDBRANCH   5   6
BRANCH   4  10
HETATM   10  C7  UNL     1     -33.468  17.913  -5.381  1.00 20.00     0.150 C 
HETATM   11 CL11 UNL     1     -33.817  18.866  -3.928  1.00 20.00    -0.128 Cl
ENDBRANCH   4  10
TORSDOF 3
ENDMDL
MODEL 6
REMARK VINA RESULT:      -3.8     11.378     13.264
REMARK  3 active torsions:
REMARK  status: ('A' for Active; 'I' for Inactive)
REMARK    1  A    between atoms: C4_4  and  C7_7 
REMARK    2  A    between atoms: C8_8  and  C9_9 
REMARK    3  A    between atoms: C9_9  and  N10_10 
ROOT
HETATM    1  C1  UNL     1     -40.785   6.229  -0.078  1.00 20.00     0.032 C 
HETATM    2  C2  UNL     1     -41.209   7.116  -1.242  1.00 20.00     0.038 C 
HETATM    3  C3  UNL     1     -41.215   4.824  -0.469  1.00 20.00     0.273 C 
HETATM    4  C4  UNL     1     -41.861   6.171  -2.254  1.00 20.00     0.237 C 
HETATM    5  N10 UNL     1     -42.315   5.057  -1.409  1.00 20.00     0.098 N 
ENDROOT
BRANCH   5   6
HETATM    6  C9  UNL     1     -42.636   3.853  -2.165  1.00 20.00     0.219 C 
HETATM    7  C6  UNL     1     -43.417   2.884  -1.284  1.00 20.00     0.043 C 
BRANCH   6   8
HETATM    8  C8  UNL     1     -41.369   3.186  -2.718  1.00 20.00     0.031 C 
HETATM    9  C5  UNL     1     -41.671   1.938  -3.538  1.00 20.00     0.007 C 
ENDBRANCH   6   8
ENDBRANCH   5   6
BRANCH   4  10
HETATM   10  C7  UNL     1     -42.990   6.851  -3.017  1.00 20.00     0.150 C 
HETATM   11 CL11 UNL     1     -42.360   8.216  -3.957  1.00 20.00    -0.128 Cl
ENDBRANCH   4  10
TORSDOF 3
ENDMDL
MODEL 7
REMARK VINA RESULT:      -3.8      2.001      3.136
REMARK  3 active torsions:
REMARK  status: ('A' for Active; 'I' for Inactive)
REMARK    1  A    between atoms: C4_4  and  C7_7 
REMARK    2  A    between atoms: C8_8  and  C9_9 
REMARK    3  A    between atoms: C9_9  and  N10_10 
ROOT
HETATM    1  C1  UNL     1     -34.497  17.604  -5.425  1.00 20.00     0.032 C 
HETATM    2  C2  UNL     1     -33.731  16.288  -5.495  1.00 20.00     0.038 C 
HETATM    3  C3  UNL     1     -34.383  18.055  -3.978  1.00 20.00     0.273 C 
HETATM    4  C4  UNL     1     -33.207  16.049  -4.077  1.00 20.00     0.237 C 
HETATM    5  N10 UNL     1     -34.160  16.803  -3.250  1.00 20.00     0.098 N 
ENDROOT
BRANCH   5   6
HETATM    6  C9  UNL     1     -33.680  17.050  -1.896  1.00 20.00     0.219 C 
HETATM    7  C6  UNL     1     -34.707  16.550  -0.886  1.00 20.00     0.043 C 
BRANCH   6   8
HETATM    8  C8  UNL     1     -33.376  18.538  -1.673  1.00 20.00     0.031 C 
HETATM    9  C5  UNL     1     -32.788  18.818  -0.297  1.00 20.00     0.007 C 
ENDBRANCH   6   8
ENDBRANCH   5   6
BRANCH   4  10
HETATM   10  C7  UNL     1     -33.152  14.565  -3.737  1.00 20.00     0.150 C 
HETATM   11 CL11 UNL     1     -34.786  13.877  -3.729  1.00 20.00    -0.128 Cl
ENDBRANCH   4  10
TORSDOF 3
ENDMDL
MODEL 8
REMARK VINA RESULT:      -3.8      1.755      2.734
REMARK  3 active torsions:
REMARK  status: ('A' for Active; 'I' for Inactive)
REMARK    1  A    between atoms: C4_4  and  C7_7 
REMARK    2  A    between atoms: C8_8  and  C9_9 
REMARK    3  A    between atoms: C9_9  and  N10_10 
ROOT
HETATM    1  C1  UNL     1     -33.510  17.996  -5.279  1.00 20.00     0.032 C 
HETATM    2  C2  UNL     1     -33.608  16.540  -5.722  1.00 20.00     0.038 C 
HETATM    3  C3  UNL     1     -34.245  18.059  -3.950  1.00 20.00     0.273 C 
HETATM    4  C4  UNL     1     -34.395  15.834  -4.616  1.00 20.00     0.237 C 
HETATM    5  N10 UNL     1     -35.176  16.930  -4.025  1.00 20.00     0.098 N 
ENDROOT
BRANCH   5   6
HETATM    6  C9  UNL     1     -35.728  16.604  -2.716  1.00 20.00     0.219 C 
HETATM    7  C6  UNL     1     -36.495  17.803  -2.167  1.00 20.00     0.043 C 
BRANCH   6   8
HETATM    8  C8  UNL     1     -34.628  16.168  -1.739  1.00 20.00     0.031 C 
HETATM    9  C5  UNL     1     -34.680  16.925  -0.418  1.00 20.00     0.007 C 
ENDBRANCH   6   8
ENDBRANCH   5   6
BRANCH   4  10
HETATM   10  C7  UNL     1     -35.256  14.705  -5.168  1.00 20.00     0.150 C 
HETATM   11 CL11 UNL     1     -35.074  13.250  -4.172  1.00 20.00    -0.128 Cl
ENDBRANCH   4  10
TORSDOF 3
ENDMDL
MODEL 9
REMARK VINA RESULT:      -3.8      2.334      3.082
REMARK  3 active torsions:
REMARK  status: ('A' for Active; 'I' for Inactive)
REMARK    1  A    between atoms: C4_4  and  C7_7 
REMARK    2  A    between atoms: C8_8  and  C9_9 
REMARK    3  A    between atoms: C9_9  and  N10_10 
ROOT
HETATM    1  C1  UNL     1     -34.489  13.222  -4.929  1.00 20.00     0.032 C 
HETATM    2  C2  UNL     1     -34.289  13.748  -3.512  1.00 20.00     0.038 C 
HETATM    3  C3  UNL     1     -34.688  14.458  -5.790  1.00 20.00     0.273 C 
HETATM    4  C4  UNL     1     -34.378  15.272  -3.631  1.00 20.00     0.237 C 
HETATM    5  N10 UNL     1     -35.194  15.453  -4.840  1.00 20.00     0.098 N 
ENDROOT
BRANCH   5   6
HETATM    6  C9  UNL     1     -35.119  16.802  -5.389  1.00 20.00     0.219 C 
HETATM    7  C6  UNL     1     -35.804  16.843  -6.751  1.00 20.00     0.043 C 
BRANCH   6   8
HETATM    8  C8  UNL     1     -33.666  17.283  -5.495  1.00 20.00     0.031 C 
HETATM    9  C5  UNL     1     -33.479  18.707  -4.990  1.00 20.00     0.007 C 
ENDBRANCH   6   8
ENDBRANCH   5   6
BRANCH   4  10
HETATM   10  C7  UNL     1     -34.992  15.900  -2.387  1.00 20.00     0.150 C 
HETATM   11 CL11 UNL     1     -33.794  16.907  -1.554  1.00 20.00    -0.128 Cl
ENDBRANCH   4  10
TORSDOF 3
ENDMDL
