MODEL 1
REMARK VINA RESULT:      -5.4      0.000      0.000
REMARK  5 active torsions:
REMARK  status: ('A' for Active; 'I' for Inactive)
REMARK    1  A    between atoms: C1_1  and  C7_7 
REMARK    2  A    between atoms: C1_1  and  C10_10 
REMARK    3  A    between atoms: C4_4  and  C8_8 
REMARK    4  A    between atoms: C8_8  and  C9_9 
REMARK    5  A    between atoms: C9_9  and  C10_10 
ROOT
HETATM    1  C6  UNL     1     -34.323   5.334   2.658  1.00 20.00     0.018 C 
HETATM    2  C10 UNL     1     -33.717   6.380   3.589  1.00 20.00     0.051 C 
ENDROOT
BRANCH   2   3
HETATM    3  C1  UNL     1     -34.165   6.071   5.017  1.00 20.00     0.130 C 
HETATM    4  O11 UNL     1     -33.699   6.673   5.986  1.00 20.00    -0.298 OA
BRANCH   3   5
HETATM    5  C7  UNL     1     -35.189   4.958   5.171  1.00 20.00     0.074 C 
HETATM    6  C5  UNL     1     -34.682   3.809   6.024  1.00 20.00     0.013 C 
ENDBRANCH   3   5
ENDBRANCH   2   3
BRANCH   2   7
HETATM    7  C9  UNL     1     -32.186   6.402   3.467  1.00 20.00     0.012 C 
BRANCH   7   8
HETATM    8  C8  UNL     1     -31.655   7.768   3.020  1.00 20.00     0.005 C 
BRANCH   8   9
HETATM    9  C4  UNL     1     -32.472   8.341   1.903  1.00 20.00    -0.014 A 
HETATM   10  C2  UNL     1     -32.453   9.820   1.634  1.00 20.00     0.005 A 
HETATM   11  C3  UNL     1     -31.797   8.873   0.668  1.00 20.00     0.005 A 
ENDBRANCH   8   9
ENDBRANCH   7   8
ENDBRANCH   2   7
TORSDOF 5
ENDMDL
MODEL 2
REMARK VINA RESULT:      -5.2      1.571      2.262
REMARK  5 active torsions:
REMARK  status: ('A' for Active; 'I' for Inactive)
REMARK    1  A    between atoms: C1_1  and  C7_7 
REMARK    2  A    between atoms: C1_1  and  C10_10 
REMARK    3  A    between atoms: C4_4  and  C8_8 
REMARK    4  A    between atoms: C8_8  and  C9_9 
REMARK    5  A    between atoms: C9_9  and  C10_10 
ROOT
HETATM    1  C6  UNL     1     -36.221   5.897   3.444  1.00 20.00     0.018 C 
HETATM    2  C10 UNL     1     -34.799   5.646   3.940  1.00 20.00     0.051 C 
ENDROOT
BRANCH   2   3
HETATM    3  C1  UNL     1     -34.865   4.680   5.122  1.00 20.00     0.130 C 
HETATM    4  O11 UNL     1     -35.143   3.490   4.970  1.00 20.00    -0.298 OA
BRANCH   3   5
HETATM    5  C7  UNL     1     -34.602   5.282   6.493  1.00 20.00     0.074 C 
HETATM    6  C5  UNL     1     -33.940   6.646   6.417  1.00 20.00     0.013 C 
ENDBRANCH   3   5
ENDBRANCH   2   3
BRANCH   2   7
HETATM    7  C9  UNL     1     -33.914   5.100   2.810  1.00 20.00     0.012 C 
BRANCH   7   8
HETATM    8  C8  UNL     1     -32.525   5.747   2.792  1.00 20.00     0.005 C 
BRANCH   8   9
HETATM    9  C4  UNL     1     -32.594   7.217   3.073  1.00 20.00    -0.014 A 
HETATM   10  C2  UNL     1     -31.358   7.968   3.482  1.00 20.00     0.005 A 
HETATM   11  C3  UNL     1     -31.964   8.199   2.125  1.00 20.00     0.005 A 
ENDBRANCH   8   9
ENDBRANCH   7   8
ENDBRANCH   2   7
TORSDOF 5
ENDMDL
MODEL 3
REMARK VINA RESULT:      -5.0      1.324      5.006
REMARK  5 active torsions:
REMARK  status: ('A' for Active; 'I' for Inactive)
REMARK    1  A    between atoms: C1_1  and  C7_7 
REMARK    2  A    between atoms: C1_1  and  C10_10 
REMARK    3  A    between atoms: C4_4  and  C8_8 
REMARK    4  A    between atoms: C8_8  and  C9_9 
REMARK    5  A    between atoms: C9_9  and  C10_10 
ROOT
HETATM    1  C6  UNL     1     -33.196   5.594   2.384  1.00 20.00     0.018 C 
HETATM    2  C10 UNL     1     -32.736   6.330   3.640  1.00 20.00     0.051 C 
ENDROOT
BRANCH   2   3
HETATM    3  C1  UNL     1     -31.832   7.487   3.216  1.00 20.00     0.130 C 
HETATM    4  O11 UNL     1     -31.044   8.014   4.003  1.00 20.00    -0.298 OA
BRANCH   3   5
HETATM    5  C7  UNL     1     -31.989   7.968   1.782  1.00 20.00     0.074 C 
HETATM    6  C5  UNL     1     -32.421   9.421   1.696  1.00 20.00     0.013 C 
ENDBRANCH   3   5
ENDBRANCH   2   3
BRANCH   2   7
HETATM    7  C9  UNL     1     -33.939   6.820   4.459  1.00 20.00     0.012 C 
BRANCH   7   8
HETATM    8  C8  UNL     1     -33.881   6.352   5.917  1.00 20.00     0.005 C 
BRANCH   8   9
HETATM    9  C4  UNL     1     -34.850   5.240   6.181  1.00 20.00    -0.014 A 
HETATM   10  C2  UNL     1     -35.388   4.420   5.042  1.00 20.00     0.005 A 
HETATM   11  C3  UNL     1     -34.420   3.808   6.017  1.00 20.00     0.005 A 
ENDBRANCH   8   9
ENDBRANCH   7   8
ENDBRANCH   2   7
TORSDOF 5
ENDMDL
MODEL 4
REMARK VINA RESULT:      -4.7      1.284      1.557
REMARK  5 active torsions:
REMARK  status: ('A' for Active; 'I' for Inactive)
REMARK    1  A    between atoms: C1_1  and  C7_7 
REMARK    2  A    between atoms: C1_1  and  C10_10 
REMARK    3  A    between atoms: C4_4  and  C8_8 
REMARK    4  A    between atoms: C8_8  and  C9_9 
REMARK    5  A    between atoms: C9_9  and  C10_10 
ROOT
HETATM    1  C6  UNL     1     -33.417   7.061   5.189  1.00 20.00     0.018 C 
HETATM    2  C10 UNL     1     -33.312   5.805   4.327  1.00 20.00     0.051 C 
ENDROOT
BRANCH   2   3
HETATM    3  C1  UNL     1     -34.720   5.258   4.099  1.00 20.00     0.130 C 
HETATM    4  O11 UNL     1     -35.491   5.773   3.288  1.00 20.00    -0.298 OA
BRANCH   3   5
HETATM    5  C7  UNL     1     -35.122   4.067   4.955  1.00 20.00     0.074 C 
HETATM    6  C5  UNL     1     -35.116   4.384   6.439  1.00 20.00     0.013 C 
ENDBRANCH   3   5
ENDBRANCH   2   3
BRANCH   2   7
HETATM    7  C9  UNL     1     -32.599   6.108   3.001  1.00 20.00     0.012 C 
BRANCH   7   8
HETATM    8  C8  UNL     1     -32.058   7.541   2.943  1.00 20.00     0.005 C 
BRANCH   8   9
HETATM    9  C4  UNL     1     -32.603   8.291   1.766  1.00 20.00    -0.014 A 
HETATM   10  C2  UNL     1     -32.411   9.779   1.663  1.00 20.00     0.005 A 
HETATM   11  C3  UNL     1     -31.669   8.859   0.734  1.00 20.00     0.005 A 
ENDBRANCH   8   9
ENDBRANCH   7   8
ENDBRANCH   2   7
TORSDOF 5
ENDMDL
MODEL 5
REMARK VINA RESULT:      -4.7     10.549     11.909
REMARK  5 active torsions:
REMARK  status: ('A' for Active; 'I' for Inactive)
REMARK    1  A    between atoms: C1_1  and  C7_7 
REMARK    2  A    between atoms: C1_1  and  C10_10 
REMARK    3  A    between atoms: C4_4  and  C8_8 
REMARK    4  A    between atoms: C8_8  and  C9_9 
REMARK    5  A    between atoms: C9_9  and  C10_10 
ROOT
HETATM    1  C6  UNL     1     -32.954  14.030  -3.541  1.00 20.00     0.018 C 
HETATM    2  C10 UNL     1     -34.196  14.687  -4.138  1.00 20.00     0.051 C 
ENDROOT
BRANCH   2   3
HETATM    3  C1  UNL     1     -34.834  13.705  -5.120  1.00 20.00     0.130 C 
HETATM    4  O11 UNL     1     -34.887  12.497  -4.884  1.00 20.00    -0.298 OA
BRANCH   3   5
HETATM    5  C7  UNL     1     -35.365  14.301  -6.414  1.00 20.00     0.074 C 
HETATM    6  C5  UNL     1     -34.321  15.120  -7.152  1.00 20.00     0.013 C 
ENDBRANCH   3   5
ENDBRANCH   2   3
BRANCH   2   7
HETATM    7  C9  UNL     1     -35.179  15.106  -3.035  1.00 20.00     0.012 C 
BRANCH   7   8
HETATM    8  C8  UNL     1     -34.925  16.533  -2.539  1.00 20.00     0.005 C 
BRANCH   8   9
HETATM    9  C4  UNL     1     -34.290  16.543  -1.182  1.00 20.00    -0.014 A 
HETATM   10  C2  UNL     1     -33.673  17.804  -0.645  1.00 20.00     0.005 A 
HETATM   11  C3  UNL     1     -34.946  17.276  -0.045  1.00 20.00     0.005 A 
ENDBRANCH   8   9
ENDBRANCH   7   8
ENDBRANCH   2   7
TORSDOF 5
ENDMDL
MODEL 6
REMARK VINA RESULT:      -4.3     10.773     12.348
REMARK  5 active torsions:
REMARK  status: ('A' for Active; 'I' for Inactive)
REMARK    1  A    between atoms: C1_1  and  C7_7 
REMARK    2  A    between atoms: C1_1  and  C10_10 
REMARK    3  A    between atoms: C4_4  and  C8_8 
REMARK    4  A    between atoms: C8_8  and  C9_9 
REMARK    5  A    between atoms: C9_9  and  C10_10 
ROOT
HETATM    1  C6  UNL     1     -33.522  13.655  -3.760  1.00 20.00     0.018 C 
HETATM    2  C10 UNL     1     -33.454  15.164  -3.534  1.00 20.00     0.051 C 
ENDROOT
BRANCH   2   3
HETATM    3  C1  UNL     1     -33.668  15.862  -4.876  1.00 20.00     0.130 C 
HETATM    4  O11 UNL     1     -32.947  16.790  -5.244  1.00 20.00    -0.298 OA
BRANCH   3   5
HETATM    5  C7  UNL     1     -34.842  15.368  -5.707  1.00 20.00     0.074 C 
HETATM    6  C5  UNL     1     -34.447  15.028  -7.133  1.00 20.00     0.013 C 
ENDBRANCH   3   5
ENDBRANCH   2   3
BRANCH   2   7
HETATM    7  C9  UNL     1     -34.489  15.609  -2.490  1.00 20.00     0.012 C 
BRANCH   7   8
HETATM    8  C8  UNL     1     -33.995  16.787  -1.644  1.00 20.00     0.005 C 
BRANCH   8   9
HETATM    9  C4  UNL     1     -34.764  16.910  -0.364  1.00 20.00    -0.014 A 
HETATM   10  C2  UNL     1     -34.391  17.960   0.645  1.00 20.00     0.005 A 
HETATM   11  C3  UNL     1     -35.670  18.088  -0.135  1.00 20.00     0.005 A 
ENDBRANCH   8   9
ENDBRANCH   7   8
ENDBRANCH   2   7
TORSDOF 5
ENDMDL
MODEL 7
REMARK VINA RESULT:      -4.3     11.038     11.818
REMARK  5 active torsions:
REMARK  status: ('A' for Active; 'I' for Inactive)
REMARK    1  A    between atoms: C1_1  and  C7_7 
REMARK    2  A    between atoms: C1_1  and  C10_10 
REMARK    3  A    between atoms: C4_4  and  C8_8 
REMARK    4  A    between atoms: C8_8  and  C9_9 
REMARK    5  A    between atoms: C9_9  and  C10_10 
ROOT
HETATM    1  C6  UNL     1     -36.195  16.871  -3.874  1.00 20.00     0.018 C 
HETATM    2  C10 UNL     1     -35.950  15.634  -3.014  1.00 20.00     0.051 C 
ENDROOT
BRANCH   2   3
HETATM    3  C1  UNL     1     -36.357  14.400  -3.819  1.00 20.00     0.130 C 
HETATM    4  O11 UNL     1     -37.535  14.059  -3.930  1.00 20.00    -0.298 OA
BRANCH   3   5
HETATM    5  C7  UNL     1     -35.221  13.603  -4.442  1.00 20.00     0.074 C 
HETATM    6  C5  UNL     1     -34.965  13.982  -5.889  1.00 20.00     0.013 C 
ENDBRANCH   3   5
ENDBRANCH   2   3
BRANCH   2   7
HETATM    7  C9  UNL     1     -34.484  15.560  -2.564  1.00 20.00     0.012 C 
BRANCH   7   8
HETATM    8  C8  UNL     1     -34.029  16.835  -1.845  1.00 20.00     0.005 C 
BRANCH   8   9
HETATM    9  C4  UNL     1     -34.590  16.919  -0.459  1.00 20.00    -0.014 A 
HETATM   10  C2  UNL     1     -34.136  18.004   0.477  1.00 20.00     0.005 A 
HETATM   11  C3  UNL     1     -35.528  18.034  -0.088  1.00 20.00     0.005 A 
ENDBRANCH   8   9
ENDBRANCH   7   8
ENDBRANCH   2   7
TORSDOF 5
ENDMDL
MODEL 8
REMARK VINA RESULT:      -4.3     11.047     11.827
REMARK  5 active torsions:
REMARK  status: ('A' for Active; 'I' for Inactive)
REMARK    1  A    between atoms: C1_1  and  C7_7 
REMARK    2  A    between atoms: C1_1  and  C10_10 
REMARK    3  A    between atoms: C4_4  and  C8_8 
REMARK    4  A    between atoms: C8_8  and  C9_9 
REMARK    5  A    between atoms: C9_9  and  C10_10 
ROOT
HETATM    1  C6  UNL     1     -34.431  14.848  -6.617  1.00 20.00     0.018 C 
HETATM    2  C10 UNL     1     -34.706  15.183  -5.153  1.00 20.00     0.051 C 
ENDROOT
BRANCH   2   3
HETATM    3  C1  UNL     1     -35.475  14.020  -4.529  1.00 20.00     0.130 C 
HETATM    4  O11 UNL     1     -35.019  12.876  -4.517  1.00 20.00    -0.298 OA
BRANCH   3   5
HETATM    5  C7  UNL     1     -36.844  14.353  -3.957  1.00 20.00     0.074 C 
HETATM    6  C5  UNL     1     -37.271  15.779  -4.255  1.00 20.00     0.013 C 
ENDBRANCH   3   5
ENDBRANCH   2   3
BRANCH   2   7
HETATM    7  C9  UNL     1     -33.397  15.467  -4.401  1.00 20.00     0.012 C 
BRANCH   7   8
HETATM    8  C8  UNL     1     -33.569  15.398  -2.881  1.00 20.00     0.005 C 
BRANCH   8   9
HETATM    9  C4  UNL     1     -34.215  16.637  -2.340  1.00 20.00    -0.014 A 
HETATM   10  C2  UNL     1     -34.790  16.647  -0.951  1.00 20.00     0.005 A 
HETATM   11  C3  UNL     1     -33.542  17.429  -1.253  1.00 20.00     0.005 A 
ENDBRANCH   8   9
ENDBRANCH   7   8
ENDBRANCH   2   7
TORSDOF 5
ENDMDL
MODEL 9
REMARK VINA RESULT:      -4.3     10.734     11.857
REMARK  5 active torsions:
REMARK  status: ('A' for Active; 'I' for Inactive)
REMARK    1  A    between atoms: C1_1  and  C7_7 
REMARK    2  A    between atoms: C1_1  and  C10_10 
REMARK    3  A    between atoms: C4_4  and  C8_8 
REMARK    4  A    between atoms: C8_8  and  C9_9 
REMARK    5  A    between atoms: C9_9  and  C10_10 
ROOT
HETATM    1  C6  UNL     1     -33.068  14.691  -3.702  1.00 20.00     0.018 C 
HETATM    2  C10 UNL     1     -34.451  14.466  -3.094  1.00 20.00     0.051 C 
ENDROOT
BRANCH   2   3
HETATM    3  C1  UNL     1     -35.006  15.818  -2.646  1.00 20.00     0.130 C 
HETATM    4  O11 UNL     1     -36.114  16.214  -3.008  1.00 20.00    -0.298 OA
BRANCH   3   5
HETATM    5  C7  UNL     1     -34.096  16.654  -1.760  1.00 20.00     0.074 C 
HETATM    6  C5  UNL     1     -34.696  16.921  -0.391  1.00 20.00     0.013 C 
ENDBRANCH   3   5
ENDBRANCH   2   3
BRANCH   2   7
HETATM    7  C9  UNL     1     -35.384  13.774  -4.097  1.00 20.00     0.012 C 
BRANCH   7   8
HETATM    8  C8  UNL     1     -34.707  13.524  -5.449  1.00 20.00     0.005 C 
BRANCH   8   9
HETATM    9  C4  UNL     1     -35.362  14.301  -6.549  1.00 20.00    -0.014 A 
HETATM   10  C2  UNL     1     -35.369  15.804  -6.513  1.00 20.00     0.005 A 
HETATM   11  C3  UNL     1     -34.526  15.081  -7.526  1.00 20.00     0.005 A 
ENDBRANCH   8   9
ENDBRANCH   7   8
ENDBRANCH   2   7
TORSDOF 5
ENDMDL
