MODEL 1
REMARK VINA RESULT:      -5.4      0.000      0.000
REMARK  4 active torsions:
REMARK  status: ('A' for Active; 'I' for Inactive)
REMARK    1  A    between atoms: C6_6  and  C9_9 
REMARK    2  A    between atoms: C7_7  and  C10_10 
REMARK    3  A    between atoms: C8_8  and  O11_11 
REMARK    4  A    between atoms: C9_9  and  C10_10 
ROOT
HETATM    1  C1  UNL     1     -35.575   4.679   4.615  1.00 20.00     0.003 C 
HETATM    2  C2  UNL     1     -34.744   5.590   3.710  1.00 20.00     0.007 C 
HETATM    3  C5  UNL     1     -34.756   4.468   5.892  1.00 20.00     0.032 C 
HETATM    4  C7  UNL     1     -33.361   5.656   4.365  1.00 20.00     0.014 C 
HETATM    5  C8  UNL     1     -33.679   5.548   5.856  1.00 20.00     0.122 C 
ENDROOT
BRANCH   4   6
HETATM    6  C10 UNL     1     -32.584   6.902   3.969  1.00 20.00     0.007 C 
BRANCH   6   7
HETATM    7  C9  UNL     1     -32.635   7.139   2.461  1.00 20.00     0.005 C 
BRANCH   7   8
HETATM    8  C6  UNL     1     -31.871   8.393   2.069  1.00 20.00    -0.014 A 
HETATM    9  C3  UNL     1     -31.848   8.848   0.636  1.00 20.00     0.005 A 
HETATM   10  C4  UNL     1     -32.615   9.636   1.661  1.00 20.00     0.005 A 
ENDBRANCH   7   8
ENDBRANCH   6   7
ENDBRANCH   4   6
BRANCH   5  11
HETATM   11  O11 UNL     1     -34.209   6.771   6.355  1.00 20.00    -0.395 OA
HETATM   12  H29 UNL     1     -33.956   7.463   5.723  1.00 20.00     0.210 HD
ENDBRANCH   5  11
TORSDOF 4
ENDMDL
MODEL 2
REMARK VINA RESULT:      -4.9     10.936     12.190
REMARK  4 active torsions:
REMARK  status: ('A' for Active; 'I' for Inactive)
REMARK    1  A    between atoms: C6_6  and  C9_9 
REMARK    2  A    between atoms: C7_7  and  C10_10 
REMARK    3  A    between atoms: C8_8  and  O11_11 
REMARK    4  A    between atoms: C9_9  and  C10_10 
ROOT
HETATM    1  C1  UNL     1     -34.421  13.432  -4.939  1.00 20.00     0.003 C 
HETATM    2  C2  UNL     1     -34.253  13.945  -3.508  1.00 20.00     0.007 C 
HETATM    3  C5  UNL     1     -34.500  14.668  -5.840  1.00 20.00     0.032 C 
HETATM    4  C7  UNL     1     -34.513  15.452  -3.587  1.00 20.00     0.014 C 
HETATM    5  C8  UNL     1     -33.995  15.820  -4.978  1.00 20.00     0.122 C 
ENDROOT
BRANCH   4   6
HETATM    6  C10 UNL     1     -33.868  16.220  -2.444  1.00 20.00     0.007 C 
BRANCH   6   7
HETATM    7  C9  UNL     1     -34.892  17.060  -1.685  1.00 20.00     0.005 C 
BRANCH   7   8
HETATM    8  C6  UNL     1     -34.681  16.972  -0.183  1.00 20.00    -0.014 A 
HETATM    9  C3  UNL     1     -34.068  18.124   0.565  1.00 20.00     0.005 A 
HETATM   10  C4  UNL     1     -35.524  17.799   0.750  1.00 20.00     0.005 A 
ENDBRANCH   7   8
ENDBRANCH   6   7
ENDBRANCH   4   6
BRANCH   5  11
HETATM   11  O11 UNL     1     -32.572  15.850  -5.000  1.00 20.00    -0.395 OA
HETATM   12  H29 UNL     1     -32.308  15.874  -5.934  1.00 20.00     0.210 HD
ENDBRANCH   5  11
TORSDOF 4
ENDMDL
MODEL 3
REMARK VINA RESULT:      -4.8      1.537      2.059
REMARK  4 active torsions:
REMARK  status: ('A' for Active; 'I' for Inactive)
REMARK    1  A    between atoms: C6_6  and  C9_9 
REMARK    2  A    between atoms: C7_7  and  C10_10 
REMARK    3  A    between atoms: C8_8  and  O11_11 
REMARK    4  A    between atoms: C9_9  and  C10_10 
ROOT
HETATM    1  C1  UNL     1     -35.126   4.980   5.309  1.00 20.00     0.003 C 
HETATM    2  C2  UNL     1     -33.660   5.412   5.242  1.00 20.00     0.007 C 
HETATM    3  C5  UNL     1     -35.772   5.423   3.993  1.00 20.00     0.032 C 
HETATM    4  C7  UNL     1     -33.565   6.328   4.019  1.00 20.00     0.014 C 
HETATM    5  C8  UNL     1     -34.604   5.740   3.065  1.00 20.00     0.122 C 
ENDROOT
BRANCH   4   6
HETATM    6  C10 UNL     1     -32.155   6.408   3.454  1.00 20.00     0.007 C 
BRANCH   6   7
HETATM    7  C9  UNL     1     -31.761   7.849   3.136  1.00 20.00     0.005 C 
BRANCH   7   8
HETATM    8  C6  UNL     1     -32.470   8.360   1.893  1.00 20.00    -0.014 A 
HETATM    9  C3  UNL     1     -32.426   9.821   1.542  1.00 20.00     0.005 A 
HETATM   10  C4  UNL     1     -31.673   8.825   0.705  1.00 20.00     0.005 A 
ENDBRANCH   7   8
ENDBRANCH   6   7
ENDBRANCH   4   6
BRANCH   5  11
HETATM   11  O11 UNL     1     -34.126   4.540   2.467  1.00 20.00    -0.395 OA
HETATM   12  H29 UNL     1     -34.792   3.856   2.643  1.00 20.00     0.210 HD
ENDBRANCH   5  11
TORSDOF 4
ENDMDL
MODEL 4
REMARK VINA RESULT:      -4.8     11.091     12.069
REMARK  4 active torsions:
REMARK  status: ('A' for Active; 'I' for Inactive)
REMARK    1  A    between atoms: C6_6  and  C9_9 
REMARK    2  A    between atoms: C7_7  and  C10_10 
REMARK    3  A    between atoms: C8_8  and  O11_11 
REMARK    4  A    between atoms: C9_9  and  C10_10 
ROOT
HETATM    1  C1  UNL     1     -36.161  14.977  -6.096  1.00 20.00     0.003 C 
HETATM    2  C2  UNL     1     -35.835  15.625  -4.750  1.00 20.00     0.007 C 
HETATM    3  C5  UNL     1     -35.092  13.907  -6.336  1.00 20.00     0.032 C 
HETATM    4  C7  UNL     1     -34.442  15.108  -4.381  1.00 20.00     0.014 C 
HETATM    5  C8  UNL     1     -34.425  13.702  -4.980  1.00 20.00     0.122 C 
ENDROOT
BRANCH   4   6
HETATM    6  C10 UNL     1     -34.172  15.165  -2.885  1.00 20.00     0.007 C 
BRANCH   6   7
HETATM    7  C9  UNL     1     -35.098  16.158  -2.186  1.00 20.00     0.005 C 
BRANCH   7   8
HETATM    8  C6  UNL     1     -34.571  16.540  -0.813  1.00 20.00    -0.014 A 
HETATM    9  C3  UNL     1     -33.754  17.790  -0.636  1.00 20.00     0.005 A 
HETATM   10  C4  UNL     1     -35.149  17.721  -0.082  1.00 20.00     0.005 A 
ENDBRANCH   7   8
ENDBRANCH   6   7
ENDBRANCH   4   6
BRANCH   5  11
HETATM   11  O11 UNL     1     -35.199  12.803  -4.194  1.00 20.00    -0.395 OA
HETATM   12  H29 UNL     1     -36.127  12.941  -4.445  1.00 20.00     0.210 HD
ENDBRANCH   5  11
TORSDOF 4
ENDMDL
MODEL 5
REMARK VINA RESULT:      -4.6     10.995     12.079
REMARK  4 active torsions:
REMARK  status: ('A' for Active; 'I' for Inactive)
REMARK    1  A    between atoms: C6_6  and  C9_9 
REMARK    2  A    between atoms: C7_7  and  C10_10 
REMARK    3  A    between atoms: C8_8  and  O11_11 
REMARK    4  A    between atoms: C9_9  and  C10_10 
ROOT
HETATM    1  C1  UNL     1     -34.797  17.408   0.153  1.00 20.00     0.003 C 
HETATM    2  C2  UNL     1     -34.838  16.436  -1.027  1.00 20.00     0.007 C 
HETATM    3  C5  UNL     1     -33.787  18.499  -0.215  1.00 20.00     0.032 C 
HETATM    4  C7  UNL     1     -33.659  16.834  -1.919  1.00 20.00     0.014 C 
HETATM    5  C8  UNL     1     -33.568  18.347  -1.717  1.00 20.00     0.122 C 
ENDROOT
BRANCH   4   6
HETATM    6  C10 UNL     1     -33.841  16.395  -3.364  1.00 20.00     0.007 C 
BRANCH   6   7
HETATM    7  C9  UNL     1     -33.118  15.080  -3.645  1.00 20.00     0.005 C 
BRANCH   7   8
HETATM    8  C6  UNL     1     -34.070  13.897  -3.584  1.00 20.00    -0.014 A 
HETATM    9  C3  UNL     1     -35.483  14.036  -4.079  1.00 20.00     0.005 A 
HETATM   10  C4  UNL     1     -34.497  13.203  -4.849  1.00 20.00     0.005 A 
ENDBRANCH   7   8
ENDBRANCH   6   7
ENDBRANCH   4   6
BRANCH   5  11
HETATM   11  O11 UNL     1     -34.605  19.019  -2.424  1.00 20.00    -0.395 OA
HETATM   12  H29 UNL     1     -34.266  19.901  -2.644  1.00 20.00     0.210 HD
ENDBRANCH   5  11
TORSDOF 4
ENDMDL
MODEL 6
REMARK VINA RESULT:      -4.4     11.129     12.313
REMARK  4 active torsions:
REMARK  status: ('A' for Active; 'I' for Inactive)
REMARK    1  A    between atoms: C6_6  and  C9_9 
REMARK    2  A    between atoms: C7_7  and  C10_10 
REMARK    3  A    between atoms: C8_8  and  O11_11 
REMARK    4  A    between atoms: C9_9  and  C10_10 
ROOT
HETATM    1  C1  UNL     1     -35.476  16.454  -2.407  1.00 20.00     0.003 C 
HETATM    2  C2  UNL     1     -35.635  15.232  -3.313  1.00 20.00     0.007 C 
HETATM    3  C5  UNL     1     -33.983  16.566  -2.084  1.00 20.00     0.032 C 
HETATM    4  C7  UNL     1     -34.283  14.516  -3.266  1.00 20.00     0.014 C 
HETATM    5  C8  UNL     1     -33.289  15.666  -3.100  1.00 20.00     0.122 C 
ENDROOT
BRANCH   4   6
HETATM    6  C10 UNL     1     -34.041  13.638  -4.484  1.00 20.00     0.007 C 
BRANCH   6   7
HETATM    7  C9  UNL     1     -35.179  13.756  -5.495  1.00 20.00     0.005 C 
BRANCH   7   8
HETATM    8  C6  UNL     1     -34.714  14.415  -6.783  1.00 20.00    -0.014 A 
HETATM    9  C3  UNL     1     -35.678  14.624  -7.918  1.00 20.00     0.005 A 
HETATM   10  C4  UNL     1     -35.176  15.803  -7.133  1.00 20.00     0.005 A 
ENDBRANCH   7   8
ENDBRANCH   6   7
ENDBRANCH   4   6
BRANCH   5  11
HETATM   11  O11 UNL     1     -33.113  16.370  -4.325  1.00 20.00    -0.395 OA
HETATM   12  H29 UNL     1     -33.550  17.230  -4.218  1.00 20.00     0.210 HD
ENDBRANCH   5  11
TORSDOF 4
ENDMDL
MODEL 7
REMARK VINA RESULT:      -4.4      1.346      1.883
REMARK  4 active torsions:
REMARK  status: ('A' for Active; 'I' for Inactive)
REMARK    1  A    between atoms: C6_6  and  C9_9 
REMARK    2  A    between atoms: C7_7  and  C10_10 
REMARK    3  A    between atoms: C8_8  and  O11_11 
REMARK    4  A    between atoms: C9_9  and  C10_10 
ROOT
HETATM    1  C1  UNL     1     -34.150   6.351   6.760  1.00 20.00     0.003 C 
HETATM    2  C2  UNL     1     -33.416   6.764   5.483  1.00 20.00     0.007 C 
HETATM    3  C5  UNL     1     -35.174   5.289   6.351  1.00 20.00     0.032 C 
HETATM    4  C7  UNL     1     -34.217   6.138   4.338  1.00 20.00     0.014 C 
HETATM    5  C8  UNL     1     -34.749   4.845   4.956  1.00 20.00     0.122 C 
ENDROOT
BRANCH   4   6
HETATM    6  C10 UNL     1     -33.387   5.946   3.078  1.00 20.00     0.007 C 
BRANCH   6   7
HETATM    7  C9  UNL     1     -32.335   7.043   2.927  1.00 20.00     0.005 C 
BRANCH   7   8
HETATM    8  C6  UNL     1     -32.686   7.999   1.800  1.00 20.00    -0.014 A 
HETATM    9  C3  UNL     1     -32.443   9.475   1.956  1.00 20.00     0.005 A 
HETATM   10  C4  UNL     1     -31.595   8.671   1.011  1.00 20.00     0.005 A 
ENDBRANCH   7   8
ENDBRANCH   6   7
ENDBRANCH   4   6
BRANCH   5  11
HETATM   11  O11 UNL     1     -33.721   3.866   5.055  1.00 20.00    -0.395 OA
HETATM   12  H29 UNL     1     -33.128   4.006   4.300  1.00 20.00     0.210 HD
ENDBRANCH   5  11
TORSDOF 4
ENDMDL
MODEL 8
REMARK VINA RESULT:      -4.3      9.776     11.357
REMARK  4 active torsions:
REMARK  status: ('A' for Active; 'I' for Inactive)
REMARK    1  A    between atoms: C6_6  and  C9_9 
REMARK    2  A    between atoms: C7_7  and  C10_10 
REMARK    3  A    between atoms: C8_8  and  O11_11 
REMARK    4  A    between atoms: C9_9  and  C10_10 
ROOT
HETATM    1  C1  UNL     1     -41.492   6.765  -1.936  1.00 20.00     0.003 C 
HETATM    2  C2  UNL     1     -42.486   5.665  -2.314  1.00 20.00     0.007 C 
HETATM    3  C5  UNL     1     -40.867   6.348  -0.601  1.00 20.00     0.032 C 
HETATM    4  C7  UNL     1     -42.611   4.788  -1.066  1.00 20.00     0.014 C 
HETATM    5  C8  UNL     1     -41.217   4.872  -0.443  1.00 20.00     0.122 C 
ENDROOT
BRANCH   4   6
HETATM    6  C10 UNL     1     -43.080   3.377  -1.385  1.00 20.00     0.007 C 
BRANCH   6   7
HETATM    7  C9  UNL     1     -43.104   3.121  -2.890  1.00 20.00     0.005 C 
BRANCH   7   8
HETATM    8  C6  UNL     1     -42.395   1.825  -3.246  1.00 20.00    -0.014 A 
HETATM    9  C3  UNL     1     -42.283   1.393  -4.682  1.00 20.00     0.005 A 
HETATM   10  C4  UNL     1     -41.061   1.858  -3.941  1.00 20.00     0.005 A 
ENDBRANCH   7   8
ENDBRANCH   6   7
ENDBRANCH   4   6
BRANCH   5  11
HETATM   11  O11 UNL     1     -40.285   4.077  -1.169  1.00 20.00    -0.395 OA
HETATM   12  H29 UNL     1     -39.504   3.975  -0.602  1.00 20.00     0.210 HD
ENDBRANCH   5  11
TORSDOF 4
ENDMDL
MODEL 9
REMARK VINA RESULT:      -4.2     11.561     13.257
REMARK  4 active torsions:
REMARK  status: ('A' for Active; 'I' for Inactive)
REMARK    1  A    between atoms: C6_6  and  C9_9 
REMARK    2  A    between atoms: C7_7  and  C10_10 
REMARK    3  A    between atoms: C8_8  and  O11_11 
REMARK    4  A    between atoms: C9_9  and  C10_10 
ROOT
HETATM    1  C1  UNL     1     -35.278  17.740  -5.621  1.00 20.00     0.003 C 
HETATM    2  C2  UNL     1     -35.297  17.256  -4.170  1.00 20.00     0.007 C 
HETATM    3  C5  UNL     1     -33.857  17.502  -6.142  1.00 20.00     0.032 C 
HETATM    4  C7  UNL     1     -33.830  17.009  -3.808  1.00 20.00     0.014 C 
HETATM    5  C8  UNL     1     -33.219  16.554  -5.133  1.00 20.00     0.122 C 
ENDROOT
BRANCH   4   6
HETATM    6  C10 UNL     1     -33.666  16.025  -2.660  1.00 20.00     0.007 C 
BRANCH   6   7
HETATM    7  C9  UNL     1     -34.735  16.231  -1.589  1.00 20.00     0.005 C 
BRANCH   7   8
HETATM    8  C6  UNL     1     -34.301  17.261  -0.559  1.00 20.00    -0.014 A 
HETATM    9  C3  UNL     1     -35.134  18.489  -0.318  1.00 20.00     0.005 A 
HETATM   10  C4  UNL     1     -35.064  17.412   0.728  1.00 20.00     0.005 A 
ENDBRANCH   7   8
ENDBRANCH   6   7
ENDBRANCH   4   6
BRANCH   5  11
HETATM   11  O11 UNL     1     -33.591  15.213  -5.432  1.00 20.00    -0.395 OA
HETATM   12  H29 UNL     1     -34.370  15.011  -4.889  1.00 20.00     0.210 HD
ENDBRANCH   5  11
TORSDOF 4
ENDMDL
