MODEL 1
REMARK VINA RESULT:      -4.9      0.000      0.000
REMARK  2 active torsions:
REMARK  status: ('A' for Active; 'I' for Inactive)
REMARK    1  A    between atoms: C5_5  and  C11_11 
REMARK    2  A    between atoms: C6_6  and  C10_10 
ROOT
HETATM    1  C1  UNL     1     -35.099  14.161  -4.803  1.00 20.00     0.131 C 
HETATM    2  C2  UNL     1     -33.783  13.910  -4.100  1.00 20.00     0.079 C 
HETATM    3  C3  UNL     1     -33.354  15.142  -3.314  1.00 20.00     0.012 C 
HETATM    4  C4  UNL     1     -35.747  15.917  -3.151  1.00 20.00     0.017 C 
HETATM    5  C5  UNL     1     -36.231  14.690  -3.932  1.00 20.00     0.059 C 
HETATM    6  C6  UNL     1     -34.460  15.622  -2.364  1.00 20.00    -0.014 C 
HETATM    7  O12 UNL     1     -35.251  13.861  -5.987  1.00 20.00    -0.298 OA
ENDROOT
BRANCH   5   8
HETATM    8  C11 UNL     1     -37.468  15.030  -4.758  1.00 20.00    -0.011 C 
HETATM    9  C8  UNL     1     -38.741  14.747  -3.963  1.00 20.00     0.010 C 
HETATM   10  C9  UNL     1     -37.430  16.489  -5.208  1.00 20.00     0.010 C 
ENDBRANCH   5   8
BRANCH   6  11
HETATM   11  C10 UNL     1     -34.006  16.861  -1.594  1.00 20.00     0.000 C 
HETATM   12  C7  UNL     1     -34.736  17.003  -0.298  1.00 20.00     0.005 C 
ENDBRANCH   6  11
TORSDOF 2
ENDMDL
MODEL 2
REMARK VINA RESULT:      -4.8      1.919      3.408
REMARK  2 active torsions:
REMARK  status: ('A' for Active; 'I' for Inactive)
REMARK    1  A    between atoms: C5_5  and  C11_11 
REMARK    2  A    between atoms: C6_6  and  C10_10 
ROOT
HETATM    1  C1  UNL     1     -33.965  17.313  -3.929  1.00 20.00     0.131 C 
HETATM    2  C2  UNL     1     -33.673  18.569  -3.138  1.00 20.00     0.079 C 
HETATM    3  C3  UNL     1     -34.435  18.560  -1.820  1.00 20.00     0.012 C 
HETATM    4  C4  UNL     1     -34.551  16.043  -1.860  1.00 20.00     0.017 C 
HETATM    5  C5  UNL     1     -33.779  15.996  -3.184  1.00 20.00     0.059 C 
HETATM    6  C6  UNL     1     -34.174  17.275  -1.022  1.00 20.00    -0.014 C 
HETATM    7  O12 UNL     1     -34.245  17.369  -5.126  1.00 20.00    -0.298 OA
ENDROOT
BRANCH   5   8
HETATM    8  C11 UNL     1     -34.223  14.803  -4.025  1.00 20.00    -0.011 C 
HETATM    9  C8  UNL     1     -33.345  13.587  -3.740  1.00 20.00     0.010 C 
HETATM   10  C9  UNL     1     -35.692  14.477  -3.765  1.00 20.00     0.010 C 
ENDBRANCH   5   8
BRANCH   6  11
HETATM   11  C10 UNL     1     -34.955  17.291   0.291  1.00 20.00     0.000 C 
HETATM   12  C7  UNL     1     -34.322  18.193   1.299  1.00 20.00     0.005 C 
ENDBRANCH   6  11
TORSDOF 2
ENDMDL
MODEL 3
REMARK VINA RESULT:      -4.5      1.665      3.139
REMARK  2 active torsions:
REMARK  status: ('A' for Active; 'I' for Inactive)
REMARK    1  A    between atoms: C5_5  and  C11_11 
REMARK    2  A    between atoms: C6_6  and  C10_10 
ROOT
HETATM    1  C1  UNL     1     -36.484  15.564  -3.325  1.00 20.00     0.131 C 
HETATM    2  C2  UNL     1     -36.871  16.951  -2.859  1.00 20.00     0.079 C 
HETATM    3  C3  UNL     1     -35.946  17.417  -1.744  1.00 20.00     0.012 C 
HETATM    4  C4  UNL     1     -34.130  15.867  -2.551  1.00 20.00     0.017 C 
HETATM    5  C5  UNL     1     -35.019  15.369  -3.696  1.00 20.00     0.059 C 
HETATM    6  C6  UNL     1     -34.469  17.311  -2.150  1.00 20.00    -0.014 C 
HETATM    7  O12 UNL     1     -37.335  14.688  -3.476  1.00 20.00    -0.298 OA
ENDROOT
BRANCH   5   8
HETATM    8  C11 UNL     1     -34.709  13.912  -4.025  1.00 20.00    -0.011 C 
HETATM    9  C8  UNL     1     -34.951  13.631  -5.506  1.00 20.00     0.010 C 
HETATM   10  C9  UNL     1     -33.271  13.567  -3.642  1.00 20.00     0.010 C 
ENDBRANCH   5   8
BRANCH   6  11
HETATM   11  C10 UNL     1     -33.564  17.780  -1.012  1.00 20.00     0.000 C 
HETATM   12  C7  UNL     1     -34.296  17.830   0.290  1.00 20.00     0.005 C 
ENDBRANCH   6  11
TORSDOF 2
ENDMDL
MODEL 4
REMARK VINA RESULT:      -4.4      1.167      1.449
REMARK  2 active torsions:
REMARK  status: ('A' for Active; 'I' for Inactive)
REMARK    1  A    between atoms: C5_5  and  C11_11 
REMARK    2  A    between atoms: C6_6  and  C10_10 
ROOT
HETATM    1  C1  UNL     1     -34.959  13.733  -4.243  1.00 20.00     0.131 C 
HETATM    2  C2  UNL     1     -33.614  13.823  -3.556  1.00 20.00     0.079 C 
HETATM    3  C3  UNL     1     -33.137  15.268  -3.504  1.00 20.00     0.012 C 
HETATM    4  C4  UNL     1     -35.511  16.098  -3.664  1.00 20.00     0.017 C 
HETATM    5  C5  UNL     1     -36.044  14.661  -3.712  1.00 20.00     0.059 C 
HETATM    6  C6  UNL     1     -34.192  16.192  -2.881  1.00 20.00    -0.014 C 
HETATM    7  O12 UNL     1     -35.169  12.889  -5.114  1.00 20.00    -0.298 OA
ENDROOT
BRANCH   5   8
HETATM    8  C11 UNL     1     -37.314  14.586  -4.554  1.00 20.00    -0.011 C 
HETATM    9  C8  UNL     1     -38.548  14.842  -3.691  1.00 20.00     0.010 C 
HETATM   10  C9  UNL     1     -37.254  15.580  -5.712  1.00 20.00     0.010 C 
ENDBRANCH   5   8
BRANCH   6  11
HETATM   11  C10 UNL     1     -33.690  17.634  -2.847  1.00 20.00     0.000 C 
HETATM   12  C7  UNL     1     -33.784  18.283  -4.189  1.00 20.00     0.005 C 
ENDBRANCH   6  11
TORSDOF 2
ENDMDL
MODEL 5
REMARK VINA RESULT:      -4.4      1.445      3.994
REMARK  2 active torsions:
REMARK  status: ('A' for Active; 'I' for Inactive)
REMARK    1  A    between atoms: C5_5  and  C11_11 
REMARK    2  A    between atoms: C6_6  and  C10_10 
ROOT
HETATM    1  C1  UNL     1     -33.638  15.041  -3.828  1.00 20.00     0.131 C 
HETATM    2  C2  UNL     1     -34.268  14.252  -4.955  1.00 20.00     0.079 C 
HETATM    3  C3  UNL     1     -35.692  13.850  -4.597  1.00 20.00     0.012 C 
HETATM    4  C4  UNL     1     -35.869  15.778  -2.983  1.00 20.00     0.017 C 
HETATM    5  C5  UNL     1     -34.442  16.229  -3.315  1.00 20.00     0.059 C 
HETATM    6  C6  UNL     1     -36.532  15.061  -4.170  1.00 20.00    -0.014 C 
HETATM    7  O12 UNL     1     -32.505  14.778  -3.428  1.00 20.00    -0.298 OA
ENDROOT
BRANCH   5   8
HETATM    8  C11 UNL     1     -33.784  16.874  -2.099  1.00 20.00    -0.011 C 
HETATM    9  C8  UNL     1     -33.613  18.376  -2.312  1.00 20.00     0.010 C 
HETATM   10  C9  UNL     1     -34.600  16.601  -0.836  1.00 20.00     0.010 C 
ENDBRANCH   5   8
BRANCH   6  11
HETATM   11  C10 UNL     1     -37.953  14.628  -3.810  1.00 20.00     0.000 C 
HETATM   12  C7  UNL     1     -38.873  15.799  -3.692  1.00 20.00     0.005 C 
ENDBRANCH   6  11
TORSDOF 2
ENDMDL
MODEL 6
REMARK VINA RESULT:      -4.4      1.618      2.116
REMARK  2 active torsions:
REMARK  status: ('A' for Active; 'I' for Inactive)
REMARK    1  A    between atoms: C5_5  and  C11_11 
REMARK    2  A    between atoms: C6_6  and  C10_10 
ROOT
HETATM    1  C1  UNL     1     -35.340  14.392  -5.635  1.00 20.00     0.131 C 
HETATM    2  C2  UNL     1     -35.190  13.561  -4.379  1.00 20.00     0.079 C 
HETATM    3  C3  UNL     1     -34.320  14.285  -3.361  1.00 20.00     0.012 C 
HETATM    4  C4  UNL     1     -34.901  16.511  -4.390  1.00 20.00     0.017 C 
HETATM    5  C5  UNL     1     -35.796  15.832  -5.432  1.00 20.00     0.059 C 
HETATM    6  C6  UNL     1     -34.832  15.705  -3.083  1.00 20.00    -0.014 C 
HETATM    7  O12 UNL     1     -35.189  13.889  -6.747  1.00 20.00    -0.298 OA
ENDROOT
BRANCH   5   8
HETATM    8  C11 UNL     1     -35.789  16.616  -6.741  1.00 20.00    -0.011 C 
HETATM    9  C8  UNL     1     -36.988  17.560  -6.809  1.00 20.00     0.010 C 
HETATM   10  C9  UNL     1     -34.484  17.394  -6.897  1.00 20.00     0.010 C 
ENDBRANCH   5   8
BRANCH   6  11
HETATM   11  C10 UNL     1     -33.938  16.409  -2.064  1.00 20.00     0.000 C 
HETATM   12  C7  UNL     1     -34.653  16.648  -0.774  1.00 20.00     0.005 C 
ENDBRANCH   6  11
TORSDOF 2
ENDMDL
MODEL 7
REMARK VINA RESULT:      -4.4      2.595      4.970
REMARK  2 active torsions:
REMARK  status: ('A' for Active; 'I' for Inactive)
REMARK    1  A    between atoms: C5_5  and  C11_11 
REMARK    2  A    between atoms: C6_6  and  C10_10 
ROOT
HETATM    1  C1  UNL     1     -36.150  17.834  -1.805  1.00 20.00     0.131 C 
HETATM    2  C2  UNL     1     -36.589  16.982  -2.976  1.00 20.00     0.079 C 
HETATM    3  C3  UNL     1     -35.379  16.426  -3.716  1.00 20.00     0.012 C 
HETATM    4  C4  UNL     1     -33.967  16.632  -1.638  1.00 20.00     0.017 C 
HETATM    5  C5  UNL     1     -35.156  17.189  -0.847  1.00 20.00     0.059 C 
HETATM    6  C6  UNL     1     -34.422  15.693  -2.766  1.00 20.00    -0.014 C 
HETATM    7  O12 UNL     1     -36.648  18.941  -1.607  1.00 20.00    -0.298 OA
ENDROOT
BRANCH   5   8
HETATM    8  C11 UNL     1     -34.680  18.172   0.219  1.00 20.00    -0.011 C 
HETATM    9  C8  UNL     1     -35.084  17.693   1.612  1.00 20.00     0.010 C 
HETATM   10  C9  UNL     1     -33.168  18.366   0.137  1.00 20.00     0.010 C 
ENDBRANCH   5   8
BRANCH   6  11
HETATM   11  C10 UNL     1     -33.216  15.151  -3.533  1.00 20.00     0.000 C 
HETATM   12  C7  UNL     1     -33.349  13.689  -3.809  1.00 20.00     0.005 C 
ENDBRANCH   6  11
TORSDOF 2
ENDMDL
MODEL 8
REMARK VINA RESULT:      -4.4      2.939      4.322
REMARK  2 active torsions:
REMARK  status: ('A' for Active; 'I' for Inactive)
REMARK    1  A    between atoms: C5_5  and  C11_11 
REMARK    2  A    between atoms: C6_6  and  C10_10 
ROOT
HETATM    1  C1  UNL     1     -34.357  18.022  -3.838  1.00 20.00     0.131 C 
HETATM    2  C2  UNL     1     -33.856  17.444  -2.533  1.00 20.00     0.079 C 
HETATM    3  C3  UNL     1     -33.943  15.924  -2.553  1.00 20.00     0.012 C 
HETATM    4  C4  UNL     1     -33.838  15.914  -5.072  1.00 20.00     0.017 C 
HETATM    5  C5  UNL     1     -33.740  17.444  -5.106  1.00 20.00     0.059 C 
HETATM    6  C6  UNL     1     -33.239  15.332  -3.782  1.00 20.00    -0.014 C 
HETATM    7  O12 UNL     1     -35.147  18.966  -3.851  1.00 20.00    -0.298 OA
ENDROOT
BRANCH   5   8
HETATM    8  C11 UNL     1     -34.404  17.998  -6.362  1.00 20.00    -0.011 C 
HETATM    9  C8  UNL     1     -33.584  19.149  -6.942  1.00 20.00     0.010 C 
HETATM   10  C9  UNL     1     -34.593  16.897  -7.403  1.00 20.00     0.010 C 
ENDBRANCH   5   8
BRANCH   6  11
HETATM   11  C10 UNL     1     -33.347  13.808  -3.779  1.00 20.00     0.000 C 
HETATM   12  C7  UNL     1     -34.550  13.339  -4.530  1.00 20.00     0.005 C 
ENDBRANCH   6  11
TORSDOF 2
ENDMDL
MODEL 9
REMARK VINA RESULT:      -4.2      2.702      4.304
REMARK  2 active torsions:
REMARK  status: ('A' for Active; 'I' for Inactive)
REMARK    1  A    between atoms: C5_5  and  C11_11 
REMARK    2  A    between atoms: C6_6  and  C10_10 
ROOT
HETATM    1  C1  UNL     1     -33.920  18.327  -3.763  1.00 20.00     0.131 C 
HETATM    2  C2  UNL     1     -33.668  17.993  -5.217  1.00 20.00     0.079 C 
HETATM    3  C3  UNL     1     -33.447  16.497  -5.391  1.00 20.00     0.012 C 
HETATM    4  C4  UNL     1     -34.751  16.021  -3.287  1.00 20.00     0.017 C 
HETATM    5  C5  UNL     1     -35.009  17.517  -3.071  1.00 20.00     0.059 C 
HETATM    6  C6  UNL     1     -34.592  15.679  -4.777  1.00 20.00    -0.014 C 
HETATM    7  O12 UNL     1     -33.334  19.263  -3.218  1.00 20.00    -0.298 OA
ENDROOT
BRANCH   5   8
HETATM    8  C11 UNL     1     -35.093  17.839  -1.582  1.00 20.00    -0.011 C 
HETATM    9  C8  UNL     1     -36.499  18.306  -1.210  1.00 20.00     0.010 C 
HETATM   10  C9  UNL     1     -34.691  16.627  -0.744  1.00 20.00     0.010 C 
ENDBRANCH   5   8
BRANCH   6  11
HETATM   11  C10 UNL     1     -34.341  14.183  -4.961  1.00 20.00     0.000 C 
HETATM   12  C7  UNL     1     -33.472  13.633  -3.878  1.00 20.00     0.005 C 
ENDBRANCH   6  11
TORSDOF 2
ENDMDL
