MODEL 1
REMARK VINA RESULT:      -4.9      0.000      0.000
REMARK  2 active torsions:
REMARK  status: ('A' for Active; 'I' for Inactive)
REMARK    1  A    between atoms: C1_1  and  C9_9 
REMARK    2  A    between atoms: C6_6  and  C9_9 
ROOT
HETATM    1  C2  UNL     1     -34.062   6.599   5.759  1.00 20.00     0.031 C 
HETATM    2  C3  UNL     1     -35.304   5.516   3.864  1.00 20.00     0.031 C 
HETATM    3  C4  UNL     1     -34.031   5.229   6.428  1.00 20.00     0.168 C 
HETATM    4  C5  UNL     1     -35.203   4.207   4.640  1.00 20.00     0.168 C 
HETATM    5  C6  UNL     1     -34.180   6.494   4.233  1.00 20.00     0.000 C 
HETATM    6  O11 UNL     1     -35.165   4.453   6.045  1.00 20.00    -0.391 OA
ENDROOT
BRANCH   5   7
HETATM    7  C9  UNL     1     -32.850   6.091   3.592  1.00 20.00     0.055 C 
HETATM    8  C8  UNL     1     -33.084   5.362   2.272  1.00 20.00     0.018 C 
BRANCH   7   9
HETATM    9  C1  UNL     1     -31.977   7.325   3.389  1.00 20.00     0.127 C 
HETATM   10  C7  UNL     1     -32.184   8.105   2.114  1.00 20.00     0.091 C 
HETATM   11  O10 UNL     1     -31.121   7.669   4.205  1.00 20.00    -0.298 OA
ENDBRANCH   7   9
ENDBRANCH   5   7
TORSDOF 2
ENDMDL
MODEL 2
REMARK VINA RESULT:      -4.6     11.651     12.769
REMARK  2 active torsions:
REMARK  status: ('A' for Active; 'I' for Inactive)
REMARK    1  A    between atoms: C1_1  and  C9_9 
REMARK    2  A    between atoms: C6_6  and  C9_9 
ROOT
HETATM    1  C2  UNL     1     -36.406  15.578  -3.323  1.00 20.00     0.031 C 
HETATM    2  C3  UNL     1     -34.418  16.213  -1.926  1.00 20.00     0.031 C 
HETATM    3  C4  UNL     1     -36.455  17.030  -3.785  1.00 20.00     0.168 C 
HETATM    4  C5  UNL     1     -34.579  17.629  -2.467  1.00 20.00     0.168 C 
HETATM    5  C6  UNL     1     -34.997  15.160  -2.881  1.00 20.00     0.000 C 
HETATM    6  O11 UNL     1     -35.945  17.900  -2.775  1.00 20.00    -0.391 OA
ENDROOT
BRANCH   5   7
HETATM    7  C9  UNL     1     -34.078  14.922  -4.082  1.00 20.00     0.055 C 
HETATM    8  C8  UNL     1     -32.664  14.579  -3.622  1.00 20.00     0.018 C 
BRANCH   7   9
HETATM    9  C1  UNL     1     -34.651  13.818  -4.963  1.00 20.00     0.127 C 
HETATM   10  C7  UNL     1     -35.050  14.202  -6.366  1.00 20.00     0.091 C 
HETATM   11  O10 UNL     1     -34.811  12.666  -4.557  1.00 20.00    -0.298 OA
ENDBRANCH   7   9
ENDBRANCH   5   7
TORSDOF 2
ENDMDL
MODEL 3
REMARK VINA RESULT:      -4.2     11.505     13.709
REMARK  2 active torsions:
REMARK  status: ('A' for Active; 'I' for Inactive)
REMARK    1  A    between atoms: C1_1  and  C9_9 
REMARK    2  A    between atoms: C6_6  and  C9_9 
ROOT
HETATM    1  C2  UNL     1     -34.136  16.561  -6.115  1.00 20.00     0.031 C 
HETATM    2  C3  UNL     1     -35.251  14.452  -6.898  1.00 20.00     0.031 C 
HETATM    3  C4  UNL     1     -35.495  17.242  -6.238  1.00 20.00     0.168 C 
HETATM    4  C5  UNL     1     -36.547  15.252  -6.977  1.00 20.00     0.168 C 
HETATM    5  C6  UNL     1     -34.265  15.050  -5.885  1.00 20.00     0.000 C 
HETATM    6  O11 UNL     1     -36.278  16.624  -7.258  1.00 20.00    -0.391 OA
ENDROOT
BRANCH   5   7
HETATM    7  C9  UNL     1     -34.676  14.733  -4.444  1.00 20.00     0.055 C 
HETATM    8  C8  UNL     1     -34.984  13.247  -4.284  1.00 20.00     0.018 C 
BRANCH   7   9
HETATM    9  C1  UNL     1     -33.576  15.171  -3.483  1.00 20.00     0.127 C 
HETATM   10  C7  UNL     1     -33.959  16.167  -2.417  1.00 20.00     0.091 C 
HETATM   11  O10 UNL     1     -32.419  14.761  -3.574  1.00 20.00    -0.298 OA
ENDBRANCH   7   9
ENDBRANCH   5   7
TORSDOF 2
ENDMDL
MODEL 4
REMARK VINA RESULT:      -4.1     11.638     14.093
REMARK  2 active torsions:
REMARK  status: ('A' for Active; 'I' for Inactive)
REMARK    1  A    between atoms: C1_1  and  C9_9 
REMARK    2  A    between atoms: C6_6  and  C9_9 
ROOT
HETATM    1  C2  UNL     1     -34.609  15.189  -7.036  1.00 20.00     0.031 C 
HETATM    2  C3  UNL     1     -37.041  15.713  -6.693  1.00 20.00     0.031 C 
HETATM    3  C4  UNL     1     -34.346  16.688  -6.945  1.00 20.00     0.168 C 
HETATM    4  C5  UNL     1     -36.641  17.182  -6.621  1.00 20.00     0.168 C 
HETATM    5  C6  UNL     1     -35.889  14.780  -6.294  1.00 20.00     0.000 C 
HETATM    6  O11 UNL     1     -35.475  17.428  -7.406  1.00 20.00    -0.391 OA
ENDROOT
BRANCH   5   7
HETATM    7  C9  UNL     1     -35.679  14.761  -4.778  1.00 20.00     0.055 C 
HETATM    8  C8  UNL     1     -37.007  14.574  -4.050  1.00 20.00     0.018 C 
BRANCH   7   9
HETATM    9  C1  UNL     1     -34.690  13.662  -4.405  1.00 20.00     0.127 C 
HETATM   10  C7  UNL     1     -33.424  14.090  -3.706  1.00 20.00     0.091 C 
HETATM   11  O10 UNL     1     -34.888  12.477  -4.677  1.00 20.00    -0.298 OA
ENDBRANCH   7   9
ENDBRANCH   5   7
TORSDOF 2
ENDMDL
MODEL 5
REMARK VINA RESULT:      -4.1     11.539     13.127
REMARK  2 active torsions:
REMARK  status: ('A' for Active; 'I' for Inactive)
REMARK    1  A    between atoms: C1_1  and  C9_9 
REMARK    2  A    between atoms: C6_6  and  C9_9 
ROOT
HETATM    1  C2  UNL     1     -34.016  15.402  -3.006  1.00 20.00     0.031 C 
HETATM    2  C3  UNL     1     -35.729  13.981  -4.169  1.00 20.00     0.031 C 
HETATM    3  C4  UNL     1     -32.951  14.531  -3.663  1.00 20.00     0.168 C 
HETATM    4  C5  UNL     1     -34.567  13.190  -4.761  1.00 20.00     0.168 C 
HETATM    5  C6  UNL     1     -35.325  15.417  -3.807  1.00 20.00     0.000 C 
HETATM    6  O11 UNL     1     -33.443  13.210  -3.883  1.00 20.00    -0.391 OA
ENDROOT
BRANCH   5   7
HETATM    7  C9  UNL     1     -35.214  16.302  -5.050  1.00 20.00     0.055 C 
HETATM    8  C8  UNL     1     -36.503  16.254  -5.866  1.00 20.00     0.018 C 
BRANCH   7   9
HETATM    9  C1  UNL     1     -34.878  17.732  -4.641  1.00 20.00     0.127 C 
HETATM   10  C7  UNL     1     -33.587  18.307  -5.167  1.00 20.00     0.091 C 
HETATM   11  O10 UNL     1     -35.602  18.392  -3.896  1.00 20.00    -0.298 OA
ENDBRANCH   7   9
ENDBRANCH   5   7
TORSDOF 2
ENDMDL
MODEL 6
REMARK VINA RESULT:      -4.1     11.624     13.508
REMARK  2 active torsions:
REMARK  status: ('A' for Active; 'I' for Inactive)
REMARK    1  A    between atoms: C1_1  and  C9_9 
REMARK    2  A    between atoms: C6_6  and  C9_9 
ROOT
HETATM    1  C2  UNL     1     -33.788  15.983  -2.731  1.00 20.00     0.031 C 
HETATM    2  C3  UNL     1     -33.357  17.080  -4.948  1.00 20.00     0.031 C 
HETATM    3  C4  UNL     1     -34.223  17.352  -2.218  1.00 20.00     0.168 C 
HETATM    4  C5  UNL     1     -33.815  18.387  -4.311  1.00 20.00     0.168 C 
HETATM    5  C6  UNL     1     -33.960  15.854  -4.250  1.00 20.00     0.000 C 
HETATM    6  O11 UNL     1     -33.537  18.393  -2.912  1.00 20.00    -0.391 OA
ENDROOT
BRANCH   5   7
HETATM    7  C9  UNL     1     -35.428  15.652  -4.635  1.00 20.00     0.055 C 
HETATM    8  C8  UNL     1     -35.635  15.900  -6.126  1.00 20.00     0.018 C 
BRANCH   7   9
HETATM    9  C1  UNL     1     -35.878  14.248  -4.246  1.00 20.00     0.127 C 
HETATM   10  C7  UNL     1     -34.921  13.119  -4.537  1.00 20.00     0.091 C 
HETATM   11  O10 UNL     1     -36.978  14.024  -3.739  1.00 20.00    -0.298 OA
ENDBRANCH   7   9
ENDBRANCH   5   7
TORSDOF 2
ENDMDL
MODEL 7
REMARK VINA RESULT:      -4.1     11.870     13.399
REMARK  2 active torsions:
REMARK  status: ('A' for Active; 'I' for Inactive)
REMARK    1  A    between atoms: C1_1  and  C9_9 
REMARK    2  A    between atoms: C6_6  and  C9_9 
ROOT
HETATM    1  C2  UNL     1     -33.637  16.221  -5.357  1.00 20.00     0.031 C 
HETATM    2  C3  UNL     1     -33.345  14.468  -3.583  1.00 20.00     0.031 C 
HETATM    3  C4  UNL     1     -34.684  15.308  -5.987  1.00 20.00     0.168 C 
HETATM    4  C5  UNL     1     -34.407  13.653  -4.313  1.00 20.00     0.168 C 
HETATM    5  C6  UNL     1     -33.486  15.973  -3.850  1.00 20.00     0.000 C 
HETATM    6  O11 UNL     1     -34.392  13.939  -5.711  1.00 20.00    -0.391 OA
ENDROOT
BRANCH   5   7
HETATM    7  C9  UNL     1     -34.648  16.579  -3.060  1.00 20.00     0.055 C 
HETATM    8  C8  UNL     1     -34.521  16.253  -1.575  1.00 20.00     0.018 C 
BRANCH   7   9
HETATM    9  C1  UNL     1     -34.700  18.086  -3.287  1.00 20.00     0.127 C 
HETATM   10  C7  UNL     1     -33.568  18.902  -2.714  1.00 20.00     0.091 C 
HETATM   11  O10 UNL     1     -35.627  18.631  -3.886  1.00 20.00    -0.298 OA
ENDBRANCH   7   9
ENDBRANCH   5   7
TORSDOF 2
ENDMDL
MODEL 8
REMARK VINA RESULT:      -4.1     11.541     13.235
REMARK  2 active torsions:
REMARK  status: ('A' for Active; 'I' for Inactive)
REMARK    1  A    between atoms: C1_1  and  C9_9 
REMARK    2  A    between atoms: C6_6  and  C9_9 
ROOT
HETATM    1  C2  UNL     1     -36.805  15.241  -3.506  1.00 20.00     0.031 C 
HETATM    2  C3  UNL     1     -36.666  16.787  -5.480  1.00 20.00     0.031 C 
HETATM    3  C4  UNL     1     -38.161  14.793  -4.041  1.00 20.00     0.168 C 
HETATM    4  C5  UNL     1     -38.030  16.252  -5.904  1.00 20.00     0.168 C 
HETATM    5  C6  UNL     1     -35.894  15.779  -4.617  1.00 20.00     0.000 C 
HETATM    6  O11 UNL     1     -38.791  15.848  -4.767  1.00 20.00    -0.391 OA
ENDROOT
BRANCH   5   7
HETATM    7  C9  UNL     1     -35.307  14.646  -5.462  1.00 20.00     0.055 C 
HETATM    8  C8  UNL     1     -34.362  15.198  -6.525  1.00 20.00     0.018 C 
BRANCH   7   9
HETATM    9  C1  UNL     1     -34.594  13.643  -4.562  1.00 20.00     0.127 C 
HETATM   10  C7  UNL     1     -33.358  14.127  -3.846  1.00 20.00     0.091 C 
HETATM   11  O10 UNL     1     -34.981  12.481  -4.433  1.00 20.00    -0.298 OA
ENDBRANCH   7   9
ENDBRANCH   5   7
TORSDOF 2
ENDMDL
MODEL 9
REMARK VINA RESULT:      -4.0     11.742     12.741
REMARK  2 active torsions:
REMARK  status: ('A' for Active; 'I' for Inactive)
REMARK    1  A    between atoms: C1_1  and  C9_9 
REMARK    2  A    between atoms: C6_6  and  C9_9 
ROOT
HETATM    1  C2  UNL     1     -34.027  16.232  -2.792  1.00 20.00     0.031 C 
HETATM    2  C3  UNL     1     -36.143  17.348  -3.553  1.00 20.00     0.031 C 
HETATM    3  C4  UNL     1     -34.495  16.477  -1.361  1.00 20.00     0.168 C 
HETATM    4  C5  UNL     1     -36.492  17.531  -2.079  1.00 20.00     0.168 C 
HETATM    5  C6  UNL     1     -35.199  16.160  -3.779  1.00 20.00     0.000 C 
HETATM    6  O11 UNL     1     -35.310  17.647  -1.290  1.00 20.00    -0.391 OA
ENDROOT
BRANCH   5   7
HETATM    7  C9  UNL     1     -35.940  14.824  -3.677  1.00 20.00     0.055 C 
HETATM    8  C8  UNL     1     -37.409  14.990  -4.054  1.00 20.00     0.018 C 
BRANCH   7   9
HETATM    9  C1  UNL     1     -35.260  13.785  -4.562  1.00 20.00     0.127 C 
HETATM   10  C7  UNL     1     -35.012  14.171  -5.999  1.00 20.00     0.091 C 
HETATM   11  O10 UNL     1     -34.946  12.669  -4.148  1.00 20.00    -0.298 OA
ENDBRANCH   7   9
ENDBRANCH   5   7
TORSDOF 2
ENDMDL
