MODEL 1
REMARK VINA RESULT:      -5.0      0.000      0.000
REMARK  5 active torsions:
REMARK  status: ('A' for Active; 'I' for Inactive)
REMARK    1  A    between atoms: C1_1  and  C10_10 
REMARK    2  A    between atoms: C4_4  and  C8_8 
REMARK    3  A    between atoms: C8_8  and  C9_9 
REMARK    4  A    between atoms: C9_9  and  C10_10 
REMARK    5  A    between atoms: C10_10  and  C11_11 
ROOT
HETATM    1  C10 UNL     1     -33.824   6.409   4.262  1.00 20.00     0.058 C 
ENDROOT
BRANCH   1   2
HETATM    2  C1  UNL     1     -33.904   6.200   5.778  1.00 20.00     0.127 C 
HETATM    3  C5  UNL     1     -34.531   4.913   6.254  1.00 20.00     0.091 C 
HETATM    4  O12 UNL     1     -33.501   7.039   6.582  1.00 20.00    -0.298 OA
ENDBRANCH   1   2
BRANCH   1   5
HETATM    5  C9  UNL     1     -32.368   6.326   3.767  1.00 20.00     0.013 C 
BRANCH   5   6
HETATM    6  C8  UNL     1     -31.826   7.689   3.317  1.00 20.00     0.005 C 
BRANCH   6   7
HETATM    7  C4  UNL     1     -32.480   8.152   2.051  1.00 20.00    -0.014 A 
HETATM    8  C2  UNL     1     -32.498   9.614   1.700  1.00 20.00     0.005 A 
HETATM    9  C3  UNL     1     -31.643   8.662   0.911  1.00 20.00     0.005 A 
ENDBRANCH   6   7
ENDBRANCH   5   6
ENDBRANCH   1   5
BRANCH   1  10
HETATM   10  C11 UNL     1     -34.792   5.422   3.557  1.00 20.00    -0.012 C 
HETATM   11  C6  UNL     1     -36.207   5.978   3.365  1.00 20.00     0.010 C 
HETATM   12  C7  UNL     1     -34.231   4.960   2.208  1.00 20.00     0.010 C 
ENDBRANCH   1  10
TORSDOF 5
ENDMDL
MODEL 2
REMARK VINA RESULT:      -4.9     10.429     12.120
REMARK  5 active torsions:
REMARK  status: ('A' for Active; 'I' for Inactive)
REMARK    1  A    between atoms: C1_1  and  C10_10 
REMARK    2  A    between atoms: C4_4  and  C8_8 
REMARK    3  A    between atoms: C8_8  and  C9_9 
REMARK    4  A    between atoms: C9_9  and  C10_10 
REMARK    5  A    between atoms: C10_10  and  C11_11 
ROOT
HETATM    1  C10 UNL     1     -34.961  15.006  -4.867  1.00 20.00     0.058 C 
ENDROOT
BRANCH   1   2
HETATM    2  C1  UNL     1     -34.444  13.688  -4.280  1.00 20.00     0.127 C 
HETATM    3  C5  UNL     1     -33.063  13.710  -3.674  1.00 20.00     0.091 C 
HETATM    4  O12 UNL     1     -35.102  12.649  -4.312  1.00 20.00    -0.298 OA
ENDBRANCH   1   2
BRANCH   1   5
HETATM    5  C9  UNL     1     -34.585  16.199  -3.966  1.00 20.00     0.013 C 
BRANCH   5   6
HETATM    6  C8  UNL     1     -35.425  16.249  -2.684  1.00 20.00     0.005 C 
BRANCH   6   7
HETATM    7  C4  UNL     1     -34.564  16.243  -1.458  1.00 20.00    -0.014 A 
HETATM    8  C2  UNL     1     -33.694  17.427  -1.138  1.00 20.00     0.005 A 
HETATM    9  C3  UNL     1     -34.902  17.132  -0.293  1.00 20.00     0.005 A 
ENDBRANCH   6   7
ENDBRANCH   5   6
ENDBRANCH   1   5
BRANCH   1  10
HETATM   10  C11 UNL     1     -34.473  15.139  -6.334  1.00 20.00    -0.012 C 
HETATM   11  C6  UNL     1     -35.376  14.432  -7.349  1.00 20.00     0.010 C 
HETATM   12  C7  UNL     1     -34.301  16.609  -6.731  1.00 20.00     0.010 C 
ENDBRANCH   1  10
TORSDOF 5
ENDMDL
MODEL 3
REMARK VINA RESULT:      -4.6      1.561      2.785
REMARK  5 active torsions:
REMARK  status: ('A' for Active; 'I' for Inactive)
REMARK    1  A    between atoms: C1_1  and  C10_10 
REMARK    2  A    between atoms: C4_4  and  C8_8 
REMARK    3  A    between atoms: C8_8  and  C9_9 
REMARK    4  A    between atoms: C9_9  and  C10_10 
REMARK    5  A    between atoms: C10_10  and  C11_11 
ROOT
HETATM    1  C10 UNL     1     -33.574   5.761   4.403  1.00 20.00     0.058 C 
ENDROOT
BRANCH   1   2
HETATM    2  C1  UNL     1     -34.563   5.442   3.278  1.00 20.00     0.127 C 
HETATM    3  C5  UNL     1     -35.981   5.922   3.464  1.00 20.00     0.091 C 
HETATM    4  O12 UNL     1     -34.240   4.808   2.275  1.00 20.00    -0.298 OA
ENDBRANCH   1   2
BRANCH   1   5
HETATM    5  C9  UNL     1     -32.644   6.926   4.011  1.00 20.00     0.013 C 
BRANCH   5   6
HETATM    6  C8  UNL     1     -32.628   7.174   2.497  1.00 20.00     0.005 C 
BRANCH   6   7
HETATM    7  C4  UNL     1     -31.867   8.416   2.149  1.00 20.00    -0.014 A 
HETATM    8  C2  UNL     1     -31.669   8.806   0.710  1.00 20.00     0.005 A 
HETATM    9  C3  UNL     1     -32.587   9.611   1.587  1.00 20.00     0.005 A 
ENDBRANCH   6   7
ENDBRANCH   5   6
ENDBRANCH   1   5
BRANCH   1  10
HETATM   10  C11 UNL     1     -34.356   5.991   5.724  1.00 20.00    -0.012 C 
HETATM   11  C6  UNL     1     -34.629   4.704   6.510  1.00 20.00     0.010 C 
HETATM   12  C7  UNL     1     -33.642   7.004   6.624  1.00 20.00     0.010 C 
ENDBRANCH   1  10
TORSDOF 5
ENDMDL
MODEL 4
REMARK VINA RESULT:      -4.6     10.936     11.916
REMARK  5 active torsions:
REMARK  status: ('A' for Active; 'I' for Inactive)
REMARK    1  A    between atoms: C1_1  and  C10_10 
REMARK    2  A    between atoms: C4_4  and  C8_8 
REMARK    3  A    between atoms: C8_8  and  C9_9 
REMARK    4  A    between atoms: C9_9  and  C10_10 
REMARK    5  A    between atoms: C10_10  and  C11_11 
ROOT
HETATM    1  C10 UNL     1     -35.527  15.344  -4.121  1.00 20.00     0.058 C 
ENDROOT
BRANCH   1   2
HETATM    2  C1  UNL     1     -37.010  15.259  -3.746  1.00 20.00     0.127 C 
HETATM    3  C5  UNL     1     -37.695  16.554  -3.387  1.00 20.00     0.091 C 
HETATM    4  O12 UNL     1     -37.623  14.193  -3.713  1.00 20.00    -0.298 OA
ENDBRANCH   1   2
BRANCH   1   5
HETATM    5  C9  UNL     1     -34.629  15.071  -2.899  1.00 20.00     0.013 C 
BRANCH   5   6
HETATM    6  C8  UNL     1     -34.062  16.361  -2.293  1.00 20.00     0.005 C 
BRANCH   6   7
HETATM    7  C4  UNL     1     -34.600  16.608  -0.917  1.00 20.00    -0.014 A 
HETATM    8  C2  UNL     1     -34.066  17.743  -0.087  1.00 20.00     0.005 A 
HETATM    9  C3  UNL     1     -35.460  17.812  -0.646  1.00 20.00     0.005 A 
ENDBRANCH   6   7
ENDBRANCH   5   6
ENDBRANCH   1   5
BRANCH   1  10
HETATM   10  C11 UNL     1     -35.251  14.414  -5.332  1.00 20.00    -0.012 C 
HETATM   11  C6  UNL     1     -34.499  15.100  -6.477  1.00 20.00     0.010 C 
HETATM   12  C7  UNL     1     -34.496  13.151  -4.903  1.00 20.00     0.010 C 
ENDBRANCH   1  10
TORSDOF 5
ENDMDL
MODEL 5
REMARK VINA RESULT:      -4.4     10.790     12.193
REMARK  5 active torsions:
REMARK  status: ('A' for Active; 'I' for Inactive)
REMARK    1  A    between atoms: C1_1  and  C10_10 
REMARK    2  A    between atoms: C4_4  and  C8_8 
REMARK    3  A    between atoms: C8_8  and  C9_9 
REMARK    4  A    between atoms: C9_9  and  C10_10 
REMARK    5  A    between atoms: C10_10  and  C11_11 
ROOT
HETATM    1  C10 UNL     1     -35.281  15.684  -3.781  1.00 20.00     0.058 C 
ENDROOT
BRANCH   1   2
HETATM    2  C1  UNL     1     -35.910  14.303  -3.993  1.00 20.00     0.127 C 
HETATM    3  C5  UNL     1     -34.987  13.198  -4.442  1.00 20.00     0.091 C 
HETATM    4  O12 UNL     1     -37.111  14.093  -3.832  1.00 20.00    -0.298 OA
ENDBRANCH   1   2
BRANCH   1   5
HETATM    5  C9  UNL     1     -33.916  15.568  -3.074  1.00 20.00     0.013 C 
BRANCH   5   6
HETATM    6  C8  UNL     1     -33.732  16.634  -1.986  1.00 20.00     0.005 C 
BRANCH   6   7
HETATM    7  C4  UNL     1     -34.893  16.665  -1.040  1.00 20.00    -0.014 A 
HETATM    8  C2  UNL     1     -34.767  17.350   0.292  1.00 20.00     0.005 A 
HETATM    9  C3  UNL     1     -35.625  17.953  -0.785  1.00 20.00     0.005 A 
ENDBRANCH   6   7
ENDBRANCH   5   6
ENDBRANCH   1   5
BRANCH   1  10
HETATM   10  C11 UNL     1     -35.232  16.439  -5.136  1.00 20.00    -0.012 C 
HETATM   11  C6  UNL     1     -35.855  17.837  -5.084  1.00 20.00     0.010 C 
HETATM   12  C7  UNL     1     -33.799  16.531  -5.670  1.00 20.00     0.010 C 
ENDBRANCH   1  10
TORSDOF 5
ENDMDL
MODEL 6
REMARK VINA RESULT:      -4.4     10.715     12.515
REMARK  5 active torsions:
REMARK  status: ('A' for Active; 'I' for Inactive)
REMARK    1  A    between atoms: C1_1  and  C10_10 
REMARK    2  A    between atoms: C4_4  and  C8_8 
REMARK    3  A    between atoms: C8_8  and  C9_9 
REMARK    4  A    between atoms: C9_9  and  C10_10 
REMARK    5  A    between atoms: C10_10  and  C11_11 
ROOT
HETATM    1  C10 UNL     1     -34.297  15.708  -4.419  1.00 20.00     0.058 C 
ENDROOT
BRANCH   1   2
HETATM    2  C1  UNL     1     -34.006  16.339  -5.785  1.00 20.00     0.127 C 
HETATM    3  C5  UNL     1     -33.677  17.811  -5.797  1.00 20.00     0.091 C 
HETATM    4  O12 UNL     1     -34.055  15.696  -6.833  1.00 20.00    -0.298 OA
ENDBRANCH   1   2
BRANCH   1   5
HETATM    5  C9  UNL     1     -35.718  16.060  -3.937  1.00 20.00     0.013 C 
BRANCH   5   6
HETATM    6  C8  UNL     1     -35.706  16.955  -2.691  1.00 20.00     0.005 C 
BRANCH   6   7
HETATM    7  C4  UNL     1     -34.743  16.451  -1.659  1.00 20.00    -0.014 A 
HETATM    8  C2  UNL     1     -33.634  17.337  -1.162  1.00 20.00     0.005 A 
HETATM    9  C3  UNL     1     -34.785  16.994  -0.258  1.00 20.00     0.005 A 
ENDBRANCH   6   7
ENDBRANCH   5   6
ENDBRANCH   1   5
BRANCH   1  10
HETATM   10  C11 UNL     1     -34.009  14.184  -4.487  1.00 20.00    -0.012 C 
HETATM   11  C6  UNL     1     -32.949  13.713  -3.487  1.00 20.00     0.010 C 
HETATM   12  C7  UNL     1     -35.292  13.367  -4.303  1.00 20.00     0.010 C 
ENDBRANCH   1  10
TORSDOF 5
ENDMDL
MODEL 7
REMARK VINA RESULT:      -4.1     10.401     12.288
REMARK  5 active torsions:
REMARK  status: ('A' for Active; 'I' for Inactive)
REMARK    1  A    between atoms: C1_1  and  C10_10 
REMARK    2  A    between atoms: C4_4  and  C8_8 
REMARK    3  A    between atoms: C8_8  and  C9_9 
REMARK    4  A    between atoms: C9_9  and  C10_10 
REMARK    5  A    between atoms: C10_10  and  C11_11 
ROOT
HETATM    1  C10 UNL     1     -34.537  16.129  -3.397  1.00 20.00     0.058 C 
ENDROOT
BRANCH   1   2
HETATM    2  C1  UNL     1     -34.340  16.810  -2.039  1.00 20.00     0.127 C 
HETATM    3  C5  UNL     1     -33.718  18.184  -2.051  1.00 20.00     0.091 C 
HETATM    4  O12 UNL     1     -34.648  16.268  -0.978  1.00 20.00    -0.298 OA
ENDBRANCH   1   2
BRANCH   1   5
HETATM    5  C9  UNL     1     -33.208  16.044  -4.172  1.00 20.00     0.013 C 
BRANCH   5   6
HETATM    6  C8  UNL     1     -33.291  16.720  -5.547  1.00 20.00     0.005 C 
BRANCH   6   7
HETATM    7  C4  UNL     1     -34.549  16.348  -6.271  1.00 20.00    -0.014 A 
HETATM    8  C2  UNL     1     -34.719  16.700  -7.723  1.00 20.00     0.005 A 
HETATM    9  C3  UNL     1     -34.528  15.266  -7.315  1.00 20.00     0.005 A 
ENDBRANCH   6   7
ENDBRANCH   5   6
ENDBRANCH   1   5
BRANCH   1  10
HETATM   10  C11 UNL     1     -35.240  14.761  -3.188  1.00 20.00    -0.012 C 
HETATM   11  C6  UNL     1     -36.649  14.695  -3.786  1.00 20.00     0.010 C 
HETATM   12  C7  UNL     1     -34.391  13.611  -3.738  1.00 20.00     0.010 C 
ENDBRANCH   1  10
TORSDOF 5
ENDMDL
MODEL 8
REMARK VINA RESULT:      -4.1      1.543      2.786
REMARK  5 active torsions:
REMARK  status: ('A' for Active; 'I' for Inactive)
REMARK    1  A    between atoms: C1_1  and  C10_10 
REMARK    2  A    between atoms: C4_4  and  C8_8 
REMARK    3  A    between atoms: C8_8  and  C9_9 
REMARK    4  A    between atoms: C9_9  and  C10_10 
REMARK    5  A    between atoms: C10_10  and  C11_11 
ROOT
HETATM    1  C10 UNL     1     -33.732   5.647   4.673  1.00 20.00     0.058 C 
ENDROOT
BRANCH   1   2
HETATM    2  C1  UNL     1     -34.988   4.920   4.180  1.00 20.00     0.127 C 
HETATM    3  C5  UNL     1     -36.019   5.756   3.463  1.00 20.00     0.091 C 
HETATM    4  O12 UNL     1     -35.172   3.719   4.369  1.00 20.00    -0.298 OA
ENDBRANCH   1   2
BRANCH   1   5
HETATM    5  C9  UNL     1     -33.526   6.974   3.917  1.00 20.00     0.013 C 
BRANCH   5   6
HETATM    6  C8  UNL     1     -32.563   6.826   2.732  1.00 20.00     0.005 C 
BRANCH   6   7
HETATM    7  C4  UNL     1     -31.895   8.125   2.398  1.00 20.00    -0.014 A 
HETATM    8  C2  UNL     1     -31.636   8.496   0.964  1.00 20.00     0.005 A 
HETATM    9  C3  UNL     1     -32.680   9.234   1.754  1.00 20.00     0.005 A 
ENDBRANCH   6   7
ENDBRANCH   5   6
ENDBRANCH   1   5
BRANCH   1  10
HETATM   10  C11 UNL     1     -33.801   5.800   6.216  1.00 20.00    -0.012 C 
HETATM   11  C6  UNL     1     -33.666   7.248   6.698  1.00 20.00     0.010 C 
HETATM   12  C7  UNL     1     -35.088   5.187   6.778  1.00 20.00     0.010 C 
ENDBRANCH   1  10
TORSDOF 5
ENDMDL
MODEL 9
REMARK VINA RESULT:      -4.1     10.553     12.397
REMARK  5 active torsions:
REMARK  status: ('A' for Active; 'I' for Inactive)
REMARK    1  A    between atoms: C1_1  and  C10_10 
REMARK    2  A    between atoms: C4_4  and  C8_8 
REMARK    3  A    between atoms: C8_8  and  C9_9 
REMARK    4  A    between atoms: C9_9  and  C10_10 
REMARK    5  A    between atoms: C10_10  and  C11_11 
ROOT
HETATM    1  C10 UNL     1     -34.697  16.066  -3.214  1.00 20.00     0.058 C 
ENDROOT
BRANCH   1   2
HETATM    2  C1  UNL     1     -34.397  16.778  -1.891  1.00 20.00     0.127 C 
HETATM    3  C5  UNL     1     -33.674  18.100  -1.980  1.00 20.00     0.091 C 
HETATM    4  O12 UNL     1     -34.703  16.301  -0.800  1.00 20.00    -0.298 OA
ENDBRANCH   1   2
BRANCH   1   5
HETATM    5  C9  UNL     1     -34.244  16.916  -4.417  1.00 20.00     0.013 C 
BRANCH   5   6
HETATM    6  C8  UNL     1     -35.260  16.887  -5.566  1.00 20.00     0.005 C 
BRANCH   6   7
HETATM    7  C4  UNL     1     -34.616  16.504  -6.864  1.00 20.00    -0.014 A 
HETATM    8  C2  UNL     1     -34.265  15.068  -7.140  1.00 20.00     0.005 A 
HETATM    9  C3  UNL     1     -35.390  15.724  -7.891  1.00 20.00     0.005 A 
ENDBRANCH   6   7
ENDBRANCH   5   6
ENDBRANCH   1   5
BRANCH   1  10
HETATM   10  C11 UNL     1     -34.085  14.640  -3.179  1.00 20.00    -0.012 C 
HETATM   11  C6  UNL     1     -34.908  13.598  -3.943  1.00 20.00     0.010 C 
HETATM   12  C7  UNL     1     -32.643  14.640  -3.696  1.00 20.00     0.010 C 
ENDBRANCH   1  10
TORSDOF 5
ENDMDL
